# generated using pymatgen
data_ZnH12C12(N3O2)2
_symmetry_space_group_name_H-M   'P 1'
_cell_length_a   9.52310000
_cell_length_b   18.57220000
_cell_length_c   18.64330000
_cell_angle_alpha   90.42950000
_cell_angle_beta   90.09200000
_cell_angle_gamma   89.90840000
_symmetry_Int_Tables_number   1
_chemical_formula_structural   ZnH12C12(N3O2)2
_chemical_formula_sum   'Zn4 H48 C48 N24 O16'
_cell_volume   3297.24467781
_cell_formula_units_Z   4
loop_
 _symmetry_equiv_pos_site_id
 _symmetry_equiv_pos_as_xyz
  1  'x, y, z'
loop_
 _atom_site_type_symbol
 _atom_site_label
 _atom_site_symmetry_multiplicity
 _atom_site_fract_x
 _atom_site_fract_y
 _atom_site_fract_z
 _atom_site_occupancy
  Zn  Zn0  1  0.39401000  0.99885000  0.49379000  1.0
  Zn  Zn1  1  0.66512000  0.98927000  0.50249000  1.0
  Zn  Zn2  1  0.60602000  0.49332000  0.99919000  1.0
  Zn  Zn3  1  0.33487000  0.50205000  0.98970000  1.0
  H  H4  1  0.82054000  0.88673000  0.36172000  1.0
  H  H5  1  0.88219000  0.86287000  0.27911000  1.0
  H  H6  1  0.84550000  0.76991000  0.17784000  1.0
  H  H7  1  0.89763000  0.75398000  0.26105000  1.0
  H  H8  1  0.66614000  0.59607000  0.13078000  1.0
  H  H9  1  0.76259000  0.65737000  0.18848000  1.0
  H  H10  1  0.17061000  0.63716000  0.10062000  1.0
  H  H11  1  0.09400000  0.71027000  0.14269000  1.0
  H  H12  1  0.13259000  0.80791000  0.22904000  1.0
  H  H13  1  0.09360000  0.72387000  0.25144000  1.0
  H  H14  1  0.32542000  0.85710000  0.40120000  1.0
  H  H15  1  0.22886000  0.79988000  0.33991000  1.0
  H  H16  1  0.82922000  0.09971000  0.63778000  1.0
  H  H17  1  0.90593000  0.14173000  0.71074000  1.0
  H  H18  1  0.86693000  0.22807000  0.80868000  1.0
  H  H19  1  0.90620000  0.25066000  0.72500000  1.0
  H  H20  1  0.67414000  0.40077000  0.85767000  1.0
  H  H21  1  0.77068000  0.33936000  0.80057000  1.0
  H  H22  1  0.17928000  0.36070000  0.88754000  1.0
  H  H23  1  0.11849000  0.27748000  0.86447000  1.0
  H  H24  1  0.15494000  0.17591000  0.77091000  1.0
  H  H25  1  0.10206000  0.25946000  0.75588000  1.0
  H  H26  1  0.33339000  0.12984000  0.59727000  1.0
  H  H27  1  0.23697000  0.18730000  0.65879000  1.0
  H  H28  1  0.75559000  0.12419000  0.41340000  1.0
  H  H29  1  0.84554000  0.19807000  0.38393000  1.0
  H  H30  1  0.85607000  0.29139000  0.29053000  1.0
  H  H31  1  0.89573000  0.20590000  0.27503000  1.0
  H  H32  1  0.73472000  0.34591000  0.10824000  1.0
  H  H33  1  0.79955000  0.28241000  0.17275000  1.0
  H  H34  1  0.24469000  0.41242000  0.12358000  1.0
  H  H35  1  0.15465000  0.38325000  0.19732000  1.0
  H  H36  1  0.14416000  0.28997000  0.29092000  1.0
  H  H37  1  0.10505000  0.27399000  0.20577000  1.0
  H  H38  1  0.26618000  0.10751000  0.34628000  1.0
  H  H39  1  0.20142000  0.17180000  0.28254000  1.0
  H  H40  1  0.20402000  0.90353000  0.63003000  1.0
  H  H41  1  0.11638000  0.87117000  0.70387000  1.0
  H  H42  1  0.13434000  0.79237000  0.80548000  1.0
  H  H43  1  0.10046000  0.76372000  0.72305000  1.0
  H  H44  1  0.29863000  0.61148000  0.86429000  1.0
  H  H45  1  0.21613000  0.67703000  0.80595000  1.0
  H  H46  1  0.79559000  0.63031000  0.90441000  1.0
  H  H47  1  0.88256000  0.70476000  0.87261000  1.0
  H  H48  1  0.86492000  0.80632000  0.79278000  1.0
  H  H49  1  0.89954000  0.72326000  0.76538000  1.0
  H  H50  1  0.70141000  0.86399000  0.61217000  1.0
  H  H51  1  0.78393000  0.80595000  0.67796000  1.0
  C  C52  1  0.45498000  0.90314000  0.59874000  1.0
  C  C53  1  0.57596000  0.89200000  0.40328000  1.0
  C  C54  1  0.50337000  0.09123000  0.39733000  1.0
  C  C55  1  0.58346000  0.09359000  0.59596000  1.0
  C  C56  1  0.49719000  0.39647000  0.09120000  1.0
  C  C57  1  0.41645000  0.59534000  0.09419000  1.0
  C  C58  1  0.54481000  0.59859000  0.90378000  1.0
  C  C59  1  0.42364000  0.40262000  0.89264000  1.0
  C  C60  1  0.55170000  0.67264000  0.18151000  1.0
  C  C61  1  0.29513000  0.68715000  0.17395000  1.0
  C  C62  1  0.30011000  0.73693000  0.23037000  1.0
  C  C63  1  0.43078000  0.75991000  0.26110000  1.0
  C  C64  1  0.43888000  0.80795000  0.32324000  1.0
  C  C65  1  0.69482000  0.81779000  0.30682000  1.0
  C  C66  1  0.68917000  0.76442000  0.25401000  1.0
  C  C67  1  0.55876000  0.73313000  0.23157000  1.0
  C  C68  1  0.42062000  0.65135000  0.14983000  1.0
  C  C69  1  0.57042000  0.83872000  0.34508000  1.0
  C  C70  1  0.56074000  0.32243000  0.80879000  1.0
  C  C71  1  0.30492000  0.30565000  0.81883000  1.0
  C  C72  1  0.31058000  0.25273000  0.76558000  1.0
  C  C73  1  0.44094000  0.23044000  0.73419000  1.0
  C  C74  1  0.44797000  0.18044000  0.67372000  1.0
  C  C75  1  0.70462000  0.17303000  0.68795000  1.0
  C  C76  1  0.69960000  0.22941000  0.73783000  1.0
  C  C77  1  0.56890000  0.26012000  0.76085000  1.0
  C  C78  1  0.42922000  0.34420000  0.83955000  1.0
  C  C79  1  0.57914000  0.14896000  0.65219000  1.0
  C  C80  1  0.59074000  0.30241000  0.17524000  1.0
  C  C81  1  0.33751000  0.33019000  0.17626000  1.0
  C  C82  1  0.31539000  0.27458000  0.22485000  1.0
  C  C83  1  0.43025000  0.23485000  0.25430000  1.0
  C  C84  1  0.41004000  0.17477000  0.30286000  1.0
  C  C85  1  0.66305000  0.17635000  0.33094000  1.0
  C  C86  1  0.68528000  0.22478000  0.27525000  1.0
  C  C87  1  0.57048000  0.25398000  0.23534000  1.0
  C  C88  1  0.47584000  0.34280000  0.14728000  1.0
  C  C89  1  0.52479000  0.14719000  0.34351000  1.0
  C  C90  1  0.42752000  0.68387000  0.81794000  1.0
  C  C91  1  0.68465000  0.68883000  0.83233000  1.0
  C  C92  1  0.69138000  0.74117000  0.77918000  1.0
  C  C93  1  0.56707000  0.76855000  0.74508000  1.0
  C  C94  1  0.57242000  0.81769000  0.68439000  1.0
  C  C95  1  0.31513000  0.83154000  0.68872000  1.0
  C  C96  1  0.30844000  0.77841000  0.74108000  1.0
  C  C97  1  0.43284000  0.74459000  0.76874000  1.0
  C  C98  1  0.55275000  0.65669000  0.85126000  1.0
  C  C99  1  0.44710000  0.85071000  0.65688000  1.0
  N  N100  1  0.82596000  0.84790000  0.32279000  1.0
  N  N101  1  0.82196000  0.74245000  0.22373000  1.0
  N  N102  1  0.67151000  0.63627000  0.16789000  1.0
  N  N103  1  0.16502000  0.66966000  0.14486000  1.0
  N  N104  1  0.16714000  0.76359000  0.25631000  1.0
  N  N105  1  0.32029000  0.82025000  0.36085000  1.0
  N  N106  1  0.83472000  0.14395000  0.67036000  1.0
  N  N107  1  0.83249000  0.25541000  0.76449000  1.0
  N  N108  1  0.67922000  0.36032000  0.82091000  1.0
  N  N109  1  0.17380000  0.32145000  0.84902000  1.0
  N  N110  1  0.17782000  0.22223000  0.74383000  1.0
  N  N111  1  0.32801000  0.16674000  0.63763000  1.0
  N  N112  1  0.77986000  0.15674000  0.37160000  1.0
  N  N113  1  0.82819000  0.24649000  0.26166000  1.0
  N  N114  1  0.71946000  0.30640000  0.14488000  1.0
  N  N115  1  0.22055000  0.37068000  0.15630000  1.0
  N  N116  1  0.17244000  0.26084000  0.24636000  1.0
  N  N117  1  0.28151000  0.14408000  0.30674000  1.0
  N  N118  1  0.19029000  0.86273000  0.66564000  1.0
  N  N119  1  0.16910000  0.75918000  0.76507000  1.0
  N  N120  1  0.30176000  0.65286000  0.82911000  1.0
  N  N121  1  0.80947000  0.66606000  0.86378000  1.0
  N  N122  1  0.83076000  0.76530000  0.76011000  1.0
  N  N123  1  0.69837000  0.82912000  0.65377000  1.0
  O  O124  1  0.34144000  0.93264000  0.57179000  1.0
  O  O125  1  0.57603000  0.92073000  0.57378000  1.0
  O  O126  1  0.69650000  0.91422000  0.42913000  1.0
  O  O127  1  0.46050000  0.91733000  0.42903000  1.0
  O  O128  1  0.61198000  0.06286000  0.42697000  1.0
  O  O129  1  0.37747000  0.06997000  0.41581000  1.0
  O  O130  1  0.46860000  0.07437000  0.56485000  1.0
  O  O131  1  0.70222000  0.06298000  0.57688000  1.0
  O  O132  1  0.62309000  0.41513000  0.07009000  1.0
  O  O133  1  0.38856000  0.42581000  0.06255000  1.0
  O  O134  1  0.29772000  0.57630000  0.06358000  1.0
  O  O135  1  0.53141000  0.56442000  0.07471000  1.0
  O  O136  1  0.42373000  0.57379000  0.92159000  1.0
  O  O137  1  0.65838000  0.57156000  0.93316000  1.0
  O  O138  1  0.53910000  0.42843000  0.91792000  1.0
  O  O139  1  0.30311000  0.42863000  0.91472000  1.0
