# generated using pymatgen
data_CdH6(C3O)4
_symmetry_space_group_name_H-M   'P 1'
_cell_length_a   4.07002000
_cell_length_b   7.28716000
_cell_length_c   31.71140000
_cell_angle_alpha   95.61000000
_cell_angle_beta   90.00000000
_cell_angle_gamma   89.99990000
_symmetry_Int_Tables_number   1
_chemical_formula_structural   CdH6(C3O)4
_chemical_formula_sum   'Cd4 H24 C48 O16'
_cell_volume   936.02004586
_cell_formula_units_Z   4
loop_
 _symmetry_equiv_pos_site_id
 _symmetry_equiv_pos_as_xyz
  1  'x, y, z'
loop_
 _atom_site_type_symbol
 _atom_site_label
 _atom_site_symmetry_multiplicity
 _atom_site_fract_x
 _atom_site_fract_y
 _atom_site_fract_z
 _atom_site_occupancy
  Cd  Cd0  1  0.12111000  0.25494000  0.98575000  1.0
  Cd  Cd1  1  0.62111000  0.24506000  0.51425000  1.0
  Cd  Cd2  1  0.87889000  0.74506000  0.01425000  1.0
  Cd  Cd3  1  0.37890000  0.75494000  0.48575000  1.0
  H  H4  1  0.38087000  0.04409000  0.87776000  1.0
  H  H5  1  0.88088000  0.45591000  0.62224000  1.0
  H  H6  1  0.61912000  0.95591000  0.12224000  1.0
  H  H7  1  0.11913000  0.54409000  0.37776000  1.0
  H  H8  1  0.63180000  0.93924000  0.80801000  1.0
  H  H9  1  0.13180000  0.56076000  0.69199000  1.0
  H  H10  1  0.36821000  0.06076000  0.19199000  1.0
  H  H11  1  0.86821000  0.43924000  0.30801000  1.0
  H  H12  1  0.89706000  0.69618000  0.76085000  1.0
  H  H13  1  0.39707000  0.80382000  0.73915000  1.0
  H  H14  1  0.10293000  0.30382000  0.23915000  1.0
  H  H15  1  0.60293000  0.19618000  0.26084000  1.0
  H  H16  1  0.13341000  0.38037000  0.74845000  1.0
  H  H17  1  0.63342000  0.11962000  0.75155000  1.0
  H  H18  1  0.86657000  0.61963000  0.25155000  1.0
  H  H19  1  0.36658000  0.88037000  0.24845000  1.0
  H  H20  1  0.12316000  0.17160000  0.80598000  1.0
  H  H21  1  0.62316000  0.32840000  0.69402000  1.0
  H  H22  1  0.87684000  0.82840000  0.19402000  1.0
  H  H23  1  0.37684000  0.67160000  0.30598000  1.0
  H  H24  1  0.88236000  0.27395000  0.87537000  1.0
  H  H25  1  0.38236000  0.22605000  0.62464000  1.0
  H  H26  1  0.11764000  0.72605000  0.12464000  1.0
  H  H27  1  0.61765000  0.77395000  0.37537000  1.0
  C  C28  1  0.61027000  0.61272000  0.89887000  1.0
  C  C29  1  0.11027000  0.88728000  0.60113000  1.0
  C  C30  1  0.38973000  0.38728000  0.10113000  1.0
  C  C31  1  0.88973000  0.11273000  0.39887000  1.0
  C  C32  1  0.47707000  0.78960000  0.90495000  1.0
  C  C33  1  0.97708000  0.71040000  0.59505000  1.0
  C  C34  1  0.52292000  0.21040000  0.09505000  1.0
  C  C35  1  0.02292000  0.28960000  0.40495000  1.0
  C  C36  1  0.48414000  0.90630000  0.87155000  1.0
  C  C37  1  0.98415000  0.59370000  0.62845000  1.0
  C  C38  1  0.51586000  0.09370000  0.12845000  1.0
  C  C39  1  0.01586000  0.40630000  0.37155000  1.0
  C  C40  1  0.62217000  0.84755000  0.83318000  1.0
  C  C41  1  0.12218000  0.65245000  0.66682000  1.0
  C  C42  1  0.37783000  0.15246000  0.16682000  1.0
  C  C43  1  0.87783000  0.34755000  0.33318000  1.0
  C  C44  1  0.75506000  0.66745000  0.82552000  1.0
  C  C45  1  0.25507000  0.83255000  0.67447000  1.0
  C  C46  1  0.24494000  0.33256000  0.17447000  1.0
  C  C47  1  0.74493000  0.16745000  0.32552000  1.0
  C  C48  1  0.89442000  0.60344000  0.78584000  1.0
  C  C49  1  0.39443000  0.89656000  0.71416000  1.0
  C  C50  1  0.10558000  0.39657000  0.21416000  1.0
  C  C51  1  0.60557000  0.10344000  0.28584000  1.0
  C  C52  1  0.02442000  0.42842000  0.77895000  1.0
  C  C53  1  0.52443000  0.07158000  0.72105000  1.0
  C  C54  1  0.97558000  0.57158000  0.22105000  1.0
  C  C55  1  0.47558000  0.92842000  0.27895000  1.0
  C  C56  1  0.01817000  0.30953000  0.81159000  1.0
  C  C57  1  0.51817000  0.19047000  0.68841000  1.0
  C  C58  1  0.98183000  0.69047000  0.18841000  1.0
  C  C59  1  0.48183000  0.80953000  0.31159000  1.0
  C  C60  1  0.88274000  0.36695000  0.85051000  1.0
  C  C61  1  0.38274000  0.13305000  0.64949000  1.0
  C  C62  1  0.11726000  0.63305000  0.14949000  1.0
  C  C63  1  0.61726000  0.86695000  0.35051000  1.0
  C  C64  1  0.74855000  0.54707000  0.85873000  1.0
  C  C65  1  0.24855000  0.95293000  0.64126000  1.0
  C  C66  1  0.25145000  0.45293000  0.14127000  1.0
  C  C67  1  0.75145000  0.04707000  0.35874000  1.0
  C  C68  1  0.60847000  0.47976000  0.93244000  1.0
  C  C69  1  0.10847000  0.02025000  0.56756000  1.0
  C  C70  1  0.39153000  0.52024000  0.06756000  1.0
  C  C71  1  0.89153000  0.97975000  0.43244000  1.0
  C  C72  1  0.31242000  0.86425000  0.94487000  1.0
  C  C73  1  0.81242000  0.63574000  0.55513000  1.0
  C  C74  1  0.68757000  0.13574000  0.05513000  1.0
  C  C75  1  0.18758000  0.36426000  0.44487000  1.0
  O  O76  1  0.82588000  0.50129000  0.96192000  1.0
  O  O77  1  0.32588000  0.99871000  0.53808000  1.0
  O  O78  1  0.17412000  0.49871000  0.03808000  1.0
  O  O79  1  0.67412000  0.00129000  0.46192000  1.0
  O  O80  1  0.40954000  0.34717000  0.92816000  1.0
  O  O81  1  0.90954000  0.15283000  0.57184000  1.0
  O  O82  1  0.59047000  0.65283000  0.07184000  1.0
  O  O83  1  0.09047000  0.84717000  0.42816000  1.0
  O  O84  1  0.37575000  0.79604000  0.98017000  1.0
  O  O85  1  0.87577000  0.70396000  0.51983000  1.0
  O  O86  1  0.62424000  0.20396000  0.01983000  1.0
  O  O87  1  0.12424000  0.29605000  0.48017000  1.0
  O  O88  1  0.10173000  0.99138000  0.94258000  1.0
  O  O89  1  0.60174000  0.50862000  0.55742000  1.0
  O  O90  1  0.89826000  0.00862000  0.05742000  1.0
  O  O91  1  0.39827000  0.49138000  0.44258000  1.0
