# generated using pymatgen
data_AlH8C13N2O7
_symmetry_space_group_name_H-M   'P 1'
_cell_length_a   6.63172000
_cell_length_b   11.10920000
_cell_length_c   15.19902269
_cell_angle_alpha   87.87225807
_cell_angle_beta   77.83189697
_cell_angle_gamma   72.96680000
_symmetry_Int_Tables_number   1
_chemical_formula_structural   AlH8C13N2O7
_chemical_formula_sum   'Al2 H16 C26 N4 O14'
_cell_volume   1046.22443930
_cell_formula_units_Z   2
loop_
 _symmetry_equiv_pos_site_id
 _symmetry_equiv_pos_as_xyz
  1  'x, y, z'
loop_
 _atom_site_type_symbol
 _atom_site_label
 _atom_site_symmetry_multiplicity
 _atom_site_fract_x
 _atom_site_fract_y
 _atom_site_fract_z
 _atom_site_occupancy
  Al  Al0  1  0.00925000  0.47339000  0.50224000  1.0
  Al  Al1  1  0.50518000  0.47850000  0.50288000  1.0
  H  H2  1  0.15143000  0.61134000  0.57503000  1.0
  H  H3  1  0.84604000  0.32350000  0.45840000  1.0
  H  H4  1  0.28872000  0.61011000  0.76853000  1.0
  H  H5  1  0.64054000  0.57201000  0.23880000  1.0
  H  H6  1  0.11325000  0.42753000  0.22490000  1.0
  H  H7  1  0.19525000  0.44443000  0.05694000  1.0
  H  H8  1  0.93693000  0.39125000  0.77850000  1.0
  H  H9  1  0.83663000  0.40286000  0.94639000  1.0
  H  H10  1  0.45456000  0.74363000  0.36198000  1.0
  H  H11  1  0.23545000  0.86289000  0.25831000  1.0
  H  H12  1  0.21253000  0.21331000  0.37745000  1.0
  H  H13  1  0.11574000  0.09869000  0.26552000  1.0
  H  H14  1  0.14821000  0.69615000  0.00497000  1.0
  H  H15  1  0.08029000  0.72559000  0.90401000  1.0
  H  H16  1  0.80093000  0.60566000  0.99883000  1.0
  H  H17  1  0.85126000  0.61827000  0.10207000  1.0
  C  C18  1  0.66351000  0.70083000  0.48899000  1.0
  C  C19  1  0.66699000  0.48759000  0.66463000  1.0
  C  C20  1  0.35780000  0.24958000  0.51351000  1.0
  C  C21  1  0.34000000  0.48154000  0.34023000  1.0
  C  C22  1  0.61629000  0.49894000  0.76447000  1.0
  C  C23  1  0.37316000  0.49917000  0.24125000  1.0
  C  C24  1  0.40940000  0.56716000  0.80828000  1.0
  C  C25  1  0.35735000  0.58397000  0.90213000  1.0
  C  C26  1  0.54008000  0.54708000  0.19843000  1.0
  C  C27  1  0.58260000  0.56230000  0.10477000  1.0
  C  C28  1  0.24248000  0.46529000  0.19085000  1.0
  C  C29  1  0.28821000  0.47606000  0.09771000  1.0
  C  C30  1  0.77525000  0.44338000  0.81350000  1.0
  C  C31  1  0.71891000  0.45220000  0.90693000  1.0
  C  C32  1  0.51179000  0.52092000  0.95295000  1.0
  C  C33  1  0.45761000  0.52225000  0.05281000  1.0
  C  C34  1  0.59491000  0.84233000  0.49063000  1.0
  C  C35  1  0.46016000  0.90936000  0.43209000  1.0
  C  C36  1  0.65052000  0.90787000  0.55259000  1.0
  C  C37  1  0.40241000  0.84606000  0.36612000  1.0
  C  C38  1  0.27876000  0.91327000  0.30825000  1.0
  C  C39  1  0.43453000  0.10796000  0.50731000  1.0
  C  C40  1  0.56290000  0.03979000  0.56361000  1.0
  C  C41  1  0.38517000  0.04457000  0.43844000  1.0
  C  C42  1  0.26344000  0.11083000  0.37575000  1.0
  C  C43  1  0.21034000  0.04633000  0.31264000  1.0
  N  N44  1  0.15255000  0.65890000  0.94423000  1.0
  N  N45  1  0.73884000  0.61852000  0.06598000  1.0
  N  N46  1  0.60286000  0.10547000  0.63777000  1.0
  N  N47  1  0.78474000  0.83643000  0.61516000  1.0
  O  O48  1  0.86354000  0.64472000  0.47614000  1.0
  O  O49  1  0.52040000  0.47400000  0.62686000  1.0
  O  O50  1  0.50514000  0.30391000  0.50002000  1.0
  O  O51  1  0.17269000  0.45056000  0.37963000  1.0
  O  O52  1  0.15670000  0.30110000  0.52535000  1.0
  O  O53  1  0.48402000  0.49665000  0.37905000  1.0
  O  O54  1  0.51194000  0.65045000  0.50232000  1.0
  O  O55  1  0.85225000  0.49473000  0.62423000  1.0
  O  O56  1  0.20959000  0.53394000  0.53860000  1.0
  O  O57  1  0.80427000  0.41449000  0.46562000  1.0
  O  O58  1  0.45048000  0.19179000  0.67781000  1.0
  O  O59  1  0.78563000  0.06856000  0.65474000  1.0
  O  O60  1  0.98222000  0.80436000  0.58793000  1.0
  O  O61  1  0.68578000  0.81218000  0.68877000  1.0
