# generated using pymatgen
data_CdP2H20(C4O3)4
_symmetry_space_group_name_H-M   'P 1'
_cell_length_a   4.61463000
_cell_length_b   5.82083000
_cell_length_c   18.56670000
_cell_angle_alpha   83.31740000
_cell_angle_beta   89.11280000
_cell_angle_gamma   86.23700000
_symmetry_Int_Tables_number   1
_chemical_formula_structural   CdP2H20(C4O3)4
_chemical_formula_sum   'Cd1 P2 H20 C16 O12'
_cell_volume   494.24801515
_cell_formula_units_Z   1
loop_
 _symmetry_equiv_pos_site_id
 _symmetry_equiv_pos_as_xyz
  1  'x, y, z'
loop_
 _atom_site_type_symbol
 _atom_site_label
 _atom_site_symmetry_multiplicity
 _atom_site_fract_x
 _atom_site_fract_y
 _atom_site_fract_z
 _atom_site_occupancy
  Cd  Cd0  1  0.00001000  0.00001000  0.50000000  1.0
  P  P1  1  0.49373000  0.10458000  0.62823000  1.0
  P  P2  1  0.50629000  0.89544000  0.37177000  1.0
  H  H3  1  0.90604000  0.27385000  0.62424000  1.0
  H  H4  1  0.09397000  0.72617000  0.37576000  1.0
  H  H5  1  0.41368000  0.66561000  0.01915000  1.0
  H  H6  1  0.58632000  0.33436000  0.98085000  1.0
  H  H7  1  0.24362000  0.50782000  0.55264000  1.0
  H  H8  1  0.75641000  0.49220000  0.44736000  1.0
  H  H9  1  0.44778000  0.71780000  0.55929000  1.0
  H  H10  1  0.55223000  0.28222000  0.44070000  1.0
  H  H11  1  0.22115000  0.11510000  0.73737000  1.0
  H  H12  1  0.77887000  0.88491000  0.26263000  1.0
  H  H13  1  0.22316000  0.84389000  0.70375000  1.0
  H  H14  1  0.77684000  0.15613000  0.29625000  1.0
  H  H15  1  0.69501000  0.57019000  0.72105000  1.0
  H  H16  1  0.30500000  0.42983000  0.27894000  1.0
  H  H17  1  0.05981000  0.41320000  0.81457000  1.0
  H  H18  1  0.94019000  0.58680000  0.18543000  1.0
  H  H19  1  0.90648000  0.02297000  0.92343000  1.0
  H  H20  1  0.09349000  0.97700000  0.07658000  1.0
  H  H21  1  0.53774000  0.17891000  0.83200000  1.0
  H  H22  1  0.46224000  0.82108000  0.16801000  1.0
  C  C23  1  0.36353000  0.98018000  0.71570000  1.0
  C  C24  1  0.63647000  0.01984000  0.28430000  1.0
  C  C25  1  0.59265000  0.88635000  0.76977000  1.0
  C  C26  1  0.40735000  0.11366000  0.23023000  1.0
  C  C27  1  0.74136000  0.67008000  0.76521000  1.0
  C  C28  1  0.25864000  0.32993000  0.23479000  1.0
  C  C29  1  0.94641000  0.58223000  0.81707000  1.0
  C  C30  1  0.05358000  0.41777000  0.18293000  1.0
  C  C31  1  0.00710000  0.70903000  0.87419000  1.0
  C  C32  1  0.99288000  0.29096000  0.12581000  1.0
  C  C33  1  0.86061000  0.92567000  0.87871000  1.0
  C  C34  1  0.13937000  0.07431000  0.12129000  1.0
  C  C35  1  0.65525000  0.01291000  0.82679000  1.0
  C  C36  1  0.34474000  0.98708000  0.17321000  1.0
  C  C37  1  0.22450000  0.61276000  0.92909000  1.0
  C  C38  1  0.77550000  0.38720000  0.07091000  1.0
  O  O39  1  0.22119000  0.21800000  0.58735000  1.0
  O  O40  1  0.77883000  0.78201000  0.41265000  1.0
  O  O41  1  0.70040000  0.30144000  0.64293000  1.0
  O  O42  1  0.29962000  0.69856000  0.35707000  1.0
  O  O43  1  0.66345000  0.91870000  0.59003000  1.0
  O  O44  1  0.33656000  0.08131000  0.40997000  1.0
  O  O45  1  0.36665000  0.42448000  0.92406000  1.0
  O  O46  1  0.63332000  0.57550000  0.07595000  1.0
  O  O47  1  0.25417000  0.73905000  0.98275000  1.0
  O  O48  1  0.74584000  0.26092000  0.01725000  1.0
  O  O49  1  0.27741000  0.67062000  0.53406000  1.0
  O  O50  1  0.72260000  0.32939000  0.46594000  1.0
