# generated using pymatgen
data_CdH28C21N4O5
_symmetry_space_group_name_H-M   'P 1'
_cell_length_a   8.73829000
_cell_length_b   14.20860000
_cell_length_c   22.60380000
_cell_angle_alpha   89.99990000
_cell_angle_beta   85.25640000
_cell_angle_gamma   89.99980000
_symmetry_Int_Tables_number   1
_chemical_formula_structural   CdH28C21N4O5
_chemical_formula_sum   'Cd4 H112 C84 N16 O20'
_cell_volume   2796.84935876
_cell_formula_units_Z   4
loop_
 _symmetry_equiv_pos_site_id
 _symmetry_equiv_pos_as_xyz
  1  'x, y, z'
loop_
 _atom_site_type_symbol
 _atom_site_label
 _atom_site_symmetry_multiplicity
 _atom_site_fract_x
 _atom_site_fract_y
 _atom_site_fract_z
 _atom_site_occupancy
  Cd  Cd0  1  0.74810000  0.14343000  0.99622000  1.0
  Cd  Cd1  1  0.75190000  0.64343000  0.50378000  1.0
  Cd  Cd2  1  0.25190000  0.85657000  0.00378000  1.0
  Cd  Cd3  1  0.24810000  0.35657000  0.49622000  1.0
  H  H4  1  0.65997000  0.94037000  0.01356000  1.0
  H  H5  1  0.84004000  0.44037000  0.48644000  1.0
  H  H6  1  0.34003000  0.05963000  0.98644000  1.0
  H  H7  1  0.15997000  0.55963000  0.51356000  1.0
  H  H8  1  0.83844000  0.93921000  0.98802000  1.0
  H  H9  1  0.66156000  0.43921000  0.51198000  1.0
  H  H10  1  0.16156000  0.06079000  0.01198000  1.0
  H  H11  1  0.33844000  0.56079000  0.48802000  1.0
  H  H12  1  0.91491000  0.99442000  0.90198000  1.0
  H  H13  1  0.58509000  0.49443000  0.59802000  1.0
  H  H14  1  0.08509000  0.00557000  0.09802000  1.0
  H  H15  1  0.41491000  0.50557000  0.40198000  1.0
  H  H16  1  0.10222000  0.99174000  0.81236000  1.0
  H  H17  1  0.39778000  0.49175000  0.68764000  1.0
  H  H18  1  0.89778000  0.00825000  0.18764000  1.0
  H  H19  1  0.60222000  0.50825000  0.31236000  1.0
  H  H20  1  0.09030000  0.29443000  0.81173000  1.0
  H  H21  1  0.40970000  0.79443000  0.68827000  1.0
  H  H22  1  0.90970000  0.70557000  0.18827000  1.0
  H  H23  1  0.59031000  0.20557000  0.31173000  1.0
  H  H24  1  0.89836000  0.28559000  0.90161000  1.0
  H  H25  1  0.60164000  0.78560000  0.59839000  1.0
  H  H26  1  0.10164000  0.71440000  0.09839000  1.0
  H  H27  1  0.39837000  0.21440000  0.40161000  1.0
  H  H28  1  0.25303000  0.07151000  0.73677000  1.0
  H  H29  1  0.24698000  0.57151000  0.76323000  1.0
  H  H30  1  0.74697000  0.92849000  0.26323000  1.0
  H  H31  1  0.75303000  0.42849000  0.23677000  1.0
  H  H32  1  0.14650000  0.16703000  0.71039000  1.0
  H  H33  1  0.35350000  0.66702000  0.78962000  1.0
  H  H34  1  0.85350000  0.83297000  0.28961000  1.0
  H  H35  1  0.64650000  0.33297000  0.21038000  1.0
  H  H36  1  0.33073000  0.25958000  0.66369000  1.0
  H  H37  1  0.16926000  0.75958000  0.83631000  1.0
  H  H38  1  0.66927000  0.74042000  0.33631000  1.0
  H  H39  1  0.83074000  0.24042000  0.16369000  1.0
  H  H40  1  0.46503000  0.16646000  0.67044000  1.0
  H  H41  1  0.03496000  0.66645000  0.82957000  1.0
  H  H42  1  0.53497000  0.83355000  0.32956000  1.0
  H  H43  1  0.96504000  0.33355000  0.17043000  1.0
  H  H44  1  0.60047000  0.31811000  0.65463000  1.0
  H  H45  1  0.89952000  0.81810000  0.84537000  1.0
  H  H46  1  0.39952000  0.68190000  0.34537000  1.0
  H  H47  1  0.10048000  0.18190000  0.15463000  1.0
  H  H48  1  0.48884000  0.36919000  0.71611000  1.0
  H  H49  1  0.01116000  0.86919000  0.78390000  1.0
  H  H50  1  0.51116000  0.63081000  0.28390000  1.0
  H  H51  1  0.98884000  0.13081000  0.21610000  1.0
  H  H52  1  0.50206000  0.10802000  0.77265000  1.0
  H  H53  1  0.99794000  0.60802000  0.72735000  1.0
  H  H54  1  0.49794000  0.89198000  0.22735000  1.0
  H  H55  1  0.00206000  0.39198000  0.27265000  1.0
  H  H56  1  0.39133000  0.16005000  0.83412000  1.0
  H  H57  1  0.10868000  0.66005000  0.66589000  1.0
  H  H58  1  0.60867000  0.83995000  0.16588000  1.0
  H  H59  1  0.89133000  0.33995000  0.33411000  1.0
  H  H60  1  0.52682000  0.31079000  0.81835000  1.0
  H  H61  1  0.97318000  0.81079000  0.68165000  1.0
  H  H62  1  0.47318000  0.68921000  0.18165000  1.0
  H  H63  1  0.02682000  0.18921000  0.31835000  1.0
  H  H64  1  0.66152000  0.21793000  0.82491000  1.0
  H  H65  1  0.83849000  0.71793000  0.67509000  1.0
  H  H66  1  0.33848000  0.78207000  0.17509000  1.0
  H  H67  1  0.16152000  0.28207000  0.32491000  1.0
  H  H68  1  0.84135000  0.31429000  0.77987000  1.0
  H  H69  1  0.65864000  0.81429000  0.72013000  1.0
  H  H70  1  0.15864000  0.68571000  0.22013000  1.0
  H  H71  1  0.34136000  0.18571000  0.27987000  1.0
  H  H72  1  0.73165000  0.40798000  0.75329000  1.0
  H  H73  1  0.76835000  0.90797000  0.74671000  1.0
  H  H74  1  0.26835000  0.59203000  0.24671000  1.0
  H  H75  1  0.23165000  0.09203000  0.25329000  1.0
  H  H76  1  0.09107000  0.20466000  0.58453000  1.0
  H  H77  1  0.40893000  0.70465000  0.91548000  1.0
  H  H78  1  0.90893000  0.79535000  0.41548000  1.0
  H  H79  1  0.59107000  0.29534000  0.08452000  1.0
  H  H80  1  0.89487000  0.19020000  0.67273000  1.0
  H  H81  1  0.60513000  0.69019000  0.82727000  1.0
  H  H82  1  0.10513000  0.80981000  0.32727000  1.0
  H  H83  1  0.39487000  0.30980000  0.17273000  1.0
  H  H84  1  0.89967000  0.49241000  0.68545000  1.0
  H  H85  1  0.60032000  0.99241000  0.81455000  1.0
  H  H86  1  0.10032000  0.50759000  0.31455000  1.0
  H  H87  1  0.39967000  0.00759000  0.18545000  1.0
  H  H88  1  0.09168000  0.49531000  0.59748000  1.0
  H  H89  1  0.40832000  0.99531000  0.90252000  1.0
  H  H90  1  0.90832000  0.50469000  0.40252000  1.0
  H  H91  1  0.59168000  0.00469000  0.09748000  1.0
  H  H92  1  0.23910000  0.20108000  0.93154000  1.0
  H  H93  1  0.26090000  0.70108000  0.56846000  1.0
  H  H94  1  0.76090000  0.79892000  0.06846000  1.0
  H  H95  1  0.73910000  0.29892000  0.43154000  1.0
  H  H96  1  0.34063000  0.30017000  0.90069000  1.0
  H  H97  1  0.15937000  0.80017000  0.59930000  1.0
  H  H98  1  0.65937000  0.69983000  0.09930000  1.0
  H  H99  1  0.84063000  0.19983000  0.40070000  1.0
  H  H100  1  0.33775000  0.36877000  0.00501000  1.0
  H  H101  1  0.16225000  0.86876000  0.49499000  1.0
  H  H102  1  0.66225000  0.63123000  0.99499000  1.0
  H  H103  1  0.83775000  0.13124000  0.50501000  1.0
  H  H104  1  0.15759000  0.36573000  0.97451000  1.0
  H  H105  1  0.34241000  0.86573000  0.52549000  1.0
  H  H106  1  0.84241000  0.63427000  0.02548000  1.0
  H  H107  1  0.65759000  0.13428000  0.47451000  1.0
  H  H108  1  0.25755000  0.21213000  0.05862000  1.0
  H  H109  1  0.24244000  0.71213000  0.44138000  1.0
  H  H110  1  0.74244000  0.78786000  0.94138000  1.0
  H  H111  1  0.75756000  0.28787000  0.55862000  1.0
  H  H112  1  0.15364000  0.31468000  0.08251000  1.0
  H  H113  1  0.34635000  0.81468000  0.41749000  1.0
  H  H114  1  0.84635000  0.68532000  0.91749000  1.0
  H  H115  1  0.65365000  0.18532000  0.58251000  1.0
  C  C116  1  0.95283000  0.05958000  0.87990000  1.0
  C  C117  1  0.54717000  0.55958000  0.62010000  1.0
  C  C118  1  0.04717000  0.94041000  0.12010000  1.0
  C  C119  1  0.45283000  0.44041000  0.37990000  1.0
  C  C120  1  0.05748000  0.05858000  0.82998000  1.0
  C  C121  1  0.44252000  0.55859000  0.67002000  1.0
  C  C122  1  0.94252000  0.94141000  0.17002000  1.0
  C  C123  1  0.55748000  0.44141000  0.32998000  1.0
  C  C124  1  0.10604000  0.14314000  0.80324000  1.0
  C  C125  1  0.39396000  0.64314000  0.69676000  1.0
  C  C126  1  0.89396000  0.85686000  0.19676000  1.0
  C  C127  1  0.60604000  0.35686000  0.30324000  1.0
  C  C128  1  0.04992000  0.22679000  0.82970000  1.0
  C  C129  1  0.45007000  0.72679000  0.67030000  1.0
  C  C130  1  0.95007000  0.77321000  0.17030000  1.0
  C  C131  1  0.54993000  0.27321000  0.32970000  1.0
  C  C132  1  0.94530000  0.22234000  0.87949000  1.0
  C  C133  1  0.55469000  0.72234000  0.62051000  1.0
  C  C134  1  0.05469000  0.77766000  0.12051000  1.0
  C  C135  1  0.44531000  0.27766000  0.37949000  1.0
  C  C136  1  0.21255000  0.14436000  0.74730000  1.0
  C  C137  1  0.28745000  0.64436000  0.75270000  1.0
  C  C138  1  0.78745000  0.85564000  0.25270000  1.0
  C  C139  1  0.71255000  0.35564000  0.24730000  1.0
  C  C140  1  0.41524000  0.23098000  0.69230000  1.0
  C  C141  1  0.08475000  0.73098000  0.80770000  1.0
  C  C142  1  0.58476000  0.76902000  0.30770000  1.0
  C  C143  1  0.91524000  0.26902000  0.19230000  1.0
  C  C144  1  0.54172000  0.30265000  0.69839000  1.0
  C  C145  1  0.95827000  0.80264000  0.80161000  1.0
  C  C146  1  0.45827000  0.69736000  0.30161000  1.0
  C  C147  1  0.04173000  0.19735000  0.19839000  1.0
  C  C148  1  0.45014000  0.17495000  0.79027000  1.0
  C  C149  1  0.04986000  0.67495000  0.70974000  1.0
  C  C150  1  0.54986000  0.82505000  0.20973000  1.0
  C  C151  1  0.95014000  0.32505000  0.29027000  1.0
  C  C152  1  0.57685000  0.24643000  0.79633000  1.0
  C  C153  1  0.92315000  0.74643000  0.70367000  1.0
  C  C154  1  0.42315000  0.75357000  0.20367000  1.0
  C  C155  1  0.07685000  0.25357000  0.29633000  1.0
  C  C156  1  0.77626000  0.33608000  0.74250000  1.0
  C  C157  1  0.72374000  0.83607000  0.75750000  1.0
  C  C158  1  0.22374000  0.66393000  0.25750000  1.0
  C  C159  1  0.27626000  0.16393000  0.24250000  1.0
  C  C160  1  0.04683000  0.26633000  0.60917000  1.0
  C  C161  1  0.45318000  0.76632000  0.89083000  1.0
  C  C162  1  0.95317000  0.73368000  0.39083000  1.0
  C  C163  1  0.54683000  0.23367000  0.10917000  1.0
  C  C164  1  0.93956000  0.25869000  0.65799000  1.0
  C  C165  1  0.56044000  0.75869000  0.84201000  1.0
  C  C166  1  0.06044000  0.74132000  0.34201000  1.0
  C  C167  1  0.43956000  0.24131000  0.15799000  1.0
  C  C168  1  0.88598000  0.34045000  0.68754000  1.0
  C  C169  1  0.61401000  0.84045000  0.81246000  1.0
  C  C170  1  0.11401000  0.65956000  0.31246000  1.0
  C  C171  1  0.38599000  0.15955000  0.18754000  1.0
  C  C172  1  0.94134000  0.42663000  0.66520000  1.0
  C  C173  1  0.55866000  0.92663000  0.83480000  1.0
  C  C174  1  0.05866000  0.57337000  0.33480000  1.0
  C  C175  1  0.44134000  0.07337000  0.16520000  1.0
  C  C176  1  0.04873000  0.42874000  0.61620000  1.0
  C  C177  1  0.45127000  0.92874000  0.88380000  1.0
  C  C178  1  0.95127000  0.57126000  0.38380000  1.0
  C  C179  1  0.54873000  0.07126000  0.11620000  1.0
  C  C180  1  0.47198000  0.21564000  0.95547000  1.0
  C  C181  1  0.02802000  0.71564000  0.54453000  1.0
  C  C182  1  0.52802000  0.78436000  0.04453000  1.0
  C  C183  1  0.97198000  0.28436000  0.45547000  1.0
  C  C184  1  0.31866000  0.25782000  0.94127000  1.0
  C  C185  1  0.18133000  0.75782000  0.55873000  1.0
  C  C186  1  0.68134000  0.74218000  0.05873000  1.0
  C  C187  1  0.81867000  0.24218000  0.44127000  1.0
  C  C188  1  0.24774000  0.32144000  0.99122000  1.0
  C  C189  1  0.25226000  0.82144000  0.50878000  1.0
  C  C190  1  0.75226000  0.67855000  0.00878000  1.0
  C  C191  1  0.74774000  0.17856000  0.49122000  1.0
  C  C192  1  0.17715000  0.26588000  0.04506000  1.0
  C  C193  1  0.32285000  0.76588000  0.45494000  1.0
  C  C194  1  0.82285000  0.73412000  0.95494000  1.0
  C  C195  1  0.67715000  0.23412000  0.54506000  1.0
  C  C196  1  0.02521000  0.21950000  0.03330000  1.0
  C  C197  1  0.47479000  0.71950000  0.46670000  1.0
  C  C198  1  0.97479000  0.78051000  0.96670000  1.0
  C  C199  1  0.52521000  0.28050000  0.53330000  1.0
  N  N200  1  0.89621000  0.14013000  0.90395000  1.0
  N  N201  1  0.60379000  0.64013000  0.59605000  1.0
  N  N202  1  0.10379000  0.85987000  0.09605000  1.0
  N  N203  1  0.39622000  0.35987000  0.40395000  1.0
  N  N204  1  0.33886000  0.21002000  0.75078000  1.0
  N  N205  1  0.16113000  0.71002000  0.74922000  1.0
  N  N206  1  0.66114000  0.78998000  0.24922000  1.0
  N  N207  1  0.83887000  0.28998000  0.25078000  1.0
  N  N208  1  0.65338000  0.26826000  0.73798000  1.0
  N  N209  1  0.84661000  0.76826000  0.76202000  1.0
  N  N210  1  0.34661000  0.73174000  0.26202000  1.0
  N  N211  1  0.15339000  0.23174000  0.23798000  1.0
  N  N212  1  0.10159000  0.34990000  0.58875000  1.0
  N  N213  1  0.39842000  0.84989000  0.91125000  1.0
  N  N214  1  0.89841000  0.65011000  0.41125000  1.0
  N  N215  1  0.60159000  0.15010000  0.08875000  1.0
  O  O216  1  0.48500000  0.12563000  0.95895000  1.0
  O  O217  1  0.01500000  0.62563000  0.54105000  1.0
  O  O218  1  0.51500000  0.87437000  0.04105000  1.0
  O  O219  1  0.98500000  0.37437000  0.45895000  1.0
  O  O220  1  0.58239000  0.27047000  0.96387000  1.0
  O  O221  1  0.91760000  0.77047000  0.53613000  1.0
  O  O222  1  0.41761000  0.72953000  0.03613000  1.0
  O  O223  1  0.08240000  0.22953000  0.46387000  1.0
  O  O224  1  0.01457000  0.12927000  0.03420000  1.0
  O  O225  1  0.48543000  0.62927000  0.46580000  1.0
  O  O226  1  0.98543000  0.87073000  0.96579000  1.0
  O  O227  1  0.51457000  0.37073000  0.53420000  1.0
  O  O228  1  0.91330000  0.27171000  0.02234000  1.0
  O  O229  1  0.58669000  0.77171000  0.47766000  1.0
  O  O230  1  0.08669000  0.72829000  0.97766000  1.0
  O  O231  1  0.41331000  0.22829000  0.52234000  1.0
  O  O232  1  0.74842000  0.98116000  0.99884000  1.0
  O  O233  1  0.75159000  0.48116000  0.50116000  1.0
  O  O234  1  0.25158000  0.01884000  0.00116000  1.0
  O  O235  1  0.24841000  0.51884000  0.49884000  1.0
