# generated using pymatgen
data_NiH5(CO)5
_symmetry_space_group_name_H-M   'P 1'
_cell_length_a   12.35220000
_cell_length_b   13.11650000
_cell_length_c   19.18080000
_cell_angle_alpha   89.97950000
_cell_angle_beta   89.98860000
_cell_angle_gamma   68.45200000
_symmetry_Int_Tables_number   1
_chemical_formula_structural   NiH5(CO)5
_chemical_formula_sum   'Ni16 H80 C80 O80'
_cell_volume   2890.43611235
_cell_formula_units_Z   16
loop_
 _symmetry_equiv_pos_site_id
 _symmetry_equiv_pos_as_xyz
  1  'x, y, z'
loop_
 _atom_site_type_symbol
 _atom_site_label
 _atom_site_symmetry_multiplicity
 _atom_site_fract_x
 _atom_site_fract_y
 _atom_site_fract_z
 _atom_site_occupancy
  Ni  Ni0  1  0.71313000  0.18186000  0.56160000  1.0
  Ni  Ni1  1  0.28714000  0.31744000  0.06093000  1.0
  Ni  Ni2  1  0.28786000  0.81709000  0.43878000  1.0
  Ni  Ni3  1  0.71273000  0.68121000  0.93860000  1.0
  Ni  Ni4  1  0.79748000  0.31738000  0.46143000  1.0
  Ni  Ni5  1  0.20170000  0.18308000  0.96233000  1.0
  Ni  Ni6  1  0.20159000  0.68225000  0.53832000  1.0
  Ni  Ni7  1  0.79827000  0.81693000  0.03796000  1.0
  Ni  Ni8  1  0.47130000  0.20266000  0.94797000  1.0
  Ni  Ni9  1  0.52970000  0.29766000  0.44804000  1.0
  Ni  Ni10  1  0.52994000  0.79745000  0.05198000  1.0
  Ni  Ni11  1  0.47058000  0.70279000  0.55152000  1.0
  Ni  Ni12  1  0.97683000  0.21923000  0.57923000  1.0
  Ni  Ni13  1  0.02207000  0.28022000  0.07949000  1.0
  Ni  Ni14  1  0.02323000  0.78072000  0.42075000  1.0
  Ni  Ni15  1  0.97700000  0.72000000  0.92099000  1.0
  H  H16  1  0.46936000  0.19472000  0.72789000  1.0
  H  H17  1  0.53062000  0.30544000  0.22775000  1.0
  H  H18  1  0.53071000  0.80519000  0.27206000  1.0
  H  H19  1  0.46947000  0.69415000  0.77225000  1.0
  H  H20  1  0.22853000  0.31750000  0.55793000  1.0
  H  H21  1  0.77174000  0.18203000  0.05799000  1.0
  H  H22  1  0.77159000  0.68238000  0.44202000  1.0
  H  H23  1  0.22854000  0.81818000  0.94200000  1.0
  H  H24  1  0.09962000  0.30317000  0.76562000  1.0
  H  H25  1  0.90030000  0.19673000  0.26569000  1.0
  H  H26  1  0.90045000  0.69688000  0.23435000  1.0
  H  H27  1  0.09974000  0.80361000  0.73436000  1.0
  H  H28  1  0.98493000  0.51450000  0.62825000  1.0
  H  H29  1  0.01550000  0.98489000  0.12846000  1.0
  H  H30  1  0.01504000  0.48531000  0.37173000  1.0
  H  H31  1  0.98506000  0.01552000  0.87200000  1.0
  H  H32  1  0.05630000  0.44102000  0.55237000  1.0
  H  H33  1  0.94403000  0.05839000  0.05258000  1.0
  H  H34  1  0.94377000  0.55887000  0.44760000  1.0
  H  H35  1  0.05654000  0.94145000  0.94769000  1.0
  H  H36  1  0.97040000  0.20304000  0.79790000  1.0
  H  H37  1  0.02955000  0.29677000  0.29769000  1.0
  H  H38  1  0.02963000  0.79699000  0.20230000  1.0
  H  H39  1  0.97028000  0.70311000  0.70216000  1.0
  H  H40  1  0.60632000  0.28313000  0.75435000  1.0
  H  H41  1  0.39365000  0.21710000  0.25429000  1.0
  H  H42  1  0.39376000  0.71722000  0.24554000  1.0
  H  H43  1  0.60613000  0.78343000  0.74567000  1.0
  H  H44  1  0.72157000  0.29001000  0.96598000  1.0
  H  H45  1  0.27812000  0.21035000  0.46592000  1.0
  H  H46  1  0.27811000  0.71036000  0.03401000  1.0
  H  H47  1  0.72158000  0.79003000  0.53403000  1.0
  H  H48  1  0.55062000  0.43855000  0.95203000  1.0
  H  H49  1  0.44927000  0.06194000  0.45198000  1.0
  H  H50  1  0.44910000  0.56189000  0.04799000  1.0
  H  H51  1  0.55058000  0.93875000  0.54795000  1.0
  H  H52  1  0.47263000  0.48889000  0.87297000  1.0
  H  H53  1  0.52703000  0.01189000  0.37284000  1.0
  H  H54  1  0.52657000  0.51181000  0.12722000  1.0
  H  H55  1  0.47233000  0.98909000  0.62691000  1.0
  H  H56  1  0.76062000  0.97825000  0.55047000  1.0
  H  H57  1  0.23978000  0.52141000  0.05098000  1.0
  H  H58  1  0.23914000  0.02140000  0.44901000  1.0
  H  H59  1  0.76061000  0.47751000  0.94970000  1.0
  H  H60  1  0.74987000  0.00175000  0.63068000  1.0
  H  H61  1  0.25277000  0.49585000  0.13090000  1.0
  H  H62  1  0.25014000  0.99716000  0.36892000  1.0
  H  H63  1  0.74944000  0.50136000  0.86953000  1.0
  H  H64  1  0.64206000  0.44956000  0.38725000  1.0
  H  H65  1  0.35712000  0.05149000  0.88801000  1.0
  H  H66  1  0.35747000  0.55089000  0.61219000  1.0
  H  H67  1  0.64215000  0.94909000  0.11219000  1.0
  H  H68  1  0.73664000  0.50478000  0.38667000  1.0
  H  H69  1  0.26135000  0.99784000  0.88586000  1.0
  H  H70  1  0.26234000  0.49643000  0.61421000  1.0
  H  H71  1  0.73669000  0.00430000  0.11310000  1.0
  H  H72  1  0.61787000  0.39929000  0.53441000  1.0
  H  H73  1  0.38214000  0.10123000  0.03461000  1.0
  H  H74  1  0.38251000  0.60067000  0.46558000  1.0
  H  H75  1  0.61813000  0.89856000  0.96520000  1.0
  H  H76  1  0.11815000  0.01477000  0.62168000  1.0
  H  H77  1  0.88214000  0.48401000  0.12196000  1.0
  H  H78  1  0.88218000  0.98502000  0.37821000  1.0
  H  H79  1  0.11777000  0.51578000  0.87822000  1.0
  H  H80  1  0.18707000  0.06600000  0.56997000  1.0
  H  H81  1  0.81219000  0.43340000  0.07068000  1.0
  H  H82  1  0.81282000  0.93404000  0.42979000  1.0
  H  H83  1  0.18718000  0.56650000  0.92983000  1.0
  H  H84  1  0.61199000  0.03836000  0.88248000  1.0
  H  H85  1  0.38828000  0.46184000  0.38258000  1.0
  H  H86  1  0.38868000  0.96169000  0.11737000  1.0
  H  H87  1  0.61123000  0.53867000  0.61734000  1.0
  H  H88  1  0.67943000  0.05065000  0.95091000  1.0
  H  H89  1  0.32102000  0.44925000  0.45100000  1.0
  H  H90  1  0.32135000  0.94929000  0.04896000  1.0
  H  H91  1  0.67925000  0.55071000  0.54909000  1.0
  H  H92  1  0.90590000  0.11006000  0.48881000  1.0
  H  H93  1  0.09423000  0.38879000  0.98811000  1.0
  H  H94  1  0.09477000  0.88922000  0.51148000  1.0
  H  H95  1  0.90662000  0.61085000  0.01171000  1.0
  C  C96  1  0.38022000  0.22909000  0.70877000  1.0
  C  C97  1  0.61980000  0.27093000  0.20870000  1.0
  C  C98  1  0.61984000  0.77086000  0.29117000  1.0
  C  C99  1  0.38032000  0.72881000  0.79131000  1.0
  C  C100  1  0.35876000  0.25464000  0.63788000  1.0
  C  C101  1  0.64142000  0.24516000  0.13786000  1.0
  C  C102  1  0.64133000  0.74525000  0.36204000  1.0
  C  C103  1  0.35877000  0.75461000  0.86216000  1.0
  C  C104  1  0.24403000  0.29816000  0.61311000  1.0
  C  C105  1  0.75617000  0.20142000  0.11316000  1.0
  C  C106  1  0.75606000  0.70171000  0.38683000  1.0
  C  C107  1  0.24403000  0.79864000  0.88686000  1.0
  C  C108  1  0.15218000  0.31279000  0.65923000  1.0
  C  C109  1  0.84794000  0.18670000  0.15933000  1.0
  C  C110  1  0.84793000  0.68706000  0.34073000  1.0
  C  C111  1  0.15221000  0.81353000  0.84070000  1.0
  C  C112  1  0.17220000  0.29015000  0.73002000  1.0
  C  C113  1  0.82781000  0.20963000  0.23006000  1.0
  C  C114  1  0.82789000  0.70984000  0.26995000  1.0
  C  C115  1  0.17231000  0.79052000  0.76996000  1.0
  C  C116  1  0.28686000  0.24886000  0.75513000  1.0
  C  C117  1  0.71308000  0.25117000  0.25506000  1.0
  C  C118  1  0.71323000  0.75116000  0.24485000  1.0
  C  C119  1  0.28701000  0.74875000  0.74493000  1.0
  C  C120  1  0.99528000  0.44340000  0.59489000  1.0
  C  C121  1  0.00502000  0.05604000  0.09509000  1.0
  C  C122  1  0.00477000  0.55642000  0.40506000  1.0
  C  C123  1  0.99548000  0.94414000  0.90515000  1.0
  C  C124  1  0.87933000  0.45504000  0.56227000  1.0
  C  C125  1  0.12090000  0.04468000  0.06243000  1.0
  C  C126  1  0.12073000  0.54473000  0.43765000  1.0
  C  C127  1  0.87951000  0.95563000  0.93774000  1.0
  C  C128  1  0.30619000  0.22508000  0.83169000  1.0
  C  C129  1  0.69369000  0.27531000  0.33150000  1.0
  C  C130  1  0.69401000  0.77510000  0.16835000  1.0
  C  C131  1  0.30629000  0.72477000  0.66840000  1.0
  C  C132  1  0.45724000  0.23563000  0.58677000  1.0
  C  C133  1  0.54297000  0.26415000  0.08680000  1.0
  C  C134  1  0.54293000  0.76416000  0.41312000  1.0
  C  C135  1  0.45722000  0.73542000  0.91324000  1.0
  C  C136  1  0.85597000  0.24511000  0.88724000  1.0
  C  C137  1  0.14379000  0.25504000  0.38713000  1.0
  C  C138  1  0.14383000  0.75518000  0.11284000  1.0
  C  C139  1  0.85592000  0.74507000  0.61279000  1.0
  C  C140  1  0.88107000  0.22739000  0.81624000  1.0
  C  C141  1  0.11886000  0.27255000  0.31607000  1.0
  C  C142  1  0.11890000  0.77278000  0.18388000  1.0
  C  C143  1  0.88095000  0.72749000  0.68382000  1.0
  C  C144  1  0.79121000  0.24172000  0.76853000  1.0
  C  C145  1  0.20878000  0.25821000  0.26835000  1.0
  C  C146  1  0.20885000  0.75845000  0.23155000  1.0
  C  C147  1  0.79105000  0.74193000  0.73154000  1.0
  C  C148  1  0.67601000  0.27241000  0.79172000  1.0
  C  C149  1  0.32390000  0.22784000  0.29164000  1.0
  C  C150  1  0.32396000  0.72801000  0.20824000  1.0
  C  C151  1  0.67588000  0.77267000  0.70832000  1.0
  C  C152  1  0.65270000  0.28970000  0.86249000  1.0
  C  C153  1  0.34708000  0.21083000  0.36246000  1.0
  C  C154  1  0.34711000  0.71090000  0.13743000  1.0
  C  C155  1  0.65260000  0.78987000  0.63752000  1.0
  C  C156  1  0.74096000  0.27698000  0.91070000  1.0
  C  C157  1  0.25876000  0.22339000  0.41064000  1.0
  C  C158  1  0.25878000  0.72346000  0.08929000  1.0
  C  C159  1  0.74093000  0.77703000  0.58931000  1.0
  C  C160  1  0.48921000  0.42646000  0.91418000  1.0
  C  C161  1  0.51057000  0.07417000  0.41411000  1.0
  C  C162  1  0.51038000  0.57401000  0.08590000  1.0
  C  C163  1  0.48915000  0.92658000  0.58576000  1.0
  C  C164  1  0.37757000  0.44155000  0.95234000  1.0
  C  C165  1  0.62237000  0.05881000  0.45216000  1.0
  C  C166  1  0.62230000  0.55841000  0.04796000  1.0
  C  C167  1  0.37755000  0.94159000  0.54755000  1.0
  C  C168  1  0.95224000  0.23035000  0.93841000  1.0
  C  C169  1  0.04739000  0.26985000  0.43830000  1.0
  C  C170  1  0.04756000  0.76994000  0.06167000  1.0
  C  C171  1  0.95231000  0.73016000  0.56167000  1.0
  C  C172  1  0.81576000  0.22618000  0.69208000  1.0
  C  C173  1  0.18419000  0.27327000  0.19184000  1.0
  C  C174  1  0.18452000  0.77353000  0.30807000  1.0
  C  C175  1  0.81566000  0.72639000  0.80802000  1.0
  O  O176  1  0.03759000  0.34452000  0.63609000  1.0
  O  O177  1  0.96258000  0.15489000  0.13628000  1.0
  O  O178  1  0.96252000  0.65528000  0.36383000  1.0
  O  O179  1  0.03757000  0.84560000  0.86373000  1.0
  O  O180  1  0.81526000  0.54707000  0.53964000  1.0
  O  O181  1  0.18520000  0.95280000  0.03982000  1.0
  O  O182  1  0.18487000  0.45272000  0.46023000  1.0
  O  O183  1  0.81528000  0.04755000  0.96039000  1.0
  O  O184  1  0.85315000  0.36863000  0.55838000  1.0
  O  O185  1  0.14663000  0.13140000  0.05851000  1.0
  O  O186  1  0.14684000  0.63121000  0.44161000  1.0
  O  O187  1  0.85326000  0.86922000  0.94144000  1.0
  O  O188  1  0.21835000  0.26230000  0.87158000  1.0
  O  O189  1  0.78170000  0.23835000  0.37128000  1.0
  O  O190  1  0.78200000  0.73815000  0.12856000  1.0
  O  O191  1  0.21820000  0.76163000  0.62868000  1.0
  O  O192  1  0.40970000  0.16561000  0.85214000  1.0
  O  O193  1  0.59024000  0.33470000  0.35206000  1.0
  O  O194  1  0.59051000  0.83442000  0.14778000  1.0
  O  O195  1  0.40978000  0.66563000  0.64780000  1.0
  O  O196  1  0.55927000  0.17731000  0.60700000  1.0
  O  O197  1  0.44085000  0.32194000  0.10709000  1.0
  O  O198  1  0.44074000  0.82203000  0.39293000  1.0
  O  O199  1  0.55917000  0.67676000  0.89301000  1.0
  O  O200  1  0.42878000  0.28016000  0.52700000  1.0
  O  O201  1  0.57162000  0.22001000  0.02694000  1.0
  O  O202  1  0.57151000  0.71990000  0.47296000  1.0
  O  O203  1  0.42896000  0.78007000  0.97299000  1.0
  O  O204  1  0.92147000  0.19479000  0.67282000  1.0
  O  O205  1  0.07836000  0.30478000  0.17279000  1.0
  O  O206  1  0.07875000  0.80533000  0.32729000  1.0
  O  O207  1  0.92126000  0.69595000  0.82730000  1.0
  O  O208  1  0.72693000  0.24644000  0.65310000  1.0
  O  O209  1  0.27291000  0.25246000  0.15266000  1.0
  O  O210  1  0.27340000  0.75247000  0.34712000  1.0
  O  O211  1  0.72687000  0.74575000  0.84694000  1.0
  O  O212  1  0.05584000  0.18039000  0.91678000  1.0
  O  O213  1  0.94384000  0.32036000  0.41669000  1.0
  O  O214  1  0.94392000  0.82039000  0.08314000  1.0
  O  O215  1  0.05579000  0.67985000  0.58345000  1.0
  O  O216  1  0.92191000  0.26954000  0.99927000  1.0
  O  O217  1  0.07758000  0.23033000  0.49910000  1.0
  O  O218  1  0.07783000  0.73043000  0.00088000  1.0
  O  O219  1  0.92234000  0.76948000  0.50081000  1.0
  O  O220  1  0.53694000  0.31838000  0.88420000  1.0
  O  O221  1  0.46277000  0.18235000  0.38428000  1.0
  O  O222  1  0.46282000  0.68222000  0.11562000  1.0
  O  O223  1  0.53689000  0.81854000  0.61579000  1.0
  O  O224  1  0.31805000  0.53617000  0.97493000  1.0
  O  O225  1  0.68190000  0.96401000  0.47457000  1.0
  O  O226  1  0.68165000  0.46361000  0.02553000  1.0
  O  O227  1  0.31787000  0.03623000  0.52504000  1.0
  O  O228  1  0.34889000  0.35807000  0.96081000  1.0
  O  O229  1  0.65123000  0.14210000  0.46081000  1.0
  O  O230  1  0.65148000  0.64159000  0.03946000  1.0
  O  O231  1  0.34886000  0.85815000  0.53904000  1.0
  O  O232  1  0.79033000  0.01173000  0.58914000  1.0
  O  O233  1  0.21060000  0.48755000  0.08970000  1.0
  O  O234  1  0.20964000  0.98746000  0.41051000  1.0
  O  O235  1  0.79023000  0.51103000  0.91098000  1.0
  O  O236  1  0.69643000  0.46999000  0.41654000  1.0
  O  O237  1  0.30218000  0.03073000  0.91664000  1.0
  O  O238  1  0.30257000  0.53014000  0.58356000  1.0
  O  O239  1  0.69657000  0.96971000  0.08304000  1.0
  O  O240  1  0.64569000  0.32970000  0.50857000  1.0
  O  O241  1  0.35481000  0.16986000  0.00771000  1.0
  O  O242  1  0.35425000  0.66936000  0.49237000  1.0
  O  O243  1  0.64606000  0.82919000  0.99128000  1.0
  O  O244  1  0.12139000  0.08269000  0.60337000  1.0
  O  O245  1  0.87761000  0.41623000  0.10431000  1.0
  O  O246  1  0.87869000  0.91719000  0.39651000  1.0
  O  O247  1  0.12160000  0.58357000  0.89635000  1.0
  O  O248  1  0.60263000  0.04957000  0.93270000  1.0
  O  O249  1  0.39777000  0.45049000  0.43278000  1.0
  O  O250  1  0.39812000  0.95047000  0.06716000  1.0
  O  O251  1  0.60230000  0.54968000  0.56709000  1.0
  O  O252  1  0.86910000  0.17502000  0.51731000  1.0
  O  O253  1  0.12993000  0.32550000  0.01823000  1.0
  O  O254  1  0.13122000  0.82448000  0.48272000  1.0
  O  O255  1  0.86954000  0.67428000  0.98193000  1.0
