# generated using pymatgen
data_Mn2H6C10N4ClO5
_symmetry_space_group_name_H-M   'P 1'
_cell_length_a   6.46910000
_cell_length_b   7.29567000
_cell_length_c   12.89280000
_cell_angle_alpha   81.19770000
_cell_angle_beta   87.24060000
_cell_angle_gamma   74.30950000
_symmetry_Int_Tables_number   1
_chemical_formula_structural   Mn2H6C10N4ClO5
_chemical_formula_sum   'Mn4 H12 C20 N8 Cl2 O10'
_cell_volume   578.90518895
_cell_formula_units_Z   2
loop_
 _symmetry_equiv_pos_site_id
 _symmetry_equiv_pos_as_xyz
  1  'x, y, z'
loop_
 _atom_site_type_symbol
 _atom_site_label
 _atom_site_symmetry_multiplicity
 _atom_site_fract_x
 _atom_site_fract_y
 _atom_site_fract_z
 _atom_site_occupancy
  Mn  Mn0  1  0.50025000  0.50214000  0.00024000  1.0
  Mn  Mn1  1  0.81489000  0.35841000  0.78084000  1.0
  Mn  Mn2  1  0.18561000  0.64266000  0.22028000  1.0
  Mn  Mn3  1  0.99963000  0.99203000  0.49599000  1.0
  H  H4  1  0.30122000  0.86646000  0.82058000  1.0
  H  H5  1  0.69997000  0.13769000  0.17831000  1.0
  H  H6  1  0.44939000  0.12841000  0.72507000  1.0
  H  H7  1  0.55224000  0.87642000  0.27513000  1.0
  H  H8  1  0.96405000  0.96848000  0.93067000  1.0
  H  H9  1  0.03666000  0.03379000  0.07021000  1.0
  H  H10  1  0.77270000  0.56097000  0.54522000  1.0
  H  H11  1  0.22814000  0.43093000  0.45483000  1.0
  H  H12  1  0.49608000  0.83548000  0.45100000  1.0
  H  H13  1  0.50305000  0.14773000  0.54323000  1.0
  H  H14  1  0.31688000  0.45904000  0.77136000  1.0
  H  H15  1  0.68432000  0.54780000  0.23264000  1.0
  C  C16  1  0.44872000  0.88996000  0.84631000  1.0
  C  C17  1  0.55175000  0.11429000  0.15352000  1.0
  C  C18  1  0.53388000  0.03418000  0.79246000  1.0
  C  C19  1  0.46699000  0.97024000  0.20783000  1.0
  C  C20  1  0.81420000  0.94723000  0.90696000  1.0
  C  C21  1  0.18586000  0.05620000  0.09397000  1.0
  C  C22  1  0.72812000  0.80586000  0.96285000  1.0
  C  C23  1  0.27073000  0.19835000  0.03801000  1.0
  C  C24  1  0.83500000  0.67478000  0.05763000  1.0
  C  C25  1  0.16296000  0.32974000  0.94350000  1.0
  C  C26  1  0.60885000  0.59921000  0.57513000  1.0
  C  C27  1  0.39177000  0.39431000  0.42455000  1.0
  C  C28  1  0.45559000  0.75012000  0.52185000  1.0
  C  C29  1  0.54420000  0.23877000  0.47488000  1.0
  C  C30  1  0.20033000  0.68134000  0.64320000  1.0
  C  C31  1  0.79991000  0.31583000  0.35634000  1.0
  C  C32  1  0.35800000  0.53685000  0.69816000  1.0
  C  C33  1  0.64284000  0.46475000  0.30392000  1.0
  C  C34  1  0.96978000  0.72933000  0.67083000  1.0
  C  C35  1  0.03053000  0.26916000  0.32857000  1.0
  N  N36  1  0.54636000  0.77537000  0.93121000  1.0
  N  N37  1  0.45270000  0.22929000  0.06906000  1.0
  N  N38  1  0.71782000  0.06221000  0.82196000  1.0
  N  N39  1  0.28280000  0.94175000  0.17901000  1.0
  N  N40  1  0.56473000  0.49388000  0.66597000  1.0
  N  N41  1  0.43623000  0.50634000  0.33637000  1.0
  N  N42  1  0.24881000  0.79536000  0.55529000  1.0
  N  N43  1  0.75079000  0.19567000  0.44126000  1.0
  Cl  Cl44  1  0.05173000  0.23382000  0.64422000  1.0
  Cl  Cl45  1  0.94513000  0.76673000  0.35896000  1.0
  O  O46  1  0.80525000  0.50887000  0.07411000  1.0
  O  O47  1  0.19359000  0.49521000  0.92674000  1.0
  O  O48  1  0.94017000  0.74792000  0.11379000  1.0
  O  O49  1  0.05684000  0.25652000  0.88786000  1.0
  O  O50  1  0.85274000  0.87507000  0.60752000  1.0
  O  O51  1  0.14760000  0.11953000  0.38921000  1.0
  O  O52  1  0.89148000  0.64038000  0.74606000  1.0
  O  O53  1  0.10826000  0.36265000  0.25511000  1.0
  O  O54  1  0.62880000  0.42195000  0.88304000  1.0
  O  O55  1  0.37310000  0.58259000  0.11718000  1.0
