# generated using pymatgen
data_CuAg2H6WC10N4(O3F2)2
_symmetry_space_group_name_H-M   'P 1'
_cell_length_a   7.30206000
_cell_length_b   8.20935000
_cell_length_c   13.84540000
_cell_angle_alpha   89.99780000
_cell_angle_beta   93.55370000
_cell_angle_gamma   89.99970000
_symmetry_Int_Tables_number   1
_chemical_formula_structural   CuAg2H6WC10N4(O3F2)2
_chemical_formula_sum   'Cu2 Ag4 H12 W2 C20 N8 O12 F8'
_cell_volume   828.36890051
_cell_formula_units_Z   2
loop_
 _symmetry_equiv_pos_site_id
 _symmetry_equiv_pos_as_xyz
  1  'x, y, z'
loop_
 _atom_site_type_symbol
 _atom_site_label
 _atom_site_symmetry_multiplicity
 _atom_site_fract_x
 _atom_site_fract_y
 _atom_site_fract_z
 _atom_site_occupancy
  Cu  Cu0  1  0.00000000  0.00001000  0.00000000  1.0
  Cu  Cu1  1  0.50000000  0.49999000  0.50000000  1.0
  Ag  Ag2  1  0.54487000  0.31118000  0.99133000  1.0
  Ag  Ag3  1  0.95515000  0.81119000  0.50868000  1.0
  Ag  Ag4  1  0.45515000  0.68880000  0.00867000  1.0
  Ag  Ag5  1  0.04486000  0.18881000  0.49132000  1.0
  H  H6  1  0.30433000  0.20743000  0.30320000  1.0
  H  H7  1  0.19564000  0.70745000  0.19679000  1.0
  H  H8  1  0.69566000  0.79256000  0.69680000  1.0
  H  H9  1  0.80437000  0.29253000  0.80321000  1.0
  H  H10  1  0.75474000  0.09663000  0.33488000  1.0
  H  H11  1  0.74526000  0.59663000  0.16512000  1.0
  H  H12  1  0.24526000  0.90337000  0.66512000  1.0
  H  H13  1  0.25475000  0.40334000  0.83489000  1.0
  H  H14  1  0.72275000  0.99904000  0.16033000  1.0
  H  H15  1  0.77723000  0.49902000  0.33967000  1.0
  H  H16  1  0.27724000  0.00098000  0.83966000  1.0
  H  H17  1  0.22278000  0.50096000  0.66034000  1.0
  W  W18  1  0.00001000  0.50001000  0.00000000  1.0
  W  W19  1  0.50000000  0.00000000  0.50000000  1.0
  C  C20  1  0.30533000  0.11947000  0.10606000  1.0
  C  C21  1  0.19463000  0.61948000  0.39394000  1.0
  C  C22  1  0.69465000  0.88053000  0.89393000  1.0
  C  C23  1  0.80536000  0.38053000  0.60606000  1.0
  C  C24  1  0.85208000  0.04414000  0.19335000  1.0
  C  C25  1  0.64791000  0.54414000  0.30665000  1.0
  C  C26  1  0.14790000  0.95588000  0.80664000  1.0
  C  C27  1  0.35210000  0.45584000  0.69336000  1.0
  C  C28  1  0.17411000  0.16146000  0.27183000  1.0
  C  C29  1  0.32587000  0.66149000  0.22817000  1.0
  C  C30  1  0.82588000  0.83855000  0.72816000  1.0
  C  C31  1  0.67414000  0.33850000  0.77183000  1.0
  C  C32  1  0.86964000  0.10053000  0.28841000  1.0
  C  C33  1  0.63035000  0.60051000  0.21158000  1.0
  C  C34  1  0.13036000  0.89948000  0.71159000  1.0
  C  C35  1  0.36966000  0.39947000  0.78843000  1.0
  C  C36  1  0.15750000  0.10717000  0.17646000  1.0
  C  C37  1  0.34248000  0.60717000  0.32354000  1.0
  C  C38  1  0.84248000  0.89285000  0.82354000  1.0
  C  C39  1  0.65753000  0.39283000  0.67646000  1.0
  N  N40  1  0.99619000  0.04937000  0.13842000  1.0
  N  N41  1  0.50380000  0.54937000  0.36157000  1.0
  N  N42  1  0.00380000  0.95065000  0.86157000  1.0
  N  N43  1  0.49621000  0.45062000  0.63843000  1.0
  N  N44  1  0.02969000  0.15927000  0.32738000  1.0
  N  N45  1  0.47030000  0.65927000  0.17263000  1.0
  N  N46  1  0.97030000  0.84074000  0.67262000  1.0
  N  N47  1  0.52971000  0.34071000  0.82738000  1.0
  O  O48  1  0.26269000  0.06274000  0.02080000  1.0
  O  O49  1  0.23730000  0.56273000  0.47921000  1.0
  O  O50  1  0.73730000  0.93728000  0.97920000  1.0
  O  O51  1  0.76269000  0.43726000  0.52080000  1.0
  O  O52  1  0.45463000  0.18791000  0.13123000  1.0
  O  O53  1  0.04535000  0.68793000  0.36877000  1.0
  O  O54  1  0.54537000  0.81209000  0.86877000  1.0
  O  O55  1  0.95466000  0.31208000  0.63123000  1.0
  O  O56  1  0.24752000  0.46980000  0.99310000  1.0
  O  O57  1  0.25248000  0.96979000  0.50691000  1.0
  O  O58  1  0.75249000  0.53019000  0.00690000  1.0
  O  O59  1  0.74751000  0.03020000  0.49309000  1.0
  F  F60  1  0.04708000  0.71952000  0.04895000  1.0
  F  F61  1  0.45290000  0.21950000  0.45104000  1.0
  F  F62  1  0.95295000  0.28050000  0.95103000  1.0
  F  F63  1  0.54708000  0.78050000  0.54896000  1.0
  F  F64  1  0.01410000  0.42302000  0.13215000  1.0
  F  F65  1  0.48589000  0.92302000  0.36785000  1.0
  F  F66  1  0.98590000  0.57700000  0.86785000  1.0
  F  F67  1  0.51410000  0.07698000  0.63215000  1.0
