# generated using pymatgen
data_Zn4H9C28S2Cl4O13F
_symmetry_space_group_name_H-M   'P 1'
_cell_length_a   18.38350000
_cell_length_b   19.63604969
_cell_length_c   32.68490000
_cell_angle_alpha   78.73034150
_cell_angle_beta   73.68780000
_cell_angle_gamma   62.11027912
_symmetry_Int_Tables_number   1
_chemical_formula_structural   Zn4H9C28S2Cl4O13F
_chemical_formula_sum   'Zn16 H36 C112 S8 Cl16 O52 F4'
_cell_volume   9979.81814791
_cell_formula_units_Z   4
loop_
 _symmetry_equiv_pos_site_id
 _symmetry_equiv_pos_as_xyz
  1  'x, y, z'
loop_
 _atom_site_type_symbol
 _atom_site_label
 _atom_site_symmetry_multiplicity
 _atom_site_fract_x
 _atom_site_fract_y
 _atom_site_fract_z
 _atom_site_occupancy
  Zn  Zn0  1  0.57901000  0.54663000  0.48137000  1.0
  Zn  Zn1  1  0.47537000  0.47743000  0.56067000  1.0
  Zn  Zn2  1  0.54639000  0.40049000  0.47451000  1.0
  Zn  Zn3  1  0.39023000  0.56938000  0.48427000  1.0
  Zn  Zn4  1  0.19312000  0.18288000  0.26349000  1.0
  Zn  Zn5  1  0.17149000  0.35099000  0.27365000  1.0
  Zn  Zn6  1  0.28643000  0.26841000  0.18805000  1.0
  Zn  Zn7  1  0.34883000  0.20237000  0.27546000  1.0
  Zn  Zn8  1  0.77797000  0.75405000  0.68612000  1.0
  Zn  Zn9  1  0.84988000  0.68376000  0.77295000  1.0
  Zn  Zn10  1  0.67124000  0.70297000  0.77218000  1.0
  Zn  Zn11  1  0.70300000  0.85131000  0.77026000  1.0
  Zn  Zn12  1  0.07546000  0.90183000  0.97471000  1.0
  Zn  Zn13  1  0.88799000  0.04601000  0.98494000  1.0
  Zn  Zn14  1  0.05415000  0.06990000  0.97620000  1.0
  Zn  Zn15  1  0.98842000  0.98872000  0.06120000  1.0
  H  H16  1  0.25240000  0.95513000  0.33739000  1.0
  H  H17  1  0.70901000  0.96706000  0.59083000  1.0
  H  H18  1  0.98609000  0.44583000  0.37766000  1.0
  H  H19  1  0.93561000  0.49755000  0.33459000  1.0
  H  H20  1  0.79423000  0.54600000  0.38646000  1.0
  H  H21  1  0.84429000  0.49375000  0.42963000  1.0
  H  H22  1  0.97718000  0.65736000  0.57675000  1.0
  H  H23  1  0.97053000  0.75066000  0.57723000  1.0
  H  H24  1  0.11430000  0.71065000  0.52768000  1.0
  H  H25  1  0.12039000  0.61770000  0.52663000  1.0
  H  H26  1  0.69173000  0.75132000  0.57424000  1.0
  H  H27  1  0.78255000  0.66098000  0.57534000  1.0
  H  H28  1  0.73641000  0.61032000  0.52691000  1.0
  H  H29  1  0.64564000  0.70049000  0.52566000  1.0
  H  H30  1  0.46155000  0.20588000  0.36866000  1.0
  H  H31  1  0.50687000  0.25027000  0.32274000  1.0
  H  H32  1  0.55596000  0.30044000  0.37011000  1.0
  H  H33  1  0.51069000  0.25599000  0.41598000  1.0
  H  H34  1  0.16248000  0.66267000  0.03725000  1.0
  H  H35  1  0.97136000  0.09919000  0.16677000  1.0
  H  H36  1  0.05915000  0.00662000  0.16824000  1.0
  H  H37  1  0.10933000  0.05230000  0.21706000  1.0
  H  H38  1  0.02223000  0.14524000  0.21531000  1.0
  H  H39  1  0.62922000  0.19719000  0.03152000  1.0
  H  H40  1  0.62565000  0.10739000  0.03367000  1.0
  H  H41  1  0.48112000  0.16042000  0.08275000  1.0
  H  H42  1  0.48494000  0.24997000  0.08080000  1.0
  H  H43  1  0.74694000  0.29183000  0.91269000  1.0
  H  H44  1  0.72839000  0.00644000  0.93067000  1.0
  H  H45  1  0.77169000  0.05588000  0.88674000  1.0
  H  H46  1  0.72507000  0.01023000  0.83614000  1.0
  H  H47  1  0.67977000  0.96243000  0.88022000  1.0
  H  H48  1  0.32329000  0.74750000  0.91301000  1.0
  H  H49  1  0.27475000  0.79407000  0.86870000  1.0
  H  H50  1  0.41815000  0.74987000  0.81851000  1.0
  H  H51  1  0.46669000  0.70195000  0.86271000  1.0
  C  C52  1  0.56488000  0.56184000  0.57106000  1.0
  C  C53  1  0.55626000  0.31032000  0.55667000  1.0
  C  C54  1  0.70438000  0.41490000  0.43065000  1.0
  C  C55  1  0.40286000  0.45375000  0.43415000  1.0
  C  C56  1  0.45679000  0.68174000  0.43909000  1.0
  C  C57  1  0.29474000  0.57191000  0.57046000  1.0
  C  C58  1  0.03721000  0.30089000  0.31118000  1.0
  C  C59  1  0.18871000  0.43773000  0.19003000  1.0
  C  C60  1  0.20311000  0.18069000  0.17208000  1.0
  C  C61  1  0.46610000  0.18252000  0.19052000  1.0
  C  C62  1  0.31740000  0.06765000  0.31315000  1.0
  C  C63  1  0.28846000  0.33767000  0.32335000  1.0
  C  C64  1  0.95942000  0.67323000  0.68598000  1.0
  C  C65  1  0.78561000  0.56949000  0.81562000  1.0
  C  C66  1  0.67446000  0.67894000  0.68410000  1.0
  C  C67  1  0.54756000  0.83870000  0.81840000  1.0
  C  C68  1  0.70142000  0.92451000  0.68158000  1.0
  C  C69  1  0.83279000  0.80898000  0.81664000  1.0
  C  C70  1  0.94798000  0.91960000  0.92983000  1.0
  C  C71  1  0.90598000  0.18222000  0.93881000  1.0
  C  C72  1  0.20927000  0.94844000  0.93155000  1.0
  C  C73  1  0.08141000  0.07666000  0.05886000  1.0
  C  C74  1  0.06425000  0.81917000  0.06031000  1.0
  C  C75  1  0.80380000  0.06315000  0.07577000  1.0
  C  C76  1  0.47097000  0.80682000  0.40331000  1.0
  C  C77  1  0.30937000  0.94217000  0.34747000  1.0
  C  C78  1  0.43355000  0.75673000  0.41404000  1.0
  C  C79  1  0.34662000  0.99205000  0.33772000  1.0
  C  C80  1  0.35472000  0.87518000  0.37171000  1.0
  C  C81  1  0.42654000  0.87504000  0.37943000  1.0
  C  C82  1  0.58048000  0.21778000  0.62393000  1.0
  C  C83  1  0.68071000  0.01312000  0.61226000  1.0
  C  C84  1  0.58475000  0.23438000  0.58028000  1.0
  C  C85  1  0.67439000  0.99908000  0.65600000  1.0
  C  C86  1  0.64564000  0.09340000  0.60063000  1.0
  C  C87  1  0.61436000  0.13799000  0.63606000  1.0
  C  C88  1  0.95146000  0.32481000  0.34011000  1.0
  C  C89  1  0.78747000  0.38104000  0.39959000  1.0
  C  C90  1  0.91624000  0.39310000  0.36023000  1.0
  C  C91  1  0.82099000  0.31159000  0.37895000  1.0
  C  C92  1  0.83817000  0.41973000  0.38871000  1.0
  C  C93  1  0.90100000  0.28432000  0.35000000  1.0
  C  C94  1  0.93154000  0.46067000  0.36424000  1.0
  C  C95  1  0.84298000  0.49086000  0.39664000  1.0
  C  C96  1  0.04711000  0.64866000  0.65937000  1.0
  C  C97  1  0.21225000  0.60146000  0.60189000  1.0
  C  C98  1  0.05864000  0.65896000  0.61494000  1.0
  C  C99  1  0.20296000  0.59274000  0.64693000  1.0
  C  C100  1  0.13765000  0.63680000  0.58740000  1.0
  C  C101  1  0.12245000  0.61521000  0.67515000  1.0
  C  C102  1  0.01248000  0.68844000  0.57866000  1.0
  C  C103  1  0.10234000  0.66332000  0.54742000  1.0
  C  C104  1  0.64059000  0.65010000  0.65819000  1.0
  C  C105  1  0.58831000  0.59046000  0.60228000  1.0
  C  C106  1  0.66384000  0.65756000  0.61371000  1.0
  C  C107  1  0.56293000  0.58208000  0.64761000  1.0
  C  C108  1  0.63875000  0.62928000  0.58702000  1.0
  C  C109  1  0.58736000  0.61225000  0.67488000  1.0
  C  C110  1  0.71442000  0.68837000  0.57681000  1.0
  C  C111  1  0.68560000  0.65657000  0.54651000  1.0
  C  C112  1  0.31109000  0.37423000  0.35083000  1.0
  C  C113  1  0.36764000  0.43178000  0.40554000  1.0
  C  C114  1  0.38958000  0.33322000  0.36164000  1.0
  C  C115  1  0.28785000  0.47599000  0.39437000  1.0
  C  C116  1  0.41657000  0.36072000  0.38774000  1.0
  C  C117  1  0.26023000  0.44790000  0.36763000  1.0
  C  C118  1  0.46983000  0.25843000  0.35574000  1.0
  C  C119  1  0.50052000  0.28972000  0.38536000  1.0
  C  C120  1  0.11126000  0.58616000  0.17890000  1.0
  C  C121  1  0.13503000  0.67174000  0.07097000  1.0
  C  C122  1  0.16245000  0.51248000  0.16501000  1.0
  C  C123  1  0.08558000  0.74460000  0.08580000  1.0
  C  C124  1  0.14423000  0.61408000  0.10516000  1.0
  C  C125  1  0.10060000  0.64479000  0.14525000  1.0
  C  C126  1  0.11752000  0.10353000  0.08450000  1.0
  C  C127  1  0.17777000  0.15478000  0.14044000  1.0
  C  C128  1  0.09350000  0.09660000  0.12889000  1.0
  C  C129  1  0.20516000  0.16096000  0.09515000  1.0
  C  C130  1  0.12183000  0.12151000  0.15564000  1.0
  C  C131  1  0.17525000  0.13639000  0.06787000  1.0
  C  C132  1  0.03947000  0.06911000  0.16554000  1.0
  C  C133  1  0.07129000  0.09769000  0.19599000  1.0
  C  C134  1  0.72139000  0.08910000  0.10771000  1.0
  C  C135  1  0.55467000  0.14968000  0.16448000  1.0
  C  C136  1  0.64680000  0.12669000  0.09297000  1.0
  C  C137  1  0.62964000  0.11060000  0.18064000  1.0
  C  C138  1  0.56724000  0.15599000  0.12005000  1.0
  C  C139  1  0.71093000  0.08071000  0.15293000  1.0
  C  C140  1  0.61198000  0.15381000  0.05280000  1.0
  C  C141  1  0.52166000  0.18693000  0.08357000  1.0
  C  C142  1  0.88173000  0.44302000  0.85066000  1.0
  C  C143  1  0.80007000  0.30613000  0.90365000  1.0
  C  C144  1  0.80552000  0.49416000  0.83970000  1.0
  C  C145  1  0.87709000  0.25780000  0.91429000  1.0
  C  C146  1  0.80167000  0.37439000  0.88030000  1.0
  C  C147  1  0.88048000  0.37508000  0.87379000  1.0
  C  C148  1  0.92540000  0.88676000  0.90028000  1.0
  C  C149  1  0.86900000  0.83371000  0.84336000  1.0
  C  C150  1  0.84653000  0.92849000  0.88984000  1.0
  C  C151  1  0.95028000  0.79020000  0.85269000  1.0
  C  C152  1  0.81990000  0.90354000  0.86227000  1.0
  C  C153  1  0.97786000  0.81583000  0.88060000  1.0
  C  C154  1  0.76510000  0.00205000  0.89757000  1.0
  C  C155  1  0.73510000  0.97383000  0.86605000  1.0
  C  C156  1  0.29654000  0.92481000  0.90465000  1.0
  C  C157  1  0.46286000  0.87197000  0.84794000  1.0
  C  C158  1  0.33689000  0.85438000  0.88625000  1.0
  C  C159  1  0.42415000  0.94352000  0.86695000  1.0
  C  C160  1  0.41607000  0.82947000  0.85881000  1.0
  C  C161  1  0.34286000  0.96928000  0.89464000  1.0
  C  C162  1  0.32702000  0.78338000  0.88291000  1.0
  C  C163  1  0.41687000  0.75518000  0.85156000  1.0
  S  S164  1  0.34237000  0.79328000  0.39440000  1.0
  S  S165  1  0.43718000  0.95800000  0.35759000  1.0
  S  S166  1  0.63124000  0.15054000  0.55340000  1.0
  S  S167  1  0.62644000  0.08225000  0.68339000  1.0
  S  S168  1  0.19785000  0.51460000  0.10965000  1.0
  S  S169  1  0.04923000  0.74408000  0.14106000  1.0
  S  S170  1  0.73055000  0.45805000  0.85804000  1.0
  S  S171  1  0.95187000  0.29380000  0.89618000  1.0
  Cl  Cl172  1  0.76555000  0.25783000  0.38742000  1.0
  Cl  Cl173  1  0.93466000  0.20125000  0.32562000  1.0
  Cl  Cl174  1  0.29043000  0.55793000  0.66833000  1.0
  Cl  Cl175  1  0.12015000  0.60007000  0.72898000  1.0
  Cl  Cl176  1  0.50379000  0.53257000  0.67170000  1.0
  Cl  Cl177  1  0.54902000  0.60171000  0.72899000  1.0
  Cl  Cl178  1  0.22182000  0.56649000  0.41226000  1.0
  Cl  Cl179  1  0.16359000  0.50706000  0.35521000  1.0
  Cl  Cl180  1  0.27797000  0.19652000  0.07132000  1.0
  Cl  Cl181  1  0.21402000  0.14386000  0.01370000  1.0
  Cl  Cl182  1  0.62519000  0.09863000  0.23471000  1.0
  Cl  Cl183  1  0.79701000  0.03120000  0.17601000  1.0
  Cl  Cl184  1  0.01949000  0.70607000  0.82843000  1.0
  Cl  Cl185  1  0.07658000  0.75665000  0.89054000  1.0
  Cl  Cl186  1  0.47365000  0.00277000  0.85650000  1.0
  Cl  Cl187  1  0.30281000  0.05529000  0.91712000  1.0
  O  O188  1  0.49988000  0.50003000  0.49844000  1.0
  O  O189  1  0.60714000  0.56098000  0.53245000  1.0
  O  O190  1  0.53430000  0.36804000  0.57755000  1.0
  O  O191  1  0.66274000  0.37550000  0.44376000  1.0
  O  O192  1  0.50507000  0.54210000  0.58458000  1.0
  O  O193  1  0.68277000  0.48209000  0.44167000  1.0
  O  O194  1  0.55642000  0.31217000  0.51724000  1.0
  O  O195  1  0.47962000  0.40713000  0.43540000  1.0
  O  O196  1  0.40315000  0.65429000  0.44530000  1.0
  O  O197  1  0.35672000  0.51355000  0.45489000  1.0
  O  O198  1  0.52548000  0.65101000  0.45207000  1.0
  O  O199  1  0.35382000  0.50867000  0.58088000  1.0
  O  O200  1  0.29789000  0.61121000  0.53437000  1.0
  O  O201  1  0.24958000  0.25079000  0.25001000  1.0
  O  O202  1  0.08142000  0.23087000  0.30209000  1.0
  O  O203  1  0.15786000  0.43782000  0.23021000  1.0
  O  O204  1  0.24078000  0.22359000  0.15885000  1.0
  O  O205  1  0.05948000  0.35562000  0.29875000  1.0
  O  O206  1  0.18224000  0.15726000  0.21104000  1.0
  O  O207  1  0.24073000  0.37884000  0.16873000  1.0
  O  O208  1  0.40964000  0.22359000  0.16877000  1.0
  O  O209  1  0.35623000  0.10804000  0.31191000  1.0
  O  O210  1  0.45287000  0.16732000  0.23074000  1.0
  O  O211  1  0.25647000  0.08591000  0.29539000  1.0
  O  O212  1  0.21302000  0.36656000  0.31874000  1.0
  O  O213  1  0.35010000  0.27699000  0.30682000  1.0
  O  O214  1  0.74989000  0.74923000  0.74884000  1.0
  O  O215  1  0.90116000  0.70114000  0.66485000  1.0
  O  O216  1  0.84717000  0.58695000  0.79993000  1.0
  O  O217  1  0.65789000  0.66675000  0.72443000  1.0
  O  O218  1  0.94888000  0.66507000  0.72642000  1.0
  O  O219  1  0.71969000  0.71309000  0.66259000  1.0
  O  O220  1  0.70886000  0.61085000  0.81226000  1.0
  O  O221  1  0.56241000  0.77953000  0.80065000  1.0
  O  O222  1  0.68183000  0.92970000  0.72207000  1.0
  O  O223  1  0.59784000  0.86878000  0.81332000  1.0
  O  O224  1  0.74075000  0.86298000  0.66181000  1.0
  O  O225  1  0.85489000  0.73723000  0.81640000  1.0
  O  O226  1  0.77866000  0.86399000  0.79732000  1.0
  O  O227  1  0.99925000  0.00157000  0.99913000  1.0
  O  O228  1  0.02461000  0.89134000  0.93243000  1.0
  O  O229  1  0.85681000  0.14964000  0.95296000  1.0
  O  O230  1  0.16142000  0.01990000  0.93579000  1.0
  O  O231  1  0.88602000  0.97606000  0.94992000  1.0
  O  O232  1  0.18910000  0.89298000  0.94725000  1.0
  O  O233  1  0.98153000  0.15620000  0.94346000  1.0
  O  O234  1  0.07378000  0.10791000  0.02140000  1.0
  O  O235  1  0.02183000  0.87946000  0.08146000  1.0
  O  O236  1  0.05857000  0.02422000  0.07824000  1.0
  O  O237  1  0.09025000  0.81681000  0.01983000  1.0
  O  O238  1  0.79987000  0.05827000  0.03804000  1.0
  O  O239  1  0.86969000  0.05032000  0.08756000  1.0
  F  F240  1  0.54184000  0.79328000  0.41459000  1.0
  F  F241  1  0.54706000  0.27092000  0.65261000  1.0
  F  F242  1  0.07538000  0.60172000  0.22000000  1.0
  F  F243  1  0.95075000  0.45538000  0.84107000  1.0
