# generated using pymatgen
data_Co4H27C38(N3O5)3
_symmetry_space_group_name_H-M   'P 1'
_cell_length_a   12.20440000
_cell_length_b   15.50350000
_cell_length_c   15.80644672
_cell_angle_alpha   88.80574563
_cell_angle_beta   68.38866215
_cell_angle_gamma   67.42810000
_symmetry_Int_Tables_number   1
_chemical_formula_structural   Co4H27C38(N3O5)3
_chemical_formula_sum   'Co8 H54 C76 N18 O30'
_cell_volume   2542.09082515
_cell_formula_units_Z   2
loop_
 _symmetry_equiv_pos_site_id
 _symmetry_equiv_pos_as_xyz
  1  'x, y, z'
loop_
 _atom_site_type_symbol
 _atom_site_label
 _atom_site_symmetry_multiplicity
 _atom_site_fract_x
 _atom_site_fract_y
 _atom_site_fract_z
 _atom_site_occupancy
  Co  Co0  1  0.74157000  0.32042000  0.03103000  1.0
  Co  Co1  1  0.25841000  0.67965000  0.96885000  1.0
  Co  Co2  1  0.70084000  0.36604000  0.26081000  1.0
  Co  Co3  1  0.29902000  0.63406000  0.73924000  1.0
  Co  Co4  1  0.75951000  0.33811000  0.80696000  1.0
  Co  Co5  1  0.24048000  0.66182000  0.19305000  1.0
  Co  Co6  1  0.72947000  0.97119000  0.21449000  1.0
  Co  Co7  1  0.27053000  0.02888000  0.78547000  1.0
  H  H8  1  0.51418000  0.16326000  0.83770000  1.0
  H  H9  1  0.48579000  0.83684000  0.16226000  1.0
  H  H10  1  0.28111000  0.08036000  0.07609000  1.0
  H  H11  1  0.71916000  0.91950000  0.92382000  1.0
  H  H12  1  0.49074000  0.24061000  0.10459000  1.0
  H  H13  1  0.50931000  0.75941000  0.89538000  1.0
  H  H14  1  0.34252000  0.25849000  0.26383000  1.0
  H  H15  1  0.65741000  0.74148000  0.73612000  1.0
  H  H16  1  0.49004000  0.15659000  0.21497000  1.0
  H  H17  1  0.51005000  0.84347000  0.78498000  1.0
  H  H18  1  0.28566000  0.04757000  0.29506000  1.0
  H  H19  1  0.71456000  0.95230000  0.70483000  1.0
  H  H20  1  0.23780000  0.98095000  0.44240000  1.0
  H  H21  1  0.76230000  0.01901000  0.55753000  1.0
  H  H22  1  0.38115000  0.15224000  0.54569000  1.0
  H  H23  1  0.61883000  0.84777000  0.45424000  1.0
  H  H24  1  0.41967000  0.22353000  0.40118000  1.0
  H  H25  1  0.58042000  0.77642000  0.59873000  1.0
  H  H26  1  0.00242000  0.52447000  0.79996000  1.0
  H  H27  1  0.99756000  0.47552000  0.20017000  1.0
  H  H28  1  0.92600000  0.67909000  0.05291000  1.0
  H  H29  1  0.07410000  0.32082000  0.94723000  1.0
  H  H30  1  0.68812000  0.53485000  0.04824000  1.0
  H  H31  1  0.31184000  0.46515000  0.95185000  1.0
  H  H32  1  0.73455000  0.75718000  0.19569000  1.0
  H  H33  1  0.26560000  0.24284000  0.80441000  1.0
  H  H34  1  0.84628000  0.64390000  0.20357000  1.0
  H  H35  1  0.15382000  0.35607000  0.79655000  1.0
  H  H36  1  0.51692000  0.82965000  0.31261000  1.0
  H  H37  1  0.48312000  0.17041000  0.68750000  1.0
  H  H38  1  0.34908000  0.82388000  0.46218000  1.0
  H  H39  1  0.65081000  0.17606000  0.53778000  1.0
  H  H40  1  0.60099000  0.54234000  0.46801000  1.0
  H  H41  1  0.39888000  0.45759000  0.53196000  1.0
  H  H42  1  0.76593000  0.54545000  0.31822000  1.0
  H  H43  1  0.23410000  0.45459000  0.68190000  1.0
  H  H44  1  0.76629000  0.09417000  0.04773000  1.0
  H  H45  1  0.23364000  0.90589000  0.95233000  1.0
  H  H46  1  0.68070000  0.17034000  0.32621000  1.0
  H  H47  1  0.31929000  0.82975000  0.67381000  1.0
  H  H48  1  0.43511000  0.56847000  0.32008000  1.0
  H  H49  1  0.56516000  0.43158000  0.67977000  1.0
  H  H50  1  0.45538000  0.48100000  0.06272000  1.0
  H  H51  1  0.54471000  0.51906000  0.93717000  1.0
  H  H52  1  0.05741000  0.16458000  0.70301000  1.0
  H  H53  1  0.94277000  0.83529000  0.29678000  1.0
  H  H54  1  0.03111000  0.13697000  0.97455000  1.0
  H  H55  1  0.96891000  0.86323000  0.02530000  1.0
  H  H56  1  0.19056000  0.94949000  0.65917000  1.0
  H  H57  1  0.80937000  0.05061000  0.34087000  1.0
  H  H58  1  0.75225000  0.23186000  0.69197000  1.0
  H  H59  1  0.24682000  0.76782000  0.30893000  1.0
  H  H60  1  0.80672000  0.29077000  0.61943000  1.0
  H  H61  1  0.19228000  0.70886000  0.38133000  1.0
  C  C62  1  0.59904000  0.25536000  0.93145000  1.0
  C  C63  1  0.40102000  0.74456000  0.06850000  1.0
  C  C64  1  0.51224000  0.20466000  0.96799000  1.0
  C  C65  1  0.48781000  0.79531000  0.03201000  1.0
  C  C66  1  0.47814000  0.16114000  0.91137000  1.0
  C  C67  1  0.52188000  0.83890000  0.08860000  1.0
  C  C68  1  0.39316000  0.11760000  0.95148000  1.0
  C  C69  1  0.60688000  0.88243000  0.04849000  1.0
  C  C70  1  0.34632000  0.11500000  0.04615000  1.0
  C  C71  1  0.65389000  0.88490000  0.95379000  1.0
  C  C72  1  0.38331000  0.15699000  0.10199000  1.0
  C  C73  1  0.61682000  0.84295000  0.89797000  1.0
  C  C74  1  0.46396000  0.20348000  0.06331000  1.0
  C  C75  1  0.53610000  0.79652000  0.93668000  1.0
  C  C76  1  0.34563000  0.07645000  0.89603000  1.0
  C  C77  1  0.65434000  0.92368000  0.10393000  1.0
  C  C78  1  0.38458000  0.18058000  0.25033000  1.0
  C  C79  1  0.61550000  0.81937000  0.74964000  1.0
  C  C80  1  0.35522000  0.13956000  0.33872000  1.0
  C  C81  1  0.64491000  0.86037000  0.66123000  1.0
  C  C82  1  0.30483000  0.07079000  0.35055000  1.0
  C  C83  1  0.69531000  0.92912000  0.64935000  1.0
  C  C84  1  0.27923000  0.03314000  0.43247000  1.0
  C  C85  1  0.72087000  0.96682000  0.56744000  1.0
  C  C86  1  0.30718000  0.06192000  0.50293000  1.0
  C  C87  1  0.69284000  0.93808000  0.49700000  1.0
  C  C88  1  0.35999000  0.12977000  0.49076000  1.0
  C  C89  1  0.64002000  0.87023000  0.50918000  1.0
  C  C90  1  0.38202000  0.16897000  0.40954000  1.0
  C  C91  1  0.61807000  0.83100000  0.59040000  1.0
  C  C92  1  0.27939000  0.02337000  0.58982000  1.0
  C  C93  1  0.72059000  0.97669000  0.41015000  1.0
  C  C94  1  0.81724000  0.45386000  0.87335000  1.0
  C  C95  1  0.18289000  0.54614000  0.12659000  1.0
  C  C96  1  0.84261000  0.52239000  0.91913000  1.0
  C  C97  1  0.15739000  0.47756000  0.08100000  1.0
  C  C98  1  0.94425000  0.54924000  0.87278000  1.0
  C  C99  1  0.05573000  0.45074000  0.12736000  1.0
  C  C100  1  0.97306000  0.60500000  0.92237000  1.0
  C  C101  1  0.02690000  0.39500000  0.07775000  1.0
  C  C102  1  0.89873000  0.63725000  0.01653000  1.0
  C  C103  1  0.10133000  0.36269000  0.98360000  1.0
  C  C104  1  0.79384000  0.61372000  0.06072000  1.0
  C  C105  1  0.20620000  0.38623000  0.93940000  1.0
  C  C106  1  0.76672000  0.55584000  0.01199000  1.0
  C  C107  1  0.23330000  0.44412000  0.98813000  1.0
  C  C108  1  0.08853000  0.62664000  0.87785000  1.0
  C  C109  1  0.91134000  0.37348000  0.12213000  1.0
  C  C110  1  0.74582000  0.68561000  0.21182000  1.0
  C  C111  1  0.25429000  0.31440000  0.78829000  1.0
  C  C112  1  0.65181000  0.68789000  0.30625000  1.0
  C  C113  1  0.34826000  0.31215000  0.69387000  1.0
  C  C114  1  0.53442000  0.76660000  0.34669000  1.0
  C  C115  1  0.46561000  0.23343000  0.65338000  1.0
  C  C116  1  0.44136000  0.76380000  0.42946000  1.0
  C  C117  1  0.55859000  0.23618000  0.57053000  1.0
  C  C118  1  0.46482000  0.68308000  0.47364000  1.0
  C  C119  1  0.53511000  0.31689000  0.52634000  1.0
  C  C120  1  0.58327000  0.60502000  0.43388000  1.0
  C  C121  1  0.41666000  0.39494000  0.56613000  1.0
  C  C122  1  0.67549000  0.60740000  0.35049000  1.0
  C  C123  1  0.32452000  0.39262000  0.64959000  1.0
  C  C124  1  0.36367000  0.68403000  0.56412000  1.0
  C  C125  1  0.63620000  0.31601000  0.43586000  1.0
  C  C126  1  0.74772000  0.13288000  0.11129000  1.0
  C  C127  1  0.25223000  0.86722000  0.88874000  1.0
  C  C128  1  0.70401000  0.17007000  0.25303000  1.0
  C  C129  1  0.29597000  0.83003000  0.74699000  1.0
  C  C130  1  0.46603000  0.53081000  0.25273000  1.0
  C  C131  1  0.53413000  0.46922000  0.74716000  1.0
  C  C132  1  0.47814000  0.48613000  0.12185000  1.0
  C  C133  1  0.52192000  0.51390000  0.87808000  1.0
  C  C134  1  0.02256000  0.17276000  0.77736000  1.0
  C  C135  1  0.97753000  0.82722000  0.22243000  1.0
  C  C136  1  0.00759000  0.15901000  0.91565000  1.0
  C  C137  1  0.99247000  0.84108000  0.08417000  1.0
  N  N138  1  0.74327000  0.21931000  0.11991000  1.0
  N  N139  1  0.25665000  0.78082000  0.88011000  1.0
  N  N140  1  0.71645000  0.24299000  0.21082000  1.0
  N  N141  1  0.28346000  0.75713000  0.78921000  1.0
  N  N142  1  0.72318000  0.09885000  0.19341000  1.0
  N  N143  1  0.27680000  0.90124000  0.80661000  1.0
  N  N144  1  0.58519000  0.42702000  0.12984000  1.0
  N  N145  1  0.41492000  0.57302000  0.87003000  1.0
  N  N146  1  0.57682000  0.45489000  0.21464000  1.0
  N  N147  1  0.42327000  0.54510000  0.78524000  1.0
  N  N148  1  0.40034000  0.55280000  0.19694000  1.0
  N  N149  1  0.59975000  0.44721000  0.80301000  1.0
  N  N150  1  0.89587000  0.22476000  0.92052000  1.0
  N  N151  1  0.10415000  0.77524000  0.07927000  1.0
  N  N152  1  0.90544000  0.23344000  0.83159000  1.0
  N  N153  1  0.09464000  0.76652000  0.16819000  1.0
  N  N154  1  0.09102000  0.12419000  0.82695000  1.0
  N  N155  1  0.90904000  0.87585000  0.17290000  1.0
  O  O156  1  0.61201000  0.29978000  0.99157000  1.0
  O  O157  1  0.38754000  0.70066000  0.00831000  1.0
  O  O158  1  0.65309000  0.25330000  0.84480000  1.0
  O  O159  1  0.34755000  0.74611000  0.15513000  1.0
  O  O160  1  0.39206000  0.07205000  0.80690000  1.0
  O  O161  1  0.60782000  0.92815000  0.19306000  1.0
  O  O162  1  0.25678000  0.04815000  0.93403000  1.0
  O  O163  1  0.74322000  0.95198000  0.06590000  1.0
  O  O164  1  0.32080000  0.03394000  0.64844000  1.0
  O  O165  1  0.67900000  0.96628000  0.35159000  1.0
  O  O166  1  0.20280000  0.97682000  0.60166000  1.0
  O  O167  1  0.79733000  0.02309000  0.39827000  1.0
  O  O168  1  0.33549000  0.14947000  0.19358000  1.0
  O  O169  1  0.66469000  0.85037000  0.80636000  1.0
  O  O170  1  0.74252000  0.41569000  0.92474000  1.0
  O  O171  1  0.25763000  0.58419000  0.07508000  1.0
  O  O172  1  0.86400000  0.43157000  0.78685000  1.0
  O  O173  1  0.13619000  0.56854000  0.21309000  1.0
  O  O174  1  0.13996000  0.61556000  0.78933000  1.0
  O  O175  1  0.85983000  0.38449000  0.21065000  1.0
  O  O176  1  0.13085000  0.65422000  0.92939000  1.0
  O  O177  1  0.86901000  0.34609000  0.07047000  1.0
  O  O178  1  0.25483000  0.75091000  0.59450000  1.0
  O  O179  1  0.74507000  0.24914000  0.40543000  1.0
  O  O180  1  0.39996000  0.61360000  0.60868000  1.0
  O  O181  1  0.59986000  0.38650000  0.39138000  1.0
  O  O182  1  0.71353000  0.64027000  0.15115000  1.0
  O  O183  1  0.28653000  0.35975000  0.84897000  1.0
  O  O184  1  0.81631000  0.25914000  0.67176000  1.0
  O  O185  1  0.18312000  0.74021000  0.32877000  1.0
