# generated using pymatgen
data_SmH18(C2O)7
_symmetry_space_group_name_H-M   'P 1'
_cell_length_a   12.90330000
_cell_length_b   14.25060000
_cell_length_c   18.96280000
_cell_angle_alpha   90.00010000
_cell_angle_beta   90.00000000
_cell_angle_gamma   90.00000000
_symmetry_Int_Tables_number   1
_chemical_formula_structural   SmH18(C2O)7
_chemical_formula_sum   'Sm8 H144 C112 O56'
_cell_volume   3486.87524528
_cell_formula_units_Z   8
loop_
 _symmetry_equiv_pos_site_id
 _symmetry_equiv_pos_as_xyz
  1  'x, y, z'
loop_
 _atom_site_type_symbol
 _atom_site_label
 _atom_site_symmetry_multiplicity
 _atom_site_fract_x
 _atom_site_fract_y
 _atom_site_fract_z
 _atom_site_occupancy
  Sm  Sm0  1  0.71657000  0.00311000  0.88955000  1.0
  Sm  Sm1  1  0.78343000  0.99688000  0.38955000  1.0
  Sm  Sm2  1  0.28343000  0.50311000  0.61045000  1.0
  Sm  Sm3  1  0.21658000  0.49689000  0.11045000  1.0
  Sm  Sm4  1  0.77263000  0.02163000  0.67409000  1.0
  Sm  Sm5  1  0.72737000  0.97837000  0.17409000  1.0
  Sm  Sm6  1  0.22737000  0.52163000  0.82591000  1.0
  Sm  Sm7  1  0.27263000  0.47837000  0.32590000  1.0
  H  H8  1  0.99551000  0.06890000  0.88157000  1.0
  H  H9  1  0.50449000  0.93110000  0.38157000  1.0
  H  H10  1  0.00449000  0.56890000  0.61843000  1.0
  H  H11  1  0.49551000  0.43110000  0.11843000  1.0
  H  H12  1  0.15602000  0.01420000  0.84410000  1.0
  H  H13  1  0.34398000  0.98580000  0.34410000  1.0
  H  H14  1  0.84398000  0.51420000  0.65590000  1.0
  H  H15  1  0.65602000  0.48580000  0.15590000  1.0
  H  H16  1  0.12899000  0.03994000  0.75490000  1.0
  H  H17  1  0.37101000  0.96006000  0.25490000  1.0
  H  H18  1  0.87102000  0.53994000  0.74510000  1.0
  H  H19  1  0.62899000  0.46006000  0.24510000  1.0
  H  H20  1  0.20291000  0.19002000  0.76104000  1.0
  H  H21  1  0.29709000  0.80998000  0.26104000  1.0
  H  H22  1  0.79709000  0.69002000  0.73896000  1.0
  H  H23  1  0.70291000  0.30998000  0.23895000  1.0
  H  H24  1  0.26905000  0.14787000  0.83598000  1.0
  H  H25  1  0.23095000  0.85213000  0.33598000  1.0
  H  H26  1  0.73095000  0.64787000  0.66402000  1.0
  H  H27  1  0.76906000  0.35213000  0.16402000  1.0
  H  H28  1  0.22197000  0.21674000  0.95464000  1.0
  H  H29  1  0.27803000  0.78326000  0.45464000  1.0
  H  H30  1  0.77803000  0.71674000  0.54537000  1.0
  H  H31  1  0.72197000  0.28325000  0.04537000  1.0
  H  H32  1  0.13160000  0.12364000  0.94549000  1.0
  H  H33  1  0.36840000  0.87636000  0.44549000  1.0
  H  H34  1  0.86839000  0.62363000  0.55451000  1.0
  H  H35  1  0.63160000  0.37636000  0.05451000  1.0
  H  H36  1  0.08809000  0.23555000  0.97261000  1.0
  H  H37  1  0.41191000  0.76445000  0.47261000  1.0
  H  H38  1  0.91190000  0.73554000  0.52739000  1.0
  H  H39  1  0.58809000  0.26445000  0.02739000  1.0
  H  H40  1  0.99334000  0.32841000  0.76671000  1.0
  H  H41  1  0.50666000  0.67159000  0.26671000  1.0
  H  H42  1  0.00667000  0.82841000  0.73329000  1.0
  H  H43  1  0.49334000  0.17159000  0.23329000  1.0
  H  H44  1  0.91230000  0.23285000  0.74428000  1.0
  H  H45  1  0.58770000  0.76715000  0.24428000  1.0
  H  H46  1  0.08770000  0.73285000  0.75572000  1.0
  H  H47  1  0.41230000  0.26715000  0.25572000  1.0
  H  H48  1  0.04478000  0.22954000  0.72126000  1.0
  H  H49  1  0.45522000  0.77046000  0.22126000  1.0
  H  H50  1  0.95522000  0.72954000  0.77874000  1.0
  H  H51  1  0.54478000  0.27046000  0.27874000  1.0
  H  H52  1  0.93673000  0.31481000  0.89645000  1.0
  H  H53  1  0.56327000  0.68519000  0.39645000  1.0
  H  H54  1  0.06327000  0.81481000  0.60355000  1.0
  H  H55  1  0.43673000  0.18519000  0.10355000  1.0
  H  H56  1  0.93318000  0.20170000  0.93715000  1.0
  H  H57  1  0.56682000  0.79830000  0.43715000  1.0
  H  H58  1  0.06682000  0.70170000  0.56285000  1.0
  H  H59  1  0.43318000  0.29830000  0.06285000  1.0
  H  H60  1  0.85167000  0.22639000  0.86497000  1.0
  H  H61  1  0.64833000  0.77361000  0.36497000  1.0
  H  H62  1  0.14833000  0.72639000  0.63503000  1.0
  H  H63  1  0.35167000  0.27361000  0.13503000  1.0
  H  H64  1  0.38826000  0.89548000  0.84489000  1.0
  H  H65  1  0.11174000  0.10452000  0.34489000  1.0
  H  H66  1  0.61174000  0.39548000  0.65511000  1.0
  H  H67  1  0.88826000  0.60452000  0.15511000  1.0
  H  H68  1  0.33041000  0.99686000  0.81002000  1.0
  H  H69  1  0.16959000  0.00314000  0.31002000  1.0
  H  H70  1  0.66959000  0.49686000  0.68998000  1.0
  H  H71  1  0.83041000  0.50314000  0.18998000  1.0
  H  H72  1  0.21260000  0.90570000  0.73856000  1.0
  H  H73  1  0.28740000  0.09430000  0.23856000  1.0
  H  H74  1  0.78740000  0.40570000  0.76144000  1.0
  H  H75  1  0.71260000  0.59430000  0.26144000  1.0
  H  H76  1  0.23708000  0.82009000  0.80391000  1.0
  H  H77  1  0.26292000  0.17991000  0.30391000  1.0
  H  H78  1  0.76292000  0.32009000  0.69609000  1.0
  H  H79  1  0.73708000  0.67991000  0.19609000  1.0
  H  H80  1  0.30004000  0.82123000  0.65480000  1.0
  H  H81  1  0.19996000  0.17877000  0.15480000  1.0
  H  H82  1  0.69996000  0.32123000  0.84520000  1.0
  H  H83  1  0.80004000  0.67877000  0.34520000  1.0
  H  H84  1  0.40658000  0.07389000  0.70840000  1.0
  H  H85  1  0.09342000  0.92611000  0.20840000  1.0
  H  H86  1  0.59342000  0.57389000  0.79160000  1.0
  H  H87  1  0.90658000  0.42611000  0.29160000  1.0
  H  H88  1  0.34667000  0.98610000  0.65635000  1.0
  H  H89  1  0.15333000  0.01390000  0.15635000  1.0
  H  H90  1  0.65333000  0.48610000  0.84365000  1.0
  H  H91  1  0.84667000  0.51390000  0.34365000  1.0
  H  H92  1  0.48091000  0.01158000  0.64505000  1.0
  H  H93  1  0.01910000  0.98841000  0.14505000  1.0
  H  H94  1  0.51909000  0.51158000  0.85495000  1.0
  H  H95  1  0.98091000  0.48842000  0.35495000  1.0
  H  H96  1  0.50271000  0.69009000  0.73899000  1.0
  H  H97  1  0.99729000  0.30991000  0.23899000  1.0
  H  H98  1  0.49729000  0.19009000  0.76101000  1.0
  H  H99  1  0.00271000  0.80991000  0.26101000  1.0
  H  H100  1  0.47812000  0.76430000  0.81202000  1.0
  H  H101  1  0.02188000  0.23570000  0.31202000  1.0
  H  H102  1  0.52188000  0.26430000  0.68798000  1.0
  H  H103  1  0.97812000  0.73570000  0.18798000  1.0
  H  H104  1  0.59049000  0.78168000  0.75914000  1.0
  H  H105  1  0.90951000  0.21832000  0.25914000  1.0
  H  H106  1  0.40951000  0.28168000  0.74086000  1.0
  H  H107  1  0.09049000  0.71832000  0.24086000  1.0
  H  H108  1  0.50011000  0.74804000  0.61938000  1.0
  H  H109  1  0.99989000  0.25196000  0.11938000  1.0
  H  H110  1  0.49989000  0.24804000  0.88062000  1.0
  H  H111  1  0.00011000  0.75196000  0.38062000  1.0
  H  H112  1  0.57540000  0.85006000  0.63551000  1.0
  H  H113  1  0.92460000  0.14994000  0.13551000  1.0
  H  H114  1  0.42460000  0.35006000  0.86449000  1.0
  H  H115  1  0.07540000  0.64994000  0.36449000  1.0
  H  H116  1  0.45136000  0.86058000  0.59579000  1.0
  H  H117  1  0.04864000  0.13942000  0.09579000  1.0
  H  H118  1  0.54864000  0.36058000  0.90421000  1.0
  H  H119  1  0.95136000  0.63943000  0.40421000  1.0
  H  H120  1  0.53484000  0.80782000  0.91054000  1.0
  H  H121  1  0.96516000  0.19218000  0.41054000  1.0
  H  H122  1  0.46516000  0.30782000  0.58946000  1.0
  H  H123  1  0.03484000  0.69218000  0.08946000  1.0
  H  H124  1  0.42321000  0.66646000  0.88809000  1.0
  H  H125  1  0.07678000  0.33355000  0.38809000  1.0
  H  H126  1  0.57679000  0.16645000  0.61190000  1.0
  H  H127  1  0.92321000  0.83354000  0.11191000  1.0
  H  H128  1  0.47752000  0.57318000  0.10036000  1.0
  H  H129  1  0.02248000  0.42682000  0.60036000  1.0
  H  H130  1  0.52248000  0.07318000  0.39964000  1.0
  H  H131  1  0.97752000  0.92682000  0.89964000  1.0
  H  H132  1  0.58957000  0.71339000  0.12214000  1.0
  H  H133  1  0.91043000  0.28661000  0.62214000  1.0
  H  H134  1  0.41043000  0.21339000  0.37786000  1.0
  H  H135  1  0.08957000  0.78661000  0.87786000  1.0
  H  H136  1  0.73731000  0.79455000  0.86524000  1.0
  H  H137  1  0.76269000  0.20545000  0.36524000  1.0
  H  H138  1  0.26269000  0.29455000  0.63476000  1.0
  H  H139  1  0.23731000  0.70545000  0.13476000  1.0
  H  H140  1  0.78465000  0.83862000  0.79404000  1.0
  H  H141  1  0.71535000  0.16138000  0.29404000  1.0
  H  H142  1  0.21535000  0.33862000  0.70596000  1.0
  H  H143  1  0.28465000  0.66138000  0.20596000  1.0
  H  H144  1  0.61784000  0.10811000  0.01925000  1.0
  H  H145  1  0.88216000  0.89189000  0.51925000  1.0
  H  H146  1  0.38216000  0.60811000  0.48075000  1.0
  H  H147  1  0.11784000  0.39189000  0.98075000  1.0
  H  H148  1  0.60781000  0.15826000  0.94315000  1.0
  H  H149  1  0.89220000  0.84174000  0.44315000  1.0
  H  H150  1  0.39219000  0.65826000  0.55685000  1.0
  H  H151  1  0.10781000  0.34174000  0.05685000  1.0
  C  C152  1  0.01488000  0.09535000  0.82882000  1.0
  C  C153  1  0.48512000  0.90465000  0.32882000  1.0
  C  C154  1  0.98512000  0.59535000  0.67118000  1.0
  C  C155  1  0.51488000  0.40465000  0.17118000  1.0
  C  C156  1  0.12693000  0.06886000  0.80843000  1.0
  C  C157  1  0.37307000  0.93113000  0.30843000  1.0
  C  C158  1  0.87307000  0.56887000  0.69157000  1.0
  C  C159  1  0.62693000  0.43113000  0.19157000  1.0
  C  C160  1  0.19156000  0.15947000  0.81353000  1.0
  C  C161  1  0.30844000  0.84053000  0.31353000  1.0
  C  C162  1  0.80844000  0.65947000  0.68647000  1.0
  C  C163  1  0.69156000  0.34053000  0.18647000  1.0
  C  C164  1  0.12698000  0.22602000  0.85996000  1.0
  C  C165  1  0.37302000  0.77398000  0.35996000  1.0
  C  C166  1  0.87302000  0.72602000  0.64004000  1.0
  C  C167  1  0.62698000  0.27398000  0.14004000  1.0
  C  C168  1  0.01171000  0.20572000  0.83431000  1.0
  C  C169  1  0.48829000  0.79428000  0.33431000  1.0
  C  C170  1  0.98829000  0.70572000  0.66569000  1.0
  C  C171  1  0.51171000  0.29428000  0.16569000  1.0
  C  C172  1  0.93482000  0.05477000  0.77913000  1.0
  C  C173  1  0.56518000  0.94522000  0.27913000  1.0
  C  C174  1  0.06518000  0.55477000  0.72087000  1.0
  C  C175  1  0.43482000  0.44523000  0.22087000  1.0
  C  C176  1  0.15481000  0.32897000  0.84896000  1.0
  C  C177  1  0.34519000  0.67103000  0.34896000  1.0
  C  C178  1  0.84518000  0.82897000  0.65104000  1.0
  C  C179  1  0.65482000  0.17103000  0.15104000  1.0
  C  C180  1  0.14273000  0.19937000  0.93786000  1.0
  C  C181  1  0.35727000  0.80063000  0.43786000  1.0
  C  C182  1  0.85727000  0.69936000  0.56214000  1.0
  C  C183  1  0.64273000  0.30063000  0.06214000  1.0
  C  C184  1  0.99036000  0.25156000  0.76245000  1.0
  C  C185  1  0.50964000  0.74844000  0.26245000  1.0
  C  C186  1  0.00964000  0.75156000  0.73755000  1.0
  C  C187  1  0.49036000  0.24844000  0.23755000  1.0
  C  C188  1  0.92924000  0.23905000  0.88663000  1.0
  C  C189  1  0.57076000  0.76095000  0.38663000  1.0
  C  C190  1  0.07076000  0.73905000  0.61336000  1.0
  C  C191  1  0.42924000  0.26095000  0.11337000  1.0
  C  C192  1  0.44489000  0.93173000  0.74078000  1.0
  C  C193  1  0.05511000  0.06827000  0.24078000  1.0
  C  C194  1  0.55512000  0.43173000  0.75922000  1.0
  C  C195  1  0.94489000  0.56827000  0.25922000  1.0
  C  C196  1  0.35808000  0.92645000  0.79612000  1.0
  C  C197  1  0.14192000  0.07355000  0.29612000  1.0
  C  C198  1  0.64192000  0.42645000  0.70388000  1.0
  C  C199  1  0.85808000  0.57355000  0.20388000  1.0
  C  C200  1  0.27396000  0.86417000  0.76370000  1.0
  C  C201  1  0.22604000  0.13583000  0.26370000  1.0
  C  C202  1  0.72604000  0.36417000  0.73630000  1.0
  C  C203  1  0.77396000  0.63583000  0.23630000  1.0
  C  C204  1  0.32859000  0.80340000  0.70776000  1.0
  C  C205  1  0.17142000  0.19660000  0.20776000  1.0
  C  C206  1  0.67141000  0.30340000  0.79224000  1.0
  C  C207  1  0.82858000  0.69660000  0.29224000  1.0
  C  C208  1  0.44772000  0.82877000  0.70911000  1.0
  C  C209  1  0.05229000  0.17123000  0.20911000  1.0
  C  C210  1  0.55229000  0.32877000  0.79089000  1.0
  C  C211  1  0.94772000  0.67123000  0.29089000  1.0
  C  C212  1  0.54858000  0.95559000  0.77532000  1.0
  C  C213  1  0.95142000  0.04441000  0.27532000  1.0
  C  C214  1  0.45142000  0.45559000  0.72468000  1.0
  C  C215  1  0.04858000  0.54441000  0.22468000  1.0
  C  C216  1  0.31188000  0.69860000  0.71568000  1.0
  C  C217  1  0.18812000  0.30140000  0.21568000  1.0
  C  C218  1  0.68812000  0.19860000  0.78432000  1.0
  C  C219  1  0.81188000  0.80140000  0.28432000  1.0
  C  C220  1  0.41867000  0.00486000  0.68396000  1.0
  C  C221  1  0.08133000  0.99514000  0.18396000  1.0
  C  C222  1  0.58133000  0.50486000  0.81604000  1.0
  C  C223  1  0.91868000  0.49514000  0.31604000  1.0
  C  C224  1  0.50796000  0.76267000  0.75810000  1.0
  C  C225  1  0.99204000  0.23733000  0.25810000  1.0
  C  C226  1  0.49204000  0.26267000  0.74190000  1.0
  C  C227  1  0.00796000  0.73733000  0.24190000  1.0
  C  C228  1  0.49615000  0.82206000  0.63561000  1.0
  C  C229  1  0.00385000  0.17794000  0.13562000  1.0
  C  C230  1  0.50385000  0.32206000  0.86439000  1.0
  C  C231  1  0.99615000  0.67794000  0.36439000  1.0
  C  C232  1  0.57072000  0.76716000  0.01695000  1.0
  C  C233  1  0.92928000  0.23284000  0.51695000  1.0
  C  C234  1  0.42929000  0.26716000  0.48305000  1.0
  C  C235  1  0.07072000  0.73284000  0.98306000  1.0
  C  C236  1  0.52344000  0.75451000  0.95106000  1.0
  C  C237  1  0.97655000  0.24549000  0.45106000  1.0
  C  C238  1  0.47656000  0.25451000  0.54894000  1.0
  C  C239  1  0.02344000  0.74549000  0.04894000  1.0
  C  C240  1  0.46121000  0.67646000  0.93886000  1.0
  C  C241  1  0.03879000  0.32354000  0.43886000  1.0
  C  C242  1  0.53879000  0.17646000  0.56114000  1.0
  C  C243  1  0.96121000  0.82354000  0.06114000  1.0
  C  C244  1  0.44578000  0.60982000  0.99225000  1.0
  C  C245  1  0.05422000  0.39018000  0.49225000  1.0
  C  C246  1  0.55422000  0.10982000  0.50775000  1.0
  C  C247  1  0.94578000  0.89018000  0.00775000  1.0
  C  C248  1  0.49187000  0.62368000  0.05849000  1.0
  C  C249  1  0.00812000  0.37632000  0.55849000  1.0
  C  C250  1  0.50812000  0.12368000  0.44151000  1.0
  C  C251  1  0.99187000  0.87632000  0.94151000  1.0
  C  C252  1  0.55385000  0.70172000  0.07087000  1.0
  C  C253  1  0.94615000  0.29828000  0.57087000  1.0
  C  C254  1  0.44615000  0.20172000  0.42913000  1.0
  C  C255  1  0.05385000  0.79828000  0.92914000  1.0
  C  C256  1  0.63846000  0.85085000  0.02963000  1.0
  C  C257  1  0.86154000  0.14915000  0.52963000  1.0
  C  C258  1  0.36154000  0.35085000  0.47037000  1.0
  C  C259  1  0.13846000  0.64915000  0.97037000  1.0
  C  C260  1  0.37837000  0.52590000  0.97919000  1.0
  C  C261  1  0.12163000  0.47410000  0.47918000  1.0
  C  C262  1  0.62163000  0.02590000  0.52081000  1.0
  C  C263  1  0.87837000  0.97410000  0.02081000  1.0
  O  O264  1  0.84408000  0.03287000  0.80356000  1.0
  O  O265  1  0.65592000  0.96713000  0.30356000  1.0
  O  O266  1  0.15592000  0.53287000  0.69644000  1.0
  O  O267  1  0.34408000  0.46713000  0.19644000  1.0
  O  O268  1  0.95358000  0.04364000  0.71427000  1.0
  O  O269  1  0.54642000  0.95636000  0.21427000  1.0
  O  O270  1  0.04642000  0.54364000  0.78573000  1.0
  O  O271  1  0.45358000  0.45636000  0.28573000  1.0
  O  O272  1  0.13672000  0.39047000  0.89643000  1.0
  O  O273  1  0.36328000  0.60953000  0.39643000  1.0
  O  O274  1  0.86328000  0.89047000  0.60357000  1.0
  O  O275  1  0.63672000  0.10953000  0.10357000  1.0
  O  O276  1  0.19743000  0.35627000  0.79130000  1.0
  O  O277  1  0.30257000  0.64373000  0.29130000  1.0
  O  O278  1  0.80257000  0.85627000  0.70870000  1.0
  O  O279  1  0.69743000  0.14373000  0.20870000  1.0
  O  O280  1  0.62687000  0.97480000  0.73677000  1.0
  O  O281  1  0.87313000  0.02521000  0.23677000  1.0
  O  O282  1  0.37313000  0.47479000  0.76323000  1.0
  O  O283  1  0.12687000  0.52521000  0.26323000  1.0
  O  O284  1  0.55513000  0.95394000  0.84227000  1.0
  O  O285  1  0.94487000  0.04606000  0.34227000  1.0
  O  O286  1  0.44487000  0.45394000  0.65773000  1.0
  O  O287  1  0.05513000  0.54606000  0.15773000  1.0
  O  O288  1  0.32882000  0.64913000  0.66050000  1.0
  O  O289  1  0.17118000  0.35087000  0.16050000  1.0
  O  O290  1  0.67118000  0.14914000  0.83950000  1.0
  O  O291  1  0.82882000  0.85086000  0.33950000  1.0
  O  O292  1  0.28433000  0.66549000  0.77492000  1.0
  O  O293  1  0.21567000  0.33451000  0.27493000  1.0
  O  O294  1  0.71566000  0.16549000  0.72507000  1.0
  O  O295  1  0.78433000  0.83451000  0.22507000  1.0
  O  O296  1  0.65848000  0.87252000  0.09303000  1.0
  O  O297  1  0.84152000  0.12748000  0.59303000  1.0
  O  O298  1  0.34152000  0.37252000  0.40697000  1.0
  O  O299  1  0.15848000  0.62748000  0.90697000  1.0
  O  O300  1  0.67273000  0.89473000  0.97602000  1.0
  O  O301  1  0.82727000  0.10527000  0.47602000  1.0
  O  O302  1  0.32727000  0.39473000  0.52398000  1.0
  O  O303  1  0.17274000  0.60527000  0.02398000  1.0
  O  O304  1  0.35461000  0.47422000  0.03191000  1.0
  O  O305  1  0.14539000  0.52578000  0.53191000  1.0
  O  O306  1  0.64539000  0.97422000  0.46809000  1.0
  O  O307  1  0.85461000  0.02578000  0.96809000  1.0
  O  O308  1  0.34823000  0.50980000  0.91663000  1.0
  O  O309  1  0.15177000  0.49020000  0.41663000  1.0
  O  O310  1  0.65177000  0.00980000  0.58337000  1.0
  O  O311  1  0.84823000  0.99020000  0.08337000  1.0
  O  O312  1  0.77262000  0.84877000  0.84563000  1.0
  O  O313  1  0.72738000  0.15123000  0.34563000  1.0
  O  O314  1  0.22738000  0.34877000  0.65437000  1.0
  O  O315  1  0.27262000  0.65123000  0.15437000  1.0
  O  O316  1  0.61036000  0.09773000  0.96706000  1.0
  O  O317  1  0.88965000  0.90227000  0.46706000  1.0
  O  O318  1  0.38964000  0.59773000  0.53294000  1.0
  O  O319  1  0.11036000  0.40227000  0.03294000  1.0
