# generated using pymatgen
data_CuH8C10(N2O3)2
_symmetry_space_group_name_H-M   'P 1'
_cell_length_a   6.59145000
_cell_length_b   9.75665000
_cell_length_c   10.52260000
_cell_angle_alpha   105.85000000
_cell_angle_beta   90.00000000
_cell_angle_gamma   89.99960000
_symmetry_Int_Tables_number   1
_chemical_formula_structural   CuH8C10(N2O3)2
_chemical_formula_sum   'Cu2 H16 C20 N8 O12'
_cell_volume   650.98472855
_cell_formula_units_Z   2
loop_
 _symmetry_equiv_pos_site_id
 _symmetry_equiv_pos_as_xyz
  1  'x, y, z'
loop_
 _atom_site_type_symbol
 _atom_site_label
 _atom_site_symmetry_multiplicity
 _atom_site_fract_x
 _atom_site_fract_y
 _atom_site_fract_z
 _atom_site_occupancy
  Cu  Cu0  1  0.00000000  0.50000000  0.50000000  1.0
  Cu  Cu1  1  0.50000000  0.50000000  0.00000000  1.0
  H  H2  1  0.67824000  0.35798000  0.60934000  1.0
  H  H3  1  0.17825000  0.64202000  0.89066000  1.0
  H  H4  1  0.32175000  0.64202000  0.39066000  1.0
  H  H5  1  0.82175000  0.35798000  0.10934000  1.0
  H  H6  1  0.88874000  0.31563000  0.65488000  1.0
  H  H7  1  0.38875000  0.68437000  0.84512000  1.0
  H  H8  1  0.11126000  0.68437000  0.34511000  1.0
  H  H9  1  0.61126000  0.31563000  0.15488000  1.0
  H  H10  1  0.32104000  0.38255000  0.56437000  1.0
  H  H11  1  0.82105000  0.61745000  0.93563000  1.0
  H  H12  1  0.67896000  0.61745000  0.43563000  1.0
  H  H13  1  0.17896000  0.38255000  0.06436000  1.0
  H  H14  1  0.26710000  0.52053000  0.68828000  1.0
  H  H15  1  0.76711000  0.47947000  0.81173000  1.0
  H  H16  1  0.73290000  0.47947000  0.31172000  1.0
  H  H17  1  0.23290000  0.52053000  0.18827000  1.0
  C  C18  1  0.99040000  0.80908000  0.67993000  1.0
  C  C19  1  0.49041000  0.19092000  0.82007000  1.0
  C  C20  1  0.00960000  0.19092000  0.32007000  1.0
  C  C21  1  0.50959000  0.80908000  0.17993000  1.0
  C  C22  1  0.00521000  0.94959000  0.75988000  1.0
  C  C23  1  0.50522000  0.05041000  0.74011000  1.0
  C  C24  1  0.99478000  0.05041000  0.24012000  1.0
  C  C25  1  0.49477000  0.94958000  0.25988000  1.0
  C  C26  1  0.00361000  0.97810000  0.89747000  1.0
  C  C27  1  0.50362000  0.02190000  0.60252000  1.0
  C  C28  1  0.99637000  0.02191000  0.10253000  1.0
  C  C29  1  0.49636000  0.97810000  0.39747000  1.0
  C  C30  1  0.99394000  0.89163000  0.99199000  1.0
  C  C31  1  0.49394000  0.10837000  0.50801000  1.0
  C  C32  1  0.00605000  0.10837000  0.00802000  1.0
  C  C33  1  0.50604000  0.89162000  0.49198000  1.0
  C  C34  1  0.01154000  0.06098000  0.69827000  1.0
  C  C35  1  0.51155000  0.93902000  0.80173000  1.0
  C  C36  1  0.98846000  0.93902000  0.30173000  1.0
  C  C37  1  0.48846000  0.06097000  0.19826000  1.0
  N  N38  1  0.97190000  0.69193000  0.61499000  1.0
  N  N39  1  0.47192000  0.30807000  0.88501000  1.0
  N  N40  1  0.02810000  0.30807000  0.38501000  1.0
  N  N41  1  0.52810000  0.69193000  0.11499000  1.0
  N  N42  1  0.01735000  0.15485000  0.64894000  1.0
  N  N43  1  0.51735000  0.84515000  0.85106000  1.0
  N  N44  1  0.98266000  0.84515000  0.35106000  1.0
  N  N45  1  0.48266000  0.15485000  0.14893000  1.0
  O  O46  1  0.80194000  0.40007000  0.65810000  1.0
  O  O47  1  0.30195000  0.59993000  0.84190000  1.0
  O  O48  1  0.19806000  0.59993000  0.34190000  1.0
  O  O49  1  0.69806000  0.40007000  0.15810000  1.0
  O  O50  1  0.25954000  0.47870000  0.58895000  1.0
  O  O51  1  0.75955000  0.52130000  0.91106000  1.0
  O  O52  1  0.74047000  0.52130000  0.41105000  1.0
  O  O53  1  0.24046000  0.47870000  0.08894000  1.0
  O  O54  1  0.98964000  0.76169000  0.98434000  1.0
  O  O55  1  0.48963000  0.23832000  0.51566000  1.0
  O  O56  1  0.01036000  0.23832000  0.01566000  1.0
  O  O57  1  0.51037000  0.76169000  0.48434000  1.0
