# generated using pymatgen
data_ZnH15C20N2O5
_symmetry_space_group_name_H-M   'P 1'
_cell_length_a   7.42488000
_cell_length_b   14.91000000
_cell_length_c   17.03040000
_cell_angle_alpha   89.99950000
_cell_angle_beta   95.04410000
_cell_angle_gamma   90.00000000
_symmetry_Int_Tables_number   1
_chemical_formula_structural   ZnH15C20N2O5
_chemical_formula_sum   'Zn4 H60 C80 N8 O20'
_cell_volume   1878.04840819
_cell_formula_units_Z   4
loop_
 _symmetry_equiv_pos_site_id
 _symmetry_equiv_pos_as_xyz
  1  'x, y, z'
loop_
 _atom_site_type_symbol
 _atom_site_label
 _atom_site_symmetry_multiplicity
 _atom_site_fract_x
 _atom_site_fract_y
 _atom_site_fract_z
 _atom_site_occupancy
  Zn  Zn0  1  0.25312000  0.85080000  0.68031000  1.0
  Zn  Zn1  1  0.24688000  0.35080000  0.81969000  1.0
  Zn  Zn2  1  0.74689000  0.14920000  0.31969000  1.0
  Zn  Zn3  1  0.75311000  0.64921000  0.18031000  1.0
  H  H4  1  0.97966000  0.95175000  0.57334000  1.0
  H  H5  1  0.52032000  0.45175000  0.92666000  1.0
  H  H6  1  0.02032000  0.04824000  0.42665000  1.0
  H  H7  1  0.47968000  0.54825000  0.07335000  1.0
  H  H8  1  0.29032000  0.01085000  0.78037000  1.0
  H  H9  1  0.20967000  0.51086000  0.71963000  1.0
  H  H10  1  0.70965000  0.98915000  0.21963000  1.0
  H  H11  1  0.79034000  0.48915000  0.28037000  1.0
  H  H12  1  0.07538000  0.12673000  0.81763000  1.0
  H  H13  1  0.42461000  0.62674000  0.68236000  1.0
  H  H14  1  0.92458000  0.87326000  0.18236000  1.0
  H  H15  1  0.57540000  0.37327000  0.31764000  1.0
  H  H16  1  0.75241000  0.06801000  0.59914000  1.0
  H  H17  1  0.74757000  0.56802000  0.90087000  1.0
  H  H18  1  0.24756000  0.93197000  0.40086000  1.0
  H  H19  1  0.25243000  0.43199000  0.09914000  1.0
  H  H20  1  0.89756000  0.22322000  0.83986000  1.0
  H  H21  1  0.60243000  0.72323000  0.66014000  1.0
  H  H22  1  0.10242000  0.77677000  0.16013000  1.0
  H  H23  1  0.39758000  0.27678000  0.33987000  1.0
  H  H24  1  0.53493000  0.12161000  0.64642000  1.0
  H  H25  1  0.96505000  0.62162000  0.85359000  1.0
  H  H26  1  0.46504000  0.87838000  0.35358000  1.0
  H  H27  1  0.03496000  0.37839000  0.14642000  1.0
  H  H28  1  0.64246000  0.31182000  0.88067000  1.0
  H  H29  1  0.85754000  0.81183000  0.61933000  1.0
  H  H30  1  0.35753000  0.68818000  0.11933000  1.0
  H  H31  1  0.14247000  0.18818000  0.38067000  1.0
  H  H32  1  0.30015000  0.22279000  0.69176000  1.0
  H  H33  1  0.19984000  0.72280000  0.80825000  1.0
  H  H34  1  0.69982000  0.77721000  0.30825000  1.0
  H  H35  1  0.80017000  0.27721000  0.19176000  1.0
  H  H36  1  0.87265000  0.95928000  0.81128000  1.0
  H  H37  1  0.62735000  0.45928000  0.68871000  1.0
  H  H38  1  0.12736000  0.04072000  0.18872000  1.0
  H  H39  1  0.37265000  0.54073000  0.31128000  1.0
  H  H40  1  0.05115000  0.81857000  0.02625000  1.0
  H  H41  1  0.44886000  0.31855000  0.47375000  1.0
  H  H42  1  0.94886000  0.18145000  0.97375000  1.0
  H  H43  1  0.55115000  0.68145000  0.52625000  1.0
  H  H44  1  0.53147000  0.76071000  0.90547000  1.0
  H  H45  1  0.96854000  0.26071000  0.59453000  1.0
  H  H46  1  0.46854000  0.23929000  0.09453000  1.0
  H  H47  1  0.03146000  0.73929000  0.40547000  1.0
  H  H48  1  0.33006000  0.86479000  0.97822000  1.0
  H  H49  1  0.16993000  0.36478000  0.52177000  1.0
  H  H50  1  0.66994000  0.13522000  0.02178000  1.0
  H  H51  1  0.83007000  0.63521000  0.47823000  1.0
  H  H52  1  0.22310000  0.94402000  0.03830000  1.0
  H  H53  1  0.27691000  0.44401000  0.46170000  1.0
  H  H54  1  0.77693000  0.05599000  0.96170000  1.0
  H  H55  1  0.72308000  0.55598000  0.53830000  1.0
  H  H56  1  0.36000000  0.06969000  0.96701000  1.0
  H  H57  1  0.14002000  0.56968000  0.53299000  1.0
  H  H58  1  0.64003000  0.93032000  0.03298000  1.0
  H  H59  1  0.85998000  0.43032000  0.46701000  1.0
  H  H60  1  0.47218000  0.99130000  0.90979000  1.0
  H  H61  1  0.02784000  0.49129000  0.59021000  1.0
  H  H62  1  0.52784000  0.00870000  0.09021000  1.0
  H  H63  1  0.97216000  0.50870000  0.40979000  1.0
  C  C64  1  0.99373000  0.99306000  0.62637000  1.0
  C  C65  1  0.50627000  0.49305000  0.87363000  1.0
  C  C66  1  0.00626000  0.00694000  0.37363000  1.0
  C  C67  1  0.49374000  0.50695000  0.12637000  1.0
  C  C68  1  0.16847000  0.02587000  0.74237000  1.0
  C  C69  1  0.33153000  0.52587000  0.75763000  1.0
  C  C70  1  0.83152000  0.97413000  0.25762000  1.0
  C  C71  1  0.66848000  0.47413000  0.24237000  1.0
  C  C72  1  0.04699000  0.09101000  0.76218000  1.0
  C  C73  1  0.45300000  0.59102000  0.73782000  1.0
  C  C74  1  0.95298000  0.90898000  0.23782000  1.0
  C  C75  1  0.54702000  0.40898000  0.26218000  1.0
  C  C76  1  0.88655000  0.10502000  0.71357000  1.0
  C  C77  1  0.61344000  0.60502000  0.78643000  1.0
  C  C78  1  0.11342000  0.89497000  0.28643000  1.0
  C  C79  1  0.38657000  0.39498000  0.21357000  1.0
  C  C80  1  0.86744000  0.05751000  0.64214000  1.0
  C  C81  1  0.63255000  0.55752000  0.85786000  1.0
  C  C82  1  0.13253000  0.94247000  0.35786000  1.0
  C  C83  1  0.36746000  0.44248000  0.14214000  1.0
  C  C84  1  0.76713000  0.21780000  0.80560000  1.0
  C  C85  1  0.73286000  0.71781000  0.69440000  1.0
  C  C86  1  0.23284000  0.78219000  0.19439000  1.0
  C  C87  1  0.26715000  0.28220000  0.30561000  1.0
  C  C88  1  0.56809000  0.16394000  0.69767000  1.0
  C  C89  1  0.93191000  0.66395000  0.80234000  1.0
  C  C90  1  0.43189000  0.83605000  0.30233000  1.0
  C  C91  1  0.06810000  0.33606000  0.19767000  1.0
  C  C92  1  0.74071000  0.16303000  0.73856000  1.0
  C  C93  1  0.75928000  0.66304000  0.76144000  1.0
  C  C94  1  0.25927000  0.83696000  0.26144000  1.0
  C  C95  1  0.24073000  0.33697000  0.23856000  1.0
  C  C96  1  0.62558000  0.26976000  0.82829000  1.0
  C  C97  1  0.87441000  0.76976000  0.67171000  1.0
  C  C98  1  0.37440000  0.73023000  0.17170000  1.0
  C  C99  1  0.12560000  0.23024000  0.32830000  1.0
  C  C100  1  0.43442000  0.21906000  0.72308000  1.0
  C  C101  1  0.06557000  0.71907000  0.77693000  1.0
  C  C102  1  0.56556000  0.78094000  0.27693000  1.0
  C  C103  1  0.93444000  0.28094000  0.22308000  1.0
  C  C104  1  0.55149000  0.87954000  0.78260000  1.0
  C  C105  1  0.94851000  0.37954000  0.71740000  1.0
  C  C106  1  0.44851000  0.12046000  0.21740000  1.0
  C  C107  1  0.05149000  0.62046000  0.28260000  1.0
  C  C108  1  0.68897000  0.86184000  0.85094000  1.0
  C  C109  1  0.81104000  0.36184000  0.64906000  1.0
  C  C110  1  0.31104000  0.13816000  0.14906000  1.0
  C  C111  1  0.18896000  0.63816000  0.35094000  1.0
  C  C112  1  0.85045000  0.90975000  0.85623000  1.0
  C  C113  1  0.64956000  0.40974000  0.64377000  1.0
  C  C114  1  0.14956000  0.09026000  0.14377000  1.0
  C  C115  1  0.35045000  0.59026000  0.35623000  1.0
  C  C116  1  0.98291000  0.89472000  0.91873000  1.0
  C  C117  1  0.51709000  0.39471000  0.58126000  1.0
  C  C118  1  0.01710000  0.10528000  0.08127000  1.0
  C  C119  1  0.48291000  0.60528000  0.41873000  1.0
  C  C120  1  0.95216000  0.83125000  0.97660000  1.0
  C  C121  1  0.54784000  0.33124000  0.52340000  1.0
  C  C122  1  0.04784000  0.16876000  0.02340000  1.0
  C  C123  1  0.45217000  0.66876000  0.47660000  1.0
  C  C124  1  0.78811000  0.78366000  0.97140000  1.0
  C  C125  1  0.71191000  0.28365000  0.52860000  1.0
  C  C126  1  0.21191000  0.21634000  0.02860000  1.0
  C  C127  1  0.28809000  0.71634000  0.47140000  1.0
  C  C128  1  0.65740000  0.79831000  0.90870000  1.0
  C  C129  1  0.84260000  0.29830000  0.59130000  1.0
  C  C130  1  0.34261000  0.20170000  0.09129000  1.0
  C  C131  1  0.15740000  0.70170000  0.40870000  1.0
  C  C132  1  0.74592000  0.71969000  0.03514000  1.0
  C  C133  1  0.75409000  0.21968000  0.46486000  1.0
  C  C134  1  0.25408000  0.28032000  0.96486000  1.0
  C  C135  1  0.24591000  0.78032000  0.53514000  1.0
  C  C136  1  0.27675000  0.93376000  0.98056000  1.0
  C  C137  1  0.22326000  0.43375000  0.51943000  1.0
  C  C138  1  0.72327000  0.06625000  0.01943000  1.0
  C  C139  1  0.77674000  0.56625000  0.48057000  1.0
  C  C140  1  0.42175000  0.00259000  0.96785000  1.0
  C  C141  1  0.07827000  0.50258000  0.53215000  1.0
  C  C142  1  0.57827000  0.99741000  0.03215000  1.0
  C  C143  1  0.92173000  0.49741000  0.46785000  1.0
  N  N144  1  0.46137000  0.27107000  0.78789000  1.0
  N  N145  1  0.03863000  0.77108000  0.71211000  1.0
  N  N146  1  0.53862000  0.72892000  0.21211000  1.0
  N  N147  1  0.96138000  0.22892000  0.28789000  1.0
  N  N148  1  0.13915000  0.97475000  0.67717000  1.0
  N  N149  1  0.36084000  0.47475000  0.82282000  1.0
  N  N150  1  0.86083000  0.02525000  0.32282000  1.0
  N  N151  1  0.63917000  0.52525000  0.17718000  1.0
  O  O152  1  0.57626000  0.93989000  0.73365000  1.0
  O  O153  1  0.92374000  0.43989000  0.76635000  1.0
  O  O154  1  0.42374000  0.06012000  0.26635000  1.0
  O  O155  1  0.07627000  0.56012000  0.23365000  1.0
  O  O156  1  0.40933000  0.82808000  0.77900000  1.0
  O  O157  1  0.09068000  0.32809000  0.72100000  1.0
  O  O158  1  0.59068000  0.17191000  0.22100000  1.0
  O  O159  1  0.90932000  0.67191000  0.27900000  1.0
  O  O160  1  0.60281000  0.67458000  0.02888000  1.0
  O  O161  1  0.89720000  0.17457000  0.47112000  1.0
  O  O162  1  0.39720000  0.32542000  0.97112000  1.0
  O  O163  1  0.10280000  0.82542000  0.52888000  1.0
  O  O164  1  0.86288000  0.71653000  0.09684000  1.0
  O  O165  1  0.63712000  0.21653000  0.40315000  1.0
  O  O166  1  0.13711000  0.28348000  0.90316000  1.0
  O  O167  1  0.36288000  0.78347000  0.59684000  1.0
  O  O168  1  0.13465000  0.94625000  0.91855000  1.0
  O  O169  1  0.36536000  0.44624000  0.58145000  1.0
  O  O170  1  0.86536000  0.05376000  0.08145000  1.0
  O  O171  1  0.63464000  0.55376000  0.41855000  1.0
