# generated using pymatgen
data_CdH14(C4O3)2
_symmetry_space_group_name_H-M   'P 1'
_cell_length_a   5.35781000
_cell_length_b   6.52974314
_cell_length_c   16.17452347
_cell_angle_alpha   79.29354544
_cell_angle_beta   80.47921579
_cell_angle_gamma   65.79696717
_symmetry_Int_Tables_number   1
_chemical_formula_structural   CdH14(C4O3)2
_chemical_formula_sum   'Cd2 H28 C16 O12'
_cell_volume   504.62170942
_cell_formula_units_Z   2
loop_
 _symmetry_equiv_pos_site_id
 _symmetry_equiv_pos_as_xyz
  1  'x, y, z'
loop_
 _atom_site_type_symbol
 _atom_site_label
 _atom_site_symmetry_multiplicity
 _atom_site_fract_x
 _atom_site_fract_y
 _atom_site_fract_z
 _atom_site_occupancy
  Cd  Cd0  1  0.43128000  0.74985000  0.25006000  1.0
  Cd  Cd1  1  0.56867000  0.25013000  0.74995000  1.0
  H  H2  1  0.54863000  0.94928000  0.37978000  1.0
  H  H3  1  0.87745000  0.55095000  0.12016000  1.0
  H  H4  1  0.45140000  0.05067000  0.62023000  1.0
  H  H5  1  0.12255000  0.44905000  0.87984000  1.0
  H  H6  1  0.85892000  0.76738000  0.53794000  1.0
  H  H7  1  0.16490000  0.73227000  0.96213000  1.0
  H  H8  1  0.14106000  0.23261000  0.46207000  1.0
  H  H9  1  0.83509000  0.26772000  0.03786000  1.0
  H  H10  1  0.79237000  0.60309000  0.47608000  1.0
  H  H11  1  0.87209000  0.89688000  0.02392000  1.0
  H  H12  1  0.20767000  0.39690000  0.52393000  1.0
  H  H13  1  0.12792000  0.10311000  0.97608000  1.0
  H  H14  1  0.53434000  0.32154000  0.39505000  1.0
  H  H15  1  0.25024000  0.17847000  0.10501000  1.0
  H  H16  1  0.46568000  0.67847000  0.60495000  1.0
  H  H17  1  0.74975000  0.82153000  0.89499000  1.0
  H  H18  1  0.70841000  0.20706000  0.48706000  1.0
  H  H19  1  0.40243000  0.29274000  0.01308000  1.0
  H  H20  1  0.29162000  0.79295000  0.51294000  1.0
  H  H21  1  0.59754000  0.70725000  0.98692000  1.0
  H  H22  1  0.94014000  0.56395000  0.32110000  1.0
  H  H23  1  0.82512000  0.93609000  0.17891000  1.0
  H  H24  1  0.05988000  0.43606000  0.67890000  1.0
  H  H25  1  0.17493000  0.06387000  0.82109000  1.0
  H  H26  1  0.89773000  0.33761000  0.31066000  1.0
  H  H27  1  0.54581000  0.16215000  0.18939000  1.0
  H  H28  1  0.10224000  0.66240000  0.68934000  1.0
  H  H29  1  0.45415000  0.83786000  0.81061000  1.0
  C  C30  1  0.96156000  0.90468000  0.36624000  1.0
  C  C31  1  0.23233000  0.59520000  0.13383000  1.0
  C  C32  1  0.03853000  0.09530000  0.63374000  1.0
  C  C33  1  0.76767000  0.40484000  0.86617000  1.0
  C  C34  1  0.68987000  0.95447000  0.42141000  1.0
  C  C35  1  0.06569000  0.54546000  0.07862000  1.0
  C  C36  1  0.31015000  0.04552000  0.57859000  1.0
  C  C37  1  0.93429000  0.45455000  0.92138000  1.0
  C  C38  1  0.71090000  0.77001000  0.49744000  1.0
  C  C39  1  0.97877000  0.72994000  0.00258000  1.0
  C  C40  1  0.28905000  0.22998000  0.50258000  1.0
  C  C41  1  0.02122000  0.27006000  0.99742000  1.0
  C  C42  1  0.56510000  0.18965000  0.44981000  1.0
  C  C43  1  0.20433000  0.31028000  0.05023000  1.0
  C  C44  1  0.43488000  0.81038000  0.55019000  1.0
  C  C45  1  0.79567000  0.68972000  0.94977000  1.0
  O  O46  1  0.10382000  0.69721000  0.35275000  1.0
  O  O47  1  0.15361000  0.80260000  0.14747000  1.0
  O  O48  1  0.89615000  0.30275000  0.64726000  1.0
  O  O49  1  0.84639000  0.19741000  0.85253000  1.0
  O  O50  1  0.04894000  0.05762000  0.33276000  1.0
  O  O51  1  0.43944000  0.44231000  0.16717000  1.0
  O  O52  1  0.95103000  0.94242000  0.66723000  1.0
  O  O53  1  0.56054000  0.55774000  0.83283000  1.0
  O  O54  1  0.83880000  0.50414000  0.29178000  1.0
  O  O55  1  0.63462000  0.99564000  0.20820000  1.0
  O  O56  1  0.16122000  0.49586000  0.70822000  1.0
  O  O57  1  0.36538000  0.00438000  0.79179000  1.0
