# generated using pymatgen
data_NiH26C28S2(NO5)2
_symmetry_space_group_name_H-M   'P 1'
_cell_length_a   4.76545000
_cell_length_b   10.93450000
_cell_length_c   12.99240000
_cell_angle_alpha   93.93260000
_cell_angle_beta   90.78850000
_cell_angle_gamma   98.67940000
_symmetry_Int_Tables_number   1
_chemical_formula_structural   NiH26C28S2(NO5)2
_chemical_formula_sum   'Ni1 H26 C28 S2 N2 O10'
_cell_volume   667.47724742
_cell_formula_units_Z   1
loop_
 _symmetry_equiv_pos_site_id
 _symmetry_equiv_pos_as_xyz
  1  'x, y, z'
loop_
 _atom_site_type_symbol
 _atom_site_label
 _atom_site_symmetry_multiplicity
 _atom_site_fract_x
 _atom_site_fract_y
 _atom_site_fract_z
 _atom_site_occupancy
  Ni  Ni0  1  0.50000000  0.50000000  0.50000000  1.0
  H  H1  1  0.63351000  0.30292000  0.10003000  1.0
  H  H2  1  0.36649000  0.69708000  0.89996000  1.0
  H  H3  1  0.79652000  0.49304000  0.66029000  1.0
  H  H4  1  0.20349000  0.50696000  0.33971000  1.0
  H  H5  1  0.45234000  0.50693000  0.68568000  1.0
  H  H6  1  0.54768000  0.49308000  0.31432000  1.0
  H  H7  1  0.27285000  0.14622000  0.27615000  1.0
  H  H8  1  0.72714000  0.85378000  0.72385000  1.0
  H  H9  1  0.44151000  0.94286000  0.29014000  1.0
  H  H10  1  0.55848000  0.05714000  0.70987000  1.0
  H  H11  1  0.80113000  0.77423000  0.06429000  1.0
  H  H12  1  0.19887000  0.22577000  0.93570000  1.0
  H  H13  1  0.64383000  0.97497000  0.04958000  1.0
  H  H14  1  0.35618000  0.02504000  0.95042000  1.0
  H  H15  1  0.00943000  0.61532000  0.04635000  1.0
  H  H16  1  0.99057000  0.38468000  0.95364000  1.0
  H  H17  1  0.21443000  0.51788000  0.10630000  1.0
  H  H18  1  0.78557000  0.48213000  0.89369000  1.0
  H  H19  1  0.81036000  0.32662000  0.38844000  1.0
  H  H20  1  0.18963000  0.67338000  0.61157000  1.0
  H  H21  1  0.82810000  0.10571000  0.38543000  1.0
  H  H22  1  0.17190000  0.89428000  0.61458000  1.0
  H  H23  1  0.16355000  0.07884000  0.61256000  1.0
  H  H24  1  0.83645000  0.92116000  0.38746000  1.0
  H  H25  1  0.19702000  0.30491000  0.61578000  1.0
  H  H26  1  0.80299000  0.69509000  0.38423000  1.0
  C  C27  1  0.94515000  0.07430000  0.16357000  1.0
  C  C28  1  0.05485000  0.92570000  0.83642000  1.0
  C  C29  1  0.16992000  0.06303000  0.23168000  1.0
  C  C30  1  0.83007000  0.93697000  0.76832000  1.0
  C  C31  1  0.26212000  0.95004000  0.23955000  1.0
  C  C32  1  0.73787000  0.04996000  0.76046000  1.0
  C  C33  1  0.13157000  0.84342000  0.17986000  1.0
  C  C34  1  0.86844000  0.15658000  0.82014000  1.0
  C  C35  1  0.90744000  0.85428000  0.11141000  1.0
  C  C36  1  0.09257000  0.14572000  0.88858000  1.0
  C  C37  1  0.81759000  0.96890000  0.10318000  1.0
  C  C38  1  0.18241000  0.03110000  0.89682000  1.0
  C  C39  1  0.86001000  0.19890000  0.16298000  1.0
  C  C40  1  0.13997000  0.80110000  0.83702000  1.0
  C  C41  1  0.06847000  0.58608000  0.12156000  1.0
  C  C42  1  0.93153000  0.41392000  0.87843000  1.0
  C  C43  1  0.81010000  0.52070000  0.17421000  1.0
  C  C44  1  0.18990000  0.47929000  0.82579000  1.0
  C  C45  1  0.67674000  0.27000000  0.44013000  1.0
  C  C46  1  0.32325000  0.72999000  0.55987000  1.0
  C  C47  1  0.68105000  0.14302000  0.43789000  1.0
  C  C48  1  0.31895000  0.85697000  0.56212000  1.0
  C  C49  1  0.49881000  0.06799000  0.49992000  1.0
  C  C50  1  0.50118000  0.93200000  0.50008000  1.0
  C  C51  1  0.31565000  0.12828000  0.56227000  1.0
  C  C52  1  0.68435000  0.87171000  0.43774000  1.0
  C  C53  1  0.32802000  0.25624000  0.56387000  1.0
  C  C54  1  0.67199000  0.74376000  0.43614000  1.0
  S  S55  1  0.28537000  0.71060000  0.19575000  1.0
  S  S56  1  0.71463000  0.28941000  0.80425000  1.0
  N  N57  1  0.50589000  0.32604000  0.50365000  1.0
  N  N58  1  0.49410000  0.67396000  0.49636000  1.0
  O  O59  1  0.80401000  0.53629000  0.27338000  1.0
  O  O60  1  0.19599000  0.46371000  0.72662000  1.0
  O  O61  1  0.62353000  0.45361000  0.11775000  1.0
  O  O62  1  0.37647000  0.54639000  0.88225000  1.0
  O  O63  1  0.95865000  0.28349000  0.22720000  1.0
  O  O64  1  0.04131000  0.71650000  0.77280000  1.0
  O  O65  1  0.67038000  0.21404000  0.08910000  1.0
  O  O66  1  0.32962000  0.78595000  0.91089000  1.0
  O  O67  1  0.63695000  0.53340000  0.63784000  1.0
  O  O68  1  0.36306000  0.46661000  0.36216000  1.0
