# generated using pymatgen
data_KH4C12N7O12
_symmetry_space_group_name_H-M   'P 1'
_cell_length_a   11.00970000
_cell_length_b   12.23390000
_cell_length_c   13.02000000
_cell_angle_alpha   90.00000000
_cell_angle_beta   90.00010000
_cell_angle_gamma   94.35640000
_symmetry_Int_Tables_number   1
_chemical_formula_structural   KH4C12N7O12
_chemical_formula_sum   'K4 H16 C48 N28 O48'
_cell_volume   1748.61755873
_cell_formula_units_Z   4
loop_
 _symmetry_equiv_pos_site_id
 _symmetry_equiv_pos_as_xyz
  1  'x, y, z'
loop_
 _atom_site_type_symbol
 _atom_site_label
 _atom_site_symmetry_multiplicity
 _atom_site_fract_x
 _atom_site_fract_y
 _atom_site_fract_z
 _atom_site_occupancy
  K  K0  1  0.84851000  0.60316000  0.51529000  1.0
  K  K1  1  0.65149000  0.89684000  0.01529000  1.0
  K  K2  1  0.15148000  0.39684000  0.48471000  1.0
  K  K3  1  0.34852000  0.10316000  0.98471000  1.0
  H  H4  1  0.46668000  0.62126000  0.69692000  1.0
  H  H5  1  0.03332000  0.87874000  0.19692000  1.0
  H  H6  1  0.53332000  0.37874000  0.30308000  1.0
  H  H7  1  0.96668000  0.12126000  0.80308000  1.0
  H  H8  1  0.89388000  0.08728000  0.52110000  1.0
  H  H9  1  0.60612000  0.41272000  0.02110000  1.0
  H  H10  1  0.10612000  0.91272000  0.47890000  1.0
  H  H11  1  0.39388000  0.58729000  0.97890000  1.0
  H  H12  1  0.79034000  0.56030000  0.86730000  1.0
  H  H13  1  0.70966000  0.93970000  0.36730000  1.0
  H  H14  1  0.20966000  0.43970000  0.13270000  1.0
  H  H15  1  0.29034000  0.06030000  0.63270000  1.0
  H  H16  1  0.63338000  0.91819000  0.72467000  1.0
  H  H17  1  0.86662000  0.58181000  0.22467000  1.0
  H  H18  1  0.36662000  0.08181000  0.27533000  1.0
  H  H19  1  0.13338000  0.41819000  0.77533000  1.0
  C  C20  1  0.61677000  0.38098000  0.71024000  1.0
  C  C21  1  0.88323000  0.11902000  0.21024000  1.0
  C  C22  1  0.38323000  0.61902000  0.28976000  1.0
  C  C23  1  0.11677000  0.88098000  0.78976000  1.0
  C  C24  1  0.71071000  0.42414000  0.78180000  1.0
  C  C25  1  0.78929000  0.07586000  0.28180000  1.0
  C  C26  1  0.28929000  0.57587000  0.21820000  1.0
  C  C27  1  0.21071000  0.92413000  0.71820000  1.0
  C  C28  1  0.53055000  0.46064000  0.68236000  1.0
  C  C29  1  0.96945000  0.03936000  0.18236000  1.0
  C  C30  1  0.46945000  0.53936000  0.31764000  1.0
  C  C31  1  0.03055000  0.96064000  0.81764000  1.0
  C  C32  1  0.66942000  0.99273000  0.68643000  1.0
  C  C33  1  0.83058000  0.50727000  0.18642000  1.0
  C  C34  1  0.33058000  0.00727000  0.31358000  1.0
  C  C35  1  0.16942000  0.49273000  0.81358000  1.0
  C  C36  1  0.53391000  0.56564000  0.72119000  1.0
  C  C37  1  0.96610000  0.93436000  0.22119000  1.0
  C  C38  1  0.46609000  0.43436000  0.27881000  1.0
  C  C39  1  0.03391000  0.06564000  0.77881000  1.0
  C  C40  1  0.62824000  0.60068000  0.78795000  1.0
  C  C41  1  0.87176000  0.89932000  0.28795000  1.0
  C  C42  1  0.37176000  0.39932000  0.21205000  1.0
  C  C43  1  0.12824000  0.10068000  0.71205000  1.0
  C  C44  1  0.71661000  0.53091000  0.81661000  1.0
  C  C45  1  0.78339000  0.96909000  0.31661000  1.0
  C  C46  1  0.28339000  0.46909000  0.18339000  1.0
  C  C47  1  0.21661000  0.03091000  0.68339000  1.0
  C  C48  1  0.76542000  0.99155000  0.61667000  1.0
  C  C49  1  0.73458000  0.50845000  0.11667000  1.0
  C  C50  1  0.23458000  0.00845000  0.38333000  1.0
  C  C51  1  0.26542000  0.49155000  0.88333000  1.0
  C  C52  1  0.81542000  0.08804000  0.57176000  1.0
  C  C53  1  0.68458000  0.41196000  0.07176000  1.0
  C  C54  1  0.18458000  0.91196000  0.42823000  1.0
  C  C55  1  0.31542000  0.58804000  0.92824000  1.0
  C  C56  1  0.66180000  0.19421000  0.65994000  1.0
  C  C57  1  0.83820000  0.30579000  0.15994000  1.0
  C  C58  1  0.33820000  0.80579000  0.34006000  1.0
  C  C59  1  0.16181000  0.69421000  0.84006000  1.0
  C  C60  1  0.76643000  0.18671000  0.59300000  1.0
  C  C61  1  0.73357000  0.31329000  0.09300000  1.0
  C  C62  1  0.23357000  0.81329000  0.40700000  1.0
  C  C63  1  0.26643000  0.68671000  0.90700000  1.0
  C  C64  1  0.61994000  0.09047000  0.70646000  1.0
  C  C65  1  0.88006000  0.40953000  0.20646000  1.0
  C  C66  1  0.38006000  0.90953000  0.29354000  1.0
  C  C67  1  0.11994000  0.59047000  0.79354000  1.0
  N  N68  1  0.60336000  0.28176000  0.67520000  1.0
  N  N69  1  0.89664000  0.21824000  0.17519000  1.0
  N  N70  1  0.39664000  0.71824000  0.32481000  1.0
  N  N71  1  0.10336000  0.78176000  0.82481000  1.0
  N  N72  1  0.80503000  0.35831000  0.82200000  1.0
  N  N73  1  0.69497000  0.14169000  0.32200000  1.0
  N  N74  1  0.19497000  0.64169000  0.17800000  1.0
  N  N75  1  0.30503000  0.85831000  0.67800000  1.0
  N  N76  1  0.43689000  0.43365000  0.60578000  1.0
  N  N77  1  0.06311000  0.06635000  0.10578000  1.0
  N  N78  1  0.56311000  0.56635000  0.39422000  1.0
  N  N79  1  0.93689000  0.93365000  0.89422000  1.0
  N  N80  1  0.81496000  0.88857000  0.59252000  1.0
  N  N81  1  0.68504000  0.61143000  0.09252000  1.0
  N  N82  1  0.18504000  0.11143000  0.40748000  1.0
  N  N83  1  0.31496000  0.38857000  0.90748000  1.0
  N  N84  1  0.82756000  0.28331000  0.54553000  1.0
  N  N85  1  0.67244000  0.21669000  0.04553000  1.0
  N  N86  1  0.17244000  0.71669000  0.45447000  1.0
  N  N87  1  0.32756000  0.78331000  0.95447000  1.0
  N  N88  1  0.52596000  0.08683000  0.78441000  1.0
  N  N89  1  0.97404000  0.41317000  0.28441000  1.0
  N  N90  1  0.47404000  0.91317000  0.21559000  1.0
  N  N91  1  0.02596000  0.58683000  0.71559000  1.0
  N  N92  1  0.63549000  0.70996000  0.82772000  1.0
  N  N93  1  0.86451000  0.79004000  0.32772000  1.0
  N  N94  1  0.36451000  0.29004000  0.17228000  1.0
  N  N95  1  0.13549000  0.20996000  0.67228000  1.0
  O  O96  1  0.76037000  0.80240000  0.62504000  1.0
  O  O97  1  0.73962000  0.69760000  0.12504000  1.0
  O  O98  1  0.23962000  0.19760000  0.37496000  1.0
  O  O99  1  0.26038000  0.30240000  0.87496000  1.0
  O  O100  1  0.45773000  0.36845000  0.53615000  1.0
  O  O101  1  0.04227000  0.13155000  0.03615000  1.0
  O  O102  1  0.54227000  0.63155000  0.46385000  1.0
  O  O103  1  0.95773000  0.86845000  0.96385000  1.0
  O  O104  1  0.34039000  0.48086000  0.61298000  1.0
  O  O105  1  0.15961000  0.01914000  0.11298000  1.0
  O  O106  1  0.65961000  0.51914000  0.38702000  1.0
  O  O107  1  0.84039000  0.98086000  0.88702000  1.0
  O  O108  1  0.90919000  0.89086000  0.53924000  1.0
  O  O109  1  0.59081000  0.60914000  0.03923000  1.0
  O  O110  1  0.09080000  0.10914000  0.46076000  1.0
  O  O111  1  0.40919000  0.39086000  0.96076000  1.0
  O  O112  1  0.78730000  0.25656000  0.82108000  1.0
  O  O113  1  0.71270000  0.24344000  0.32108000  1.0
  O  O114  1  0.21270000  0.74344000  0.17892000  1.0
  O  O115  1  0.28730000  0.75656000  0.67892000  1.0
  O  O116  1  0.89822000  0.40741000  0.85886000  1.0
  O  O117  1  0.60178000  0.09259000  0.35886000  1.0
  O  O118  1  0.10177000  0.59259000  0.14114000  1.0
  O  O119  1  0.39822000  0.90741000  0.64114000  1.0
  O  O120  1  0.90648000  0.26978000  0.47935000  1.0
  O  O121  1  0.59352000  0.23022000  0.97935000  1.0
  O  O122  1  0.09352000  0.73022000  0.52065000  1.0
  O  O123  1  0.40648000  0.76978000  0.02065000  1.0
  O  O124  1  0.80021000  0.37558000  0.57393000  1.0
  O  O125  1  0.69979000  0.12442000  0.07393000  1.0
  O  O126  1  0.19979000  0.62442000  0.42607000  1.0
  O  O127  1  0.30021000  0.87558000  0.92607000  1.0
  O  O128  1  0.52979000  0.01636000  0.85356000  1.0
  O  O129  1  0.97021000  0.48364000  0.35356000  1.0
  O  O130  1  0.47021000  0.98364000  0.14644000  1.0
  O  O131  1  0.02979000  0.51636000  0.64644000  1.0
  O  O132  1  0.72798000  0.74233000  0.87803000  1.0
  O  O133  1  0.77202000  0.75767000  0.37803000  1.0
  O  O134  1  0.27203000  0.25767000  0.12197000  1.0
  O  O135  1  0.22798000  0.24233000  0.62197000  1.0
  O  O136  1  0.44545000  0.15257000  0.77987000  1.0
  O  O137  1  0.05455000  0.34743000  0.27987000  1.0
  O  O138  1  0.55455000  0.84743000  0.22013000  1.0
  O  O139  1  0.94544000  0.65257000  0.72013000  1.0
  O  O140  1  0.54859000  0.76777000  0.81150000  1.0
  O  O141  1  0.95141000  0.73223000  0.31150000  1.0
  O  O142  1  0.45141000  0.23224000  0.18850000  1.0
  O  O143  1  0.04859000  0.26777000  0.68850000  1.0
