# generated using pymatgen
data_Zn2H19C26(NO2)5
_symmetry_space_group_name_H-M   'P 1'
_cell_length_a   8.10777000
_cell_length_b   17.36110000
_cell_length_c   20.79710000
_cell_angle_alpha   90.00000000
_cell_angle_beta   95.58030000
_cell_angle_gamma   89.99990000
_symmetry_Int_Tables_number   1
_chemical_formula_structural   Zn2H19C26(NO2)5
_chemical_formula_sum   'Zn8 H76 C104 N20 O40'
_cell_volume   2913.52251458
_cell_formula_units_Z   4
loop_
 _symmetry_equiv_pos_site_id
 _symmetry_equiv_pos_as_xyz
  1  'x, y, z'
loop_
 _atom_site_type_symbol
 _atom_site_label
 _atom_site_symmetry_multiplicity
 _atom_site_fract_x
 _atom_site_fract_y
 _atom_site_fract_z
 _atom_site_occupancy
  Zn  Zn0  1  0.55673000  0.83556000  0.49987000  1.0
  Zn  Zn1  1  0.44327000  0.33556000  0.00013000  1.0
  Zn  Zn2  1  0.44326000  0.16444000  0.50013000  1.0
  Zn  Zn3  1  0.55673000  0.66444000  0.99987000  1.0
  Zn  Zn4  1  0.87477000  0.81774000  0.98584000  1.0
  Zn  Zn5  1  0.12523000  0.31774000  0.51416000  1.0
  Zn  Zn6  1  0.12523000  0.18226000  0.01416000  1.0
  Zn  Zn7  1  0.87477000  0.68226000  0.48584000  1.0
  H  H8  1  0.24675000  0.85102000  0.53584000  1.0
  H  H9  1  0.75325000  0.35102000  0.96416000  1.0
  H  H10  1  0.75325000  0.14898000  0.46416000  1.0
  H  H11  1  0.24675000  0.64898000  0.03584000  1.0
  H  H12  1  0.38367000  0.84954000  0.59780000  1.0
  H  H13  1  0.61633000  0.34954000  0.90220000  1.0
  H  H14  1  0.61633000  0.15046000  0.40220000  1.0
  H  H15  1  0.38367000  0.65046000  0.09780000  1.0
  H  H16  1  0.05937000  0.85445000  0.89426000  1.0
  H  H17  1  0.94063000  0.35445000  0.60574000  1.0
  H  H18  1  0.94063000  0.14556000  0.10574000  1.0
  H  H19  1  0.05937000  0.64555000  0.39426000  1.0
  H  H20  1  0.19101000  0.84759000  0.95751000  1.0
  H  H21  1  0.80899000  0.34759000  0.54249000  1.0
  H  H22  1  0.80900000  0.15241000  0.04249000  1.0
  H  H23  1  0.19101000  0.65241000  0.45751000  1.0
  H  H24  1  0.23481000  0.01029000  0.23162000  1.0
  H  H25  1  0.76519000  0.51029000  0.26838000  1.0
  H  H26  1  0.76520000  0.98971000  0.76838000  1.0
  H  H27  1  0.23480000  0.48971000  0.73162000  1.0
  H  H28  1  0.32956000  0.54345000  0.51960000  1.0
  H  H29  1  0.67045000  0.04345000  0.98040000  1.0
  H  H30  1  0.67045000  0.45655000  0.48040000  1.0
  H  H31  1  0.32956000  0.95655000  0.01960000  1.0
  H  H32  1  0.53539000  0.45283000  0.70258000  1.0
  H  H33  1  0.46460000  0.95283000  0.79742000  1.0
  H  H34  1  0.46460000  0.54717000  0.29742000  1.0
  H  H35  1  0.53540000  0.04717000  0.20258000  1.0
  H  H36  1  0.67425000  0.67978000  0.64291000  1.0
  H  H37  1  0.32575000  0.17978000  0.85709000  1.0
  H  H38  1  0.32575000  0.32022000  0.35710000  1.0
  H  H39  1  0.67426000  0.82022000  0.14291000  1.0
  H  H40  1  0.99108000  0.41622000  0.81104000  1.0
  H  H41  1  0.00891000  0.91622000  0.68896000  1.0
  H  H42  1  0.00892000  0.58378000  0.18896000  1.0
  H  H43  1  0.99108000  0.08378000  0.31104000  1.0
  H  H44  1  0.15824000  0.54182000  0.98283000  1.0
  H  H45  1  0.84175000  0.04182000  0.51717000  1.0
  H  H46  1  0.84176000  0.45818000  0.01717000  1.0
  H  H47  1  0.15824000  0.95818000  0.48283000  1.0
  H  H48  1  0.78717000  0.64091000  0.84442000  1.0
  H  H49  1  0.21283000  0.14090000  0.65557000  1.0
  H  H50  1  0.21284000  0.35909000  0.15558000  1.0
  H  H51  1  0.78717000  0.85909000  0.34443000  1.0
  H  H52  1  0.32199000  0.76699000  0.39630000  1.0
  H  H53  1  0.67801000  0.26699000  0.10370000  1.0
  H  H54  1  0.67801000  0.23301000  0.60370000  1.0
  H  H55  1  0.32199000  0.73301000  0.89630000  1.0
  H  H56  1  0.16960000  0.81114000  0.29358000  1.0
  H  H57  1  0.83040000  0.31114000  0.20642000  1.0
  H  H58  1  0.83039000  0.18886000  0.70642000  1.0
  H  H59  1  0.16960000  0.68886000  0.79358000  1.0
  H  H60  1  0.44196000  0.02552000  0.31748000  1.0
  H  H61  1  0.55804000  0.52552000  0.18252000  1.0
  H  H62  1  0.55804000  0.97448000  0.68251000  1.0
  H  H63  1  0.44196000  0.47448000  0.81748000  1.0
  H  H64  1  0.57597000  0.97355000  0.42093000  1.0
  H  H65  1  0.42403000  0.47355000  0.07907000  1.0
  H  H66  1  0.42403000  0.02645000  0.57907000  1.0
  H  H67  1  0.57597000  0.52645000  0.92093000  1.0
  H  H68  1  0.07656000  0.74748000  0.10217000  1.0
  H  H69  1  0.92344000  0.24748000  0.39783000  1.0
  H  H70  1  0.92344000  0.25252000  0.89783000  1.0
  H  H71  1  0.07656000  0.75252000  0.60217000  1.0
  H  H72  1  0.23254000  0.79854000  0.20169000  1.0
  H  H73  1  0.76746000  0.29854000  0.29831000  1.0
  H  H74  1  0.76747000  0.20146000  0.79831000  1.0
  H  H75  1  0.23254000  0.70146000  0.70169000  1.0
  H  H76  1  0.01642000  0.02133000  0.15249000  1.0
  H  H77  1  0.98359000  0.52133000  0.34751000  1.0
  H  H78  1  0.98358000  0.97867000  0.84751000  1.0
  H  H79  1  0.01641000  0.47867000  0.65249000  1.0
  H  H80  1  0.87741000  0.96158000  0.05312000  1.0
  H  H81  1  0.12259000  0.46157000  0.44688000  1.0
  H  H82  1  0.12259000  0.03842000  0.94688000  1.0
  H  H83  1  0.87741000  0.53843000  0.55312000  1.0
  C  C84  1  0.50213000  0.61798000  0.57537000  1.0
  C  C85  1  0.49787000  0.11798000  0.92463000  1.0
  C  C86  1  0.49787000  0.38202000  0.42463000  1.0
  C  C87  1  0.50213000  0.88202000  0.07537000  1.0
  C  C88  1  0.41133000  0.55006000  0.56395000  1.0
  C  C89  1  0.58867000  0.05006000  0.93605000  1.0
  C  C90  1  0.58867000  0.44994000  0.43605000  1.0
  C  C91  1  0.41133000  0.94994000  0.06395000  1.0
  C  C92  1  0.42157000  0.49098000  0.61008000  1.0
  C  C93  1  0.57843000  0.99098000  0.88992000  1.0
  C  C94  1  0.57843000  0.50903000  0.38992000  1.0
  C  C95  1  0.42157000  0.00902000  0.11008000  1.0
  C  C96  1  0.52741000  0.49855000  0.66655000  1.0
  C  C97  1  0.47259000  0.99855000  0.83345000  1.0
  C  C98  1  0.47259000  0.50145000  0.33346000  1.0
  C  C99  1  0.52741000  0.00145000  0.16655000  1.0
  C  C100  1  0.61986000  0.56627000  0.67800000  1.0
  C  C101  1  0.38014000  0.06627000  0.82200000  1.0
  C  C102  1  0.38014000  0.43373000  0.32200000  1.0
  C  C103  1  0.61986000  0.93373000  0.17800000  1.0
  C  C104  1  0.60453000  0.62670000  0.63314000  1.0
  C  C105  1  0.39547000  0.12670000  0.86686000  1.0
  C  C106  1  0.39547000  0.37330000  0.36686000  1.0
  C  C107  1  0.60453000  0.87329000  0.13314000  1.0
  C  C108  1  0.87677000  0.52758000  0.82181000  1.0
  C  C109  1  0.12323000  0.02758000  0.67819000  1.0
  C  C110  1  0.12323000  0.47242000  0.17819000  1.0
  C  C111  1  0.87677000  0.97242000  0.32181000  1.0
  C  C112  1  0.98401000  0.46700000  0.84156000  1.0
  C  C113  1  0.01599000  0.96700000  0.65844000  1.0
  C  C114  1  0.01599000  0.53300000  0.15844000  1.0
  C  C115  1  0.98401000  0.03300000  0.34156000  1.0
  C  C116  1  0.08798000  0.47319000  0.89883000  1.0
  C  C117  1  0.91201000  0.97319000  0.60118000  1.0
  C  C118  1  0.91202000  0.52681000  0.10117000  1.0
  C  C119  1  0.08799000  0.02681000  0.39882000  1.0
  C  C120  1  0.07878000  0.53844000  0.93771000  1.0
  C  C121  1  0.92121000  0.03844000  0.56229000  1.0
  C  C122  1  0.92122000  0.46156000  0.06229000  1.0
  C  C123  1  0.07878000  0.96156000  0.43771000  1.0
  C  C124  1  0.97070000  0.59883000  0.91847000  1.0
  C  C125  1  0.02930000  0.09883000  0.58153000  1.0
  C  C126  1  0.02931000  0.40117000  0.08153000  1.0
  C  C127  1  0.97069000  0.90117000  0.41847000  1.0
  C  C128  1  0.87032000  0.59390000  0.86011000  1.0
  C  C129  1  0.12968000  0.09390000  0.63989000  1.0
  C  C130  1  0.12968000  0.40610000  0.13989000  1.0
  C  C131  1  0.87032000  0.90610000  0.36011000  1.0
  C  C132  1  0.48780000  0.68221000  0.52714000  1.0
  C  C133  1  0.51220000  0.18221000  0.97286000  1.0
  C  C134  1  0.51220000  0.31779000  0.47286000  1.0
  C  C135  1  0.48780000  0.81779000  0.02714000  1.0
  C  C136  1  0.30929000  0.42205000  0.60116000  1.0
  C  C137  1  0.69070000  0.92206000  0.89884000  1.0
  C  C138  1  0.69070000  0.57795000  0.39884000  1.0
  C  C139  1  0.30930000  0.07794000  0.10116000  1.0
  C  C140  1  0.21664000  0.41257000  0.91633000  1.0
  C  C141  1  0.78336000  0.91257000  0.58367000  1.0
  C  C142  1  0.78336000  0.58743000  0.08367000  1.0
  C  C143  1  0.21664000  0.08743000  0.41633000  1.0
  C  C144  1  0.96631000  0.66943000  0.95943000  1.0
  C  C145  1  0.03368000  0.16943000  0.54057000  1.0
  C  C146  1  0.03369000  0.33057000  0.04057000  1.0
  C  C147  1  0.96632000  0.83057000  0.45943000  1.0
  C  C148  1  0.34613000  0.82325000  0.37587000  1.0
  C  C149  1  0.65387000  0.32325000  0.12413000  1.0
  C  C150  1  0.65386000  0.17675000  0.62413000  1.0
  C  C151  1  0.34613000  0.67675000  0.87587000  1.0
  C  C152  1  0.26464000  0.84777000  0.31794000  1.0
  C  C153  1  0.73536000  0.34777000  0.18206000  1.0
  C  C154  1  0.73536000  0.15223000  0.68205000  1.0
  C  C155  1  0.26464000  0.65223000  0.81794000  1.0
  C  C156  1  0.29924000  0.92148000  0.29427000  1.0
  C  C157  1  0.70076000  0.42148000  0.20573000  1.0
  C  C158  1  0.70076000  0.07852000  0.70573000  1.0
  C  C159  1  0.29924000  0.57852000  0.79427000  1.0
  C  C160  1  0.41474000  0.96711000  0.33231000  1.0
  C  C161  1  0.58526000  0.46711000  0.16769000  1.0
  C  C162  1  0.58526000  0.03289000  0.66769000  1.0
  C  C163  1  0.41474000  0.53289000  0.83231000  1.0
  C  C164  1  0.48893000  0.93873000  0.39006000  1.0
  C  C165  1  0.51107000  0.43873000  0.10994000  1.0
  C  C166  1  0.51106000  0.06127000  0.60994000  1.0
  C  C167  1  0.48893000  0.56127000  0.89006000  1.0
  C  C168  1  0.06682000  0.80776000  0.11583000  1.0
  C  C169  1  0.93318000  0.30776000  0.38417000  1.0
  C  C170  1  0.93318000  0.19224000  0.88417000  1.0
  C  C171  1  0.06682000  0.69224000  0.61583000  1.0
  C  C172  1  0.15091000  0.83662000  0.17189000  1.0
  C  C173  1  0.84909000  0.33662000  0.32811000  1.0
  C  C174  1  0.84909000  0.16338000  0.82811000  1.0
  C  C175  1  0.15091000  0.66338000  0.67189000  1.0
  C  C176  1  0.13543000  0.91526000  0.18654000  1.0
  C  C177  1  0.86457000  0.41526000  0.31346000  1.0
  C  C178  1  0.86457000  0.08474000  0.81346000  1.0
  C  C179  1  0.13543000  0.58474000  0.68654000  1.0
  C  C180  1  0.03231000  0.96037000  0.14320000  1.0
  C  C181  1  0.96770000  0.46037000  0.35680000  1.0
  C  C182  1  0.96769000  0.03963000  0.85680000  1.0
  C  C183  1  0.03230000  0.53963000  0.64320000  1.0
  C  C184  1  0.95537000  0.92744000  0.08794000  1.0
  C  C185  1  0.04463000  0.42744000  0.41205000  1.0
  C  C186  1  0.04463000  0.07256000  0.91205000  1.0
  C  C187  1  0.95536000  0.57256000  0.58795000  1.0
  N  N188  1  0.72607000  0.57847000  0.73508000  1.0
  N  N189  1  0.27393000  0.07847000  0.76492000  1.0
  N  N190  1  0.27393000  0.42153000  0.26493000  1.0
  N  N191  1  0.72608000  0.92153000  0.23508000  1.0
  N  N192  1  0.77917000  0.51689000  0.76247000  1.0
  N  N193  1  0.22083000  0.01689000  0.73753000  1.0
  N  N194  1  0.22083000  0.48311000  0.23753000  1.0
  N  N195  1  0.77917000  0.98310000  0.26247000  1.0
  N  N196  1  0.45679000  0.86731000  0.41183000  1.0
  N  N197  1  0.54321000  0.36731000  0.08817000  1.0
  N  N198  1  0.54321000  0.13269000  0.58817000  1.0
  N  N199  1  0.45679000  0.63269000  0.91183000  1.0
  N  N200  1  0.22074000  0.95231000  0.23841000  1.0
  N  N201  1  0.77926000  0.45231000  0.26159000  1.0
  N  N202  1  0.77926000  0.04769000  0.76159000  1.0
  N  N203  1  0.22073000  0.54769000  0.73841000  1.0
  N  N204  1  0.97177000  0.85192000  0.07380000  1.0
  N  N205  1  0.02824000  0.35192000  0.42620000  1.0
  N  N206  1  0.02824000  0.14808000  0.92621000  1.0
  N  N207  1  0.97176000  0.64808000  0.57379000  1.0
  O  O208  1  0.60758000  0.73213000  0.53335000  1.0
  O  O209  1  0.39242000  0.23213000  0.96665000  1.0
  O  O210  1  0.39242000  0.26787000  0.46665000  1.0
  O  O211  1  0.60759000  0.76787000  0.03335000  1.0
  O  O212  1  0.36593000  0.68825000  0.48529000  1.0
  O  O213  1  0.63407000  0.18825000  0.01471000  1.0
  O  O214  1  0.63407000  0.31176000  0.51471000  1.0
  O  O215  1  0.36593000  0.81175000  0.98529000  1.0
  O  O216  1  0.27893000  0.40069000  0.54158000  1.0
  O  O217  1  0.72107000  0.90069000  0.95842000  1.0
  O  O218  1  0.72107000  0.59931000  0.45842000  1.0
  O  O219  1  0.27893000  0.09931000  0.04158000  1.0
  O  O220  1  0.25147000  0.39295000  0.64931000  1.0
  O  O221  1  0.74853000  0.89295000  0.85069000  1.0
  O  O222  1  0.74852000  0.60704000  0.35069000  1.0
  O  O223  1  0.25148000  0.10704000  0.14931000  1.0
  O  O224  1  0.25822000  0.36668000  0.87468000  1.0
  O  O225  1  0.74178000  0.86668000  0.62532000  1.0
  O  O226  1  0.74178000  0.63332000  0.12532000  1.0
  O  O227  1  0.25822000  0.13332000  0.37468000  1.0
  O  O228  1  0.28032000  0.41538000  0.97628000  1.0
  O  O229  1  0.71968000  0.91538000  0.52372000  1.0
  O  O230  1  0.71968000  0.58462000  0.02372000  1.0
  O  O231  1  0.28032000  0.08462000  0.47628000  1.0
  O  O232  1  0.07191000  0.68063000  0.00719000  1.0
  O  O233  1  0.92808000  0.18063000  0.49281000  1.0
  O  O234  1  0.92809000  0.31937000  0.99281000  1.0
  O  O235  1  0.07191000  0.81937000  0.50719000  1.0
  O  O236  1  0.85046000  0.71848000  0.94194000  1.0
  O  O237  1  0.14954000  0.21848000  0.55806000  1.0
  O  O238  1  0.14955000  0.28152000  0.05806000  1.0
  O  O239  1  0.85046000  0.78152000  0.44194000  1.0
  O  O240  1  0.36174000  0.86870000  0.55386000  1.0
  O  O241  1  0.63825000  0.36870000  0.94614000  1.0
  O  O242  1  0.63825000  0.13129000  0.44614000  1.0
  O  O243  1  0.36175000  0.63130000  0.05386000  1.0
  O  O244  1  0.07765000  0.86659000  0.94007000  1.0
  O  O245  1  0.92235000  0.36659000  0.55993000  1.0
  O  O246  1  0.92235000  0.13341000  0.05993000  1.0
  O  O247  1  0.07765000  0.63341000  0.44007000  1.0
