# generated using pymatgen
data_Zn2H13C24N2O9
_symmetry_space_group_name_H-M   'P 1'
_cell_length_a   13.76300000
_cell_length_b   18.90030000
_cell_length_c   19.64130000
_cell_angle_alpha   89.99990000
_cell_angle_beta   89.99980000
_cell_angle_gamma   89.99950000
_symmetry_Int_Tables_number   1
_chemical_formula_structural   Zn2H13C24N2O9
_chemical_formula_sum   'Zn16 H104 C192 N16 O72'
_cell_volume   5109.18980164
_cell_formula_units_Z   8
loop_
 _symmetry_equiv_pos_site_id
 _symmetry_equiv_pos_as_xyz
  1  'x, y, z'
loop_
 _atom_site_type_symbol
 _atom_site_label
 _atom_site_symmetry_multiplicity
 _atom_site_fract_x
 _atom_site_fract_y
 _atom_site_fract_z
 _atom_site_occupancy
  Zn  Zn0  1  0.36681000  0.06002000  0.10814000  1.0
  Zn  Zn1  1  0.63318000  0.43998000  0.60814000  1.0
  Zn  Zn2  1  0.86682000  0.93998000  0.39186000  1.0
  Zn  Zn3  1  0.13319000  0.56002000  0.89186000  1.0
  Zn  Zn4  1  0.63320000  0.93997000  0.89186000  1.0
  Zn  Zn5  1  0.36681000  0.56002000  0.39186000  1.0
  Zn  Zn6  1  0.13319000  0.06002000  0.60814000  1.0
  Zn  Zn7  1  0.86681000  0.43998000  0.10814000  1.0
  Zn  Zn8  1  0.40504000  0.95013000  0.98809000  1.0
  Zn  Zn9  1  0.59496000  0.54987000  0.48809000  1.0
  Zn  Zn10  1  0.90504000  0.04987000  0.51191000  1.0
  Zn  Zn11  1  0.09496000  0.45012000  0.01191000  1.0
  Zn  Zn12  1  0.59496000  0.04987000  0.01191000  1.0
  Zn  Zn13  1  0.40503000  0.45013000  0.51191000  1.0
  Zn  Zn14  1  0.09497000  0.95013000  0.48809000  1.0
  Zn  Zn15  1  0.90504000  0.54987000  0.98809000  1.0
  H  H16  1  0.41714000  0.67834000  0.21509000  1.0
  H  H17  1  0.58284000  0.82167000  0.71509000  1.0
  H  H18  1  0.91715000  0.32166000  0.28491000  1.0
  H  H19  1  0.08286000  0.17834000  0.78491000  1.0
  H  H20  1  0.58285000  0.32166000  0.78491000  1.0
  H  H21  1  0.41715000  0.17834000  0.28492000  1.0
  H  H22  1  0.08284000  0.67833000  0.71509000  1.0
  H  H23  1  0.91715000  0.82167000  0.21509000  1.0
  H  H24  1  0.43170000  0.77244000  0.12596000  1.0
  H  H25  1  0.56829000  0.72755000  0.62596000  1.0
  H  H26  1  0.93171000  0.22755000  0.37404000  1.0
  H  H27  1  0.06830000  0.27244000  0.87404000  1.0
  H  H28  1  0.56829000  0.22755000  0.87404000  1.0
  H  H29  1  0.43171000  0.27245000  0.37405000  1.0
  H  H30  1  0.06829000  0.77245000  0.62596000  1.0
  H  H31  1  0.93171000  0.72755000  0.12596000  1.0
  H  H32  1  0.39211000  0.93217000  0.27883000  1.0
  H  H33  1  0.60789000  0.56783000  0.77883000  1.0
  H  H34  1  0.89211000  0.06783000  0.22117000  1.0
  H  H35  1  0.10789000  0.43218000  0.72117000  1.0
  H  H36  1  0.60789000  0.06782000  0.72117000  1.0
  H  H37  1  0.39211000  0.43217000  0.22117000  1.0
  H  H38  1  0.10788000  0.93218000  0.77883000  1.0
  H  H39  1  0.89211000  0.56783000  0.27883000  1.0
  H  H40  1  0.38249000  0.83658000  0.36925000  1.0
  H  H41  1  0.61751000  0.66341000  0.86925000  1.0
  H  H42  1  0.88249000  0.16342000  0.13075000  1.0
  H  H43  1  0.11751000  0.33658000  0.63075000  1.0
  H  H44  1  0.61752000  0.16341000  0.63075000  1.0
  H  H45  1  0.38248000  0.33658000  0.13075000  1.0
  H  H46  1  0.11751000  0.83659000  0.86925000  1.0
  H  H47  1  0.88249000  0.66342000  0.36925000  1.0
  H  H48  1  0.04852000  0.06387000  0.10554000  1.0
  H  H49  1  0.95147000  0.43613000  0.60553000  1.0
  H  H50  1  0.54852000  0.93613000  0.39446000  1.0
  H  H51  1  0.45148000  0.56387000  0.89446000  1.0
  H  H52  1  0.95149000  0.93612000  0.89447000  1.0
  H  H53  1  0.04851000  0.56388000  0.39445000  1.0
  H  H54  1  0.45148000  0.06388000  0.60553000  1.0
  H  H55  1  0.54852000  0.43613000  0.10554000  1.0
  H  H56  1  0.12709000  0.94092000  0.93058000  1.0
  H  H57  1  0.87291000  0.55908000  0.43056000  1.0
  H  H58  1  0.62709000  0.05909000  0.56943000  1.0
  H  H59  1  0.37292000  0.44092000  0.06943000  1.0
  H  H60  1  0.87292000  0.05908000  0.06943000  1.0
  H  H61  1  0.12707000  0.44092000  0.56943000  1.0
  H  H62  1  0.37292000  0.94092000  0.43057000  1.0
  H  H63  1  0.62709000  0.55908000  0.93057000  1.0
  H  H64  1  0.39829000  0.78924000  0.02816000  1.0
  H  H65  1  0.60171000  0.71076000  0.52816000  1.0
  H  H66  1  0.89828000  0.21076000  0.47184000  1.0
  H  H67  1  0.10171000  0.28923000  0.97185000  1.0
  H  H68  1  0.60171000  0.21076000  0.97184000  1.0
  H  H69  1  0.39828000  0.28924000  0.47185000  1.0
  H  H70  1  0.10171000  0.78924000  0.52815000  1.0
  H  H71  1  0.89829000  0.71076000  0.02815000  1.0
  H  H72  1  0.37568000  0.67178000  0.96842000  1.0
  H  H73  1  0.62432000  0.82821000  0.46842000  1.0
  H  H74  1  0.87568000  0.32821000  0.53158000  1.0
  H  H75  1  0.12431000  0.17178000  0.03159000  1.0
  H  H76  1  0.62431000  0.32821000  0.03158000  1.0
  H  H77  1  0.37568000  0.17179000  0.53158000  1.0
  H  H78  1  0.12432000  0.67179000  0.46842000  1.0
  H  H79  1  0.87568000  0.82821000  0.96842000  1.0
  H  H80  1  0.34959000  0.67266000  0.84190000  1.0
  H  H81  1  0.65041000  0.82734000  0.34190000  1.0
  H  H82  1  0.84959000  0.32734000  0.65810000  1.0
  H  H83  1  0.15041000  0.17266000  0.15811000  1.0
  H  H84  1  0.65041000  0.32734000  0.15810000  1.0
  H  H85  1  0.34958000  0.17266000  0.65811000  1.0
  H  H86  1  0.15041000  0.67266000  0.34189000  1.0
  H  H87  1  0.84958000  0.82733000  0.84189000  1.0
  H  H88  1  0.32213000  0.99987000  0.68841000  1.0
  H  H89  1  0.67787000  0.50013000  0.18840000  1.0
  H  H90  1  0.82214000  0.00013000  0.81160000  1.0
  H  H91  1  0.17786000  0.49987000  0.31159000  1.0
  H  H92  1  0.67787000  0.00013000  0.31159000  1.0
  H  H93  1  0.32213000  0.49987000  0.81159000  1.0
  H  H94  1  0.17787000  0.99988000  0.18841000  1.0
  H  H95  1  0.82213000  0.50012000  0.68841000  1.0
  H  H96  1  0.33126000  0.10623000  0.76764000  1.0
  H  H97  1  0.66874000  0.39377000  0.26764000  1.0
  H  H98  1  0.83126000  0.89377000  0.73236000  1.0
  H  H99  1  0.16873000  0.60623000  0.23236000  1.0
  H  H100  1  0.66873000  0.89377000  0.23236000  1.0
  H  H101  1  0.33126000  0.60623000  0.73236000  1.0
  H  H102  1  0.16874000  0.10623000  0.26764000  1.0
  H  H103  1  0.83126000  0.39376000  0.76764000  1.0
  H  H104  1  0.36830000  0.08536000  0.88957000  1.0
  H  H105  1  0.63169000  0.41464000  0.38957000  1.0
  H  H106  1  0.86830000  0.91465000  0.61043000  1.0
  H  H107  1  0.13170000  0.58536000  0.11043000  1.0
  H  H108  1  0.63170000  0.91464000  0.11043000  1.0
  H  H109  1  0.36830000  0.58536000  0.61043000  1.0
  H  H110  1  0.13170000  0.08536000  0.38957000  1.0
  H  H111  1  0.86830000  0.41465000  0.88957000  1.0
  H  H112  1  0.57613000  0.90406000  0.00419000  1.0
  H  H113  1  0.42387000  0.59594000  0.50419000  1.0
  H  H114  1  0.07613000  0.09594000  0.49581000  1.0
  H  H115  1  0.92387000  0.40406000  0.99581000  1.0
  H  H116  1  0.42387000  0.09594000  0.99581000  1.0
  H  H117  1  0.57612000  0.40407000  0.49581000  1.0
  H  H118  1  0.92388000  0.90406000  0.50419000  1.0
  H  H119  1  0.07613000  0.59593000  0.00419000  1.0
  C  C120  1  0.39935000  0.75254000  0.29690000  1.0
  C  C121  1  0.60065000  0.74746000  0.79690000  1.0
  C  C122  1  0.89934000  0.24746000  0.20310000  1.0
  C  C123  1  0.10065000  0.25254000  0.70310000  1.0
  C  C124  1  0.60066000  0.24746000  0.70310000  1.0
  C  C125  1  0.39935000  0.25254000  0.20310000  1.0
  C  C126  1  0.10065000  0.75254000  0.79690000  1.0
  C  C127  1  0.89935000  0.74746000  0.29690000  1.0
  C  C128  1  0.41316000  0.73414000  0.22850000  1.0
  C  C129  1  0.58684000  0.76586000  0.72850000  1.0
  C  C130  1  0.91316000  0.26586000  0.27150000  1.0
  C  C131  1  0.08684000  0.23414000  0.77149000  1.0
  C  C132  1  0.58684000  0.26586000  0.77150000  1.0
  C  C133  1  0.41316000  0.23414000  0.27150000  1.0
  C  C134  1  0.08683000  0.73414000  0.72851000  1.0
  C  C135  1  0.91317000  0.76586000  0.22851000  1.0
  C  C136  1  0.42014000  0.78645000  0.17905000  1.0
  C  C137  1  0.57986000  0.71355000  0.67906000  1.0
  C  C138  1  0.92014000  0.21355000  0.32095000  1.0
  C  C139  1  0.07986000  0.28645000  0.82094000  1.0
  C  C140  1  0.57986000  0.21354000  0.82094000  1.0
  C  C141  1  0.42014000  0.28646000  0.32095000  1.0
  C  C142  1  0.07986000  0.78646000  0.67906000  1.0
  C  C143  1  0.92014000  0.71355000  0.17905000  1.0
  C  C144  1  0.41143000  0.85768000  0.19716000  1.0
  C  C145  1  0.58857000  0.64232000  0.69716000  1.0
  C  C146  1  0.91143000  0.14232000  0.30285000  1.0
  C  C147  1  0.08857000  0.35768000  0.80284000  1.0
  C  C148  1  0.58857000  0.14232000  0.80284000  1.0
  C  C149  1  0.41142000  0.35768000  0.30285000  1.0
  C  C150  1  0.08856000  0.85768000  0.69716000  1.0
  C  C151  1  0.91143000  0.64232000  0.19715000  1.0
  C  C152  1  0.39825000  0.87628000  0.26586000  1.0
  C  C153  1  0.60175000  0.62372000  0.76586000  1.0
  C  C154  1  0.89825000  0.12372000  0.23414000  1.0
  C  C155  1  0.10175000  0.37628000  0.73414000  1.0
  C  C156  1  0.60175000  0.12372000  0.73414000  1.0
  C  C157  1  0.39825000  0.37628000  0.23414000  1.0
  C  C158  1  0.10174000  0.87628000  0.76586000  1.0
  C  C159  1  0.89825000  0.62372000  0.26586000  1.0
  C  C160  1  0.39272000  0.82391000  0.31554000  1.0
  C  C161  1  0.60728000  0.67609000  0.81554000  1.0
  C  C162  1  0.89272000  0.17609000  0.18446000  1.0
  C  C163  1  0.10728000  0.32391000  0.68446000  1.0
  C  C164  1  0.60728000  0.17608000  0.68446000  1.0
  C  C165  1  0.39272000  0.32391000  0.18446000  1.0
  C  C166  1  0.10727000  0.82392000  0.81554000  1.0
  C  C167  1  0.89272000  0.67609000  0.31554000  1.0
  C  C168  1  0.38925000  0.69577000  0.34973000  1.0
  C  C169  1  0.61075000  0.80423000  0.84973000  1.0
  C  C170  1  0.88925000  0.30423000  0.15027000  1.0
  C  C171  1  0.11075000  0.19577000  0.65027000  1.0
  C  C172  1  0.61075000  0.30423000  0.65027000  1.0
  C  C173  1  0.38925000  0.19577000  0.15027000  1.0
  C  C174  1  0.11075000  0.69577000  0.84973000  1.0
  C  C175  1  0.88925000  0.80423000  0.34973000  1.0
  C  C176  1  0.41168000  0.91403000  0.14378000  1.0
  C  C177  1  0.58832000  0.58597000  0.64378000  1.0
  C  C178  1  0.91167000  0.08597000  0.35622000  1.0
  C  C179  1  0.08834000  0.41403000  0.85622000  1.0
  C  C180  1  0.58833000  0.08597000  0.85622000  1.0
  C  C181  1  0.41166000  0.41403000  0.35622000  1.0
  C  C182  1  0.08833000  0.91403000  0.64378000  1.0
  C  C183  1  0.91167000  0.58597000  0.14378000  1.0
  C  C184  1  0.20226000  0.00555000  0.03876000  1.0
  C  C185  1  0.79773000  0.49445000  0.53875000  1.0
  C  C186  1  0.70226000  0.99445000  0.46125000  1.0
  C  C187  1  0.29775000  0.50555000  0.96125000  1.0
  C  C188  1  0.79775000  0.99444000  0.96125000  1.0
  C  C189  1  0.20225000  0.50556000  0.46125000  1.0
  C  C190  1  0.29775000  0.00556000  0.53875000  1.0
  C  C191  1  0.70226000  0.49445000  0.03875000  1.0
  C  C192  1  0.09734000  0.00261000  0.01963000  1.0
  C  C193  1  0.90266000  0.49740000  0.51962000  1.0
  C  C194  1  0.59733000  0.99740000  0.48037000  1.0
  C  C195  1  0.40267000  0.50261000  0.98037000  1.0
  C  C196  1  0.90267000  0.99739000  0.98038000  1.0
  C  C197  1  0.09732000  0.50261000  0.48037000  1.0
  C  C198  1  0.40267000  0.00261000  0.51962000  1.0
  C  C199  1  0.59734000  0.49740000  0.01963000  1.0
  C  C200  1  0.02658000  0.03623000  0.05938000  1.0
  C  C201  1  0.97342000  0.46377000  0.55937000  1.0
  C  C202  1  0.52658000  0.96377000  0.44062000  1.0
  C  C203  1  0.47343000  0.53623000  0.94063000  1.0
  C  C204  1  0.97343000  0.96376000  0.94064000  1.0
  C  C205  1  0.02656000  0.53623000  0.44062000  1.0
  C  C206  1  0.47343000  0.03624000  0.55937000  1.0
  C  C207  1  0.52658000  0.46378000  0.05937000  1.0
  C  C208  1  0.07029000  0.96643000  0.96032000  1.0
  C  C209  1  0.92971000  0.53357000  0.46031000  1.0
  C  C210  1  0.57029000  0.03358000  0.53968000  1.0
  C  C211  1  0.42972000  0.46643000  0.03968000  1.0
  C  C212  1  0.92972000  0.03357000  0.03969000  1.0
  C  C213  1  0.07027000  0.46643000  0.53968000  1.0
  C  C214  1  0.42972000  0.96643000  0.46031000  1.0
  C  C215  1  0.57029000  0.53358000  0.96032000  1.0
  C  C216  1  0.38667000  0.78576000  0.97346000  1.0
  C  C217  1  0.61333000  0.71424000  0.47346000  1.0
  C  C218  1  0.88666000  0.21424000  0.52654000  1.0
  C  C219  1  0.11334000  0.28576000  0.02654000  1.0
  C  C220  1  0.61333000  0.21424000  0.02654000  1.0
  C  C221  1  0.38666000  0.28576000  0.52654000  1.0
  C  C222  1  0.11333000  0.78576000  0.47346000  1.0
  C  C223  1  0.88667000  0.71424000  0.97346000  1.0
  C  C224  1  0.37445000  0.72123000  0.94005000  1.0
  C  C225  1  0.62555000  0.77877000  0.44005000  1.0
  C  C226  1  0.87444000  0.27877000  0.55995000  1.0
  C  C227  1  0.12556000  0.22123000  0.05995000  1.0
  C  C228  1  0.62555000  0.27877000  0.05995000  1.0
  C  C229  1  0.37445000  0.22123000  0.55995000  1.0
  C  C230  1  0.12555000  0.72123000  0.44005000  1.0
  C  C231  1  0.87445000  0.77877000  0.94005000  1.0
  C  C232  1  0.36017000  0.72165000  0.87016000  1.0
  C  C233  1  0.63983000  0.77835000  0.37016000  1.0
  C  C234  1  0.86017000  0.27835000  0.62984000  1.0
  C  C235  1  0.13983000  0.22165000  0.12984000  1.0
  C  C236  1  0.63983000  0.27835000  0.12984000  1.0
  C  C237  1  0.36017000  0.22164000  0.62984000  1.0
  C  C238  1  0.13984000  0.72165000  0.37016000  1.0
  C  C239  1  0.86017000  0.77835000  0.87016000  1.0
  C  C240  1  0.35819000  0.78640000  0.83540000  1.0
  C  C241  1  0.64180000  0.71360000  0.33540000  1.0
  C  C242  1  0.85820000  0.21360000  0.66460000  1.0
  C  C243  1  0.14180000  0.28640000  0.16460000  1.0
  C  C244  1  0.64180000  0.21360000  0.16459000  1.0
  C  C245  1  0.35820000  0.28640000  0.66460000  1.0
  C  C246  1  0.14181000  0.78640000  0.33540000  1.0
  C  C247  1  0.85820000  0.71360000  0.83540000  1.0
  C  C248  1  0.34311000  0.78864000  0.76078000  1.0
  C  C249  1  0.65688000  0.71136000  0.26078000  1.0
  C  C250  1  0.84313000  0.21136000  0.73922000  1.0
  C  C251  1  0.15688000  0.28864000  0.23922000  1.0
  C  C252  1  0.65688000  0.21136000  0.23922000  1.0
  C  C253  1  0.34312000  0.28864000  0.73922000  1.0
  C  C254  1  0.15688000  0.78864000  0.26078000  1.0
  C  C255  1  0.84312000  0.71135000  0.76078000  1.0
  C  C256  1  0.34339000  0.86252000  0.72573000  1.0
  C  C257  1  0.65660000  0.63749000  0.22572000  1.0
  C  C258  1  0.84341000  0.13749000  0.77428000  1.0
  C  C259  1  0.15660000  0.36252000  0.27428000  1.0
  C  C260  1  0.65660000  0.13748000  0.27428000  1.0
  C  C261  1  0.34340000  0.36251000  0.77427000  1.0
  C  C262  1  0.15660000  0.86251000  0.22572000  1.0
  C  C263  1  0.84341000  0.63748000  0.72572000  1.0
  C  C264  1  0.34791000  0.92602000  0.77021000  1.0
  C  C265  1  0.65208000  0.57398000  0.27021000  1.0
  C  C266  1  0.84792000  0.07398000  0.72979000  1.0
  C  C267  1  0.15208000  0.42602000  0.22979000  1.0
  C  C268  1  0.65208000  0.07398000  0.22979000  1.0
  C  C269  1  0.34792000  0.42602000  0.72979000  1.0
  C  C270  1  0.15208000  0.92602000  0.27021000  1.0
  C  C271  1  0.84792000  0.57398000  0.77021000  1.0
  C  C272  1  0.33639000  0.99397000  0.74274000  1.0
  C  C273  1  0.66360000  0.50604000  0.24274000  1.0
  C  C274  1  0.83640000  0.00604000  0.75726000  1.0
  C  C275  1  0.16360000  0.49396000  0.25726000  1.0
  C  C276  1  0.66360000  0.00603000  0.25726000  1.0
  C  C277  1  0.33640000  0.49396000  0.75726000  1.0
  C  C278  1  0.16361000  0.99397000  0.24274000  1.0
  C  C279  1  0.83640000  0.50603000  0.74274000  1.0
  C  C280  1  0.34173000  0.05228000  0.78580000  1.0
  C  C281  1  0.65827000  0.44772000  0.28580000  1.0
  C  C282  1  0.84173000  0.94773000  0.71420000  1.0
  C  C283  1  0.15827000  0.55228000  0.21419000  1.0
  C  C284  1  0.65827000  0.94772000  0.21420000  1.0
  C  C285  1  0.34173000  0.55227000  0.71420000  1.0
  C  C286  1  0.15828000  0.05228000  0.28580000  1.0
  C  C287  1  0.84172000  0.44772000  0.78580000  1.0
  C  C288  1  0.36146000  0.04078000  0.85465000  1.0
  C  C289  1  0.63854000  0.45922000  0.35465000  1.0
  C  C290  1  0.86146000  0.95922000  0.64535000  1.0
  C  C291  1  0.13854000  0.54078000  0.14534000  1.0
  C  C292  1  0.63855000  0.95922000  0.14535000  1.0
  C  C293  1  0.36145000  0.54078000  0.64535000  1.0
  C  C294  1  0.13855000  0.04078000  0.35465000  1.0
  C  C295  1  0.86145000  0.45922000  0.85465000  1.0
  C  C296  1  0.36455000  0.91923000  0.84059000  1.0
  C  C297  1  0.63544000  0.58077000  0.34059000  1.0
  C  C298  1  0.86455000  0.08078000  0.65941000  1.0
  C  C299  1  0.13545000  0.41923000  0.15941000  1.0
  C  C300  1  0.63544000  0.08077000  0.15941000  1.0
  C  C301  1  0.36455000  0.41923000  0.65941000  1.0
  C  C302  1  0.13545000  0.91923000  0.34059000  1.0
  C  C303  1  0.86456000  0.58077000  0.84059000  1.0
  C  C304  1  0.37030000  0.84908000  0.87315000  1.0
  C  C305  1  0.62970000  0.65092000  0.37315000  1.0
  C  C306  1  0.87030000  0.15092000  0.62685000  1.0
  C  C307  1  0.12970000  0.34908000  0.12685000  1.0
  C  C308  1  0.62970000  0.15092000  0.12685000  1.0
  C  C309  1  0.37029000  0.34908000  0.62685000  1.0
  C  C310  1  0.12971000  0.84908000  0.37315000  1.0
  C  C311  1  0.87030000  0.65092000  0.87315000  1.0
  N  N312  1  0.38426000  0.84804000  0.94089000  1.0
  N  N313  1  0.61574000  0.65196000  0.44088000  1.0
  N  N314  1  0.88426000  0.15196000  0.55911000  1.0
  N  N315  1  0.11574000  0.34804000  0.05911000  1.0
  N  N316  1  0.61574000  0.15196000  0.05911000  1.0
  N  N317  1  0.38426000  0.34804000  0.55911000  1.0
  N  N318  1  0.11574000  0.84804000  0.44088000  1.0
  N  N319  1  0.88426000  0.65196000  0.94088000  1.0
  N  N320  1  0.37334000  0.97613000  0.88145000  1.0
  N  N321  1  0.62666000  0.52387000  0.38145000  1.0
  N  N322  1  0.87334000  0.02387000  0.61855000  1.0
  N  N323  1  0.12667000  0.47613000  0.11854000  1.0
  N  N324  1  0.62666000  0.02387000  0.11855000  1.0
  N  N325  1  0.37334000  0.47613000  0.61854000  1.0
  N  N326  1  0.12667000  0.97613000  0.38145000  1.0
  N  N327  1  0.87334000  0.52387000  0.88145000  1.0
  O  O328  1  0.39250000  0.63186000  0.32468000  1.0
  O  O329  1  0.60751000  0.86813000  0.82468000  1.0
  O  O330  1  0.89249000  0.36814000  0.17532000  1.0
  O  O331  1  0.10752000  0.13187000  0.67532000  1.0
  O  O332  1  0.60751000  0.36813000  0.67532000  1.0
  O  O333  1  0.39248000  0.13187000  0.17532000  1.0
  O  O334  1  0.10751000  0.63187000  0.82468000  1.0
  O  O335  1  0.89249000  0.86813000  0.32468000  1.0
  O  O336  1  0.37802000  0.71026000  0.41122000  1.0
  O  O337  1  0.62198000  0.78974000  0.91122000  1.0
  O  O338  1  0.87802000  0.28975000  0.08878000  1.0
  O  O339  1  0.12198000  0.21026000  0.58878000  1.0
  O  O340  1  0.62199000  0.28974000  0.58878000  1.0
  O  O341  1  0.37802000  0.21025000  0.08878000  1.0
  O  O342  1  0.12198000  0.71025000  0.91122000  1.0
  O  O343  1  0.87803000  0.78975000  0.41122000  1.0
  O  O344  1  0.43121000  0.89720000  0.08264000  1.0
  O  O345  1  0.56879000  0.60280000  0.58265000  1.0
  O  O346  1  0.93120000  0.10280000  0.41736000  1.0
  O  O347  1  0.06882000  0.39719000  0.91736000  1.0
  O  O348  1  0.56880000  0.10280000  0.91736000  1.0
  O  O349  1  0.43118000  0.39720000  0.41736000  1.0
  O  O350  1  0.06880000  0.89720000  0.58265000  1.0
  O  O351  1  0.93121000  0.60280000  0.08265000  1.0
  O  O352  1  0.39167000  0.97623000  0.16505000  1.0
  O  O353  1  0.60833000  0.52377000  0.66505000  1.0
  O  O354  1  0.89167000  0.02377000  0.33495000  1.0
  O  O355  1  0.10833000  0.47623000  0.83496000  1.0
  O  O356  1  0.60833000  0.02377000  0.83495000  1.0
  O  O357  1  0.39167000  0.47623000  0.33495000  1.0
  O  O358  1  0.10834000  0.97623000  0.66505000  1.0
  O  O359  1  0.89167000  0.52377000  0.16505000  1.0
  O  O360  1  0.25893000  0.96354000  0.00831000  1.0
  O  O361  1  0.74106000  0.53647000  0.50831000  1.0
  O  O362  1  0.75893000  0.03646000  0.49169000  1.0
  O  O363  1  0.24108000  0.46354000  0.99169000  1.0
  O  O364  1  0.74108000  0.03646000  0.99169000  1.0
  O  O365  1  0.25892000  0.46354000  0.49169000  1.0
  O  O366  1  0.24108000  0.96354000  0.50831000  1.0
  O  O367  1  0.75893000  0.53646000  0.00831000  1.0
  O  O368  1  0.22656000  0.05152000  0.08400000  1.0
  O  O369  1  0.77343000  0.44847000  0.58398000  1.0
  O  O370  1  0.72657000  0.94847000  0.41601000  1.0
  O  O371  1  0.27344000  0.55152000  0.91600000  1.0
  O  O372  1  0.77344000  0.94848000  0.91601000  1.0
  O  O373  1  0.22655000  0.55153000  0.41600000  1.0
  O  O374  1  0.27344000  0.05153000  0.58399000  1.0
  O  O375  1  0.72656000  0.44848000  0.08399000  1.0
  O  O376  1  0.33081000  0.73531000  0.72632000  1.0
  O  O377  1  0.66918000  0.76469000  0.22632000  1.0
  O  O378  1  0.83084000  0.26469000  0.77368000  1.0
  O  O379  1  0.16918000  0.23531000  0.27368000  1.0
  O  O380  1  0.66918000  0.26469000  0.27367000  1.0
  O  O381  1  0.33082000  0.23531000  0.77368000  1.0
  O  O382  1  0.16918000  0.73532000  0.22632000  1.0
  O  O383  1  0.83082000  0.76468000  0.72632000  1.0
  O  O384  1  0.34081000  0.86648000  0.66356000  1.0
  O  O385  1  0.65920000  0.63352000  0.16356000  1.0
  O  O386  1  0.84080000  0.13353000  0.83644000  1.0
  O  O387  1  0.15920000  0.36648000  0.33644000  1.0
  O  O388  1  0.65920000  0.13352000  0.33644000  1.0
  O  O389  1  0.34081000  0.36648000  0.83644000  1.0
  O  O390  1  0.15919000  0.86648000  0.16356000  1.0
  O  O391  1  0.84081000  0.63352000  0.66356000  1.0
  O  O392  1  0.55854000  0.94561000  0.97756000  1.0
  O  O393  1  0.44145000  0.55438000  0.47756000  1.0
  O  O394  1  0.05854000  0.05438000  0.52244000  1.0
  O  O395  1  0.94146000  0.44562000  0.02244000  1.0
  O  O396  1  0.44146000  0.05438000  0.02244000  1.0
  O  O397  1  0.55853000  0.44562000  0.52244000  1.0
  O  O398  1  0.94146000  0.94561000  0.47756000  1.0
  O  O399  1  0.05854000  0.55438000  0.97756000  1.0
