# generated using pymatgen
data_MnH30C26(N2O)4
_symmetry_space_group_name_H-M   'P 1'
_cell_length_a   19.97910000
_cell_length_b   19.97910000
_cell_length_c   20.23960000
_cell_angle_alpha   60.42450000
_cell_angle_beta   60.42450000
_cell_angle_gamma   59.99800000
_symmetry_Int_Tables_number   1
_chemical_formula_structural   MnH30C26(N2O)4
_chemical_formula_sum   'Mn6 H180 C156 N48 O24'
_cell_volume   5748.95744448
_cell_formula_units_Z   6
loop_
 _symmetry_equiv_pos_site_id
 _symmetry_equiv_pos_as_xyz
  1  'x, y, z'
loop_
 _atom_site_type_symbol
 _atom_site_label
 _atom_site_symmetry_multiplicity
 _atom_site_fract_x
 _atom_site_fract_y
 _atom_site_fract_z
 _atom_site_occupancy
  Mn  Mn0  1  0.72877000  0.24999000  0.25006000  1.0
  Mn  Mn1  1  0.77125000  0.72875000  0.25000000  1.0
  Mn  Mn2  1  0.25001000  0.77123000  0.24994000  1.0
  Mn  Mn3  1  0.27124000  0.75000000  0.74994000  1.0
  Mn  Mn4  1  0.22874000  0.27126000  0.74999000  1.0
  Mn  Mn5  1  0.74999000  0.22878000  0.75006000  1.0
  H  H6  1  0.90623000  0.15133000  0.23266000  1.0
  H  H7  1  0.70987000  0.90625000  0.23260000  1.0
  H  H8  1  0.15131000  0.70986000  0.23250000  1.0
  H  H9  1  0.59375000  0.79013000  0.26740000  1.0
  H  H10  1  0.34867000  0.59377000  0.26734000  1.0
  H  H11  1  0.79014000  0.34869000  0.26750000  1.0
  H  H12  1  0.09377000  0.84867000  0.76734000  1.0
  H  H13  1  0.29013000  0.09375000  0.76740000  1.0
  H  H14  1  0.84869000  0.29014000  0.76750000  1.0
  H  H15  1  0.40625000  0.20987000  0.73260000  1.0
  H  H16  1  0.65133000  0.40623000  0.73266000  1.0
  H  H17  1  0.20986000  0.65131000  0.73250000  1.0
  H  H18  1  0.59694000  0.36026000  0.17557000  1.0
  H  H19  1  0.86728000  0.59705000  0.17539000  1.0
  H  H20  1  0.36028000  0.86723000  0.17545000  1.0
  H  H21  1  0.90295000  0.63272000  0.32460000  1.0
  H  H22  1  0.13974000  0.90306000  0.32443000  1.0
  H  H23  1  0.63276000  0.13972000  0.32455000  1.0
  H  H24  1  0.40306000  0.63974000  0.82443000  1.0
  H  H25  1  0.13271000  0.40295000  0.82461000  1.0
  H  H26  1  0.63972000  0.13276000  0.82455000  1.0
  H  H27  1  0.09705000  0.36729000  0.67539000  1.0
  H  H28  1  0.86026000  0.09694000  0.67558000  1.0
  H  H29  1  0.36723000  0.86028000  0.67545000  1.0
  H  H30  1  0.77448000  0.37740000  0.04753000  1.0
  H  H31  1  0.80068000  0.77457000  0.04744000  1.0
  H  H32  1  0.37729000  0.80071000  0.04734000  1.0
  H  H33  1  0.72543000  0.69932000  0.45256000  1.0
  H  H34  1  0.12260000  0.72552000  0.45247000  1.0
  H  H35  1  0.69929000  0.12271000  0.45266000  1.0
  H  H36  1  0.22552000  0.62260000  0.95247000  1.0
  H  H37  1  0.19932000  0.22544000  0.95256000  1.0
  H  H38  1  0.62271000  0.19929000  0.95266000  1.0
  H  H39  1  0.27456000  0.30068000  0.54744000  1.0
  H  H40  1  0.87740000  0.27448000  0.54753000  1.0
  H  H41  1  0.30071000  0.87729000  0.54734000  1.0
  H  H42  1  0.86042000  0.41090000  0.98211000  1.0
  H  H43  1  0.74667000  0.86048000  0.98202000  1.0
  H  H44  1  0.41084000  0.74668000  0.98192000  1.0
  H  H45  1  0.63952000  0.75333000  0.51798000  1.0
  H  H46  1  0.08910000  0.63958000  0.51789000  1.0
  H  H47  1  0.75332000  0.08916000  0.51808000  1.0
  H  H48  1  0.13958000  0.58910000  0.01789000  1.0
  H  H49  1  0.25333000  0.13952000  0.01798000  1.0
  H  H50  1  0.58916000  0.25332000  0.01808000  1.0
  H  H51  1  0.36048000  0.24667000  0.48202000  1.0
  H  H52  1  0.91090000  0.36042000  0.48211000  1.0
  H  H53  1  0.24668000  0.91083000  0.48192000  1.0
  H  H54  1  0.79915000  0.43142000  0.07514000  1.0
  H  H55  1  0.69440000  0.79920000  0.07505000  1.0
  H  H56  1  0.43139000  0.69443000  0.07493000  1.0
  H  H57  1  0.70080000  0.80560000  0.42495000  1.0
  H  H58  1  0.06858000  0.70085000  0.42486000  1.0
  H  H59  1  0.80557000  0.06861000  0.42507000  1.0
  H  H60  1  0.20085000  0.56858000  0.92486000  1.0
  H  H61  1  0.30560000  0.20080000  0.92495000  1.0
  H  H62  1  0.56861000  0.30557000  0.92507000  1.0
  H  H63  1  0.29920000  0.19440000  0.57505000  1.0
  H  H64  1  0.93142000  0.29915000  0.57514000  1.0
  H  H65  1  0.19443000  0.93139000  0.57493000  1.0
  H  H66  1  0.86444000  0.16724000  0.09808000  1.0
  H  H67  1  0.87035000  0.86450000  0.09794000  1.0
  H  H68  1  0.16719000  0.87026000  0.09813000  1.0
  H  H69  1  0.63550000  0.62965000  0.40206000  1.0
  H  H70  1  0.33276000  0.63556000  0.40192000  1.0
  H  H71  1  0.62974000  0.33281000  0.40187000  1.0
  H  H72  1  0.13556000  0.83276000  0.90192000  1.0
  H  H73  1  0.12965000  0.13550000  0.90206000  1.0
  H  H74  1  0.83281000  0.12974000  0.90187000  1.0
  H  H75  1  0.36450000  0.37034000  0.59794000  1.0
  H  H76  1  0.66724000  0.36444000  0.59808000  1.0
  H  H77  1  0.37026000  0.66718000  0.59813000  1.0
  H  H78  1  0.85099000  0.16162000  0.02036000  1.0
  H  H79  1  0.96712000  0.85107000  0.02026000  1.0
  H  H80  1  0.16145000  0.96704000  0.02042000  1.0
  H  H81  1  0.64893000  0.53288000  0.47974000  1.0
  H  H82  1  0.33838000  0.64901000  0.47964000  1.0
  H  H83  1  0.53296000  0.33855000  0.47958000  1.0
  H  H84  1  0.14901000  0.83838000  0.97964000  1.0
  H  H85  1  0.03288000  0.14893000  0.97974000  1.0
  H  H86  1  0.83854000  0.03296000  0.97958000  1.0
  H  H87  1  0.35107000  0.46712000  0.52026000  1.0
  H  H88  1  0.66162000  0.35099000  0.52036000  1.0
  H  H89  1  0.46704000  0.66145000  0.52042000  1.0
  H  H90  1  0.80939000  0.10655000  0.12248000  1.0
  H  H91  1  0.96166000  0.80951000  0.12237000  1.0
  H  H92  1  0.10645000  0.96158000  0.12255000  1.0
  H  H93  1  0.69049000  0.53833000  0.37763000  1.0
  H  H94  1  0.39345000  0.69061000  0.37752000  1.0
  H  H95  1  0.53843000  0.39355000  0.37745000  1.0
  H  H96  1  0.19061000  0.89345000  0.87752000  1.0
  H  H97  1  0.03833000  0.19049000  0.87763000  1.0
  H  H98  1  0.89354000  0.03842000  0.87745000  1.0
  H  H99  1  0.30951000  0.46167000  0.62237000  1.0
  H  H100  1  0.60655000  0.30939000  0.62248000  1.0
  H  H101  1  0.46158000  0.60646000  0.62255000  1.0
  H  H102  1  0.92874000  0.01823000  0.27999000  1.0
  H  H103  1  0.77298000  0.92872000  0.28004000  1.0
  H  H104  1  0.01821000  0.77297000  0.28007000  1.0
  H  H105  1  0.57128000  0.72703000  0.21996000  1.0
  H  H106  1  0.48177000  0.57126000  0.22001000  1.0
  H  H107  1  0.72703000  0.48179000  0.21993000  1.0
  H  H108  1  0.07126000  0.98177000  0.72001000  1.0
  H  H109  1  0.22702000  0.07128000  0.71996000  1.0
  H  H110  1  0.98179000  0.22703000  0.71993000  1.0
  H  H111  1  0.42872000  0.27298000  0.78004000  1.0
  H  H112  1  0.51823000  0.42874000  0.77999000  1.0
  H  H113  1  0.27297000  0.51821000  0.78007000  1.0
  H  H114  1  0.10309000  0.15480000  0.12793000  1.0
  H  H115  1  0.61427000  0.10315000  0.12794000  1.0
  H  H116  1  0.15466000  0.61419000  0.12789000  1.0
  H  H117  1  0.39685000  0.88572000  0.37206000  1.0
  H  H118  1  0.34520000  0.39691000  0.37207000  1.0
  H  H119  1  0.88581000  0.34534000  0.37211000  1.0
  H  H120  1  0.89691000  0.84520000  0.87207000  1.0
  H  H121  1  0.38572000  0.89685000  0.87206000  1.0
  H  H122  1  0.84534000  0.38581000  0.87211000  1.0
  H  H123  1  0.60316000  0.11428000  0.62794000  1.0
  H  H124  1  0.65480000  0.60309000  0.62793000  1.0
  H  H125  1  0.11419000  0.65466000  0.62789000  1.0
  H  H126  1  0.10465000  0.11618000  0.06519000  1.0
  H  H127  1  0.71407000  0.10467000  0.06520000  1.0
  H  H128  1  0.11609000  0.71400000  0.06516000  1.0
  H  H129  1  0.39533000  0.78593000  0.43480000  1.0
  H  H130  1  0.38381000  0.39535000  0.43481000  1.0
  H  H131  1  0.78600000  0.38391000  0.43484000  1.0
  H  H132  1  0.89535000  0.88382000  0.93481000  1.0
  H  H133  1  0.28593000  0.89533000  0.93480000  1.0
  H  H134  1  0.88391000  0.28601000  0.93484000  1.0
  H  H135  1  0.60467000  0.21407000  0.56520000  1.0
  H  H136  1  0.61619000  0.60465000  0.56519000  1.0
  H  H137  1  0.21399000  0.61609000  0.56516000  1.0
  H  H138  1  0.06136000  0.07615000  0.17162000  1.0
  H  H139  1  0.69099000  0.06133000  0.17162000  1.0
  H  H140  1  0.07610000  0.69093000  0.17156000  1.0
  H  H141  1  0.43867000  0.80901000  0.32838000  1.0
  H  H142  1  0.42385000  0.43864000  0.32839000  1.0
  H  H143  1  0.80907000  0.42390000  0.32844000  1.0
  H  H144  1  0.93864000  0.92385000  0.82838000  1.0
  H  H145  1  0.30901000  0.93867000  0.82838000  1.0
  H  H146  1  0.92390000  0.30907000  0.82844000  1.0
  H  H147  1  0.56134000  0.19099000  0.67162000  1.0
  H  H148  1  0.57615000  0.56136000  0.67161000  1.0
  H  H149  1  0.19093000  0.57610000  0.67156000  1.0
  H  H150  1  0.51455000  0.39567000  0.05080000  1.0
  H  H151  1  0.03910000  0.51461000  0.05064000  1.0
  H  H152  1  0.39564000  0.03897000  0.05074000  1.0
  H  H153  1  0.98539000  0.46090000  0.44936000  1.0
  H  H154  1  0.10433000  0.98545000  0.44919000  1.0
  H  H155  1  0.46103000  0.10436000  0.44926000  1.0
  H  H156  1  0.48545000  0.60433000  0.94920000  1.0
  H  H157  1  0.96090000  0.48539000  0.94936000  1.0
  H  H158  1  0.60436000  0.96103000  0.94926000  1.0
  H  H159  1  0.01461000  0.53910000  0.55064000  1.0
  H  H160  1  0.89567000  0.01455000  0.55080000  1.0
  H  H161  1  0.53897000  0.89564000  0.55074000  1.0
  H  H162  1  0.59077000  0.43333000  0.96515000  1.0
  H  H163  1  0.01085000  0.59087000  0.96500000  1.0
  H  H164  1  0.43335000  0.01075000  0.96505000  1.0
  H  H165  1  0.90913000  0.48915000  0.53500000  1.0
  H  H166  1  0.06667000  0.90923000  0.53485000  1.0
  H  H167  1  0.48925000  0.06664000  0.53495000  1.0
  H  H168  1  0.40923000  0.56667000  0.03485000  1.0
  H  H169  1  0.98915000  0.40913000  0.03500000  1.0
  H  H170  1  0.56665000  0.98924000  0.03495000  1.0
  H  H171  1  0.09086000  0.51085000  0.46500000  1.0
  H  H172  1  0.93333000  0.09077000  0.46515000  1.0
  H  H173  1  0.51075000  0.93336000  0.46505000  1.0
  H  H174  1  0.54587000  0.46430000  0.05132000  1.0
  H  H175  1  0.93860000  0.54596000  0.05116000  1.0
  H  H176  1  0.46427000  0.93850000  0.05125000  1.0
  H  H177  1  0.95404000  0.56140000  0.44884000  1.0
  H  H178  1  0.03570000  0.95413000  0.44868000  1.0
  H  H179  1  0.56151000  0.03573000  0.44875000  1.0
  H  H180  1  0.45413000  0.53570000  0.94868000  1.0
  H  H181  1  0.06140000  0.45404000  0.94884000  1.0
  H  H182  1  0.53573000  0.06150000  0.94875000  1.0
  H  H183  1  0.04596000  0.43860000  0.55116000  1.0
  H  H184  1  0.96430000  0.04587000  0.55132000  1.0
  H  H185  1  0.43849000  0.96427000  0.55125000  1.0
  C  C186  1  0.77459000  0.06287000  0.28030000  1.0
  C  C187  1  0.88219000  0.77458000  0.28035000  1.0
  C  C188  1  0.06287000  0.88221000  0.28027000  1.0
  C  C189  1  0.72542000  0.61781000  0.21965000  1.0
  C  C190  1  0.43713000  0.72541000  0.21970000  1.0
  C  C191  1  0.61778000  0.43713000  0.21973000  1.0
  C  C192  1  0.22541000  0.93712000  0.71970000  1.0
  C  C193  1  0.11781000  0.22542000  0.71965000  1.0
  C  C194  1  0.93713000  0.11779000  0.71973000  1.0
  C  C195  1  0.27458000  0.38219000  0.78035000  1.0
  C  C196  1  0.56287000  0.27460000  0.78030000  1.0
  C  C197  1  0.38222000  0.56287000  0.78027000  1.0
  C  C198  1  0.88034000  0.30733000  0.08561000  1.0
  C  C199  1  0.72678000  0.88041000  0.08553000  1.0
  C  C200  1  0.30729000  0.72678000  0.08543000  1.0
  C  C201  1  0.61959000  0.77322000  0.41446000  1.0
  C  C202  1  0.19267000  0.61966000  0.41439000  1.0
  C  C203  1  0.77322000  0.19270000  0.41457000  1.0
  C  C204  1  0.11966000  0.69268000  0.91439000  1.0
  C  C205  1  0.27322000  0.11959000  0.91446000  1.0
  C  C206  1  0.69271000  0.27322000  0.91456000  1.0
  C  C207  1  0.38041000  0.22678000  0.58554000  1.0
  C  C208  1  0.80733000  0.38034000  0.58561000  1.0
  C  C209  1  0.22678000  0.80729000  0.58543000  1.0
  C  C210  1  0.74404000  0.23583000  0.08715000  1.0
  C  C211  1  0.93311000  0.74409000  0.08704000  1.0
  C  C212  1  0.23576000  0.93305000  0.08709000  1.0
  C  C213  1  0.75591000  0.56689000  0.41296000  1.0
  C  C214  1  0.26417000  0.75596000  0.41285000  1.0
  C  C215  1  0.56695000  0.26424000  0.41291000  1.0
  C  C216  1  0.25596000  0.76417000  0.91285000  1.0
  C  C217  1  0.06689000  0.25591000  0.91296000  1.0
  C  C218  1  0.76424000  0.06695000  0.91291000  1.0
  C  C219  1  0.24409000  0.43311000  0.58704000  1.0
  C  C220  1  0.73583000  0.24404000  0.58715000  1.0
  C  C221  1  0.43305000  0.73576000  0.58709000  1.0
  C  C222  1  0.84369000  0.98276000  0.27841000  1.0
  C  C223  1  0.89507000  0.84368000  0.27846000  1.0
  C  C224  1  0.98276000  0.89508000  0.27841000  1.0
  C  C225  1  0.65632000  0.60493000  0.22154000  1.0
  C  C226  1  0.51723000  0.65631000  0.22159000  1.0
  C  C227  1  0.60492000  0.51724000  0.22159000  1.0
  C  C228  1  0.15631000  0.01723000  0.72159000  1.0
  C  C229  1  0.10493000  0.15632000  0.72154000  1.0
  C  C230  1  0.01725000  0.10492000  0.72159000  1.0
  C  C231  1  0.34368000  0.39507000  0.77846000  1.0
  C  C232  1  0.48276000  0.34369000  0.77841000  1.0
  C  C233  1  0.39508000  0.48275000  0.77841000  1.0
  C  C234  1  0.98713000  0.19610000  0.11547000  1.0
  C  C235  1  0.70136000  0.98717000  0.11543000  1.0
  C  C236  1  0.19608000  0.70128000  0.11536000  1.0
  C  C237  1  0.51283000  0.79864000  0.38457000  1.0
  C  C238  1  0.30389000  0.51287000  0.38453000  1.0
  C  C239  1  0.79872000  0.30391000  0.38464000  1.0
  C  C240  1  0.01287000  0.80390000  0.88453000  1.0
  C  C241  1  0.29864000  0.01283000  0.88457000  1.0
  C  C242  1  0.80392000  0.29873000  0.88463000  1.0
  C  C243  1  0.48717000  0.20137000  0.61543000  1.0
  C  C244  1  0.69611000  0.48713000  0.61547000  1.0
  C  C245  1  0.20128000  0.69608000  0.61536000  1.0
  C  C246  1  0.82577000  0.38612000  0.04529000  1.0
  C  C247  1  0.74291000  0.82584000  0.04520000  1.0
  C  C248  1  0.38606000  0.74292000  0.04510000  1.0
  C  C249  1  0.67416000  0.75710000  0.45480000  1.0
  C  C250  1  0.11388000  0.67423000  0.45471000  1.0
  C  C251  1  0.75708000  0.11394000  0.45490000  1.0
  C  C252  1  0.17423000  0.61388000  0.95471000  1.0
  C  C253  1  0.25709000  0.17416000  0.95480000  1.0
  C  C254  1  0.61394000  0.25708000  0.95490000  1.0
  C  C255  1  0.32584000  0.24290000  0.54520000  1.0
  C  C256  1  0.88612000  0.32577000  0.54529000  1.0
  C  C257  1  0.24292000  0.88606000  0.54510000  1.0
  C  C258  1  0.96549000  0.26782000  0.05289000  1.0
  C  C259  1  0.71382000  0.96557000  0.05284000  1.0
  C  C260  1  0.26782000  0.71375000  0.05277000  1.0
  C  C261  1  0.53443000  0.78618000  0.44715000  1.0
  C  C262  1  0.23218000  0.53451000  0.44711000  1.0
  C  C263  1  0.78625000  0.23218000  0.44723000  1.0
  C  C264  1  0.03451000  0.73218000  0.94711000  1.0
  C  C265  1  0.28618000  0.03443000  0.94715000  1.0
  C  C266  1  0.73218000  0.28625000  0.94723000  1.0
  C  C267  1  0.46557000  0.21382000  0.55285000  1.0
  C  C268  1  0.76782000  0.46549000  0.55289000  1.0
  C  C269  1  0.21375000  0.76782000  0.55277000  1.0
  C  C270  1  0.63315000  0.34323000  0.06349000  1.0
  C  C271  1  0.96025000  0.63322000  0.06334000  1.0
  C  C272  1  0.34321000  0.96016000  0.06337000  1.0
  C  C273  1  0.86678000  0.53975000  0.43665000  1.0
  C  C274  1  0.15677000  0.86685000  0.43651000  1.0
  C  C275  1  0.53984000  0.15679000  0.43663000  1.0
  C  C276  1  0.36684000  0.65677000  0.93651000  1.0
  C  C277  1  0.03975000  0.36678000  0.93666000  1.0
  C  C278  1  0.65679000  0.03984000  0.93662000  1.0
  C  C279  1  0.13322000  0.46025000  0.56334000  1.0
  C  C280  1  0.84323000  0.13315000  0.56349000  1.0
  C  C281  1  0.46016000  0.84321000  0.56337000  1.0
  C  C282  1  0.70432000  0.28763000  0.02831000  1.0
  C  C283  1  0.97987000  0.70436000  0.02821000  1.0
  C  C284  1  0.28757000  0.97979000  0.02824000  1.0
  C  C285  1  0.79564000  0.52012000  0.47179000  1.0
  C  C286  1  0.21237000  0.79568000  0.47169000  1.0
  C  C287  1  0.52021000  0.21243000  0.47176000  1.0
  C  C288  1  0.29568000  0.71237000  0.97169000  1.0
  C  C289  1  0.02013000  0.29564000  0.97179000  1.0
  C  C290  1  0.71243000  0.02021000  0.97176000  1.0
  C  C291  1  0.20436000  0.47988000  0.52821000  1.0
  C  C292  1  0.78763000  0.20432000  0.52831000  1.0
  C  C293  1  0.47979000  0.78757000  0.52824000  1.0
  C  C294  1  0.82141000  0.16421000  0.08175000  1.0
  C  C295  1  0.93274000  0.82147000  0.08165000  1.0
  C  C296  1  0.16411000  0.93267000  0.08178000  1.0
  C  C297  1  0.67853000  0.56726000  0.41835000  1.0
  C  C298  1  0.33579000  0.67859000  0.41825000  1.0
  C  C299  1  0.56733000  0.33589000  0.41822000  1.0
  C  C300  1  0.17859000  0.83579000  0.91825000  1.0
  C  C301  1  0.06726000  0.17853000  0.91835000  1.0
  C  C302  1  0.83589000  0.06733000  0.91822000  1.0
  C  C303  1  0.32147000  0.43274000  0.58165000  1.0
  C  C304  1  0.66421000  0.32141000  0.58175000  1.0
  C  C305  1  0.43267000  0.66411000  0.58178000  1.0
  C  C306  1  0.91913000  0.97010000  0.27842000  1.0
  C  C307  1  0.83227000  0.91914000  0.27846000  1.0
  C  C308  1  0.97008000  0.83227000  0.27848000  1.0
  C  C309  1  0.58086000  0.66773000  0.22154000  1.0
  C  C310  1  0.52990000  0.58086000  0.22158000  1.0
  C  C311  1  0.66772000  0.52992000  0.22152000  1.0
  C  C312  1  0.08086000  0.02990000  0.72158000  1.0
  C  C313  1  0.16773000  0.08086000  0.72154000  1.0
  C  C314  1  0.02992000  0.16772000  0.72152000  1.0
  C  C315  1  0.41914000  0.33227000  0.77846000  1.0
  C  C316  1  0.47010000  0.41913000  0.77842000  1.0
  C  C317  1  0.33228000  0.47008000  0.77848000  1.0
  C  C318  1  0.06787000  0.13214000  0.12054000  1.0
  C  C319  1  0.67955000  0.06788000  0.12054000  1.0
  C  C320  1  0.13207000  0.67947000  0.12050000  1.0
  C  C321  1  0.43212000  0.82044000  0.37946000  1.0
  C  C322  1  0.36786000  0.43213000  0.37945000  1.0
  C  C323  1  0.82053000  0.36793000  0.37950000  1.0
  C  C324  1  0.93213000  0.86786000  0.87945000  1.0
  C  C325  1  0.32044000  0.93212000  0.87946000  1.0
  C  C326  1  0.86793000  0.32053000  0.87950000  1.0
  C  C327  1  0.56788000  0.17956000  0.62054000  1.0
  C  C328  1  0.63214000  0.56787000  0.62054000  1.0
  C  C329  1  0.17947000  0.63207000  0.62050000  1.0
  C  C330  1  0.56758000  0.41288000  0.03113000  1.0
  C  C331  1  0.98853000  0.56764000  0.03098000  1.0
  C  C332  1  0.41286000  0.98843000  0.03103000  1.0
  C  C333  1  0.93236000  0.51146000  0.46902000  1.0
  C  C334  1  0.08712000  0.93242000  0.46887000  1.0
  C  C335  1  0.51157000  0.08714000  0.46897000  1.0
  C  C336  1  0.43242000  0.58712000  0.96887000  1.0
  C  C337  1  0.01147000  0.43236000  0.96902000  1.0
  C  C338  1  0.58714000  0.01157000  0.96897000  1.0
  C  C339  1  0.06764000  0.48854000  0.53098000  1.0
  C  C340  1  0.91288000  0.06758000  0.53113000  1.0
  C  C341  1  0.48843000  0.91286000  0.53103000  1.0
  N  N342  1  0.85169000  0.26246000  0.16254000  1.0
  N  N343  1  0.72341000  0.85173000  0.16245000  1.0
  N  N344  1  0.26242000  0.72343000  0.16235000  1.0
  N  N345  1  0.64827000  0.77659000  0.33755000  1.0
  N  N346  1  0.23754000  0.64831000  0.33746000  1.0
  N  N347  1  0.77657000  0.23758000  0.33765000  1.0
  N  N348  1  0.14831000  0.73754000  0.83746000  1.0
  N  N349  1  0.27659000  0.14827000  0.83755000  1.0
  N  N350  1  0.73758000  0.27657000  0.83765000  1.0
  N  N351  1  0.35173000  0.22341000  0.66245000  1.0
  N  N352  1  0.76246000  0.35169000  0.66254000  1.0
  N  N353  1  0.22343000  0.76242000  0.66235000  1.0
  N  N354  1  0.70008000  0.25953000  0.15293000  1.0
  N  N355  1  0.88756000  0.70015000  0.15279000  1.0
  N  N356  1  0.25952000  0.88750000  0.15283000  1.0
  N  N357  1  0.79985000  0.61244000  0.34721000  1.0
  N  N358  1  0.24047000  0.79992000  0.34707000  1.0
  N  N359  1  0.61250000  0.24048000  0.34717000  1.0
  N  N360  1  0.29992000  0.74047000  0.84707000  1.0
  N  N361  1  0.11244000  0.29985000  0.84721000  1.0
  N  N362  1  0.74048000  0.11250000  0.84717000  1.0
  N  N363  1  0.20015000  0.38757000  0.65279000  1.0
  N  N364  1  0.75953000  0.20008000  0.65293000  1.0
  N  N365  1  0.38750000  0.75952000  0.65283000  1.0
  N  N366  1  0.91716000  0.19639000  0.17896000  1.0
  N  N367  1  0.70761000  0.91718000  0.17889000  1.0
  N  N368  1  0.19635000  0.70759000  0.17880000  1.0
  N  N369  1  0.58282000  0.79239000  0.32111000  1.0
  N  N370  1  0.30361000  0.58285000  0.32104000  1.0
  N  N371  1  0.79241000  0.30365000  0.32120000  1.0
  N  N372  1  0.08285000  0.80361000  0.82104000  1.0
  N  N373  1  0.29238000  0.08282000  0.82111000  1.0
  N  N374  1  0.80364000  0.29241000  0.82120000  1.0
  N  N375  1  0.41718000  0.20761000  0.67889000  1.0
  N  N376  1  0.69639000  0.41716000  0.67896000  1.0
  N  N377  1  0.20759000  0.69635000  0.67880000  1.0
  N  N378  1  0.63278000  0.32367000  0.13767000  1.0
  N  N379  1  0.90597000  0.63285000  0.13752000  1.0
  N  N380  1  0.32367000  0.90590000  0.13756000  1.0
  N  N381  1  0.86715000  0.59402000  0.36248000  1.0
  N  N382  1  0.17633000  0.86722000  0.36233000  1.0
  N  N383  1  0.59410000  0.17633000  0.36244000  1.0
  N  N384  1  0.36722000  0.67633000  0.86233000  1.0
  N  N385  1  0.09403000  0.36715000  0.86248000  1.0
  N  N386  1  0.67633000  0.09410000  0.86244000  1.0
  N  N387  1  0.13284000  0.40598000  0.63752000  1.0
  N  N388  1  0.82367000  0.13278000  0.63767000  1.0
  N  N389  1  0.40590000  0.82367000  0.63756000  1.0
  O  O390  1  0.78988000  0.11865000  0.27921000  1.0
  O  O391  1  0.81225000  0.78986000  0.27921000  1.0
  O  O392  1  0.11865000  0.81225000  0.27917000  1.0
  O  O393  1  0.71013000  0.68775000  0.22079000  1.0
  O  O394  1  0.38135000  0.71012000  0.22079000  1.0
  O  O395  1  0.68775000  0.38135000  0.22083000  1.0
  O  O396  1  0.21012000  0.88134000  0.72079000  1.0
  O  O397  1  0.18775000  0.21014000  0.72079000  1.0
  O  O398  1  0.88135000  0.18775000  0.72083000  1.0
  O  O399  1  0.28986000  0.31225000  0.77921000  1.0
  O  O400  1  0.61865000  0.28988000  0.77922000  1.0
  O  O401  1  0.31225000  0.61864000  0.77917000  1.0
  O  O402  1  0.70652000  0.06979000  0.28335000  1.0
  O  O403  1  0.94030000  0.70650000  0.28343000  1.0
  O  O404  1  0.06979000  0.94035000  0.28329000  1.0
  O  O405  1  0.79350000  0.55971000  0.21657000  1.0
  O  O406  1  0.43021000  0.79348000  0.21665000  1.0
  O  O407  1  0.55965000  0.43021000  0.21672000  1.0
  O  O408  1  0.29348000  0.93021000  0.71665000  1.0
  O  O409  1  0.05971000  0.29351000  0.71657000  1.0
  O  O410  1  0.93022000  0.05965000  0.71671000  1.0
  O  O411  1  0.20649000  0.44030000  0.78343000  1.0
  O  O412  1  0.56979000  0.20652000  0.78335000  1.0
  O  O413  1  0.44035000  0.56979000  0.78329000  1.0
