# generated using pymatgen
data_Zn2H33C32N2O11
_symmetry_space_group_name_H-M   'P 1'
_cell_length_a   9.88224000
_cell_length_b   11.00800000
_cell_length_c   23.94690000
_cell_angle_alpha   89.91240000
_cell_angle_beta   90.62280000
_cell_angle_gamma   89.96930000
_symmetry_Int_Tables_number   1
_chemical_formula_structural   Zn2H33C32N2O11
_chemical_formula_sum   'Zn4 H66 C64 N4 O22'
_cell_volume   2604.87499643
_cell_formula_units_Z   2
loop_
 _symmetry_equiv_pos_site_id
 _symmetry_equiv_pos_as_xyz
  1  'x, y, z'
loop_
 _atom_site_type_symbol
 _atom_site_label
 _atom_site_symmetry_multiplicity
 _atom_site_fract_x
 _atom_site_fract_y
 _atom_site_fract_z
 _atom_site_occupancy
  Zn  Zn0  1  0.37412000  0.49835000  0.50305000  1.0
  Zn  Zn1  1  0.66408000  0.51742000  0.48973000  1.0
  Zn  Zn2  1  0.62586000  0.49687000  0.04428000  1.0
  Zn  Zn3  1  0.33596000  0.51589000  0.05772000  1.0
  H  H4  1  0.13549000  0.72123000  0.40795000  1.0
  H  H5  1  0.28125000  0.63222000  0.42266000  1.0
  H  H6  1  0.16064000  0.58299000  0.37214000  1.0
  H  H7  1  0.85893000  0.46300000  0.61637000  1.0
  H  H8  1  0.75966000  0.37731000  0.56980000  1.0
  H  H9  1  0.91111000  0.31361000  0.59803000  1.0
  H  H10  1  0.93498000  0.62320000  0.36881000  1.0
  H  H11  1  0.77703000  0.61050000  0.40322000  1.0
  H  H12  1  0.88562000  0.73482000  0.41772000  1.0
  H  H13  1  0.10830000  0.27304000  0.58049000  1.0
  H  H14  1  0.26175000  0.35339000  0.57241000  1.0
  H  H15  1  0.13930000  0.40305000  0.62157000  1.0
  H  H16  1  0.79282000  0.91489000  0.58464000  1.0
  H  H17  1  0.71567000  0.77588000  0.56523000  1.0
  H  H18  1  0.83272000  0.84518000  0.52032000  1.0
  H  H19  1  0.21998000  0.16748000  0.49649000  1.0
  H  H20  1  0.32805000  0.24480000  0.45007000  1.0
  H  H21  1  0.24840000  0.10829000  0.42909000  1.0
  H  H22  1  0.86734000  0.06040000  0.52251000  1.0
  H  H23  1  0.79568000  0.20788000  0.52077000  1.0
  H  H24  1  0.79578000  0.12133000  0.58367000  1.0
  H  H25  1  0.25291000  0.90171000  0.42401000  1.0
  H  H26  1  0.25904000  0.80756000  0.48440000  1.0
  H  H27  1  0.18667000  0.95521000  0.48759000  1.0
  H  H28  1  0.19836000  0.27615000  0.31885000  1.0
  H  H29  1  0.23689000  0.38654000  0.37018000  1.0
  H  H30  1  0.16014000  0.42937000  0.30479000  1.0
  H  H31  1  0.80287000  0.27448000  0.22899000  1.0
  H  H32  1  0.76457000  0.38450000  0.17726000  1.0
  H  H33  1  0.84172000  0.42774000  0.24247000  1.0
  H  H34  1  0.18305000  0.42957000  0.20788000  1.0
  H  H35  1  0.27586000  0.32952000  0.16471000  1.0
  H  H36  1  0.20167000  0.27583000  0.22741000  1.0
  H  H37  1  0.81847000  0.43050000  0.33966000  1.0
  H  H38  1  0.72586000  0.33049000  0.38302000  1.0
  H  H39  1  0.80039000  0.27660000  0.32050000  1.0
  H  H40  1  0.86488000  0.71988000  0.13926000  1.0
  H  H41  1  0.71866000  0.63205000  0.12412000  1.0
  H  H42  1  0.83812000  0.58146000  0.17495000  1.0
  H  H43  1  0.14241000  0.46140000  0.93136000  1.0
  H  H44  1  0.24012000  0.37440000  0.97815000  1.0
  H  H45  1  0.08848000  0.31230000  0.94949000  1.0
  H  H46  1  0.06515000  0.62045000  0.17856000  1.0
  H  H47  1  0.22294000  0.60868000  0.14397000  1.0
  H  H48  1  0.11376000  0.73293000  0.12980000  1.0
  H  H49  1  0.89147000  0.27188000  0.96709000  1.0
  H  H50  1  0.73809000  0.35241000  0.97521000  1.0
  H  H51  1  0.86038000  0.40210000  0.92600000  1.0
  H  H52  1  0.20256000  0.91598000  0.96464000  1.0
  H  H53  1  0.28078000  0.77630000  0.98269000  1.0
  H  H54  1  0.16587000  0.84425000  0.02891000  1.0
  H  H55  1  0.77942000  0.16610000  0.04917000  1.0
  H  H56  1  0.67332000  0.24177000  0.09683000  1.0
  H  H57  1  0.75414000  0.10466000  0.11646000  1.0
  H  H58  1  0.13136000  0.05969000  0.02860000  1.0
  H  H59  1  0.20286000  0.20721000  0.02930000  1.0
  H  H60  1  0.19845000  0.12066000  0.96653000  1.0
  H  H61  1  0.75047000  0.89799000  0.12056000  1.0
  H  H62  1  0.74158000  0.80586000  0.05971000  1.0
  H  H63  1  0.81304000  0.95384000  0.05669000  1.0
  H  H64  1  0.85300000  0.62344000  0.69076000  1.0
  H  H65  1  0.80756000  0.59796000  0.81152000  1.0
  H  H66  1  0.68950000  0.56122000  0.90987000  1.0
  H  H67  1  0.14657000  0.62112000  0.85649000  1.0
  H  H68  1  0.19215000  0.59656000  0.73577000  1.0
  H  H69  1  0.31043000  0.56137000  0.63744000  1.0
  C  C70  1  0.54400000  0.27298000  0.50669000  1.0
  C  C71  1  0.51770000  0.55722000  0.60655000  1.0
  C  C72  1  0.51971000  0.74462000  0.49213000  1.0
  C  C73  1  0.49455000  0.44493000  0.39135000  1.0
  C  C74  1  0.45557000  0.27161000  0.04122000  1.0
  C  C75  1  0.48207000  0.55580000  0.94081000  1.0
  C  C76  1  0.47962000  0.74305000  0.05483000  1.0
  C  C77  1  0.50711000  0.44346000  0.15599000  1.0
  C  C78  1  0.09500000  0.56256000  0.45648000  1.0
  C  C79  1  0.94252000  0.44996000  0.53544000  1.0
  C  C80  1  0.95241000  0.56748000  0.45437000  1.0
  C  C81  1  0.08508000  0.44009000  0.53595000  1.0
  C  C82  1  0.51670000  0.88042000  0.50137000  1.0
  C  C83  1  0.53842000  0.13592000  0.50371000  1.0
  C  C84  1  0.63632000  0.93577000  0.52230000  1.0
  C  C85  1  0.41590000  0.08106000  0.48619000  1.0
  C  C86  1  0.64936000  0.06323000  0.52092000  1.0
  C  C87  1  0.40420000  0.95329000  0.48594000  1.0
  C  C88  1  0.57797000  0.58102000  0.84528000  1.0
  C  C89  1  0.33400000  0.59442000  0.85421000  1.0
  C  C90  1  0.31962000  0.59446000  0.79649000  1.0
  C  C91  1  0.43369000  0.58841000  0.76113000  1.0
  C  C92  1  0.42176000  0.58119000  0.70205000  1.0
  C  C93  1  0.66567000  0.59603000  0.69308000  1.0
  C  C94  1  0.68004000  0.59576000  0.75082000  1.0
  C  C95  1  0.56604000  0.58871000  0.78618000  1.0
  C  C96  1  0.46370000  0.57963000  0.88018000  1.0
  C  C97  1  0.53605000  0.58071000  0.66715000  1.0
  C  C98  1  0.49355000  0.39847000  0.33214000  1.0
  C  C99  1  0.50822000  0.39747000  0.21532000  1.0
  C  C100  1  0.37333000  0.38346000  0.30004000  1.0
  C  C101  1  0.62842000  0.38275000  0.24748000  1.0
  C  C102  1  0.38161000  0.37995000  0.24135000  1.0
  C  C103  1  0.62018000  0.38035000  0.30620000  1.0
  C  C104  1  0.90485000  0.56141000  0.09077000  1.0
  C  C105  1  0.05750000  0.44835000  0.01208000  1.0
  C  C106  1  0.04745000  0.56596000  0.09293000  1.0
  C  C107  1  0.91494000  0.43875000  0.01154000  1.0
  C  C108  1  0.48250000  0.87892000  0.04561000  1.0
  C  C109  1  0.46092000  0.13453000  0.04411000  1.0
  C  C110  1  0.36204000  0.93487000  0.02573000  1.0
  C  C111  1  0.58413000  0.07914000  0.06053000  1.0
  C  C112  1  0.34915000  0.06232000  0.02761000  1.0
  C  C113  1  0.59580000  0.95136000  0.06028000  1.0
  C  C114  1  0.17343000  0.62809000  0.41277000  1.0
  C  C115  1  0.86390000  0.39668000  0.58206000  1.0
  C  C116  1  0.88297000  0.63679000  0.40858000  1.0
  C  C117  1  0.15360000  0.36424000  0.57973000  1.0
  C  C118  1  0.74966000  0.86372000  0.54940000  1.0
  C  C119  1  0.29769000  0.15475000  0.46436000  1.0
  C  C120  1  0.78397000  0.11681000  0.53790000  1.0
  C  C121  1  0.26857000  0.90072000  0.46967000  1.0
  C  C122  1  0.23500000  0.36969000  0.32536000  1.0
  C  C123  1  0.76657000  0.36812000  0.22215000  1.0
  C  C124  1  0.25460000  0.35288000  0.20810000  1.0
  C  C125  1  0.74721000  0.35369000  0.33958000  1.0
  C  C126  1  0.82630000  0.62705000  0.13433000  1.0
  C  C127  1  0.13627000  0.39484000  0.96561000  1.0
  C  C128  1  0.11685000  0.63477000  0.13875000  1.0
  C  C129  1  0.84624000  0.36313000  0.96787000  1.0
  C  C130  1  0.24747000  0.86366000  0.99923000  1.0
  C  C131  1  0.70321000  0.15221000  0.08182000  1.0
  C  C132  1  0.21350000  0.11616000  0.01215000  1.0
  C  C133  1  0.73241000  0.89852000  0.07505000  1.0
  N  N134  1  0.15911000  0.49851000  0.49717000  1.0
  N  N135  1  0.87855000  0.51194000  0.49408000  1.0
  N  N136  1  0.84086000  0.49742000  0.05015000  1.0
  N  N137  1  0.12141000  0.51028000  0.05335000  1.0
  O  O138  1  0.44359000  0.32685000  0.52869000  1.0
  O  O139  1  0.64669000  0.32918000  0.48737000  1.0
  O  O140  1  0.61853000  0.54744000  0.57489000  1.0
  O  O141  1  0.39341000  0.54420000  0.58863000  1.0
  O  O142  1  0.63492000  0.69955000  0.48089000  1.0
  O  O143  1  0.41115000  0.68167000  0.49509000  1.0
  O  O144  1  0.39263000  0.42911000  0.42316000  1.0
  O  O145  1  0.59869000  0.50485000  0.40641000  1.0
  O  O146  1  0.55567000  0.32542000  0.01896000  1.0
  O  O147  1  0.35318000  0.32792000  0.06075000  1.0
  O  O148  1  0.38124000  0.54556000  0.97243000  1.0
  O  O149  1  0.60644000  0.54302000  0.95872000  1.0
  O  O150  1  0.36445000  0.69788000  0.06607000  1.0
  O  O151  1  0.58826000  0.68009000  0.05206000  1.0
  O  O152  1  0.60872000  0.42689000  0.12410000  1.0
  O  O153  1  0.40323000  0.50397000  0.14095000  1.0
  O  O154  1  0.78107000  0.61199000  0.66260000  1.0
  O  O155  1  0.81099000  0.60637000  0.77034000  1.0
  O  O156  1  0.70553000  0.57227000  0.86727000  1.0
  O  O157  1  0.21850000  0.60980000  0.88469000  1.0
  O  O158  1  0.18860000  0.60444000  0.77697000  1.0
  O  O159  1  0.29429000  0.57192000  0.68006000  1.0
