# generated using pymatgen
data_CdH21C25(NO2)3
_symmetry_space_group_name_H-M   'P 1'
_cell_length_a   5.59091000
_cell_length_b   17.44262859
_cell_length_c   31.74485647
_cell_angle_alpha   83.64918099
_cell_angle_beta   84.96797985
_cell_angle_gamma   80.82099262
_symmetry_Int_Tables_number   1
_chemical_formula_structural   CdH21C25(NO2)3
_chemical_formula_sum   'Cd4 H84 C100 N12 O24'
_cell_volume   3029.61188252
_cell_formula_units_Z   4
loop_
 _symmetry_equiv_pos_site_id
 _symmetry_equiv_pos_as_xyz
  1  'x, y, z'
loop_
 _atom_site_type_symbol
 _atom_site_label
 _atom_site_symmetry_multiplicity
 _atom_site_fract_x
 _atom_site_fract_y
 _atom_site_fract_z
 _atom_site_occupancy
  Cd  Cd0  1  0.69453000  0.99345000  0.74952000  1.0
  Cd  Cd1  1  0.43736000  0.50644000  0.75047000  1.0
  Cd  Cd2  1  0.30547000  0.00656000  0.25047000  1.0
  Cd  Cd3  1  0.56261000  0.49357000  0.24953000  1.0
  H  H4  1  0.91577000  0.75191000  0.01312000  1.0
  H  H5  1  0.68103000  0.74869000  0.48697000  1.0
  H  H6  1  0.08421000  0.24809000  0.98687000  1.0
  H  H7  1  0.31905000  0.25131000  0.51304000  1.0
  H  H8  1  0.88209000  0.14815000  0.76020000  1.0
  H  H9  1  0.78988000  0.35209000  0.73980000  1.0
  H  H10  1  0.11790000  0.85186000  0.23979000  1.0
  H  H11  1  0.21011000  0.64792000  0.26019000  1.0
  H  H12  1  0.82860000  0.25717000  0.80783000  1.0
  H  H13  1  0.89435000  0.24319000  0.69216000  1.0
  H  H14  1  0.17137000  0.74284000  0.19217000  1.0
  H  H15  1  0.10564000  0.75682000  0.30785000  1.0
  H  H16  1  0.46948000  0.27001000  0.86056000  1.0
  H  H17  1  0.60191000  0.23007000  0.63924000  1.0
  H  H18  1  0.53050000  0.73000000  0.13944000  1.0
  H  H19  1  0.39811000  0.76992000  0.36076000  1.0
  H  H20  1  0.16981000  0.17499000  0.86288000  1.0
  H  H21  1  0.20931000  0.32475000  0.63675000  1.0
  H  H22  1  0.83019000  0.82502000  0.13711000  1.0
  H  H23  1  0.79068000  0.67524000  0.36325000  1.0
  H  H24  1  0.24936000  0.07062000  0.81324000  1.0
  H  H25  1  0.13352000  0.42908000  0.68642000  1.0
  H  H26  1  0.75059000  0.92940000  0.18675000  1.0
  H  H27  1  0.86645000  0.57092000  0.31357000  1.0
  H  H28  1  0.95129000  0.64386000  0.15496000  1.0
  H  H29  1  0.75036000  0.85634000  0.34510000  1.0
  H  H30  1  0.04863000  0.35616000  0.84504000  1.0
  H  H31  1  0.24966000  0.14367000  0.65491000  1.0
  H  H32  1  0.82363000  0.72079000  0.08712000  1.0
  H  H33  1  0.63110000  0.77985000  0.41306000  1.0
  H  H34  1  0.17634000  0.27922000  0.91288000  1.0
  H  H35  1  0.36898000  0.22014000  0.58694000  1.0
  H  H36  1  0.53265000  0.64933000  0.02704000  1.0
  H  H37  1  0.21018000  0.85111000  0.47294000  1.0
  H  H38  1  0.46730000  0.35067000  0.97296000  1.0
  H  H39  1  0.78991000  0.14888000  0.52706000  1.0
  H  H40  1  0.66085000  0.57590000  0.09533000  1.0
  H  H41  1  0.33338000  0.92433000  0.40459000  1.0
  H  H42  1  0.33907000  0.42410000  0.90467000  1.0
  H  H43  1  0.66668000  0.07566000  0.59541000  1.0
  H  H44  1  0.84739000  0.75052000  0.94857000  1.0
  H  H45  1  0.54688000  0.74971000  0.55155000  1.0
  H  H46  1  0.15260000  0.24948000  0.05142000  1.0
  H  H47  1  0.45322000  0.25030000  0.44845000  1.0
  H  H48  1  0.69155000  0.82015000  0.88200000  1.0
  H  H49  1  0.39484000  0.67978000  0.61810000  1.0
  H  H50  1  0.30845000  0.17984000  0.11799000  1.0
  H  H51  1  0.60525000  0.32022000  0.38191000  1.0
  H  H52  1  0.23463000  0.97060000  0.87431000  1.0
  H  H53  1  0.08061000  0.52959000  0.62551000  1.0
  H  H54  1  0.76535000  0.02940000  0.12568000  1.0
  H  H55  1  0.91946000  0.47039000  0.37449000  1.0
  H  H56  1  0.39230000  0.90169000  0.94213000  1.0
  H  H57  1  0.23665000  0.59894000  0.55776000  1.0
  H  H58  1  0.60770000  0.09831000  0.05785000  1.0
  H  H59  1  0.76345000  0.40105000  0.44224000  1.0
  H  H60  1  0.53471000  0.90450000  0.68182000  1.0
  H  H61  1  0.12048000  0.59510000  0.81837000  1.0
  H  H62  1  0.46531000  0.09550000  0.31818000  1.0
  H  H63  1  0.87952000  0.40489000  0.18163000  1.0
  H  H64  1  0.61996000  0.78146000  0.64561000  1.0
  H  H65  1  0.04673000  0.71810000  0.85462000  1.0
  H  H66  1  0.37999000  0.21853000  0.35440000  1.0
  H  H67  1  0.95327000  0.28189000  0.14539000  1.0
  H  H68  1  0.99761000  0.68602000  0.66210000  1.0
  H  H69  1  0.34547000  0.81365000  0.83819000  1.0
  H  H70  1  0.00230000  0.31395000  0.33793000  1.0
  H  H71  1  0.65453000  0.18635000  0.16181000  1.0
  H  H72  1  0.26952000  0.71846000  0.71341000  1.0
  H  H73  1  0.70127000  0.78128000  0.78695000  1.0
  H  H74  1  0.73041000  0.28152000  0.28661000  1.0
  H  H75  1  0.29872000  0.21872000  0.21305000  1.0
  H  H76  1  0.15787000  0.84471000  0.74692000  1.0
  H  H77  1  0.74905000  0.65508000  0.75338000  1.0
  H  H78  1  0.84211000  0.15529000  0.25308000  1.0
  H  H79  1  0.25094000  0.34492000  0.24662000  1.0
  H  H80  1  0.20719000  0.97023000  0.77067000  1.0
  H  H81  1  0.94816000  0.52938000  0.72925000  1.0
  H  H82  1  0.79280000  0.02978000  0.22933000  1.0
  H  H83  1  0.05180000  0.47061000  0.27075000  1.0
  H  H84  1  0.21625000  0.00768000  0.72344000  1.0
  H  H85  1  0.94737000  0.49228000  0.77656000  1.0
  H  H86  1  0.78375000  0.99232000  0.27656000  1.0
  H  H87  1  0.05260000  0.50773000  0.22345000  1.0
  C  C88  1  0.72709000  0.15714000  0.78347000  1.0
  C  C89  1  0.66767000  0.34299000  0.71646000  1.0
  C  C90  1  0.27288000  0.84287000  0.21653000  1.0
  C  C91  1  0.33231000  0.65702000  0.28354000  1.0
  C  C92  1  0.69675000  0.21690000  0.81000000  1.0
  C  C93  1  0.72431000  0.28329000  0.68993000  1.0
  C  C94  1  0.30323000  0.78310000  0.19000000  1.0
  C  C95  1  0.27568000  0.71672000  0.31008000  1.0
  C  C96  1  0.49534000  0.22394000  0.83928000  1.0
  C  C97  1  0.55986000  0.27609000  0.66054000  1.0
  C  C98  1  0.50463000  0.77606000  0.16072000  1.0
  C  C99  1  0.44014000  0.72391000  0.33947000  1.0
  C  C100  1  0.33037000  0.17139000  0.84067000  1.0
  C  C101  1  0.34360000  0.32847000  0.65906000  1.0
  C  C102  1  0.66961000  0.82861000  0.15933000  1.0
  C  C103  1  0.65640000  0.67152000  0.34094000  1.0
  C  C104  1  0.37313000  0.11328000  0.81294000  1.0
  C  C105  1  0.29978000  0.38656000  0.68681000  1.0
  C  C106  1  0.62683000  0.88673000  0.18706000  1.0
  C  C107  1  0.70020000  0.61344000  0.31319000  1.0
  C  C108  1  0.40784000  0.57076000  0.17135000  1.0
  C  C109  1  0.15034000  0.92939000  0.32862000  1.0
  C  C110  1  0.59210000  0.42924000  0.82865000  1.0
  C  C111  1  0.84967000  0.07061000  0.67138000  1.0
  C  C112  1  0.31768000  0.60811000  0.12982000  1.0
  C  C113  1  0.05632000  0.89208000  0.37018000  1.0
  C  C114  1  0.68226000  0.39189000  0.87018000  1.0
  C  C115  1  0.94372000  0.10792000  0.62982000  1.0
  C  C116  1  0.07903000  0.64703000  0.12706000  1.0
  C  C117  1  0.85343000  0.85326000  0.37299000  1.0
  C  C118  1  0.92090000  0.35298000  0.87294000  1.0
  C  C119  1  0.14663000  0.14674000  0.62701000  1.0
  C  C120  1  0.00782000  0.68932000  0.08924000  1.0
  C  C121  1  0.78643000  0.81118000  0.41086000  1.0
  C  C122  1  0.99213000  0.31069000  0.91076000  1.0
  C  C123  1  0.21365000  0.18881000  0.58914000  1.0
  C  C124  1  0.17288000  0.69260000  0.05336000  1.0
  C  C125  1  0.91908000  0.80797000  0.44672000  1.0
  C  C126  1  0.82707000  0.30741000  0.94664000  1.0
  C  C127  1  0.08103000  0.19203000  0.55328000  1.0
  C  C128  1  0.40731000  0.64940000  0.05520000  1.0
  C  C129  1  0.11273000  0.85101000  0.44482000  1.0
  C  C130  1  0.59264000  0.35059000  0.94480000  1.0
  C  C131  1  0.88736000  0.14899000  0.55518000  1.0
  C  C132  1  0.47775000  0.60808000  0.09319000  1.0
  C  C133  1  0.18002000  0.89221000  0.40678000  1.0
  C  C134  1  0.52218000  0.39192000  0.90681000  1.0
  C  C135  1  0.82008000  0.10779000  0.59321000  1.0
  C  C136  1  0.24769000  0.77847000  0.98795000  1.0
  C  C137  1  0.01432000  0.72222000  0.51215000  1.0
  C  C138  1  0.75228000  0.22153000  0.01205000  1.0
  C  C139  1  0.98579000  0.27778000  0.48785000  1.0
  C  C140  1  0.13174000  0.82185000  0.94984000  1.0
  C  C141  1  0.90384000  0.67860000  0.55020000  1.0
  C  C142  1  0.86824000  0.17814000  0.05016000  1.0
  C  C143  1  0.09626000  0.32140000  0.44981000  1.0
  C  C144  1  0.93258000  0.79921000  0.93308000  1.0
  C  C145  1  0.66544000  0.70101000  0.56698000  1.0
  C  C146  1  0.06742000  0.20078000  0.06691000  1.0
  C  C147  1  0.33469000  0.29899000  0.43302000  1.0
  C  C148  1  0.84381000  0.83801000  0.89559000  1.0
  C  C149  1  0.57836000  0.66205000  0.60445000  1.0
  C  C150  1  0.15616000  0.16199000  0.10440000  1.0
  C  C151  1  0.42174000  0.33795000  0.39555000  1.0
  C  C152  1  0.95322000  0.89938000  0.87403000  1.0
  C  C153  1  0.72773000  0.60065000  0.62593000  1.0
  C  C154  1  0.04675000  0.10062000  0.12596000  1.0
  C  C155  1  0.27235000  0.39935000  0.37408000  1.0
  C  C156  1  0.14875000  0.92330000  0.89137000  1.0
  C  C157  1  0.96437000  0.57691000  0.60852000  1.0
  C  C158  1  0.85123000  0.07670000  0.10862000  1.0
  C  C159  1  0.03574000  0.42308000  0.39148000  1.0
  C  C160  1  0.23709000  0.88490000  0.92890000  1.0
  C  C161  1  0.05146000  0.61553000  0.57103000  1.0
  C  C162  1  0.76291000  0.11509000  0.07109000  1.0
  C  C163  1  0.94863000  0.38447000  0.42897000  1.0
  C  C164  1  0.87270000  0.93503000  0.83131000  1.0
  C  C165  1  0.64080000  0.56486000  0.66866000  1.0
  C  C166  1  0.12724000  0.06497000  0.16869000  1.0
  C  C167  1  0.35926000  0.43513000  0.33134000  1.0
  C  C168  1  0.69497000  0.86152000  0.68791000  1.0
  C  C169  1  0.24390000  0.63812000  0.81230000  1.0
  C  C170  1  0.30502000  0.13847000  0.31209000  1.0
  C  C171  1  0.75609000  0.36188000  0.18771000  1.0
  C  C172  1  0.74424000  0.79313000  0.66784000  1.0
  C  C173  1  0.20487000  0.70648000  0.83240000  1.0
  C  C174  1  0.25571000  0.20686000  0.33218000  1.0
  C  C175  1  0.79512000  0.29353000  0.16760000  1.0
  C  C176  1  0.95300000  0.74049000  0.67690000  1.0
  C  C177  1  0.37004000  0.75919000  0.82338000  1.0
  C  C178  1  0.04694000  0.25949000  0.32312000  1.0
  C  C179  1  0.62996000  0.24081000  0.17662000  1.0
  C  C180  1  0.10532000  0.75838000  0.70574000  1.0
  C  C181  1  0.56920000  0.74134000  0.79458000  1.0
  C  C182  1  0.89461000  0.24161000  0.29428000  1.0
  C  C183  1  0.43080000  0.25865000  0.20541000  1.0
  C  C184  1  0.04278000  0.82791000  0.72463000  1.0
  C  C185  1  0.59488000  0.67185000  0.77566000  1.0
  C  C186  1  0.95719000  0.17209000  0.27538000  1.0
  C  C187  1  0.40512000  0.32815000  0.22434000  1.0
  N  N188  1  0.09819000  0.73851000  0.01617000  1.0
  N  N189  1  0.85309000  0.76216000  0.48394000  1.0
  N  N190  1  0.90177000  0.26149000  0.98383000  1.0
  N  N191  1  0.14701000  0.23783000  0.51606000  1.0
  N  N192  1  0.84090000  0.87856000  0.71600000  1.0
  N  N193  1  0.43495000  0.62116000  0.78423000  1.0
  N  N194  1  0.15909000  0.12145000  0.28400000  1.0
  N  N195  1  0.56504000  0.37884000  0.21577000  1.0
  N  N196  1  0.56854000  0.10631000  0.78491000  1.0
  N  N197  1  0.45964000  0.39365000  0.71495000  1.0
  N  N198  1  0.43144000  0.89370000  0.21508000  1.0
  N  N199  1  0.54034000  0.60635000  0.28505000  1.0
  O  O200  1  0.46502000  0.77847000  0.99330000  1.0
  O  O201  1  0.23691000  0.72240000  0.50684000  1.0
  O  O202  1  0.53495000  0.22152000  0.00670000  1.0
  O  O203  1  0.76322000  0.27759000  0.49316000  1.0
  O  O204  1  0.31026000  0.96861000  0.74343000  1.0
  O  O205  1  0.02228000  0.53128000  0.75649000  1.0
  O  O206  1  0.68975000  0.03139000  0.25656000  1.0
  O  O207  1  0.97769000  0.46872000  0.24351000  1.0
  O  O208  1  0.99798000  0.98356000  0.81016000  1.0
  O  O209  1  0.79325000  0.51598000  0.68961000  1.0
  O  O210  1  0.00194000  0.01645000  0.18983000  1.0
  O  O211  1  0.20681000  0.48400000  0.31038000  1.0
  O  O212  1  0.68807000  0.91460000  0.81749000  1.0
  O  O213  1  0.42255000  0.58560000  0.68269000  1.0
  O  O214  1  0.31186000  0.08541000  0.18251000  1.0
  O  O215  1  0.57751000  0.41442000  0.31731000  1.0
  O  O216  1  0.25395000  0.56778000  0.20408000  1.0
  O  O217  1  0.02596000  0.93225000  0.29592000  1.0
  O  O218  1  0.74598000  0.43223000  0.79593000  1.0
  O  O219  1  0.97405000  0.06775000  0.70408000  1.0
  O  O220  1  0.63219000  0.54591000  0.17351000  1.0
  O  O221  1  0.35199000  0.95434000  0.32641000  1.0
  O  O222  1  0.36773000  0.45409000  0.82649000  1.0
  O  O223  1  0.64801000  0.04567000  0.67358000  1.0
