# generated using pymatgen
data_ZnH10C17S2O5
_symmetry_space_group_name_H-M   'P 1'
_cell_length_a   19.38662904
_cell_length_b   19.38590000
_cell_length_c   20.45500000
_cell_angle_alpha   90.00020000
_cell_angle_beta   90.00010000
_cell_angle_gamma   59.99773217
_symmetry_Int_Tables_number   1
_chemical_formula_structural   ZnH10C17S2O5
_chemical_formula_sum   'Zn12 H120 C204 S24 O60'
_cell_volume   6657.45836232
_cell_formula_units_Z   12
loop_
 _symmetry_equiv_pos_site_id
 _symmetry_equiv_pos_as_xyz
  1  'x, y, z'
loop_
 _atom_site_type_symbol
 _atom_site_label
 _atom_site_symmetry_multiplicity
 _atom_site_fract_x
 _atom_site_fract_y
 _atom_site_fract_z
 _atom_site_occupancy
  Zn  Zn0  1  0.71838000  0.72270000  0.87606000  1.0
  Zn  Zn1  1  0.72274000  0.55894000  0.20922000  1.0
  Zn  Zn2  1  0.55887000  0.71827000  0.54260000  1.0
  Zn  Zn3  1  0.28162000  0.27730000  0.37606000  1.0
  Zn  Zn4  1  0.27727000  0.44106000  0.70922000  1.0
  Zn  Zn5  1  0.44113000  0.28173000  0.04261000  1.0
  Zn  Zn6  1  0.72871000  0.63525000  0.04217000  1.0
  Zn  Zn7  1  0.63522000  0.63614000  0.37543000  1.0
  Zn  Zn8  1  0.63613000  0.72882000  0.70877000  1.0
  Zn  Zn9  1  0.27129000  0.36475000  0.54217000  1.0
  Zn  Zn10  1  0.36478000  0.36386000  0.87543000  1.0
  Zn  Zn11  1  0.36387000  0.27118000  0.20877000  1.0
  H  H12  1  0.59415000  0.35621000  0.85050000  1.0
  H  H13  1  0.35596000  0.04975000  0.18382000  1.0
  H  H14  1  0.04943000  0.59412000  0.51711000  1.0
  H  H15  1  0.40585000  0.64379000  0.35050000  1.0
  H  H16  1  0.64404000  0.95025000  0.68382000  1.0
  H  H17  1  0.95057000  0.40587000  0.01711000  1.0
  H  H18  1  0.78660000  0.13607000  0.99320000  1.0
  H  H19  1  0.13616000  0.07735000  0.32688000  1.0
  H  H20  1  0.07726000  0.78647000  0.65976000  1.0
  H  H21  1  0.21340000  0.86393000  0.49320000  1.0
  H  H22  1  0.86384000  0.92265000  0.82688000  1.0
  H  H23  1  0.92273000  0.21353000  0.15976000  1.0
  H  H24  1  0.73859000  0.31301000  0.84520000  1.0
  H  H25  1  0.31265000  0.94858000  0.17858000  1.0
  H  H26  1  0.94824000  0.73860000  0.51178000  1.0
  H  H27  1  0.26141000  0.68699000  0.34520000  1.0
  H  H28  1  0.68735000  0.05142000  0.67858000  1.0
  H  H29  1  0.05175000  0.26141000  0.01178000  1.0
  H  H30  1  0.64208000  0.17915000  0.99672000  1.0
  H  H31  1  0.17931000  0.17876000  0.33032000  1.0
  H  H32  1  0.17868000  0.64195000  0.66327000  1.0
  H  H33  1  0.35793000  0.82084000  0.49673000  1.0
  H  H34  1  0.82069000  0.82123000  0.83032000  1.0
  H  H35  1  0.82132000  0.35805000  0.16327000  1.0
  H  H36  1  0.71532000  0.49163000  0.97579000  1.0
  H  H37  1  0.49186000  0.79311000  0.30903000  1.0
  H  H38  1  0.79266000  0.71544000  0.64227000  1.0
  H  H39  1  0.28468000  0.50836000  0.47579000  1.0
  H  H40  1  0.50814000  0.20689000  0.80903000  1.0
  H  H41  1  0.20734000  0.28456000  0.14227000  1.0
  H  H42  1  0.77447000  0.34495000  0.98203000  1.0
  H  H43  1  0.34524000  0.88058000  0.31542000  1.0
  H  H44  1  0.88025000  0.77451000  0.64863000  1.0
  H  H45  1  0.22553000  0.65506000  0.48203000  1.0
  H  H46  1  0.65477000  0.11942000  0.81542000  1.0
  H  H47  1  0.11975000  0.22549000  0.14863000  1.0
  H  H48  1  0.94481000  0.31552000  0.83352000  1.0
  H  H49  1  0.31568000  0.73993000  0.16670000  1.0
  H  H50  1  0.73987000  0.94453000  0.49972000  1.0
  H  H51  1  0.05519000  0.68448000  0.33353000  1.0
  H  H52  1  0.68432000  0.26008000  0.66666667  1.0
  H  H53  1  0.26012000  0.05548000  0.99972000  1.0
  H  H54  1  0.88682000  0.46284000  0.82914000  1.0
  H  H55  1  0.46294000  0.65067000  0.16220000  1.0
  H  H56  1  0.65039000  0.88670000  0.49534000  1.0
  H  H57  1  0.11318000  0.53716000  0.32915000  1.0
  H  H58  1  0.53706000  0.34933000  0.66221000  1.0
  H  H59  1  0.34961000  0.11330000  0.99534000  1.0
  H  H60  1  0.46585000  0.72129000  0.78207000  1.0
  H  H61  1  0.72109000  0.81302000  0.11541000  1.0
  H  H62  1  0.81306000  0.46576000  0.44881000  1.0
  H  H63  1  0.53415000  0.27872000  0.28208000  1.0
  H  H64  1  0.27891000  0.18698000  0.61541000  1.0
  H  H65  1  0.18695000  0.53424000  0.94881000  1.0
  H  H66  1  0.31970000  0.78148000  0.79341000  1.0
  H  H67  1  0.78153000  0.89881000  0.12643000  1.0
  H  H68  1  0.89876000  0.31951000  0.45988000  1.0
  H  H69  1  0.68030000  0.21853000  0.29342000  1.0
  H  H70  1  0.21847000  0.10119000  0.62643000  1.0
  H  H71  1  0.10124000  0.68049000  0.95988000  1.0
  H  H72  1  0.31954000  0.94060000  0.94070000  1.0
  H  H73  1  0.94069000  0.73990000  0.27369000  1.0
  H  H74  1  0.73989000  0.31943000  0.60725000  1.0
  H  H75  1  0.68045000  0.05942000  0.44070000  1.0
  H  H76  1  0.05931000  0.26010000  0.77369000  1.0
  H  H77  1  0.26011000  0.68057000  0.10725000  1.0
  H  H78  1  0.46514000  0.88204000  0.92693000  1.0
  H  H79  1  0.88200000  0.65297000  0.26021000  1.0
  H  H80  1  0.65296000  0.46508000  0.59362000  1.0
  H  H81  1  0.53486000  0.11797000  0.42693000  1.0
  H  H82  1  0.11800000  0.34702000  0.76021000  1.0
  H  H83  1  0.34704000  0.53492000  0.09362000  1.0
  H  H84  1  0.14340000  0.66972000  0.77621000  1.0
  H  H85  1  0.66982000  0.18700000  0.10951000  1.0
  H  H86  1  0.18687000  0.14330000  0.44277000  1.0
  H  H87  1  0.85659000  0.33029000  0.27621000  1.0
  H  H88  1  0.33018000  0.81300000  0.60951000  1.0
  H  H89  1  0.81313000  0.85669000  0.94277000  1.0
  H  H90  1  0.10395000  0.81070000  0.80060000  1.0
  H  H91  1  0.81073000  0.08539000  0.13390000  1.0
  H  H92  1  0.08521000  0.10397000  0.46697000  1.0
  H  H93  1  0.89605000  0.18930000  0.30060000  1.0
  H  H94  1  0.18927000  0.91461000  0.63390000  1.0
  H  H95  1  0.91479000  0.89603000  0.96697000  1.0
  H  H96  1  0.30604000  0.72958000  0.92907000  1.0
  H  H97  1  0.72945000  0.96438000  0.26219000  1.0
  H  H98  1  0.96431000  0.30595000  0.59561000  1.0
  H  H99  1  0.69395000  0.27043000  0.42907000  1.0
  H  H100  1  0.27055000  0.03563000  0.76219000  1.0
  H  H101  1  0.03569000  0.69405000  0.09560000  1.0
  H  H102  1  0.34450000  0.58882000  0.90445000  1.0
  H  H103  1  0.58881000  0.06659000  0.23740000  1.0
  H  H104  1  0.06661000  0.34437000  0.57103000  1.0
  H  H105  1  0.65549000  0.41119000  0.40445000  1.0
  H  H106  1  0.41119000  0.93341000  0.73740000  1.0
  H  H107  1  0.93339000  0.65563000  0.07103000  1.0
  H  H108  1  0.59738000  0.78209000  0.96949000  1.0
  H  H109  1  0.78201000  0.62057000  0.30291000  1.0
  H  H110  1  0.62065000  0.59739000  0.63604000  1.0
  H  H111  1  0.40263000  0.21790000  0.46949000  1.0
  H  H112  1  0.21799000  0.37942000  0.80291000  1.0
  H  H113  1  0.37935000  0.40261000  0.13604000  1.0
  H  H114  1  0.60788000  0.81013000  0.03981000  1.0
  H  H115  1  0.80993000  0.58197000  0.37323000  1.0
  H  H116  1  0.58197000  0.60796000  0.70627000  1.0
  H  H117  1  0.39212000  0.18987000  0.53981000  1.0
  H  H118  1  0.19007000  0.41802000  0.87323000  1.0
  H  H119  1  0.41803000  0.39204000  0.20627000  1.0
  H  H120  1  0.61395000  0.62120000  0.10253000  1.0
  H  H121  1  0.62104000  0.76489000  0.43593000  1.0
  H  H122  1  0.76457000  0.61405000  0.76959000  1.0
  H  H123  1  0.38605000  0.37880000  0.60253000  1.0
  H  H124  1  0.37896000  0.23511000  0.93593000  1.0
  H  H125  1  0.23543000  0.38595000  0.26959000  1.0
  H  H126  1  0.58685000  0.68580000  0.04657000  1.0
  H  H127  1  0.68570000  0.72746000  0.38002000  1.0
  H  H128  1  0.72724000  0.58694000  0.71350000  1.0
  H  H129  1  0.41315000  0.31420000  0.54657000  1.0
  H  H130  1  0.31430000  0.27254000  0.88002000  1.0
  H  H131  1  0.27276000  0.41306000  0.21350000  1.0
  C  C132  1  0.00844000  0.08373000  0.90813000  1.0
  C  C133  1  0.08383000  0.90771000  0.24181000  1.0
  C  C134  1  0.90776000  0.00838000  0.57502000  1.0
  C  C135  1  0.99156000  0.91627000  0.40813000  1.0
  C  C136  1  0.91617000  0.09229000  0.74180000  1.0
  C  C137  1  0.09224000  0.99162000  0.07502000  1.0
  C  C138  1  0.07699000  0.01306000  0.90062000  1.0
  C  C139  1  0.01315000  0.90985000  0.23430000  1.0
  C  C140  1  0.90993000  0.07691000  0.56754000  1.0
  C  C141  1  0.92301000  0.98694000  0.40062000  1.0
  C  C142  1  0.98685000  0.09015000  0.73430000  1.0
  C  C143  1  0.09007000  0.92309000  0.06754000  1.0
  C  C144  1  0.85864000  0.19167000  0.91565000  1.0
  C  C145  1  0.19170000  0.94968000  0.24927000  1.0
  C  C146  1  0.94951000  0.85859000  0.58235000  1.0
  C  C147  1  0.14136000  0.80833000  0.41565000  1.0
  C  C148  1  0.80831000  0.05032000  0.74927000  1.0
  C  C149  1  0.05049000  0.14140000  0.08235000  1.0
  C  C150  1  0.89815000  0.23325000  0.90994000  1.0
  C  C151  1  0.23335000  0.86861000  0.24345000  1.0
  C  C152  1  0.86843000  0.89815000  0.57659000  1.0
  C  C153  1  0.10185000  0.76675000  0.40995000  1.0
  C  C154  1  0.76665000  0.13139000  0.74344000  1.0
  C  C155  1  0.13157000  0.10185000  0.07658000  1.0
  C  C156  1  0.22284000  0.90047000  0.87828000  1.0
  C  C157  1  0.90059000  0.87667000  0.21142000  1.0
  C  C158  1  0.87663000  0.22267000  0.54480000  1.0
  C  C159  1  0.77716000  0.09953000  0.37828000  1.0
  C  C160  1  0.09941000  0.12333000  0.71142000  1.0
  C  C161  1  0.12337000  0.77733000  0.04480000  1.0
  C  C162  1  0.17824000  0.86376000  0.87815000  1.0
  C  C163  1  0.86384000  0.95800000  0.21146000  1.0
  C  C164  1  0.95794000  0.17811000  0.54465000  1.0
  C  C165  1  0.82176000  0.13624000  0.37815000  1.0
  C  C166  1  0.13616000  0.04200000  0.71146000  1.0
  C  C167  1  0.04206000  0.82189000  0.04465000  1.0
  C  C168  1  0.60972000  0.27029000  0.92418000  1.0
  C  C169  1  0.27032000  0.11996000  0.25772000  1.0
  C  C170  1  0.11976000  0.60960000  0.59082000  1.0
  C  C171  1  0.39029000  0.72970000  0.42418000  1.0
  C  C172  1  0.72967000  0.88005000  0.75772000  1.0
  C  C173  1  0.88024000  0.39040000  0.09082000  1.0
  C  C174  1  0.63686000  0.30871000  0.88204000  1.0
  C  C175  1  0.30858000  0.05448000  0.21548000  1.0
  C  C176  1  0.05418000  0.63683000  0.54869000  1.0
  C  C177  1  0.36314000  0.69129000  0.38204000  1.0
  C  C178  1  0.69142000  0.94552000  0.71548000  1.0
  C  C179  1  0.94581000  0.36318000  0.04869000  1.0
  C  C180  1  0.74456000  0.18423000  0.96166000  1.0
  C  C181  1  0.18426000  0.07123000  0.29528000  1.0
  C  C182  1  0.07108000  0.74444000  0.62827000  1.0
  C  C183  1  0.25544000  0.81577000  0.46166000  1.0
  C  C184  1  0.81574000  0.92877000  0.79527000  1.0
  C  C185  1  0.92892000  0.25556000  0.12827000  1.0
  C  C186  1  0.77255000  0.22187000  0.91905000  1.0
  C  C187  1  0.22181000  0.00563000  0.25264000  1.0
  C  C188  1  0.00538000  0.77250000  0.58572000  1.0
  C  C189  1  0.22745000  0.77813000  0.41905000  1.0
  C  C190  1  0.77819000  0.99437000  0.75264000  1.0
  C  C191  1  0.99462000  0.22750000  0.08573000  1.0
  C  C192  1  0.71742000  0.28452000  0.87920000  1.0
  C  C193  1  0.28434000  0.99816000  0.21267000  1.0
  C  C194  1  0.99784000  0.71741000  0.54585000  1.0
  C  C195  1  0.28258000  0.71548000  0.37920000  1.0
  C  C196  1  0.71565000  0.00185000  0.71267000  1.0
  C  C197  1  0.00215000  0.28260000  0.04585000  1.0
  C  C198  1  0.66416000  0.20817000  0.96414000  1.0
  C  C199  1  0.20824000  0.12766000  0.29773000  1.0
  C  C200  1  0.12752000  0.66402000  0.63075000  1.0
  C  C201  1  0.33584000  0.79183000  0.46415000  1.0
  C  C202  1  0.79176000  0.87234000  0.79773000  1.0
  C  C203  1  0.87248000  0.33598000  0.13075000  1.0
  C  C204  1  0.52450000  0.29179000  0.92628000  1.0
  C  C205  1  0.29191000  0.18360000  0.25977000  1.0
  C  C206  1  0.18342000  0.52436000  0.59281000  1.0
  C  C207  1  0.47550000  0.70821000  0.42627000  1.0
  C  C208  1  0.70808000  0.81641000  0.75977000  1.0
  C  C209  1  0.81658000  0.47564000  0.09281000  1.0
  C  C210  1  0.79733000  0.48633000  0.90195000  1.0
  C  C211  1  0.48650000  0.71646000  0.23513000  1.0
  C  C212  1  0.71614000  0.79740000  0.56835000  1.0
  C  C213  1  0.20267000  0.51367000  0.40195000  1.0
  C  C214  1  0.51351000  0.28353000  0.73513000  1.0
  C  C215  1  0.28386000  0.20260000  0.06835000  1.0
  C  C216  1  0.76539000  0.45264000  0.94456000  1.0
  C  C217  1  0.45286000  0.78204000  0.27780000  1.0
  C  C218  1  0.78169000  0.76547000  0.61103000  1.0
  C  C219  1  0.23461000  0.54736000  0.44457000  1.0
  C  C220  1  0.54715000  0.21796000  0.77780000  1.0
  C  C221  1  0.21831000  0.23453000  0.11103000  1.0
  C  C222  1  0.79817000  0.37065000  0.94759000  1.0
  C  C223  1  0.37087000  0.83124000  0.28092000  1.0
  C  C224  1  0.83093000  0.79819000  0.61413000  1.0
  C  C225  1  0.20183000  0.62935000  0.44760000  1.0
  C  C226  1  0.62913000  0.16876000  0.78092000  1.0
  C  C227  1  0.16907000  0.20181000  0.11412000  1.0
  C  C228  1  0.86308000  0.32001000  0.90745000  1.0
  C  C229  1  0.32016000  0.81703000  0.24081000  1.0
  C  C230  1  0.81677000  0.86302000  0.57395000  1.0
  C  C231  1  0.13693000  0.67998000  0.40746000  1.0
  C  C232  1  0.67984000  0.18297000  0.74081000  1.0
  C  C233  1  0.18323000  0.13698000  0.07394000  1.0
  C  C234  1  0.89493000  0.35427000  0.86508000  1.0
  C  C235  1  0.35440000  0.75104000  0.19830000  1.0
  C  C236  1  0.75082000  0.89479000  0.53138000  1.0
  C  C237  1  0.10506000  0.64574000  0.36509000  1.0
  C  C238  1  0.64560000  0.24896000  0.69830000  1.0
  C  C239  1  0.24917000  0.10522000  0.03137000  1.0
  C  C240  1  0.86229000  0.43639000  0.86210000  1.0
  C  C241  1  0.43651000  0.70158000  0.19522000  1.0
  C  C242  1  0.70130000  0.86220000  0.52837000  1.0
  C  C243  1  0.13771000  0.56361000  0.36211000  1.0
  C  C244  1  0.56349000  0.29842000  0.69522000  1.0
  C  C245  1  0.29870000  0.13780000  0.02836000  1.0
  C  C246  1  0.76392000  0.57352000  0.90040000  1.0
  C  C247  1  0.57368000  0.66252000  0.23355000  1.0
  C  C248  1  0.66235000  0.76399000  0.56685000  1.0
  C  C249  1  0.23608000  0.42647000  0.40040000  1.0
  C  C250  1  0.42632000  0.33748000  0.73355000  1.0
  C  C251  1  0.33765000  0.23601000  0.06685000  1.0
  C  C252  1  0.47548000  0.79663000  0.85432000  1.0
  C  C253  1  0.79655000  0.72798000  0.18756000  1.0
  C  C254  1  0.72804000  0.47538000  0.52098000  1.0
  C  C255  1  0.52452000  0.20337000  0.35432000  1.0
  C  C256  1  0.20345000  0.27202000  0.68757000  1.0
  C  C257  1  0.27197000  0.52461000  0.02098000  1.0
  C  C258  1  0.43335000  0.76883000  0.81728000  1.0
  C  C259  1  0.76877000  0.79790000  0.15048000  1.0
  C  C260  1  0.79795000  0.43323000  0.48393000  1.0
  C  C261  1  0.56665000  0.23118000  0.31729000  1.0
  C  C262  1  0.23123000  0.20210000  0.65049000  1.0
  C  C263  1  0.20206000  0.56677000  0.98393000  1.0
  C  C264  1  0.35157000  0.80226000  0.82397000  1.0
  C  C265  1  0.80234000  0.84616000  0.15701000  1.0
  C  C266  1  0.84617000  0.35141000  0.49050000  1.0
  C  C267  1  0.64843000  0.19774000  0.32398000  1.0
  C  C268  1  0.19766000  0.15384000  0.65701000  1.0
  C  C269  1  0.15384000  0.64858000  0.99050000  1.0
  C  C270  1  0.30908000  0.86436000  0.86892000  1.0
  C  C271  1  0.86448000  0.82654000  0.20191000  1.0
  C  C272  1  0.82651000  0.30894000  0.53541000  1.0
  C  C273  1  0.69092000  0.13565000  0.36892000  1.0
  C  C274  1  0.13552000  0.17346000  0.70191000  1.0
  C  C275  1  0.17349000  0.69106000  0.03541000  1.0
  C  C276  1  0.35147000  0.89273000  0.90546000  1.0
  C  C277  1  0.89284000  0.75578000  0.23846000  1.0
  C  C278  1  0.75581000  0.35136000  0.57201000  1.0
  C  C279  1  0.64852000  0.10728000  0.40546000  1.0
  C  C280  1  0.10716000  0.24421000  0.73846000  1.0
  C  C281  1  0.24419000  0.64864000  0.07201000  1.0
  C  C282  1  0.43329000  0.85939000  0.89839000  1.0
  C  C283  1  0.85941000  0.70737000  0.23155000  1.0
  C  C284  1  0.70740000  0.43321000  0.56502000  1.0
  C  C285  1  0.56671000  0.14061000  0.39839000  1.0
  C  C286  1  0.14059000  0.29263000  0.73155000  1.0
  C  C287  1  0.29260000  0.56679000  0.06502000  1.0
  C  C288  1  0.56282000  0.76119000  0.84534000  1.0
  C  C289  1  0.76103000  0.67615000  0.17872000  1.0
  C  C290  1  0.67618000  0.56274000  0.51199000  1.0
  C  C291  1  0.43718000  0.23882000  0.34535000  1.0
  C  C292  1  0.23897000  0.32385000  0.67872000  1.0
  C  C293  1  0.32382000  0.43726000  0.01200000  1.0
  C  C294  1  0.24712000  0.62065000  0.83793000  1.0
  C  C295  1  0.62065000  0.13231000  0.17108000  1.0
  C  C296  1  0.13218000  0.24703000  0.50449000  1.0
  C  C297  1  0.75287000  0.37936000  0.33793000  1.0
  C  C298  1  0.37935000  0.86770000  0.67108000  1.0
  C  C299  1  0.86781000  0.75298000  0.00449000  1.0
  C  C300  1  0.17887000  0.68343000  0.80935000  1.0
  C  C301  1  0.68346000  0.13779000  0.14258000  1.0
  C  C302  1  0.13763000  0.17881000  0.47585000  1.0
  C  C303  1  0.82112000  0.31658000  0.30935000  1.0
  C  C304  1  0.31654000  0.86222000  0.64258000  1.0
  C  C305  1  0.86237000  0.82118000  0.97585000  1.0
  C  C306  1  0.15689000  0.76198000  0.82326000  1.0
  C  C307  1  0.76200000  0.08118000  0.15655000  1.0
  C  C308  1  0.08100000  0.15689000  0.48968000  1.0
  C  C309  1  0.84311000  0.23802000  0.32327000  1.0
  C  C310  1  0.23800000  0.91882000  0.65654000  1.0
  C  C311  1  0.91899000  0.84312000  0.98968000  1.0
  C  C312  1  0.20339000  0.77970000  0.86541000  1.0
  C  C313  1  0.77975000  0.01693000  0.19869000  1.0
  C  C314  1  0.01680000  0.20332000  0.53185000  1.0
  C  C315  1  0.79661000  0.22030000  0.36541000  1.0
  C  C316  1  0.22025000  0.98307000  0.69869000  1.0
  C  C317  1  0.98320000  0.79668000  0.03185000  1.0
  C  C318  1  0.27103000  0.71645000  0.89492000  1.0
  C  C319  1  0.71644000  0.01253000  0.22809000  1.0
  C  C320  1  0.01242000  0.27094000  0.56143000  1.0
  C  C321  1  0.72897000  0.28355000  0.39492000  1.0
  C  C322  1  0.28356000  0.98747000  0.72808000  1.0
  C  C323  1  0.98757000  0.72907000  0.06143000  1.0
  C  C324  1  0.29261000  0.63794000  0.88123000  1.0
  C  C325  1  0.63794000  0.06945000  0.21429000  1.0
  C  C326  1  0.06935000  0.29251000  0.54775000  1.0
  C  C327  1  0.70738000  0.36207000  0.38123000  1.0
  C  C328  1  0.36206000  0.93056000  0.71429000  1.0
  C  C329  1  0.93065000  0.70748000  0.04776000  1.0
  C  C330  1  0.27053000  0.53618000  0.82246000  1.0
  C  C331  1  0.53617000  0.19346000  0.15571000  1.0
  C  C332  1  0.19335000  0.27035000  0.48920000  1.0
  C  C333  1  0.72946000  0.46383000  0.32246000  1.0
  C  C334  1  0.46383000  0.80654000  0.65571000  1.0
  C  C335  1  0.80665000  0.72965000  0.98920000  1.0
  S  S336  1  0.91717000  0.08797000  0.92017000  1.0
  S  S337  1  0.08801000  0.99478000  0.25379000  1.0
  S  S338  1  0.99473000  0.91707000  0.58708000  1.0
  S  S339  1  0.08283000  0.91204000  0.42017000  1.0
  S  S340  1  0.91199000  0.00521000  0.75379000  1.0
  S  S341  1  0.00527000  0.08293000  0.08708000  1.0
  S  S342  1  0.00279000  0.17655000  0.90888000  1.0
  S  S343  1  0.17674000  0.82057000  0.24225000  1.0
  S  S344  1  0.82053000  0.00280000  0.57562000  1.0
  S  S345  1  0.99722000  0.82344000  0.40888000  1.0
  S  S346  1  0.82327000  0.17942000  0.74225000  1.0
  S  S347  1  0.17947000  0.99720000  0.07562000  1.0
  S  S348  1  0.17129000  0.00342000  0.89446000  1.0
  S  S349  1  0.00348000  0.82523000  0.22786000  1.0
  S  S350  1  0.82526000  0.17119000  0.56129000  1.0
  S  S351  1  0.82871000  0.99658000  0.39446000  1.0
  S  S352  1  0.99652000  0.17477000  0.72786000  1.0
  S  S353  1  0.17474000  0.82881000  0.06129000  1.0
  S  S354  1  0.07740000  0.92261000  0.89773000  1.0
  S  S355  1  0.92270000  0.99992000  0.23128000  1.0
  S  S356  1  0.99997000  0.07730000  0.56445000  1.0
  S  S357  1  0.92260000  0.07739000  0.39773000  1.0
  S  S358  1  0.07730000  0.00008000  0.73128000  1.0
  S  S359  1  0.00003000  0.92270000  0.06445000  1.0
  O  O360  1  0.47447000  0.34916000  0.89099000  1.0
  O  O361  1  0.34935000  0.17611000  0.22449000  1.0
  O  O362  1  0.17604000  0.47444000  0.55739000  1.0
  O  O363  1  0.52553000  0.65084000  0.39098000  1.0
  O  O364  1  0.65065000  0.82389000  0.72449000  1.0
  O  O365  1  0.82396000  0.52556000  0.05740000  1.0
  O  O366  1  0.50698000  0.24912000  0.96276000  1.0
  O  O367  1  0.24928000  0.24387000  0.29618000  1.0
  O  O368  1  0.24364000  0.50670000  0.62928000  1.0
  O  O369  1  0.49302000  0.75088000  0.46276000  1.0
  O  O370  1  0.75072000  0.75613000  0.79618000  1.0
  O  O371  1  0.75635000  0.49331000  0.12928000  1.0
  O  O372  1  0.78547000  0.60461000  0.85456000  1.0
  O  O373  1  0.60466000  0.60987000  0.18771000  1.0
  O  O374  1  0.60972000  0.78546000  0.52102000  1.0
  O  O375  1  0.21453000  0.39539000  0.35456000  1.0
  O  O376  1  0.39534000  0.39013000  0.68771000  1.0
  O  O377  1  0.39028000  0.21454000  0.02102000  1.0
  O  O378  1  0.71371000  0.61876000  0.94307000  1.0
  O  O379  1  0.61897000  0.66738000  0.27623000  1.0
  O  O380  1  0.66739000  0.71381000  0.60959000  1.0
  O  O381  1  0.28629000  0.38123000  0.44307000  1.0
  O  O382  1  0.38103000  0.33263000  0.77623000  1.0
  O  O383  1  0.33261000  0.28618000  0.10959000  1.0
  O  O384  1  0.59973000  0.78436000  0.88481000  1.0
  O  O385  1  0.78428000  0.61604000  0.21816000  1.0
  O  O386  1  0.61595000  0.59963000  0.55132000  1.0
  O  O387  1  0.40027000  0.21564000  0.38481000  1.0
  O  O388  1  0.21572000  0.38396000  0.71816000  1.0
  O  O389  1  0.38405000  0.40037000  0.05132000  1.0
  O  O390  1  0.59874000  0.71001000  0.80094000  1.0
  O  O391  1  0.70972000  0.69145000  0.13440000  1.0
  O  O392  1  0.69155000  0.59869000  0.46768000  1.0
  O  O393  1  0.40126000  0.28999000  0.30094000  1.0
  O  O394  1  0.29028000  0.30854000  0.63440000  1.0
  O  O395  1  0.30845000  0.40132000  0.96768000  1.0
  O  O396  1  0.32516000  0.48176000  0.85653000  1.0
  O  O397  1  0.48176000  0.19298000  0.18960000  1.0
  O  O398  1  0.19304000  0.32501000  0.52331000  1.0
  O  O399  1  0.67483000  0.51825000  0.35653000  1.0
  O  O400  1  0.51824000  0.80701000  0.68960000  1.0
  O  O401  1  0.80696000  0.67498000  0.02331000  1.0
  O  O402  1  0.23263000  0.52589000  0.77545000  1.0
  O  O403  1  0.52584000  0.24199000  0.10896000  1.0
  O  O404  1  0.24174000  0.23237000  0.44232000  1.0
  O  O405  1  0.76736000  0.47412000  0.27545000  1.0
  O  O406  1  0.47417000  0.75800000  0.60896000  1.0
  O  O407  1  0.75826000  0.76763000  0.94233000  1.0
  O  O408  1  0.60361000  0.76865000  0.01681000  1.0
  O  O409  1  0.76859000  0.62783000  0.35023000  1.0
  O  O410  1  0.62781000  0.60359000  0.68337000  1.0
  O  O411  1  0.39640000  0.23134000  0.51681000  1.0
  O  O412  1  0.23141000  0.37217000  0.85023000  1.0
  O  O413  1  0.37219000  0.39642000  0.18337000  1.0
  O  O414  1  0.62336000  0.62926000  0.05625000  1.0
  O  O415  1  0.62916000  0.74743000  0.38965000  1.0
  O  O416  1  0.74724000  0.62345000  0.72327000  1.0
  O  O417  1  0.37664000  0.37074000  0.55625000  1.0
  O  O418  1  0.37084000  0.25257000  0.88965000  1.0
  O  O419  1  0.25276000  0.37655000  0.22327000  1.0
