# generated using pymatgen
data_FeH10C8S2(N2O3)2
_symmetry_space_group_name_H-M   'P 1'
_cell_length_a   6.85677000
_cell_length_b   6.98480000
_cell_length_c   7.30815000
_cell_angle_alpha   90.04830000
_cell_angle_beta   103.44700000
_cell_angle_gamma   114.69300000
_symmetry_Int_Tables_number   1
_chemical_formula_structural   FeH10C8S2(N2O3)2
_chemical_formula_sum   'Fe1 H10 C8 S2 N4 O6'
_cell_volume   307.37968919
_cell_formula_units_Z   1
loop_
 _symmetry_equiv_pos_site_id
 _symmetry_equiv_pos_as_xyz
  1  'x, y, z'
loop_
 _atom_site_type_symbol
 _atom_site_label
 _atom_site_symmetry_multiplicity
 _atom_site_fract_x
 _atom_site_fract_y
 _atom_site_fract_z
 _atom_site_occupancy
  Fe  Fe0  1  0.00000000  0.99999000  0.99999000  1.0
  H  H1  1  0.91268000  0.03335000  0.59088000  1.0
  H  H2  1  0.08732000  0.96665000  0.40913000  1.0
  H  H3  1  0.55981000  0.38315000  0.59855000  1.0
  H  H4  1  0.44020000  0.61686000  0.40144000  1.0
  H  H5  1  0.83539000  0.39533000  0.13524000  1.0
  H  H6  1  0.16462000  0.60467000  0.86476000  1.0
  H  H7  1  0.69506000  0.65601000  0.12297000  1.0
  H  H8  1  0.30493000  0.34398000  0.87705000  1.0
  H  H9  1  0.63725000  0.63078000  0.89497000  1.0
  H  H10  1  0.36275000  0.36922000  0.10503000  1.0
  C  C11  1  0.68191000  0.40392000  0.35937000  1.0
  C  C12  1  0.31810000  0.59610000  0.64063000  1.0
  C  C13  1  0.88928000  0.19874000  0.35043000  1.0
  C  C14  1  0.11071000  0.80126000  0.64955000  1.0
  C  C15  1  0.80951000  0.34220000  0.27071000  1.0
  C  C16  1  0.19049000  0.65779000  0.72930000  1.0
  C  C17  1  0.73688000  0.20161000  0.61905000  1.0
  C  C18  1  0.26312000  0.79838000  0.38094000  1.0
  S  S19  1  0.70139000  0.12385000  0.83195000  1.0
  S  S20  1  0.29860000  0.87614000  0.16806000  1.0
  N  N21  1  0.85020000  0.13710000  0.52409000  1.0
  N  N22  1  0.14981000  0.86290000  0.47591000  1.0
  N  N23  1  0.65072000  0.33123000  0.53153000  1.0
  N  N24  1  0.34928000  0.66877000  0.46847000  1.0
  O  O25  1  0.58800000  0.52460000  0.29162000  1.0
  O  O26  1  0.41200000  0.47543000  0.70837000  1.0
  O  O27  1  0.99754000  0.11882000  0.28037000  1.0
  O  O28  1  0.00248000  0.88118000  0.71963000  1.0
  O  O29  1  0.75490000  0.71022000  0.01091000  1.0
  O  O30  1  0.24509000  0.28977000  0.98909000  1.0
