# generated using pymatgen
data_ZnH8C15(N2Cl)2
_symmetry_space_group_name_H-M   'P 1'
_cell_length_a   17.58360000
_cell_length_b   19.40200000
_cell_length_c   20.61600000
_cell_angle_alpha   101.18700000
_cell_angle_beta   89.98300000
_cell_angle_gamma   89.99730000
_symmetry_Int_Tables_number   1
_chemical_formula_structural   ZnH8C15(N2Cl)2
_chemical_formula_sum   'Zn8 H64 C120 N32 Cl16'
_cell_volume   6899.65432980
_cell_formula_units_Z   8
loop_
 _symmetry_equiv_pos_site_id
 _symmetry_equiv_pos_as_xyz
  1  'x, y, z'
loop_
 _atom_site_type_symbol
 _atom_site_label
 _atom_site_symmetry_multiplicity
 _atom_site_fract_x
 _atom_site_fract_y
 _atom_site_fract_z
 _atom_site_occupancy
  Zn  Zn0  1  0.03025000  0.05199000  0.43937000  1.0
  Zn  Zn1  1  0.96971000  0.94805000  0.56061000  1.0
  Zn  Zn2  1  0.46969000  0.55209000  0.93962000  1.0
  Zn  Zn3  1  0.53036000  0.44787000  0.06034000  1.0
  Zn  Zn4  1  0.86554000  0.05992000  0.54266000  1.0
  Zn  Zn5  1  0.13446000  0.94011000  0.45735000  1.0
  Zn  Zn6  1  0.36595000  0.43951000  0.95684000  1.0
  Zn  Zn7  1  0.63410000  0.56044000  0.04313000  1.0
  H  H8  1  0.98221000  0.91244000  0.32678000  1.0
  H  H9  1  0.05304000  0.65947000  0.76900000  1.0
  H  H10  1  0.79559000  0.87919000  0.90640000  1.0
  H  H11  1  0.20452000  0.12069000  0.09355000  1.0
  H  H12  1  0.29725000  0.62195000  0.59373000  1.0
  H  H13  1  0.70269000  0.37816000  0.40637000  1.0
  H  H14  1  0.44725000  0.16125000  0.27022000  1.0
  H  H15  1  0.55278000  0.83873000  0.72980000  1.0
  H  H16  1  0.98519000  0.79936000  0.58992000  1.0
  H  H17  1  0.01476000  0.20073000  0.41011000  1.0
  H  H18  1  0.11235000  0.11432000  0.31831000  1.0
  H  H19  1  0.01765000  0.08769000  0.67316000  1.0
  H  H20  1  0.88761000  0.88563000  0.68163000  1.0
  H  H21  1  0.61206000  0.38583000  0.18170000  1.0
  H  H22  1  0.38795000  0.61420000  0.81835000  1.0
  H  H23  1  0.48437000  0.70087000  0.91062000  1.0
  H  H24  1  0.51568000  0.29909000  0.08938000  1.0
  H  H25  1  0.70407000  0.00950000  0.62319000  1.0
  H  H26  1  0.29589000  0.99052000  0.37682000  1.0
  H  H27  1  0.78058000  0.17695000  0.46673000  1.0
  H  H28  1  0.21939000  0.82311000  0.53342000  1.0
  H  H29  1  0.28138000  0.32204000  0.03275000  1.0
  H  H30  1  0.85977000  0.11759000  0.78373000  1.0
  H  H31  1  0.71870000  0.67789000  0.96716000  1.0
  H  H32  1  0.20473000  0.48927000  0.87577000  1.0
  H  H33  1  0.79529000  0.51071000  0.12423000  1.0
  H  H34  1  0.21084000  0.79796000  0.38641000  1.0
  H  H35  1  0.78915000  0.20202000  0.61370000  1.0
  H  H36  1  0.18396000  0.10069000  0.52020000  1.0
  H  H37  1  0.81595000  0.89941000  0.47977000  1.0
  H  H38  1  0.68461000  0.39998000  0.97986000  1.0
  H  H39  1  0.31541000  0.59994000  0.02012000  1.0
  H  H40  1  0.71038000  0.70221000  0.11410000  1.0
  H  H41  1  0.14025000  0.88218000  0.21625000  1.0
  H  H42  1  0.28954000  0.29783000  0.88580000  1.0
  H  H43  1  0.69378000  0.16475000  0.83339000  1.0
  H  H44  1  0.30565000  0.83496000  0.16636000  1.0
  H  H45  1  0.78330000  0.89228000  0.26494000  1.0
  H  H46  1  0.21692000  0.10774000  0.73475000  1.0
  H  H47  1  0.28088000  0.60687000  0.23403000  1.0
  H  H48  1  0.71969000  0.39305000  0.76632000  1.0
  H  H49  1  0.19621000  0.33514000  0.66513000  1.0
  H  H50  1  0.80336000  0.66513000  0.33509000  1.0
  H  H51  1  0.33598000  0.73275000  0.31532000  1.0
  H  H52  1  0.36045000  0.38212000  0.71574000  1.0
  H  H53  1  0.66445000  0.26745000  0.68464000  1.0
  H  H54  1  0.25049000  0.20899000  0.58512000  1.0
  H  H55  1  0.74911000  0.79149000  0.41478000  1.0
  H  H56  1  0.74931000  0.28947000  0.91486000  1.0
  H  H57  1  0.25022000  0.70998000  0.08529000  1.0
  H  H58  1  0.83719000  0.76507000  0.18503000  1.0
  H  H59  1  0.16300000  0.23475000  0.81498000  1.0
  H  H60  1  0.76863000  0.29680000  0.46464000  1.0
  H  H61  1  0.23129000  0.70332000  0.53549000  1.0
  H  H62  1  0.62973000  0.90116000  0.66001000  1.0
  H  H63  1  0.63959000  0.61799000  0.28423000  1.0
  H  H64  1  0.37026000  0.09886000  0.34000000  1.0
  H  H65  1  0.12990000  0.59681000  0.83863000  1.0
  H  H66  1  0.87010000  0.40318000  0.16145000  1.0
  H  H67  1  0.27028000  0.20200000  0.03503000  1.0
  H  H68  1  0.72982000  0.79788000  0.96489000  1.0
  H  H69  1  0.48173000  0.58710000  0.17302000  1.0
  H  H70  1  0.51833000  0.41280000  0.82693000  1.0
  H  H71  1  0.94693000  0.34056000  0.23114000  1.0
  C  C72  1  0.94539000  0.91928000  0.37008000  1.0
  C  C73  1  0.63421000  0.25836000  0.79434000  1.0
  C  C74  1  0.76904000  0.78571000  0.36372000  1.0
  C  C75  1  0.73011000  0.28472000  0.86370000  1.0
  C  C76  1  0.26965000  0.71492000  0.13639000  1.0
  C  C77  1  0.81668000  0.77139000  0.23592000  1.0
  C  C78  1  0.18339000  0.22857000  0.76406000  1.0
  C  C79  1  0.70033000  0.21561000  0.81863000  1.0
  C  C80  1  0.29938000  0.78417000  0.18125000  1.0
  C  C81  1  0.78745000  0.84132000  0.27978000  1.0
  C  C82  1  0.21261000  0.15876000  0.72001000  1.0
  C  C83  1  0.28611000  0.65804000  0.21970000  1.0
  C  C84  1  0.27944000  0.19964000  0.69512000  1.0
  C  C85  1  0.71420000  0.34185000  0.78050000  1.0
  C  C86  1  0.20155000  0.28447000  0.68046000  1.0
  C  C87  1  0.79813000  0.71574000  0.31964000  1.0
  C  C88  1  0.75085000  0.22926000  0.75897000  1.0
  C  C89  1  0.24914000  0.77056000  0.24110000  1.0
  C  C90  1  0.83655000  0.82783000  0.34028000  1.0
  C  C91  1  0.16329000  0.17233000  0.65966000  1.0
  C  C92  1  0.33619000  0.67162000  0.15973000  1.0
  C  C93  1  0.66381000  0.32824000  0.84028000  1.0
  C  C94  1  0.25102000  0.27086000  0.74069000  1.0
  C  C95  1  0.72048000  0.80059000  0.30464000  1.0
  C  C96  1  0.74889000  0.72927000  0.25926000  1.0
  C  C97  1  0.77993000  0.29970000  0.80538000  1.0
  C  C98  1  0.22012000  0.69996000  0.19490000  1.0
  C  C99  1  0.86551000  0.75702000  0.29536000  1.0
  C  C100  1  0.13434000  0.24303000  0.70477000  1.0
  C  C101  1  0.86181000  0.27360000  0.39530000  1.0
  C  C102  1  0.13814000  0.72652000  0.60486000  1.0
  C  C103  1  0.72771000  0.91571000  0.72439000  1.0
  C  C104  1  0.05448000  0.08085000  0.62988000  1.0
  C  C105  1  0.27230000  0.08430000  0.27560000  1.0
  C  C106  1  0.22844000  0.58352000  0.77489000  1.0
  C  C107  1  0.77154000  0.41651000  0.22517000  1.0
  C  C108  1  0.36291000  0.22613000  0.10474000  1.0
  C  C109  1  0.63715000  0.77381000  0.89523000  1.0
  C  C110  1  0.24371000  0.64577000  0.61292000  1.0
  C  C111  1  0.75623000  0.35435000  0.38720000  1.0
  C  C112  1  0.39060000  0.14271000  0.25426000  1.0
  C  C113  1  0.60943000  0.85728000  0.74574000  1.0
  C  C114  1  0.89003000  0.35861000  0.24683000  1.0
  C  C115  1  0.85092000  0.12994000  0.73505000  1.0
  C  C116  1  0.10994000  0.64145000  0.75329000  1.0
  C  C117  1  0.74235000  0.85492000  0.88708000  1.0
  C  C118  1  0.25774000  0.14501000  0.11288000  1.0
  C  C119  1  0.20694000  0.69178000  0.58084000  1.0
  C  C120  1  0.79299000  0.30834000  0.41930000  1.0
  C  C121  1  0.34770000  0.10724000  0.29288000  1.0
  C  C122  1  0.65230000  0.89276000  0.70713000  1.0
  C  C123  1  0.84725000  0.39421000  0.20829000  1.0
  C  C124  1  0.15274000  0.60582000  0.79181000  1.0
  C  C125  1  0.70565000  0.80900000  0.91933000  1.0
  C  C126  1  0.14909000  0.86989000  0.26497000  1.0
  C  C127  1  0.29444000  0.19090000  0.08061000  1.0
  C  C128  1  0.10498000  0.70626000  0.65978000  1.0
  C  C129  1  0.89498000  0.29387000  0.34039000  1.0
  C  C130  1  0.24585000  0.09229000  0.21371000  1.0
  C  C131  1  0.75420000  0.90767000  0.78626000  1.0
  C  C132  1  0.74466000  0.40785000  0.28676000  1.0
  C  C133  1  0.25531000  0.59223000  0.71332000  1.0
  C  C134  1  0.60418000  0.79341000  0.83992000  1.0
  C  C135  1  0.39588000  0.20656000  0.16006000  1.0
  C  C136  1  0.14094000  0.65874000  0.69494000  1.0
  C  C137  1  0.35158000  0.36976000  0.76444000  1.0
  C  C138  1  0.85902000  0.34138000  0.30520000  1.0
  C  C139  1  0.28711000  0.13058000  0.17292000  1.0
  C  C140  1  0.71296000  0.86936000  0.82706000  1.0
  C  C141  1  0.78589000  0.36948000  0.32750000  1.0
  C  C142  1  0.21407000  0.63061000  0.67260000  1.0
  C  C143  1  0.64014000  0.84070000  0.80450000  1.0
  C  C144  1  0.35993000  0.15927000  0.19550000  1.0
  C  C145  1  0.03951000  0.81463000  0.57235000  1.0
  C  C146  1  0.96044000  0.18544000  0.42770000  1.0
  C  C147  1  0.14972000  0.08159000  0.34131000  1.0
  C  C148  1  0.64841000  0.63034000  0.23552000  1.0
  C  C149  1  0.85024000  0.91839000  0.65864000  1.0
  C  C150  1  0.64940000  0.41881000  0.15894000  1.0
  C  C151  1  0.35061000  0.58120000  0.84109000  1.0
  C  C152  1  0.53876000  0.68578000  0.92822000  1.0
  C  C153  1  0.46130000  0.31418000  0.07177000  1.0
  C  C154  1  0.75618000  0.98087000  0.62808000  1.0
  C  C155  1  0.24379000  0.01914000  0.37190000  1.0
  C  C156  1  0.84140000  0.17326000  0.45746000  1.0
  C  C157  1  0.15858000  0.82682000  0.54266000  1.0
  C  C158  1  0.34219000  0.32593000  0.04200000  1.0
  C  C159  1  0.44490000  0.58015000  0.12976000  1.0
  C  C160  1  0.65789000  0.67398000  0.95792000  1.0
  C  C161  1  0.25667000  0.51823000  0.87114000  1.0
  C  C162  1  0.74334000  0.48176000  0.12887000  1.0
  C  C163  1  0.18578000  0.82655000  0.35126000  1.0
  C  C164  1  0.81421000  0.17338000  0.64881000  1.0
  C  C165  1  0.13793000  0.08824000  0.55100000  1.0
  C  C166  1  0.86196000  0.91188000  0.44896000  1.0
  C  C167  1  0.63860000  0.41241000  0.94906000  1.0
  C  C168  1  0.36142000  0.58751000  0.05092000  1.0
  C  C169  1  0.68521000  0.67367000  0.14924000  1.0
  C  C170  1  0.55515000  0.41975000  0.87020000  1.0
  C  C171  1  0.31476000  0.32639000  0.85070000  1.0
  C  C172  1  0.88014000  0.88222000  0.38387000  1.0
  C  C173  1  0.11970000  0.11794000  0.61608000  1.0
  C  C174  1  0.80005000  0.17918000  0.71639000  1.0
  C  C175  1  0.19995000  0.82068000  0.28368000  1.0
  C  C176  1  0.30054000  0.32069000  0.78315000  1.0
  C  C177  1  0.69942000  0.67941000  0.21679000  1.0
  C  C178  1  0.37957000  0.61712000  0.11603000  1.0
  C  C179  1  0.62042000  0.38274000  0.88397000  1.0
  C  C180  1  0.11169000  0.78410000  0.57417000  1.0
  C  C181  1  0.36573000  0.74166000  0.20547000  1.0
  C  C182  1  0.88827000  0.21600000  0.42596000  1.0
  C  C183  1  0.22466000  0.06014000  0.32492000  1.0
  C  C184  1  0.77533000  0.93987000  0.67507000  1.0
  C  C185  1  0.72413000  0.44059000  0.17570000  1.0
  C  C186  1  0.27588000  0.55941000  0.82433000  1.0
  C  C187  1  0.61084000  0.71642000  0.92624000  1.0
  C  C188  1  0.38923000  0.28351000  0.07371000  1.0
  C  C189  1  0.31594000  0.72723000  0.26435000  1.0
  C  C190  1  0.68429000  0.27281000  0.73565000  1.0
  C  C191  1  0.23067000  0.21460000  0.63619000  1.0
  N  N192  1  0.96425000  0.96721000  0.42376000  1.0
  N  N193  1  0.95618000  0.12918000  0.45687000  1.0
  N  N194  1  0.12701000  0.05592000  0.39398000  1.0
  N  N195  1  0.87294000  0.94407000  0.60598000  1.0
  N  N196  1  0.62689000  0.44440000  0.10617000  1.0
  N  N197  1  0.37314000  0.55556000  0.89382000  1.0
  N  N198  1  0.54323000  0.62966000  0.95758000  1.0
  N  N199  1  0.45683000  0.37028000  0.04238000  1.0
  N  N200  1  0.81502000  0.98311000  0.58673000  1.0
  N  N201  1  0.18493000  0.01690000  0.41324000  1.0
  N  N202  1  0.88209000  0.12099000  0.47477000  1.0
  N  N203  1  0.03568000  0.03286000  0.57622000  1.0
  N  N204  1  0.11788000  0.87904000  0.52526000  1.0
  N  N205  1  0.38270000  0.37819000  0.02448000  1.0
  N  N206  1  0.61736000  0.62174000  0.97547000  1.0
  N  N207  1  0.31529000  0.51621000  0.91274000  1.0
  N  N208  1  0.68474000  0.48375000  0.08725000  1.0
  N  N209  1  0.13072000  0.87578000  0.37005000  1.0
  N  N210  1  0.86931000  0.12419000  0.62998000  1.0
  N  N211  1  0.08739000  0.03632000  0.52633000  1.0
  N  N212  1  0.91256000  0.96373000  0.47365000  1.0
  N  N213  1  0.58795000  0.46424000  0.97377000  1.0
  N  N214  1  0.89140000  0.09670000  0.68333000  1.0
  N  N215  1  0.41210000  0.53570000  0.02619000  1.0
  N  N216  1  0.62993000  0.62465000  0.13048000  1.0
  N  N217  1  0.37010000  0.37532000  0.86947000  1.0
  N  N218  1  0.10863000  0.90322000  0.31668000  1.0
  N  N219  1  0.39226000  0.40280000  0.81613000  1.0
  N  N220  1  0.60780000  0.59720000  0.18385000  1.0
  N  N221  1  0.46380000  0.53225000  0.07606000  1.0
  N  N222  1  0.53626000  0.46767000  0.92389000  1.0
  N  N223  1  0.04379000  0.87087000  0.54315000  1.0
  Cl  Cl224  1  0.46104000  0.76721000  0.21165000  1.0
  Cl  Cl225  1  0.01962000  0.74340000  0.69200000  1.0
  Cl  Cl226  1  0.84182000  0.94271000  0.81457000  1.0
  Cl  Cl227  1  0.15827000  0.05721000  0.18536000  1.0
  Cl  Cl228  1  0.34331000  0.55789000  0.68524000  1.0
  Cl  Cl229  1  0.65662000  0.44215000  0.31479000  1.0
  Cl  Cl230  1  0.48087000  0.24439000  0.19241000  1.0
  Cl  Cl231  1  0.51918000  0.75560000  0.80758000  1.0
  Cl  Cl232  1  0.53885000  0.23299000  0.78787000  1.0
  Cl  Cl233  1  0.37408000  0.17219000  0.68883000  1.0
  Cl  Cl234  1  0.62587000  0.82810000  0.31069000  1.0
  Cl  Cl235  1  0.87496000  0.32585000  0.81257000  1.0
  Cl  Cl236  1  0.12517000  0.67353000  0.18801000  1.0
  Cl  Cl237  1  0.96044000  0.73023000  0.29012000  1.0
  Cl  Cl238  1  0.03937000  0.26968000  0.71021000  1.0
  Cl  Cl239  1  0.98033000  0.25670000  0.30815000  1.0
