# generated using pymatgen
data_AlH10(C3O)5
_symmetry_space_group_name_H-M   'P 1'
_cell_length_a   6.61224000
_cell_length_b   11.00806281
_cell_length_c   17.69820000
_cell_angle_alpha   91.58591085
_cell_angle_beta   99.10930000
_cell_angle_gamma   106.00991360
_symmetry_Int_Tables_number   1
_chemical_formula_structural   AlH10(C3O)5
_chemical_formula_sum   'Al2 H20 C30 O10'
_cell_volume   1219.17542560
_cell_formula_units_Z   2
loop_
 _symmetry_equiv_pos_site_id
 _symmetry_equiv_pos_as_xyz
  1  'x, y, z'
loop_
 _atom_site_type_symbol
 _atom_site_label
 _atom_site_symmetry_multiplicity
 _atom_site_fract_x
 _atom_site_fract_y
 _atom_site_fract_z
 _atom_site_occupancy
  Al  Al0  1  0.01700000  0.50106000  0.49988000  1.0
  Al  Al1  1  0.51657000  0.50020000  0.49890000  1.0
  H  H2  1  0.36100000  0.65385000  0.54390000  1.0
  H  H3  1  0.67680000  0.34509000  0.46269000  1.0
  H  H4  1  0.82461000  0.43902000  0.27191000  1.0
  H  H5  1  0.73778000  0.43487000  0.12875000  1.0
  H  H6  1  0.41188000  0.54681000  0.11900000  1.0
  H  H7  1  0.49468000  0.54672000  0.26198000  1.0
  H  H8  1  0.59890000  0.43960000  0.87511000  1.0
  H  H9  1  0.52818000  0.44808000  0.73232000  1.0
  H  H10  1  0.20201000  0.54955000  0.72923000  1.0
  H  H11  1  0.27644000  0.54523000  0.87216000  1.0
  H  H12  1  0.52487000  0.76801000  0.40166000  1.0
  H  H13  1  0.79587000  0.23468000  0.39895000  1.0
  H  H14  1  0.37514000  0.11471000  0.54449000  1.0
  H  H15  1  0.25057000  0.87836000  0.53766000  1.0
  H  H16  1  0.11099000  0.90032000  0.34286000  1.0
  H  H17  1  0.19928000  0.76487000  0.32698000  1.0
  H  H18  1  0.22054000  0.88337000  0.25977000  1.0
  H  H19  1  0.35716000  0.11455000  0.25836000  1.0
  H  H20  1  0.47932000  0.24717000  0.32638000  1.0
  H  H21  1  0.24453000  0.13127000  0.34073000  1.0
  C  C22  1  0.87122000  0.72643000  0.48651000  1.0
  C  C23  1  0.81957000  0.50474000  0.63778000  1.0
  C  C24  1  0.15245000  0.27303000  0.49839000  1.0
  C  C25  1  0.21111000  0.49289000  0.36009000  1.0
  C  C26  1  0.16399000  0.49264000  0.27497000  1.0
  C  C27  1  0.95084000  0.46178000  0.23737000  1.0
  C  C28  1  0.90327000  0.45998000  0.15807000  1.0
  C  C29  1  0.06946000  0.49058000  0.11437000  1.0
  C  C30  1  0.28383000  0.52239000  0.15270000  1.0
  C  C31  1  0.32998000  0.52270000  0.23201000  1.0
  C  C32  1  0.02300000  0.48981000  0.03355000  1.0
  C  C33  1  0.98453000  0.49010000  0.96375000  1.0
  C  C34  1  0.94249000  0.49223000  0.88301000  1.0
  C  C35  1  0.73046000  0.46438000  0.84295000  1.0
  C  C36  1  0.69095000  0.46875000  0.76379000  1.0
  C  C37  1  0.86110000  0.49963000  0.72275000  1.0
  C  C38  1  0.07198000  0.52606000  0.76206000  1.0
  C  C39  1  0.11291000  0.52315000  0.84124000  1.0
  C  C40  1  0.93437000  0.86622000  0.48059000  1.0
  C  C41  1  0.79152000  0.93250000  0.44413000  1.0
  C  C42  1  0.14276000  0.93151000  0.51311000  1.0
  C  C43  1  0.58354000  0.87086000  0.40306000  1.0
  C  C44  1  0.45381000  0.93651000  0.36407000  1.0
  C  C45  1  0.07651000  0.13223000  0.48575000  1.0
  C  C46  1  0.21358000  0.06413000  0.51640000  1.0
  C  C47  1  0.86683000  0.06831000  0.44536000  1.0
  C  C48  1  0.73356000  0.13299000  0.40288000  1.0
  C  C49  1  0.53164000  0.07133000  0.36342000  1.0
  C  C50  1  0.23531000  0.86719000  0.32127000  1.0
  C  C51  1  0.39716000  0.14521000  0.31998000  1.0
  O  O52  1  0.01233000  0.66985000  0.47966000  1.0
  O  O53  1  0.62660000  0.48788000  0.60518000  1.0
  O  O54  1  0.34539000  0.32696000  0.49196000  1.0
  O  O55  1  0.05143000  0.47183000  0.39493000  1.0
  O  O56  1  0.02119000  0.33026000  0.51579000  1.0
  O  O57  1  0.40553000  0.51282000  0.39186000  1.0
  O  O58  1  0.68556000  0.67298000  0.50070000  1.0
  O  O59  1  0.98158000  0.52683000  0.60406000  1.0
  O  O60  1  0.30984000  0.56309000  0.53144000  1.0
  O  O61  1  0.72417000  0.43716000  0.46702000  1.0
