# generated using pymatgen
data_AgH6C4S(NO)3
_symmetry_space_group_name_H-M   'P 1'
_cell_length_a   8.79452000
_cell_length_b   11.12700000
_cell_length_c   14.05440000
_cell_angle_alpha   82.74530000
_cell_angle_beta   89.34490000
_cell_angle_gamma   79.00100000
_symmetry_Int_Tables_number   1
_chemical_formula_structural   AgH6C4S(NO)3
_chemical_formula_sum   'Ag6 H36 C24 S6 N18 O18'
_cell_volume   1339.13138370
_cell_formula_units_Z   6
loop_
 _symmetry_equiv_pos_site_id
 _symmetry_equiv_pos_as_xyz
  1  'x, y, z'
loop_
 _atom_site_type_symbol
 _atom_site_label
 _atom_site_symmetry_multiplicity
 _atom_site_fract_x
 _atom_site_fract_y
 _atom_site_fract_z
 _atom_site_occupancy
  Ag  Ag0  1  0.80780000  0.52756000  0.50060000  1.0
  Ag  Ag1  1  0.19220000  0.47244000  0.49940000  1.0
  Ag  Ag2  1  0.59016000  0.39598000  0.33254000  1.0
  Ag  Ag3  1  0.40984000  0.60402000  0.66746000  1.0
  Ag  Ag4  1  0.59356000  0.28784000  0.58365000  1.0
  Ag  Ag5  1  0.40644000  0.71216000  0.41635000  1.0
  H  H6  1  0.35233000  0.08705000  0.56745000  1.0
  H  H7  1  0.64767000  0.91295000  0.43255000  1.0
  H  H8  1  0.35266000  0.20883000  0.26736000  1.0
  H  H9  1  0.64734000  0.79117000  0.73264000  1.0
  H  H10  1  0.21006000  0.97493000  0.46151000  1.0
  H  H11  1  0.78994000  0.02507000  0.53849000  1.0
  H  H12  1  0.25195000  0.98768000  0.33678000  1.0
  H  H13  1  0.74805000  0.01232000  0.66322000  1.0
  H  H14  1  0.96770000  0.04554000  0.37395000  1.0
  H  H15  1  0.03230000  0.95446000  0.62605000  1.0
  H  H16  1  0.03822000  0.16677000  0.30116000  1.0
  H  H17  1  0.96177000  0.83323000  0.69885000  1.0
  H  H18  1  0.64239000  0.60508000  0.13628000  1.0
  H  H19  1  0.35761000  0.39492000  0.86372000  1.0
  H  H20  1  0.86868000  0.76422000  0.34000000  1.0
  H  H21  1  0.13132000  0.23579000  0.66000000  1.0
  H  H22  1  0.82497000  0.77776000  0.07387000  1.0
  H  H23  1  0.17503000  0.22224000  0.92613000  1.0
  H  H24  1  0.86029000  0.86686000  0.16722000  1.0
  H  H25  1  0.13972000  0.13314000  0.83278000  1.0
  H  H26  1  0.55187000  0.85830000  0.06978000  1.0
  H  H27  1  0.44814000  0.14171000  0.93022000  1.0
  H  H28  1  0.64613000  0.98663000  0.06982000  1.0
  H  H29  1  0.35387000  0.01337000  0.93018000  1.0
  H  H30  1  0.69860000  0.26076000  0.81425000  1.0
  H  H31  1  0.30140000  0.73924000  0.18575000  1.0
  H  H32  1  0.93249000  0.55734000  0.72773000  1.0
  H  H33  1  0.06751000  0.44266000  0.27227000  1.0
  H  H34  1  0.97289000  0.46101000  0.90484000  1.0
  H  H35  1  0.02711000  0.53898000  0.09516000  1.0
  H  H36  1  0.93128000  0.31118000  0.93431000  1.0
  H  H37  1  0.06873000  0.68882000  0.06569000  1.0
  H  H38  1  0.79136000  0.44553000  0.04174000  1.0
  H  H39  1  0.20864000  0.55447000  0.95826000  1.0
  H  H40  1  0.64883000  0.41044000  0.96653000  1.0
  H  H41  1  0.35117000  0.58956000  0.03347000  1.0
  C  C42  1  0.37398000  0.13642000  0.49801000  1.0
  C  C43  1  0.62602000  0.86358000  0.50198000  1.0
  C  C44  1  0.37268000  0.20009000  0.34431000  1.0
  C  C45  1  0.62732000  0.79991000  0.65569000  1.0
  C  C46  1  0.20917000  0.03992000  0.39605000  1.0
  C  C47  1  0.79082000  0.96008000  0.60395000  1.0
  C  C48  1  0.04592000  0.11172000  0.37211000  1.0
  C  C49  1  0.95408000  0.88828000  0.62789000  1.0
  C  C50  1  0.69641000  0.61626000  0.20361000  1.0
  C  C51  1  0.30359000  0.38374000  0.79639000  1.0
  C  C52  1  0.81121000  0.70106000  0.30687000  1.0
  C  C53  1  0.18879000  0.29894000  0.69313000  1.0
  C  C54  1  0.77878000  0.81657000  0.13888000  1.0
  C  C55  1  0.22122000  0.18344000  0.86111000  1.0
  C  C56  1  0.62395000  0.90230000  0.11261000  1.0
  C  C57  1  0.37605000  0.09770000  0.88738000  1.0
  C  C58  1  0.74684000  0.33304000  0.77224000  1.0
  C  C59  1  0.25316000  0.66695000  0.22776000  1.0
  C  C60  1  0.86629000  0.48465000  0.72717000  1.0
  C  C61  1  0.13371000  0.51535000  0.27283000  1.0
  C  C62  1  0.88130000  0.40656000  0.90526000  1.0
  C  C63  1  0.11870000  0.59344000  0.09474000  1.0
  C  C64  1  0.74779000  0.45765000  0.96749000  1.0
  C  C65  1  0.25221000  0.54235000  0.03251000  1.0
  S  S66  1  0.97153000  0.21794000  0.45638000  1.0
  S  S67  1  0.02847000  0.78206000  0.54362000  1.0
  S  S68  1  0.51257000  0.94870000  0.21488000  1.0
  S  S69  1  0.48743000  0.05130000  0.78512000  1.0
  S  S70  1  0.67847000  0.62105000  0.93352000  1.0
  S  S71  1  0.32153000  0.37895000  0.06648000  1.0
  N  N72  1  0.45950000  0.22256000  0.48458000  1.0
  N  N73  1  0.54050000  0.77744000  0.51542000  1.0
  N  N74  1  0.45834000  0.26284000  0.38744000  1.0
  N  N75  1  0.54166000  0.73715000  0.61256000  1.0
  N  N76  1  0.31832000  0.12005000  0.41160000  1.0
  N  N77  1  0.68167000  0.87995000  0.58840000  1.0
  N  N78  1  0.77307000  0.59995000  0.35272000  1.0
  N  N79  1  0.22693000  0.40005000  0.64727000  1.0
  N  N80  1  0.70011000  0.54621000  0.28724000  1.0
  N  N81  1  0.29989000  0.45379000  0.71276000  1.0
  N  N82  1  0.76684000  0.71306000  0.21319000  1.0
  N  N83  1  0.23316000  0.28694000  0.78681000  1.0
  N  N84  1  0.72560000  0.36261000  0.67866000  1.0
  N  N85  1  0.27440000  0.63739000  0.32134000  1.0
  N  N86  1  0.80200000  0.45779000  0.64986000  1.0
  N  N87  1  0.19800000  0.54221000  0.35014000  1.0
  N  N88  1  0.83575000  0.40708000  0.80488000  1.0
  N  N89  1  0.16425000  0.59292000  0.19512000  1.0
  O  O90  1  0.80176000  0.23525000  0.44664000  1.0
  O  O91  1  0.19824000  0.76474000  0.55336000  1.0
  O  O92  1  0.03001000  0.33250000  0.42404000  1.0
  O  O93  1  0.96999000  0.66750000  0.57596000  1.0
  O  O94  1  0.03043000  0.15958000  0.55201000  1.0
  O  O95  1  0.96958000  0.84042000  0.44799000  1.0
  O  O96  1  0.39079000  0.05161000  0.17717000  1.0
  O  O97  1  0.60921000  0.94839000  0.82283000  1.0
  O  O98  1  0.62307000  0.97826000  0.28229000  1.0
  O  O99  1  0.37693000  0.02175000  0.71771000  1.0
  O  O100  1  0.45024000  0.83738000  0.25338000  1.0
  O  O101  1  0.54976000  0.16262000  0.74662000  1.0
  O  O102  1  0.56455000  0.65815000  0.00755000  1.0
  O  O103  1  0.43545000  0.34185000  0.99245000  1.0
  O  O104  1  0.81796000  0.67566000  0.93605000  1.0
  O  O105  1  0.18204000  0.32434000  0.06395000  1.0
  O  O106  1  0.60887000  0.63111000  0.83764000  1.0
  O  O107  1  0.39113000  0.36889000  0.16236000  1.0
