# generated using pymatgen
data_ZnH2(CN2)5
_symmetry_space_group_name_H-M   'P 1'
_cell_length_a   8.52896000
_cell_length_b   8.64235000
_cell_length_c   15.88370000
_cell_angle_alpha   89.99970000
_cell_angle_beta   89.99940000
_cell_angle_gamma   89.99960000
_symmetry_Int_Tables_number   1
_chemical_formula_structural   ZnH2(CN2)5
_chemical_formula_sum   'Zn4 H8 C20 N40'
_cell_volume   1170.79161625
_cell_formula_units_Z   4
loop_
 _symmetry_equiv_pos_site_id
 _symmetry_equiv_pos_as_xyz
  1  'x, y, z'
loop_
 _atom_site_type_symbol
 _atom_site_label
 _atom_site_symmetry_multiplicity
 _atom_site_fract_x
 _atom_site_fract_y
 _atom_site_fract_z
 _atom_site_occupancy
  Zn  Zn0  1  0.74562000  0.54978000  0.12285000  1.0
  Zn  Zn1  1  0.25438000  0.95022000  0.62285000  1.0
  Zn  Zn2  1  0.24562000  0.45023000  0.37715000  1.0
  Zn  Zn3  1  0.75438000  0.04978000  0.87715000  1.0
  H  H4  1  0.83337000  0.96900000  0.16612000  1.0
  H  H5  1  0.51293000  0.53089000  0.69997000  1.0
  H  H6  1  0.16663000  0.53101000  0.66611000  1.0
  H  H7  1  0.48707000  0.96910000  0.19997000  1.0
  H  H8  1  0.33333333  0.03100000  0.33388000  1.0
  H  H9  1  0.01293000  0.46908000  0.80003000  1.0
  H  H10  1  0.66662000  0.46898000  0.83388000  1.0
  H  H11  1  0.98707000  0.03091000  0.30003000  1.0
  C  C12  1  0.88302000  0.88340000  0.20831000  1.0
  C  C13  1  0.00942000  0.78421000  0.31804000  1.0
  C  C14  1  0.08871000  0.78167000  0.39798000  1.0
  C  C15  1  0.95604000  0.66662000  0.26547000  1.0
  C  C16  1  0.96021000  0.49983000  0.26721000  1.0
  C  C17  1  0.11698000  0.61660000  0.70831000  1.0
  C  C18  1  0.99057000  0.71579000  0.81804000  1.0
  C  C19  1  0.91129000  0.71833000  0.89798000  1.0
  C  C20  1  0.04396000  0.83338000  0.76546000  1.0
  C  C21  1  0.03979000  0.00017000  0.76721000  1.0
  C  C22  1  0.38302000  0.11660000  0.29169000  1.0
  C  C23  1  0.50942000  0.21579000  0.18196000  1.0
  C  C24  1  0.58871000  0.21834000  0.10202000  1.0
  C  C25  1  0.45604000  0.33333333  0.23454000  1.0
  C  C26  1  0.46021000  0.50017000  0.23279000  1.0
  C  C27  1  0.61698000  0.38339000  0.79169000  1.0
  C  C28  1  0.49058000  0.28422000  0.68196000  1.0
  C  C29  1  0.41129000  0.28167000  0.60202000  1.0
  C  C30  1  0.54396000  0.16662000  0.73454000  1.0
  C  C31  1  0.53979000  0.99982000  0.73279000  1.0
  N  N32  1  0.87661000  0.73130000  0.19811000  1.0
  N  N33  1  0.96193000  0.91977000  0.27989000  1.0
  N  N34  1  0.10001000  0.90418000  0.44942000  1.0
  N  N35  1  0.17954000  0.84844000  0.51567000  1.0
  N  N36  1  0.21495000  0.70062000  0.50675000  1.0
  N  N37  1  0.15907000  0.65557000  0.43241000  1.0
  N  N38  1  0.87117000  0.42169000  0.21149000  1.0
  N  N39  1  0.89687000  0.27041000  0.22525000  1.0
  N  N40  1  0.99835000  0.25588000  0.28645000  1.0
  N  N41  1  0.04152000  0.39852000  0.31435000  1.0
  N  N42  1  0.12339000  0.76871000  0.69811000  1.0
  N  N43  1  0.03807000  0.58023000  0.77989000  1.0
  N  N44  1  0.89999000  0.59582000  0.94943000  1.0
  N  N45  1  0.82046000  0.65156000  0.01568000  1.0
  N  N46  1  0.78505000  0.79939000  0.00675000  1.0
  N  N47  1  0.84093000  0.84443000  0.93241000  1.0
  N  N48  1  0.12884000  0.07831000  0.71149000  1.0
  N  N49  1  0.10313000  0.22959000  0.72525000  1.0
  N  N50  1  0.00165000  0.24413000  0.78645000  1.0
  N  N51  1  0.95849000  0.10148000  0.81435000  1.0
  N  N52  1  0.37661000  0.26871000  0.30189000  1.0
  N  N53  1  0.46193000  0.08024000  0.22011000  1.0
  N  N54  1  0.60001000  0.09583000  0.05057000  1.0
  N  N55  1  0.67955000  0.15156000  0.98433000  1.0
  N  N56  1  0.71495000  0.29939000  0.99325000  1.0
  N  N57  1  0.65907000  0.34444000  0.06759000  1.0
  N  N58  1  0.37117000  0.57832000  0.28852000  1.0
  N  N59  1  0.39687000  0.72960000  0.27475000  1.0
  N  N60  1  0.49835000  0.74413000  0.21355000  1.0
  N  N61  1  0.54152000  0.60149000  0.18566000  1.0
  N  N62  1  0.62339000  0.23129000  0.80189000  1.0
  N  N63  1  0.53807000  0.41976000  0.72011000  1.0
  N  N64  1  0.39999000  0.40418000  0.55058000  1.0
  N  N65  1  0.32045000  0.34844000  0.48433000  1.0
  N  N66  1  0.28505000  0.20062000  0.49324000  1.0
  N  N67  1  0.34093000  0.15556000  0.56759000  1.0
  N  N68  1  0.62883000  0.92168000  0.78851000  1.0
  N  N69  1  0.60313000  0.77039000  0.77475000  1.0
  N  N70  1  0.50165000  0.75586000  0.71355000  1.0
  N  N71  1  0.45849000  0.89851000  0.68565000  1.0
