# generated using pymatgen
data_Cd3H38C56(NO6)2
_symmetry_space_group_name_H-M   'P 1'
_cell_length_a   9.22895000
_cell_length_b   13.33520000
_cell_length_c   14.23570000
_cell_angle_alpha   116.02400000
_cell_angle_beta   91.40500000
_cell_angle_gamma   105.33800000
_symmetry_Int_Tables_number   1
_chemical_formula_structural   Cd3H38C56(NO6)2
_chemical_formula_sum   'Cd3 H38 C56 N2 O12'
_cell_volume   1498.16960350
_cell_formula_units_Z   1
loop_
 _symmetry_equiv_pos_site_id
 _symmetry_equiv_pos_as_xyz
  1  'x, y, z'
loop_
 _atom_site_type_symbol
 _atom_site_label
 _atom_site_symmetry_multiplicity
 _atom_site_fract_x
 _atom_site_fract_y
 _atom_site_fract_z
 _atom_site_occupancy
  Cd  Cd0  1  0.00000000  0.00000000  0.00000000  1.0
  Cd  Cd1  1  0.59926000  0.88401000  0.91758000  1.0
  Cd  Cd2  1  0.40074000  0.11599000  0.08242000  1.0
  H  H3  1  0.59446000  0.16991000  0.28567000  1.0
  H  H4  1  0.40554000  0.83009000  0.71433000  1.0
  H  H5  1  0.69600000  0.28903000  0.47769000  1.0
  H  H6  1  0.30400000  0.71097000  0.52231000  1.0
  H  H7  1  0.05599000  0.13030000  0.43557000  1.0
  H  H8  1  0.94401000  0.86970000  0.56443000  1.0
  H  H9  1  0.95690000  0.01532000  0.24269000  1.0
  H  H10  1  0.04310000  0.98468000  0.75731000  1.0
  H  H11  1  0.07131000  0.31048000  0.59385000  1.0
  H  H12  1  0.92869000  0.68952000  0.40615000  1.0
  H  H13  1  0.10761000  0.31071000  0.76119000  1.0
  H  H14  1  0.89239000  0.68928000  0.23881000  1.0
  H  H15  1  0.03558000  0.20097000  0.86625000  1.0
  H  H16  1  0.96442000  0.79903000  0.13375000  1.0
  H  H17  1  0.62066000  0.98692000  0.64682000  1.0
  H  H18  1  0.37934000  0.01308000  0.35318000  1.0
  H  H19  1  0.69142000  0.09497000  0.54074000  1.0
  H  H20  1  0.30858000  0.90503000  0.45926000  1.0
  H  H21  1  0.70431000  0.32693000  0.69338000  1.0
  H  H22  1  0.29569000  0.67307000  0.30661000  1.0
  H  H23  1  0.65000000  0.51776000  0.78782000  1.0
  H  H24  1  0.35000000  0.48224000  0.21217000  1.0
  H  H25  1  0.05072000  0.68942000  0.70522000  1.0
  H  H26  1  0.94928000  0.31059000  0.29478000  1.0
  H  H27  1  0.09983000  0.49841000  0.60382000  1.0
  H  H28  1  0.90017000  0.50159000  0.39618000  1.0
  H  H29  1  0.23154000  0.77842000  0.88229000  1.0
  H  H30  1  0.76846000  0.22158000  0.11772000  1.0
  H  H31  1  0.03442000  0.63876000  0.91574000  1.0
  H  H32  1  0.96558000  0.36124000  0.08427000  1.0
  H  H33  1  0.39396000  0.57974000  0.06574000  1.0
  H  H34  1  0.60604000  0.42025000  0.93426000  1.0
  H  H35  1  0.57971000  0.72144000  0.02190000  1.0
  H  H36  1  0.42029000  0.27855000  0.97810000  1.0
  H  H37  1  0.10976000  0.42734000  0.98572000  1.0
  H  H38  1  0.89024000  0.57267000  0.01428000  1.0
  H  H39  1  0.10201000  0.54346000  0.10594000  1.0
  H  H40  1  0.89800000  0.45655000  0.89406000  1.0
  C  C41  1  0.71836000  0.01894000  0.13541000  1.0
  C  C42  1  0.28163000  0.98106000  0.86459000  1.0
  C  C43  1  0.77120000  0.08632000  0.25160000  1.0
  C  C44  1  0.22880000  0.91368000  0.74840000  1.0
  C  C45  1  0.69712000  0.16298000  0.31830000  1.0
  C  C46  1  0.30288000  0.83702000  0.68170000  1.0
  C  C47  1  0.75318000  0.22849000  0.42654000  1.0
  C  C48  1  0.24682000  0.77151000  0.57346000  1.0
  C  C49  1  0.88287000  0.21802000  0.46996000  1.0
  C  C50  1  0.11713000  0.78198000  0.53004000  1.0
  C  C51  1  0.95524000  0.13992000  0.40284000  1.0
  C  C52  1  0.04476000  0.86008000  0.59717000  1.0
  C  C53  1  0.90030000  0.07496000  0.29504000  1.0
  C  C54  1  0.09970000  0.92504000  0.70496000  1.0
  C  C55  1  0.94631000  0.28583000  0.58764000  1.0
  C  C56  1  0.05369000  0.71417000  0.41236000  1.0
  C  C57  1  0.90336000  0.21131000  0.64473000  1.0
  C  C58  1  0.09664000  0.78869000  0.35527000  1.0
  C  C59  1  0.00030000  0.23984000  0.73623000  1.0
  C  C60  1  0.99970000  0.76016000  0.26377000  1.0
  C  C61  1  0.96074000  0.17975000  0.79529000  1.0
  C  C62  1  0.03926000  0.82025000  0.20471000  1.0
  C  C63  1  0.82303000  0.08873000  0.76358000  1.0
  C  C64  1  0.17697000  0.91127000  0.23642000  1.0
  C  C65  1  0.72708000  0.05819000  0.67116000  1.0
  C  C66  1  0.27291000  0.94181000  0.32884000  1.0
  C  C67  1  0.76701000  0.11909000  0.61244000  1.0
  C  C68  1  0.23298000  0.88091000  0.38756000  1.0
  C  C69  1  0.77963000  0.02638000  0.82909000  1.0
  C  C70  1  0.22037000  0.97362000  0.17091000  1.0
  C  C71  1  0.90743000  0.39989000  0.64360000  1.0
  C  C72  1  0.09257000  0.60011000  0.35640000  1.0
  C  C73  1  0.77933000  0.40589000  0.69427000  1.0
  C  C74  1  0.22067000  0.59411000  0.30573000  1.0
  C  C75  1  0.74911000  0.51227000  0.74789000  1.0
  C  C76  1  0.25089000  0.48772000  0.25211000  1.0
  C  C77  1  0.84893000  0.61547000  0.75458000  1.0
  C  C78  1  0.15106000  0.38452000  0.24542000  1.0
  C  C79  1  0.97424000  0.60929000  0.70106000  1.0
  C  C80  1  0.02576000  0.39071000  0.29894000  1.0
  C  C81  1  0.00182000  0.50231000  0.64521000  1.0
  C  C82  1  0.99818000  0.49769000  0.35479000  1.0
  C  C83  1  0.82548000  0.73145000  0.82403000  1.0
  C  C84  1  0.17452000  0.26855000  0.17597000  1.0
  C  C85  1  0.26377000  0.73164000  0.92145000  1.0
  C  C86  1  0.73623000  0.26836000  0.07856000  1.0
  C  C87  1  0.15315000  0.65310000  0.94159000  1.0
  C  C88  1  0.84685000  0.34690000  0.05841000  1.0
  C  C89  1  0.19628000  0.59585000  0.99406000  1.0
  C  C90  1  0.80373000  0.40415000  0.00594000  1.0
  C  C91  1  0.35322000  0.62131000  0.02392000  1.0
  C  C92  1  0.64679000  0.37869000  0.97608000  1.0
  C  C93  1  0.45709000  0.69998000  0.00038000  1.0
  C  C94  1  0.54291000  0.30002000  0.99961000  1.0
  C  C95  1  0.08292000  0.51092000  0.01944000  1.0
  C  C96  1  0.91708000  0.48908000  0.98056000  1.0
  N  N97  1  0.41316000  0.75478000  0.94973000  1.0
  N  N98  1  0.58684000  0.24522000  0.05027000  1.0
  O  O99  1  0.78486000  0.94519000  0.07784000  1.0
  O  O100  1  0.21514000  0.05481000  0.92216000  1.0
  O  O101  1  0.60745000  0.03351000  0.09273000  1.0
  O  O102  1  0.39256000  0.96649000  0.90727000  1.0
  O  O103  1  0.85947000  0.06888000  0.91986000  1.0
  O  O104  1  0.14053000  0.93112000  0.08014000  1.0
  O  O105  1  0.66224000  0.93573000  0.79103000  1.0
  O  O106  1  0.33777000  0.06427000  0.20897000  1.0
  O  O107  1  0.94298000  0.82149000  0.85792000  1.0
  O  O108  1  0.05701000  0.17851000  0.14208000  1.0
  O  O109  1  0.69190000  0.72860000  0.84488000  1.0
  O  O110  1  0.30809000  0.27140000  0.15512000  1.0
