# generated using pymatgen
data_CdH10C12(NO2)2
_symmetry_space_group_name_H-M   'P 1'
_cell_length_a   8.19353000
_cell_length_b   10.24210000
_cell_length_c   16.14550000
_cell_angle_alpha   102.16100000
_cell_angle_beta   90.01750000
_cell_angle_gamma   113.56700000
_symmetry_Int_Tables_number   1
_chemical_formula_structural   CdH10C12(NO2)2
_chemical_formula_sum   'Cd4 H40 C48 N8 O16'
_cell_volume   1208.62084567
_cell_formula_units_Z   4
loop_
 _symmetry_equiv_pos_site_id
 _symmetry_equiv_pos_as_xyz
  1  'x, y, z'
loop_
 _atom_site_type_symbol
 _atom_site_label
 _atom_site_symmetry_multiplicity
 _atom_site_fract_x
 _atom_site_fract_y
 _atom_site_fract_z
 _atom_site_occupancy
  Cd  Cd0  1  0.65455000  0.00012000  0.24995000  1.0
  Cd  Cd1  1  0.34545000  0.99988000  0.75005000  1.0
  Cd  Cd2  1  0.15202000  0.99987000  0.24999000  1.0
  Cd  Cd3  1  0.84798000  0.00013000  0.75001000  1.0
  H  H4  1  0.25152000  0.24917000  0.87376000  1.0
  H  H5  1  0.00216000  0.75068000  0.62627000  1.0
  H  H6  1  0.74848000  0.75083000  0.12624000  1.0
  H  H7  1  0.99784000  0.24932000  0.37373000  1.0
  H  H8  1  0.65239000  0.33495000  0.70511000  1.0
  H  H9  1  0.31730000  0.66471000  0.79492000  1.0
  H  H10  1  0.34761000  0.66505000  0.29489000  1.0
  H  H11  1  0.68271000  0.33530000  0.20508000  1.0
  H  H12  1  0.67059000  0.60193000  0.79997000  1.0
  H  H13  1  0.06840000  0.39780000  0.70011000  1.0
  H  H14  1  0.32941000  0.39807000  0.20003000  1.0
  H  H15  1  0.93161000  0.60220000  0.29989000  1.0
  H  H16  1  0.64088000  0.74815000  0.90350000  1.0
  H  H17  1  0.89288000  0.25171000  0.59655000  1.0
  H  H18  1  0.35911000  0.25185000  0.09650000  1.0
  H  H19  1  0.10712000  0.74828000  0.40345000  1.0
  H  H20  1  0.58077000  0.91830000  0.01965000  1.0
  H  H21  1  0.66289000  0.08146000  0.48033000  1.0
  H  H22  1  0.41923000  0.08170000  0.98035000  1.0
  H  H23  1  0.33711000  0.91853000  0.51966000  1.0
  H  H24  1  0.11208000  0.56531000  0.06554000  1.0
  H  H25  1  0.54629000  0.43422000  0.43447000  1.0
  H  H26  1  0.88792000  0.43469000  0.93446000  1.0
  H  H27  1  0.45371000  0.56578000  0.56553000  1.0
  H  H28  1  0.16665000  0.39143000  0.94951000  1.0
  H  H29  1  0.77472000  0.60826000  0.55049000  1.0
  H  H30  1  0.83335000  0.60857000  0.05049000  1.0
  H  H31  1  0.22528000  0.39174000  0.44951000  1.0
  H  H32  1  0.03632000  0.29791000  0.08695000  1.0
  H  H33  1  0.73860000  0.70193000  0.41309000  1.0
  H  H34  1  0.96368000  0.70209000  0.91305000  1.0
  H  H35  1  0.26140000  0.29807000  0.58691000  1.0
  H  H36  1  0.80892000  0.16482000  0.07183000  1.0
  H  H37  1  0.64400000  0.83484000  0.42828000  1.0
  H  H38  1  0.19108000  0.83518000  0.92817000  1.0
  H  H39  1  0.35600000  0.16516000  0.57172000  1.0
  H  H40  1  0.97126000  0.13114000  0.00873000  1.0
  H  H41  1  0.84013000  0.86867000  0.49136000  1.0
  H  H42  1  0.02874000  0.86886000  0.99127000  1.0
  H  H43  1  0.15987000  0.13133000  0.50864000  1.0
  C  C44  1  0.36169000  0.30858000  0.84063000  1.0
  C  C45  1  0.05278000  0.69119000  0.65944000  1.0
  C  C46  1  0.63831000  0.69142000  0.15937000  1.0
  C  C47  1  0.94722000  0.30881000  0.34056000  1.0
  C  C48  1  0.57175000  0.35787000  0.75460000  1.0
  C  C49  1  0.21365000  0.64182000  0.74546000  1.0
  C  C50  1  0.42825000  0.64213000  0.24540000  1.0
  C  C51  1  0.78636000  0.35818000  0.25454000  1.0
  C  C52  1  0.58189000  0.49009000  0.80079000  1.0
  C  C53  1  0.09153000  0.50963000  0.69928000  1.0
  C  C54  1  0.41811000  0.50991000  0.19921000  1.0
  C  C55  1  0.90848000  0.49037000  0.30072000  1.0
  C  C56  1  0.41044000  0.55756000  0.92019000  1.0
  C  C57  1  0.85270000  0.44220000  0.57981000  1.0
  C  C58  1  0.58956000  0.44244000  0.07981000  1.0
  C  C59  1  0.14730000  0.55780000  0.42019000  1.0
  C  C60  1  0.52533000  0.70638000  0.93907000  1.0
  C  C61  1  0.81895000  0.29339000  0.56095000  1.0
  C  C62  1  0.47466000  0.29362000  0.06093000  1.0
  C  C63  1  0.18105000  0.70661000  0.43905000  1.0
  C  C64  1  0.49102000  0.80277000  0.00401000  1.0
  C  C65  1  0.68837000  0.19695000  0.49595000  1.0
  C  C66  1  0.50898000  0.19723000  0.99599000  1.0
  C  C67  1  0.31163000  0.80305000  0.50405000  1.0
  C  C68  1  0.34266000  0.75282000  0.05014000  1.0
  C  C69  1  0.58985000  0.24686000  0.44984000  1.0
  C  C70  1  0.65733000  0.24718000  0.94986000  1.0
  C  C71  1  0.41015000  0.75314000  0.55016000  1.0
  C  C72  1  0.22768000  0.60380000  0.02974000  1.0
  C  C73  1  0.62357000  0.39582000  0.47026000  1.0
  C  C74  1  0.77232000  0.39620000  0.97026000  1.0
  C  C75  1  0.37643000  0.60418000  0.52974000  1.0
  C  C76  1  0.25996000  0.50616000  0.96520000  1.0
  C  C77  1  0.75352000  0.49356000  0.53480000  1.0
  C  C78  1  0.74003000  0.49384000  0.03480000  1.0
  C  C79  1  0.24648000  0.50644000  0.46520000  1.0
  C  C80  1  0.30394000  0.85598000  0.11920000  1.0
  C  C81  1  0.44799000  0.14375000  0.38075000  1.0
  C  C82  1  0.69606000  0.14402000  0.88080000  1.0
  C  C83  1  0.55201000  0.85625000  0.61925000  1.0
  C  C84  1  0.99178000  0.10705000  0.13601000  1.0
  C  C85  1  0.88442000  0.89291000  0.36405000  1.0
  C  C86  1  0.00822000  0.89295000  0.86399000  1.0
  C  C87  1  0.11558000  0.10709000  0.63595000  1.0
  C  C88  1  0.94924000  0.18082000  0.07274000  1.0
  C  C89  1  0.76843000  0.81899000  0.42733000  1.0
  C  C90  1  0.05075000  0.81918000  0.92725000  1.0
  C  C91  1  0.23157000  0.18101000  0.57267000  1.0
  N  N92  1  0.43418000  0.24607000  0.78009000  1.0
  N  N93  1  0.18790000  0.75366000  0.71997000  1.0
  N  N94  1  0.56581000  0.75393000  0.21991000  1.0
  N  N95  1  0.81211000  0.24634000  0.28003000  1.0
  N  N96  1  0.44736000  0.45729000  0.85577000  1.0
  N  N97  1  0.98972000  0.54247000  0.64431000  1.0
  N  N98  1  0.55264000  0.54272000  0.14423000  1.0
  N  N99  1  0.01028000  0.45753000  0.35569000  1.0
  O  O100  1  0.14483000  0.81393000  0.14151000  1.0
  O  O101  1  0.33082000  0.18580000  0.35855000  1.0
  O  O102  1  0.85517000  0.18607000  0.85849000  1.0
  O  O103  1  0.66918000  0.81420000  0.64145000  1.0
  O  O104  1  0.42825000  0.98133000  0.15270000  1.0
  O  O105  1  0.44700000  0.01844000  0.34713000  1.0
  O  O106  1  0.57175000  0.01867000  0.84730000  1.0
  O  O107  1  0.55300000  0.98156000  0.65287000  1.0
  O  O108  1  0.87177000  0.98913000  0.14895000  1.0
  O  O109  1  0.88219000  0.01088000  0.35127000  1.0
  O  O110  1  0.12823000  0.01087000  0.85105000  1.0
  O  O111  1  0.11781000  0.98912000  0.64873000  1.0
  O  O112  1  0.15008000  0.16376000  0.17346000  1.0
  O  O113  1  0.98599000  0.83626000  0.32650000  1.0
  O  O114  1  0.84991000  0.83623000  0.82654000  1.0
  O  O115  1  0.01401000  0.16374000  0.67350000  1.0
