# generated using pymatgen
data_CdH19C27N7O4
_symmetry_space_group_name_H-M   'P 1'
_cell_length_a   10.75240000
_cell_length_b   10.75250000
_cell_length_c   23.96310000
_cell_angle_alpha   94.18200000
_cell_angle_beta   94.18160000
_cell_angle_gamma   98.93940000
_symmetry_Int_Tables_number   1
_chemical_formula_structural   CdH19C27N7O4
_chemical_formula_sum   'Cd4 H76 C108 N28 O16'
_cell_volume   2719.56025541
_cell_formula_units_Z   4
loop_
 _symmetry_equiv_pos_site_id
 _symmetry_equiv_pos_as_xyz
  1  'x, y, z'
loop_
 _atom_site_type_symbol
 _atom_site_label
 _atom_site_symmetry_multiplicity
 _atom_site_fract_x
 _atom_site_fract_y
 _atom_site_fract_z
 _atom_site_occupancy
  Cd  Cd0  1  0.11462000  0.63421000  0.49160000  1.0
  Cd  Cd1  1  0.36580000  0.88539000  0.00841000  1.0
  Cd  Cd2  1  0.88540000  0.36579000  0.50841000  1.0
  Cd  Cd3  1  0.63422000  0.11463000  0.99159000  1.0
  H  H4  1  0.28993000  0.81832000  0.16829000  1.0
  H  H5  1  0.13370000  0.12503000  0.24882000  1.0
  H  H6  1  0.47890000  0.00654000  0.31363000  1.0
  H  H7  1  0.14510000  0.82470000  0.09542000  1.0
  H  H8  1  0.95324000  0.78235000  0.99965000  1.0
  H  H9  1  0.77421000  0.88584000  0.96349000  1.0
  H  H10  1  0.79494000  0.13363000  0.10647000  1.0
  H  H11  1  0.45977000  0.15486000  0.39543000  1.0
  H  H12  1  0.46629000  0.33274000  0.49433000  1.0
  H  H13  1  0.33976000  0.49616000  0.52815000  1.0
  H  H14  1  0.10115000  0.45082000  0.38090000  1.0
  H  H15  1  0.50546000  0.96988000  0.45061000  1.0
  H  H16  1  0.38790000  0.91539000  0.39422000  1.0
  H  H17  1  0.38904000  0.62764000  0.39864000  1.0
  H  H18  1  0.53158000  0.48557000  0.36411000  1.0
  H  H19  1  0.82988000  0.80337000  0.36756000  1.0
  H  H20  1  0.68952000  0.94487000  0.40357000  1.0
  H  H21  1  0.84685000  0.59168000  0.31751000  1.0
  H  H22  1  0.73188000  0.45695000  0.32662000  1.0
  H  H23  1  0.18168000  0.71005000  0.33171000  1.0
  H  H24  1  0.87498000  0.86629000  0.25118000  1.0
  H  H25  1  0.99344000  0.52109000  0.18637000  1.0
  H  H26  1  0.17530000  0.85488000  0.40458000  1.0
  H  H27  1  0.21765000  0.04675000  0.50036000  1.0
  H  H28  1  0.11416000  0.22578000  0.53651000  1.0
  H  H29  1  0.86638000  0.20506000  0.39353000  1.0
  H  H30  1  0.84513000  0.54022000  0.10457000  1.0
  H  H31  1  0.66724000  0.53371000  0.00567000  1.0
  H  H32  1  0.50383000  0.66025000  0.97186000  1.0
  H  H33  1  0.54920000  0.89887000  0.11910000  1.0
  H  H34  1  0.03011000  0.49455000  0.04939000  1.0
  H  H35  1  0.08459000  0.61211000  0.10578000  1.0
  H  H36  1  0.37235000  0.61098000  0.10136000  1.0
  H  H37  1  0.51442000  0.46844000  0.13589000  1.0
  H  H38  1  0.19661000  0.17015000  0.13245000  1.0
  H  H39  1  0.05511000  0.31049000  0.09644000  1.0
  H  H40  1  0.40831000  0.15317000  0.18249000  1.0
  H  H41  1  0.54304000  0.26813000  0.17338000  1.0
  H  H42  1  0.71006000  0.18169000  0.83170000  1.0
  H  H43  1  0.86630000  0.87497000  0.75118000  1.0
  H  H44  1  0.52109000  0.99344000  0.68637000  1.0
  H  H45  1  0.85488000  0.17529000  0.90457000  1.0
  H  H46  1  0.04671000  0.21762000  0.00036000  1.0
  H  H47  1  0.22575000  0.11413000  0.03651000  1.0
  H  H48  1  0.20505000  0.86637000  0.89353000  1.0
  H  H49  1  0.54023000  0.84513000  0.60458000  1.0
  H  H50  1  0.53370000  0.66726000  0.50568000  1.0
  H  H51  1  0.66024000  0.50383000  0.47186000  1.0
  H  H52  1  0.89886000  0.54919000  0.61910000  1.0
  H  H53  1  0.49455000  0.03012000  0.54939000  1.0
  H  H54  1  0.61210000  0.08460000  0.60578000  1.0
  H  H55  1  0.61096000  0.37237000  0.60135000  1.0
  H  H56  1  0.46842000  0.51443000  0.63588000  1.0
  H  H57  1  0.17014000  0.19661000  0.63245000  1.0
  H  H58  1  0.31050000  0.05512000  0.59644000  1.0
  H  H59  1  0.15315000  0.40830000  0.68249000  1.0
  H  H60  1  0.26812000  0.54303000  0.67339000  1.0
  H  H61  1  0.81831000  0.28994000  0.66829000  1.0
  H  H62  1  0.12501000  0.13369000  0.74882000  1.0
  H  H63  1  0.00655000  0.47890000  0.81362000  1.0
  H  H64  1  0.82471000  0.14511000  0.59542000  1.0
  H  H65  1  0.78238000  0.95327000  0.49964000  1.0
  H  H66  1  0.88585000  0.77423000  0.46350000  1.0
  H  H67  1  0.13362000  0.79493000  0.60648000  1.0
  H  H68  1  0.15487000  0.45977000  0.89542000  1.0
  H  H69  1  0.33275000  0.46630000  0.99432000  1.0
  H  H70  1  0.49617000  0.33977000  0.02814000  1.0
  H  H71  1  0.45080000  0.10114000  0.88089000  1.0
  H  H72  1  0.96990000  0.50547000  0.95062000  1.0
  H  H73  1  0.91543000  0.38792000  0.89422000  1.0
  H  H74  1  0.62766000  0.38905000  0.89865000  1.0
  H  H75  1  0.48559000  0.53158000  0.86412000  1.0
  H  H76  1  0.80339000  0.82988000  0.86755000  1.0
  H  H77  1  0.94490000  0.68953000  0.90356000  1.0
  H  H78  1  0.59169000  0.84684000  0.81751000  1.0
  H  H79  1  0.45696000  0.73187000  0.82661000  1.0
  C  C80  1  0.29194000  0.89349000  0.20178000  1.0
  C  C81  1  0.19731000  0.97059000  0.20235000  1.0
  C  C82  1  0.20533000  0.06393000  0.24661000  1.0
  C  C83  1  0.30617000  0.07901000  0.28823000  1.0
  C  C84  1  0.39647000  0.99813000  0.28315000  1.0
  C  C85  1  0.09380000  0.96177000  0.15867000  1.0
  C  C86  1  0.93396000  0.00509000  0.10922000  1.0
  C  C87  1  0.97945000  0.90633000  0.07785000  1.0
  C  C88  1  0.92270000  0.85855000  0.02485000  1.0
  C  C89  1  0.82364000  0.91615000  0.00465000  1.0
  C  C90  1  0.83391000  0.05704000  0.08526000  1.0
  C  C91  1  0.30712000  0.17792000  0.33348000  1.0
  C  C92  1  0.24557000  0.32928000  0.38209000  1.0
  C  C93  1  0.34923000  0.29606000  0.41479000  1.0
  C  C94  1  0.38793000  0.35610000  0.46811000  1.0
  C  C95  1  0.31721000  0.44609000  0.48664000  1.0
  C  C96  1  0.18137000  0.42204000  0.40412000  1.0
  C  C97  1  0.35791000  0.82206000  0.46947000  1.0
  C  C98  1  0.44614000  0.88527000  0.42890000  1.0
  C  C99  1  0.52959000  0.79642000  0.40523000  1.0
  C  C100  1  0.48643000  0.66674000  0.39250000  1.0
  C  C101  1  0.56694000  0.58647000  0.37275000  1.0
  C  C102  1  0.69259000  0.63348000  0.36437000  1.0
  C  C103  1  0.73385000  0.76367000  0.37502000  1.0
  C  C104  1  0.65414000  0.84379000  0.39532000  1.0
  C  C105  1  0.78354000  0.54687000  0.34676000  1.0
  C  C106  1  0.86405000  0.51928000  0.39867000  1.0
  C  C107  1  0.10650000  0.70805000  0.29822000  1.0
  C  C108  1  0.02941000  0.80268000  0.29765000  1.0
  C  C109  1  0.93608000  0.79467000  0.25339000  1.0
  C  C110  1  0.92099000  0.69383000  0.21177000  1.0
  C  C111  1  0.00186000  0.60352000  0.21685000  1.0
  C  C112  1  0.03823000  0.90620000  0.34134000  1.0
  C  C113  1  0.99492000  0.06604000  0.39078000  1.0
  C  C114  1  0.09366000  0.02054000  0.42216000  1.0
  C  C115  1  0.14145000  0.07729000  0.47515000  1.0
  C  C116  1  0.08385000  0.17635000  0.49535000  1.0
  C  C117  1  0.94296000  0.16609000  0.41474000  1.0
  C  C118  1  0.82208000  0.69289000  0.16652000  1.0
  C  C119  1  0.67072000  0.75444000  0.11791000  1.0
  C  C120  1  0.70393000  0.65077000  0.08521000  1.0
  C  C121  1  0.64389000  0.61207000  0.03189000  1.0
  C  C122  1  0.55391000  0.68280000  0.01336000  1.0
  C  C123  1  0.57797000  0.81864000  0.09588000  1.0
  C  C124  1  0.17793000  0.64209000  0.03052000  1.0
  C  C125  1  0.11472000  0.55387000  0.07110000  1.0
  C  C126  1  0.20357000  0.47042000  0.09477000  1.0
  C  C127  1  0.33325000  0.51358000  0.10750000  1.0
  C  C128  1  0.41352000  0.43307000  0.12726000  1.0
  C  C129  1  0.36652000  0.30742000  0.13564000  1.0
  C  C130  1  0.23632000  0.26616000  0.12499000  1.0
  C  C131  1  0.15620000  0.34587000  0.10469000  1.0
  C  C132  1  0.45312000  0.21647000  0.15324000  1.0
  C  C133  1  0.48071000  0.13597000  0.10133000  1.0
  C  C134  1  0.70805000  0.10651000  0.79822000  1.0
  C  C135  1  0.80269000  0.02941000  0.79764000  1.0
  C  C136  1  0.79467000  0.93608000  0.75339000  1.0
  C  C137  1  0.69383000  0.92099000  0.71177000  1.0
  C  C138  1  0.60352000  0.00186000  0.71684000  1.0
  C  C139  1  0.90620000  0.03823000  0.84133000  1.0
  C  C140  1  0.06603000  0.99490000  0.89077000  1.0
  C  C141  1  0.02053000  0.09365000  0.92216000  1.0
  C  C142  1  0.07727000  0.14142000  0.97515000  1.0
  C  C143  1  0.17633000  0.08383000  0.99535000  1.0
  C  C144  1  0.16608000  0.94295000  0.91474000  1.0
  C  C145  1  0.69289000  0.82208000  0.66653000  1.0
  C  C146  1  0.75444000  0.67073000  0.61791000  1.0
  C  C147  1  0.65077000  0.70393000  0.58521000  1.0
  C  C148  1  0.61207000  0.64389000  0.53190000  1.0
  C  C149  1  0.68279000  0.55391000  0.51337000  1.0
  C  C150  1  0.81864000  0.57797000  0.59588000  1.0
  C  C151  1  0.64210000  0.17793000  0.53053000  1.0
  C  C152  1  0.55387000  0.11473000  0.57110000  1.0
  C  C153  1  0.47042000  0.20359000  0.59477000  1.0
  C  C154  1  0.51358000  0.33333333  0.60750000  1.0
  C  C155  1  0.43306000  0.41353000  0.62725000  1.0
  C  C156  1  0.30742000  0.36652000  0.63564000  1.0
  C  C157  1  0.26616000  0.23632000  0.62499000  1.0
  C  C158  1  0.34587000  0.15620000  0.60469000  1.0
  C  C159  1  0.21646000  0.45312000  0.65325000  1.0
  C  C160  1  0.13598000  0.48073000  0.60134000  1.0
  C  C161  1  0.89349000  0.29195000  0.70178000  1.0
  C  C162  1  0.97058000  0.19731000  0.70235000  1.0
  C  C163  1  0.06391000  0.20533000  0.74661000  1.0
  C  C164  1  0.07900000  0.30617000  0.78823000  1.0
  C  C165  1  0.99814000  0.39648000  0.78315000  1.0
  C  C166  1  0.96177000  0.09380000  0.65867000  1.0
  C  C167  1  0.00509000  0.93396000  0.60923000  1.0
  C  C168  1  0.90635000  0.97946000  0.57784000  1.0
  C  C169  1  0.85857000  0.92271000  0.52485000  1.0
  C  C170  1  0.91616000  0.82365000  0.50465000  1.0
  C  C171  1  0.05704000  0.83390000  0.58527000  1.0
  C  C172  1  0.17791000  0.30711000  0.83347000  1.0
  C  C173  1  0.32928000  0.24556000  0.88208000  1.0
  C  C174  1  0.29606000  0.34923000  0.91479000  1.0
  C  C175  1  0.35611000  0.38794000  0.96810000  1.0
  C  C176  1  0.44609000  0.31721000  0.98663000  1.0
  C  C177  1  0.42203000  0.18136000  0.90411000  1.0
  C  C178  1  0.82207000  0.35791000  0.96947000  1.0
  C  C179  1  0.88529000  0.44615000  0.92890000  1.0
  C  C180  1  0.79644000  0.52960000  0.90523000  1.0
  C  C181  1  0.66676000  0.48644000  0.89250000  1.0
  C  C182  1  0.58648000  0.56694000  0.87275000  1.0
  C  C183  1  0.63349000  0.69259000  0.86436000  1.0
  C  C184  1  0.76369000  0.73385000  0.87501000  1.0
  C  C185  1  0.84381000  0.65415000  0.89531000  1.0
  C  C186  1  0.54688000  0.78354000  0.84676000  1.0
  C  C187  1  0.51927000  0.86404000  0.89866000  1.0
  N  N188  1  0.38927000  0.90720000  0.24109000  1.0
  N  N189  1  0.08039000  0.88020000  0.11054000  1.0
  N  N190  1  0.00612000  0.03668000  0.15961000  1.0
  N  N191  1  0.78171000  0.01258000  0.03358000  1.0
  N  N192  1  0.38774000  0.20028000  0.38263000  1.0
  N  N193  1  0.22230000  0.25527000  0.33216000  1.0
  N  N194  1  0.21692000  0.47739000  0.45595000  1.0
  N  N195  1  0.09280000  0.61071000  0.25891000  1.0
  N  N196  1  0.11979000  0.91960000  0.38946000  1.0
  N  N197  1  0.96332000  0.99387000  0.34039000  1.0
  N  N198  1  0.98742000  0.21828000  0.46642000  1.0
  N  N199  1  0.79970000  0.61225000  0.11737000  1.0
  N  N200  1  0.74474000  0.77771000  0.16784000  1.0
  N  N201  1  0.52261000  0.78309000  0.04405000  1.0
  N  N202  1  0.61072000  0.09280000  0.75890000  1.0
  N  N203  1  0.91960000  0.11979000  0.88946000  1.0
  N  N204  1  0.99387000  0.96331000  0.84039000  1.0
  N  N205  1  0.21827000  0.98741000  0.96642000  1.0
  N  N206  1  0.61226000  0.79971000  0.61737000  1.0
  N  N207  1  0.77772000  0.74474000  0.66784000  1.0
  N  N208  1  0.78308000  0.52261000  0.54405000  1.0
  N  N209  1  0.90719000  0.38927000  0.74109000  1.0
  N  N210  1  0.88021000  0.08040000  0.61054000  1.0
  N  N211  1  0.03667000  0.00612000  0.65961000  1.0
  N  N212  1  0.01258000  0.78171000  0.53358000  1.0
  N  N213  1  0.20028000  0.38775000  0.88263000  1.0
  N  N214  1  0.25525000  0.22229000  0.83216000  1.0
  N  N215  1  0.47739000  0.21692000  0.95595000  1.0
  O  O216  1  0.24716000  0.76990000  0.44595000  1.0
  O  O217  1  0.39316000  0.81906000  0.52011000  1.0
  O  O218  1  0.82621000  0.41730000  0.42038000  1.0
  O  O219  1  0.95961000  0.60175000  0.41650000  1.0
  O  O220  1  0.23006000  0.75285000  0.05404000  1.0
  O  O221  1  0.18094000  0.60681000  0.97989000  1.0
  O  O222  1  0.58269000  0.17380000  0.07962000  1.0
  O  O223  1  0.39825000  0.04040000  0.08351000  1.0
  O  O224  1  0.75285000  0.23009000  0.55405000  1.0
  O  O225  1  0.60685000  0.18092000  0.47989000  1.0
  O  O226  1  0.17382000  0.58270000  0.57962000  1.0
  O  O227  1  0.04040000  0.39828000  0.58351000  1.0
  O  O228  1  0.76991000  0.24717000  0.94594000  1.0
  O  O229  1  0.81907000  0.39316000  0.02011000  1.0
  O  O230  1  0.41729000  0.82620000  0.92037000  1.0
  O  O231  1  0.60173000  0.95961000  0.91649000  1.0
