# generated using pymatgen
data_Ga2P2H13C4N3O8
_symmetry_space_group_name_H-M   'P 1'
_cell_length_a   13.47550000
_cell_length_b   14.21000000
_cell_length_c   14.21024428
_cell_angle_alpha   110.50031459
_cell_angle_beta   108.41994577
_cell_angle_gamma   108.41900000
_symmetry_Int_Tables_number   1
_chemical_formula_structural   Ga2P2H13C4N3O8
_chemical_formula_sum   'Ga12 P12 H78 C24 N18 O48'
_cell_volume   2121.29771431
_cell_formula_units_Z   6
loop_
 _symmetry_equiv_pos_site_id
 _symmetry_equiv_pos_as_xyz
  1  'x, y, z'
loop_
 _atom_site_type_symbol
 _atom_site_label
 _atom_site_symmetry_multiplicity
 _atom_site_fract_x
 _atom_site_fract_y
 _atom_site_fract_z
 _atom_site_occupancy
  Ga  Ga0  1  0.97670000  0.83062000  0.45706000  1.0
  Ga  Ga1  1  0.14599000  0.62640000  0.16933000  1.0
  Ga  Ga2  1  0.51963000  0.54293000  0.37358000  1.0
  Ga  Ga3  1  0.02331000  0.16938000  0.54294000  1.0
  Ga  Ga4  1  0.85401000  0.37361000  0.83067000  1.0
  Ga  Ga5  1  0.48036000  0.45707000  0.62641000  1.0
  Ga  Ga6  1  0.31892000  0.12977000  0.58547000  1.0
  Ga  Ga7  1  0.18908000  0.45567000  0.87027000  1.0
  Ga  Ga8  1  0.73341000  0.41459000  0.54430000  1.0
  Ga  Ga9  1  0.68108000  0.87023000  0.41453000  1.0
  Ga  Ga10  1  0.81092000  0.54433000  0.12973000  1.0
  Ga  Ga11  1  0.26659000  0.58541000  0.45570000  1.0
  P  P12  1  0.11926000  0.05500000  0.66081000  1.0
  P  P13  1  0.06433000  0.60589000  0.94511000  1.0
  P  P14  1  0.45841000  0.33913000  0.39407000  1.0
  P  P15  1  0.88075000  0.94501000  0.33920000  1.0
  P  P16  1  0.93567000  0.39410000  0.05490000  1.0
  P  P17  1  0.54158000  0.66084000  0.60591000  1.0
  P  P18  1  0.71014000  0.64550000  0.31165000  1.0
  P  P19  1  0.06464000  0.66608000  0.35452000  1.0
  P  P20  1  0.39848000  0.68837000  0.33384000  1.0
  P  P21  1  0.28986000  0.35450000  0.68835000  1.0
  P  P22  1  0.93536000  0.33392000  0.64548000  1.0
  P  P23  1  0.60152000  0.31163000  0.66616000  1.0
  H  H24  1  0.48226000  0.16370000  0.76877000  1.0
  H  H25  1  0.31857000  0.60490000  0.83629000  1.0
  H  H26  1  0.71370000  0.23135000  0.39495000  1.0
  H  H27  1  0.51773000  0.83629000  0.23123000  1.0
  H  H28  1  0.68143000  0.39510000  0.16371000  1.0
  H  H29  1  0.28630000  0.76866000  0.60505000  1.0
  H  H30  1  0.34718000  0.10764000  0.76278000  1.0
  H  H31  1  0.23951000  0.65506000  0.89229000  1.0
  H  H32  1  0.58450000  0.23720000  0.34486000  1.0
  H  H33  1  0.65282000  0.89236000  0.23722000  1.0
  H  H34  1  0.76049000  0.34494000  0.10771000  1.0
  H  H35  1  0.41549000  0.76280000  0.65514000  1.0
  H  H36  1  0.21831000  0.90868000  0.45660000  1.0
  H  H37  1  0.30951000  0.54782000  0.09133000  1.0
  H  H38  1  0.76168000  0.54349000  0.45213000  1.0
  H  H39  1  0.78169000  0.09132000  0.54340000  1.0
  H  H40  1  0.69049000  0.45218000  0.90867000  1.0
  H  H41  1  0.23832000  0.45651000  0.54787000  1.0
  H  H42  1  0.29520000  0.19411000  0.43406000  1.0
  H  H43  1  0.10093000  0.23992000  0.80592000  1.0
  H  H44  1  0.86106000  0.56591000  0.76002000  1.0
  H  H45  1  0.70480000  0.80589000  0.56594000  1.0
  H  H46  1  0.89907000  0.76008000  0.19409000  1.0
  H  H47  1  0.13894000  0.43409000  0.23998000  1.0
  H  H48  1  0.16087000  0.12312000  0.41967000  1.0
  H  H49  1  0.03771000  0.29661000  0.87704000  1.0
  H  H50  1  0.74116000  0.58041000  0.70353000  1.0
  H  H51  1  0.83913000  0.87688000  0.58033000  1.0
  H  H52  1  0.96229000  0.70339000  0.12296000  1.0
  H  H53  1  0.25884000  0.41959000  0.29647000  1.0
  H  H54  1  0.45493000  0.97978000  0.72683000  1.0
  H  H55  1  0.47501000  0.74697000  0.02022000  1.0
  H  H56  1  0.72801000  0.27332000  0.25289000  1.0
  H  H57  1  0.54507000  0.02021000  0.27317000  1.0
  H  H58  1  0.52500000  0.25303000  0.97978000  1.0
  H  H59  1  0.27199000  0.72667000  0.74711000  1.0
  H  H60  1  0.29793000  0.92578000  0.64905000  1.0
  H  H61  1  0.37195000  0.72316000  0.07418000  1.0
  H  H62  1  0.64888000  0.35118000  0.27692000  1.0
  H  H63  1  0.70207000  0.07422000  0.35095000  1.0
  H  H64  1  0.62804000  0.27683000  0.92581000  1.0
  H  H65  1  0.35112000  0.64882000  0.72308000  1.0
  H  H66  1  0.28249000  0.89302000  0.31407000  1.0
  H  H67  1  0.38931000  0.42090000  0.10694000  1.0
  H  H68  1  0.96831000  0.68605000  0.57900000  1.0
  H  H69  1  0.71752000  0.10699000  0.68594000  1.0
  H  H70  1  0.61069000  0.57910000  0.89306000  1.0
  H  H71  1  0.03169000  0.31395000  0.42100000  1.0
  H  H72  1  0.39459000  0.04050000  0.40929000  1.0
  H  H73  1  0.35397000  0.36867000  0.95945000  1.0
  H  H74  1  0.98527000  0.59082000  0.63125000  1.0
  H  H75  1  0.60540000  0.95950000  0.59071000  1.0
  H  H76  1  0.64603000  0.63133000  0.04055000  1.0
  H  H77  1  0.01473000  0.40918000  0.36875000  1.0
  H  H78  1  0.38087000  0.87067000  0.51449000  1.0
  H  H79  1  0.51004000  0.64375000  0.12934000  1.0
  H  H80  1  0.86630000  0.48563000  0.35620000  1.0
  H  H81  1  0.61913000  0.12933000  0.48551000  1.0
  H  H82  1  0.48997000  0.35626000  0.87066000  1.0
  H  H83  1  0.13370000  0.51437000  0.64380000  1.0
  H  H84  1  0.47894000  0.01931000  0.57438000  1.0
  H  H85  1  0.45955000  0.55502000  0.98070000  1.0
  H  H86  1  0.90454000  0.42567000  0.44488000  1.0
  H  H87  1  0.52106000  0.98069000  0.42562000  1.0
  H  H88  1  0.54045000  0.44498000  0.01930000  1.0
  H  H89  1  0.09546000  0.57433000  0.55512000  1.0
  H  H90  1  0.22205000  0.02848000  0.26608000  1.0
  H  H91  1  0.19344000  0.23750000  0.97146000  1.0
  H  H92  1  0.95587000  0.73394000  0.76247000  1.0
  H  H93  1  0.77796000  0.97152000  0.73392000  1.0
  H  H94  1  0.80655000  0.76250000  0.02854000  1.0
  H  H95  1  0.04414000  0.26606000  0.23753000  1.0
  H  H96  1  0.12442000  0.94948000  0.30359000  1.0
  H  H97  1  0.17483000  0.35399000  0.05055000  1.0
  H  H98  1  0.82077000  0.69653000  0.64603000  1.0
  H  H99  1  0.87558000  0.05052000  0.69641000  1.0
  H  H100  1  0.82516000  0.64601000  0.94945000  1.0
  H  H101  1  0.17923000  0.30347000  0.35397000  1.0
  C  C102  1  0.38556000  0.98646000  0.66737000  1.0
  C  C103  1  0.39897000  0.68083000  0.01354000  1.0
  C  C104  1  0.71817000  0.33276000  0.31912000  1.0
  C  C105  1  0.61444000  0.01354000  0.33263000  1.0
  C  C106  1  0.60103000  0.31917000  0.98646000  1.0
  C  C107  1  0.28183000  0.66723000  0.68088000  1.0
  C  C108  1  0.39231000  0.95758000  0.55581000  1.0
  C  C109  1  0.43461000  0.59817000  0.04243000  1.0
  C  C110  1  0.83647000  0.44428000  0.40178000  1.0
  C  C111  1  0.60769000  0.04242000  0.44419000  1.0
  C  C112  1  0.56539000  0.40183000  0.95757000  1.0
  C  C113  1  0.16353000  0.55572000  0.59822000  1.0
  C  C114  1  0.30459000  0.97637000  0.38108000  1.0
  C  C115  1  0.32809000  0.40460000  0.02360000  1.0
  C  C116  1  0.92345000  0.61902000  0.59535000  1.0
  C  C117  1  0.69540000  0.02362000  0.61892000  1.0
  C  C118  1  0.67190000  0.59540000  0.97640000  1.0
  C  C119  1  0.07655000  0.38098000  0.40465000  1.0
  C  C120  1  0.21548000  0.01506000  0.33586000  1.0
  C  C121  1  0.20030000  0.32072000  0.98493000  1.0
  C  C122  1  0.87952000  0.66419000  0.67927000  1.0
  C  C123  1  0.78452000  0.98494000  0.66414000  1.0
  C  C124  1  0.79970000  0.67928000  0.01507000  1.0
  C  C125  1  0.12048000  0.33581000  0.32073000  1.0
  N  N126  1  0.39541000  0.10135000  0.71839000  1.0
  N  N127  1  0.29402000  0.61694000  0.89863000  1.0
  N  N128  1  0.67712000  0.28167000  0.38299000  1.0
  N  N129  1  0.60459000  0.89865000  0.28161000  1.0
  N  N130  1  0.70598000  0.38306000  0.10137000  1.0
  N  N131  1  0.32289000  0.71833000  0.61701000  1.0
  N  N132  1  0.30061000  0.97177000  0.48178000  1.0
  N  N133  1  0.32874000  0.50992000  0.02824000  1.0
  N  N134  1  0.81881000  0.51831000  0.49005000  1.0
  N  N135  1  0.69939000  0.02822000  0.51822000  1.0
  N  N136  1  0.67127000  0.49009000  0.97177000  1.0
  N  N137  1  0.18119000  0.48169000  0.50995000  1.0
  N  N138  1  0.23958000  0.12213000  0.43064000  1.0
  N  N139  1  0.11735000  0.30850000  0.87792000  1.0
  N  N140  1  0.80886000  0.56938000  0.69151000  1.0
  N  N141  1  0.76041000  0.87786000  0.56935000  1.0
  N  N142  1  0.88265000  0.69150000  0.12208000  1.0
  N  N143  1  0.19114000  0.43062000  0.30849000  1.0
  O  O144  1  0.16015000  0.04479000  0.56812000  1.0
  O  O145  1  0.11550000  0.52350000  0.95547000  1.0
  O  O146  1  0.59199000  0.43185000  0.47643000  1.0
  O  O147  1  0.83984000  0.95520000  0.43187000  1.0
  O  O148  1  0.88450000  0.47651000  0.04453000  1.0
  O  O149  1  0.40801000  0.56815000  0.52357000  1.0
  O  O150  1  0.01760000  0.92789000  0.60706000  1.0
  O  O151  1  0.08955000  0.67921000  0.07215000  1.0
  O  O152  1  0.41040000  0.39299000  0.32085000  1.0
  O  O153  1  0.98239000  0.07211000  0.39293000  1.0
  O  O154  1  0.91043000  0.32078000  0.92784000  1.0
  O  O155  1  0.58960000  0.60702000  0.67915000  1.0
  O  O156  1  0.05484000  0.13177000  0.65881000  1.0
  O  O157  1  0.92321000  0.52706000  0.86819000  1.0
  O  O158  1  0.39615000  0.34111000  0.47297000  1.0
  O  O159  1  0.94516000  0.86823000  0.34119000  1.0
  O  O160  1  0.07679000  0.47295000  0.13181000  1.0
  O  O161  1  0.60385000  0.65889000  0.52703000  1.0
  O  O162  1  0.21405000  0.10186000  0.77990000  1.0
  O  O163  1  0.11241000  0.67817000  0.89831000  1.0
  O  O164  1  0.43413000  0.22007000  0.32177000  1.0
  O  O165  1  0.78594000  0.89814000  0.22009000  1.0
  O  O166  1  0.88760000  0.32184000  0.10168000  1.0
  O  O167  1  0.56587000  0.77995000  0.67824000  1.0
  O  O168  1  0.83435000  0.71158000  0.42114000  1.0
  O  O169  1  0.12282000  0.70956000  0.28850000  1.0
  O  O170  1  0.41326000  0.57890000  0.29042000  1.0
  O  O171  1  0.16565000  0.28842000  0.57886000  1.0
  O  O172  1  0.87718000  0.29044000  0.71150000  1.0
  O  O173  1  0.58674000  0.42110000  0.70958000  1.0
  O  O174  1  0.63198000  0.54372000  0.32197000  1.0
  O  O175  1  0.08820000  0.77814000  0.45633000  1.0
  O  O176  1  0.30993000  0.67803000  0.22178000  1.0
  O  O177  1  0.36803000  0.45629000  0.67804000  1.0
  O  O178  1  0.91180000  0.22186000  0.54367000  1.0
  O  O179  1  0.69008000  0.32198000  0.77823000  1.0
  O  O180  1  0.71587000  0.59660000  0.20085000  1.0
  O  O181  1  0.11924000  0.60417000  0.40343000  1.0
  O  O182  1  0.51491000  0.79919000  0.39565000  1.0
  O  O183  1  0.28413000  0.40340000  0.79915000  1.0
  O  O184  1  0.88076000  0.39583000  0.59657000  1.0
  O  O185  1  0.48510000  0.20082000  0.60435000  1.0
  O  O186  1  0.65083000  0.72156000  0.31015000  1.0
  O  O187  1  0.92930000  0.58850000  0.27838000  1.0
  O  O188  1  0.34076000  0.68986000  0.41149000  1.0
  O  O189  1  0.34917000  0.27844000  0.68985000  1.0
  O  O190  1  0.07071000  0.41150000  0.72162000  1.0
  O  O191  1  0.65924000  0.31014000  0.58851000  1.0
