# generated using pymatgen
data_CdFeH26C29N4O5
_symmetry_space_group_name_H-M   'P 1'
_cell_length_a   13.88590000
_cell_length_b   14.31830000
_cell_length_c   16.31750000
_cell_angle_alpha   98.86460000
_cell_angle_beta   89.99990000
_cell_angle_gamma   89.99960000
_symmetry_Int_Tables_number   1
_chemical_formula_structural   CdFeH26C29N4O5
_chemical_formula_sum   'Cd4 Fe4 H104 C116 N16 O20'
_cell_volume   3205.53371301
_cell_formula_units_Z   4
loop_
 _symmetry_equiv_pos_site_id
 _symmetry_equiv_pos_as_xyz
  1  'x, y, z'
loop_
 _atom_site_type_symbol
 _atom_site_label
 _atom_site_symmetry_multiplicity
 _atom_site_fract_x
 _atom_site_fract_y
 _atom_site_fract_z
 _atom_site_occupancy
  Cd  Cd0  1  0.34294000  0.47138000  0.41322000  1.0
  Cd  Cd1  1  0.84294000  0.02862000  0.08678000  1.0
  Cd  Cd2  1  0.65706000  0.52862000  0.58678000  1.0
  Cd  Cd3  1  0.15706000  0.97138000  0.91322000  1.0
  Fe  Fe4  1  0.60920000  0.72549000  0.31101000  1.0
  Fe  Fe5  1  0.10920000  0.77451000  0.18899000  1.0
  Fe  Fe6  1  0.39080000  0.27451000  0.68899000  1.0
  Fe  Fe7  1  0.89080000  0.22549000  0.81101000  1.0
  H  H8  1  0.44576000  0.73067000  0.21196000  1.0
  H  H9  1  0.94576000  0.76934000  0.28804000  1.0
  H  H10  1  0.55424000  0.26933000  0.78804000  1.0
  H  H11  1  0.05424000  0.23066000  0.71196000  1.0
  H  H12  1  0.56317000  0.88394000  0.23756000  1.0
  H  H13  1  0.06317000  0.61606000  0.26244000  1.0
  H  H14  1  0.43683000  0.11606000  0.76243000  1.0
  H  H15  1  0.93683000  0.38394000  0.73756000  1.0
  H  H16  1  0.61995000  0.90896000  0.39847000  1.0
  H  H17  1  0.11996000  0.59103000  0.10154000  1.0
  H  H18  1  0.38005000  0.09103000  0.60153000  1.0
  H  H19  1  0.88005000  0.40897000  0.89846000  1.0
  H  H20  1  0.53926000  0.77103000  0.47149000  1.0
  H  H21  1  0.03926000  0.72897000  0.02851000  1.0
  H  H22  1  0.46074000  0.22897000  0.52851000  1.0
  H  H23  1  0.96074000  0.27103000  0.97149000  1.0
  H  H24  1  0.39585000  0.47089000  0.72859000  1.0
  H  H25  1  0.89584000  0.02911000  0.77140000  1.0
  H  H26  1  0.60416000  0.52911000  0.27141000  1.0
  H  H27  1  0.10416000  0.97089000  0.22860000  1.0
  H  H28  1  0.35125000  0.36781000  0.84978000  1.0
  H  H29  1  0.85124000  0.13219000  0.65021000  1.0
  H  H30  1  0.64875000  0.63219000  0.15022000  1.0
  H  H31  1  0.14875000  0.86781000  0.34978000  1.0
  H  H32  1  0.23515000  0.22334000  0.78266000  1.0
  H  H33  1  0.73514000  0.27666000  0.71734000  1.0
  H  H34  1  0.76485000  0.77666000  0.21734000  1.0
  H  H35  1  0.26485000  0.72333000  0.28266000  1.0
  H  H36  1  0.20867000  0.23748000  0.62089000  1.0
  H  H37  1  0.70866000  0.26252000  0.87911000  1.0
  H  H38  1  0.79134000  0.76252000  0.37911000  1.0
  H  H39  1  0.29133000  0.73748000  0.12089000  1.0
  H  H40  1  0.38627000  0.24059000  0.35955000  1.0
  H  H41  1  0.88628000  0.25941000  0.14045000  1.0
  H  H42  1  0.61372000  0.75941000  0.64045000  1.0
  H  H43  1  0.11372000  0.74060000  0.85955000  1.0
  H  H44  1  0.23337000  0.49359000  0.22452000  1.0
  H  H45  1  0.73338000  0.00641000  0.27548000  1.0
  H  H46  1  0.76662000  0.50641000  0.77548000  1.0
  H  H47  1  0.26662000  0.99360000  0.72452000  1.0
  H  H48  1  0.12634000  0.44656000  0.10001000  1.0
  H  H49  1  0.62634000  0.05343000  0.39999000  1.0
  H  H50  1  0.87366000  0.55343000  0.89999000  1.0
  H  H51  1  0.37366000  0.94657000  0.60001000  1.0
  H  H52  1  0.10401000  0.27873000  0.04037000  1.0
  H  H53  1  0.60401000  0.22127000  0.45963000  1.0
  H  H54  1  0.89599000  0.72126000  0.95963000  1.0
  H  H55  1  0.39599000  0.77874000  0.54037000  1.0
  H  H56  1  0.18240000  0.15046000  0.10204000  1.0
  H  H57  1  0.68240000  0.34954000  0.39796000  1.0
  H  H58  1  0.81761000  0.84954000  0.89796000  1.0
  H  H59  1  0.31761000  0.65046000  0.60205000  1.0
  H  H60  1  0.24898000  0.06771000  0.19718000  1.0
  H  H61  1  0.74898000  0.43229000  0.30282000  1.0
  H  H62  1  0.75102000  0.93229000  0.80282000  1.0
  H  H63  1  0.25102000  0.56772000  0.69718000  1.0
  H  H64  1  0.28323000  0.07664000  0.30241000  1.0
  H  H65  1  0.78323000  0.42336000  0.19759000  1.0
  H  H66  1  0.71677000  0.92336000  0.69759000  1.0
  H  H67  1  0.21677000  0.57664000  0.80241000  1.0
  H  H68  1  0.39859000  0.97695000  0.22166000  1.0
  H  H69  1  0.89859000  0.52305000  0.27834000  1.0
  H  H70  1  0.60141000  0.02305000  0.77834000  1.0
  H  H71  1  0.10141000  0.47695000  0.72166000  1.0
  H  H72  1  0.45875000  0.08369000  0.25962000  1.0
  H  H73  1  0.95876000  0.41631000  0.24038000  1.0
  H  H74  1  0.54124000  0.91631000  0.74038000  1.0
  H  H75  1  0.04125000  0.58369000  0.75962000  1.0
  H  H76  1  0.37358000  0.03389000  0.08392000  1.0
  H  H77  1  0.87358000  0.46611000  0.41608000  1.0
  H  H78  1  0.62642000  0.96611000  0.91608000  1.0
  H  H79  1  0.12642000  0.53389000  0.58392000  1.0
  H  H80  1  0.43814000  0.13835000  0.12061000  1.0
  H  H81  1  0.93814000  0.36165000  0.37939000  1.0
  H  H82  1  0.56186000  0.86165000  0.87939000  1.0
  H  H83  1  0.06186000  0.63835000  0.62060000  1.0
  H  H84  1  0.62126000  0.13072000  0.12628000  1.0
  H  H85  1  0.12126000  0.36928000  0.37373000  1.0
  H  H86  1  0.37874000  0.86928000  0.87373000  1.0
  H  H87  1  0.87874000  0.63072000  0.62628000  1.0
  H  H88  1  0.38897000  0.85571000  0.06271000  1.0
  H  H89  1  0.88897000  0.64429000  0.43729000  1.0
  H  H90  1  0.61103000  0.14429000  0.93729000  1.0
  H  H91  1  0.11103000  0.35571000  0.56271000  1.0
  H  H92  1  0.45699000  0.69594000  0.01689000  1.0
  H  H93  1  0.95699000  0.80406000  0.48312000  1.0
  H  H94  1  0.54301000  0.30406000  0.98312000  1.0
  H  H95  1  0.04301000  0.19594000  0.51688000  1.0
  H  H96  1  0.63330000  0.66991000  0.00464000  1.0
  H  H97  1  0.13330000  0.83009000  0.49536000  1.0
  H  H98  1  0.36669000  0.33009000  0.99536000  1.0
  H  H99  1  0.86670000  0.16991000  0.50464000  1.0
  H  H100  1  0.74864000  0.80414000  0.04025000  1.0
  H  H101  1  0.24864000  0.69586000  0.45975000  1.0
  H  H102  1  0.25135000  0.19586000  0.95975000  1.0
  H  H103  1  0.75136000  0.30414000  0.54026000  1.0
  H  H104  1  0.51404000  0.38764000  0.47610000  1.0
  H  H105  1  0.01404000  0.11235000  0.02391000  1.0
  H  H106  1  0.48596000  0.61235000  0.52390000  1.0
  H  H107  1  0.98596000  0.88764000  0.97610000  1.0
  H  H108  1  0.54874000  0.45023000  0.41341000  1.0
  H  H109  1  0.04874000  0.04977000  0.08659000  1.0
  H  H110  1  0.45126000  0.54977000  0.58659000  1.0
  H  H111  1  0.95126000  0.95023000  0.91341000  1.0
  C  C112  1  0.41700000  0.63790000  0.36037000  1.0
  C  C113  1  0.91701000  0.86210000  0.13962000  1.0
  C  C114  1  0.58299000  0.36210000  0.63962000  1.0
  C  C115  1  0.08299000  0.13790000  0.86038000  1.0
  C  C116  1  0.46934000  0.72455000  0.34730000  1.0
  C  C117  1  0.96934000  0.77545000  0.15270000  1.0
  C  C118  1  0.53066000  0.27544000  0.65270000  1.0
  C  C119  1  0.03065000  0.22455000  0.84730000  1.0
  C  C120  1  0.47827000  0.76137000  0.27031000  1.0
  C  C121  1  0.97827000  0.73863000  0.22969000  1.0
  C  C122  1  0.52173000  0.23863000  0.72968000  1.0
  C  C123  1  0.02173000  0.26137000  0.77031000  1.0
  C  C124  1  0.53963000  0.84256000  0.28429000  1.0
  C  C125  1  0.03963000  0.65744000  0.21572000  1.0
  C  C126  1  0.46037000  0.15744000  0.71571000  1.0
  C  C127  1  0.96037000  0.34256000  0.78428000  1.0
  C  C128  1  0.56959000  0.85598000  0.36952000  1.0
  C  C129  1  0.06960000  0.64402000  0.13049000  1.0
  C  C130  1  0.43041000  0.14402000  0.63048000  1.0
  C  C131  1  0.93041000  0.35598000  0.86951000  1.0
  C  C132  1  0.52681000  0.78338000  0.40838000  1.0
  C  C133  1  0.02681000  0.71662000  0.09163000  1.0
  C  C134  1  0.47319000  0.21662000  0.59163000  1.0
  C  C135  1  0.97319000  0.28338000  0.90837000  1.0
  C  C136  1  0.34752000  0.41059000  0.72302000  1.0
  C  C137  1  0.84752000  0.08941000  0.77698000  1.0
  C  C138  1  0.65248000  0.58942000  0.27698000  1.0
  C  C139  1  0.15248000  0.91058000  0.22302000  1.0
  C  C140  1  0.32405000  0.35610000  0.78668000  1.0
  C  C141  1  0.82405000  0.14390000  0.71331000  1.0
  C  C142  1  0.67595000  0.64390000  0.21331000  1.0
  C  C143  1  0.17595000  0.85610000  0.28669000  1.0
  C  C144  1  0.26309000  0.27940000  0.75146000  1.0
  C  C145  1  0.76309000  0.22061000  0.74853000  1.0
  C  C146  1  0.73691000  0.72060000  0.24853000  1.0
  C  C147  1  0.23691000  0.77939000  0.25147000  1.0
  C  C148  1  0.24886000  0.28628000  0.66573000  1.0
  C  C149  1  0.74886000  0.21372000  0.83427000  1.0
  C  C150  1  0.75114000  0.71372000  0.33427000  1.0
  C  C151  1  0.25114000  0.78628000  0.16573000  1.0
  C  C152  1  0.30045000  0.36820000  0.64756000  1.0
  C  C153  1  0.80045000  0.13180000  0.85243000  1.0
  C  C154  1  0.69955000  0.63180000  0.35243000  1.0
  C  C155  1  0.19955000  0.86820000  0.14757000  1.0
  C  C156  1  0.30869000  0.40008000  0.56552000  1.0
  C  C157  1  0.80869000  0.09992000  0.93447000  1.0
  C  C158  1  0.69131000  0.59992000  0.43447000  1.0
  C  C159  1  0.19131000  0.90008000  0.06553000  1.0
  C  C160  1  0.34302000  0.26197000  0.31024000  1.0
  C  C161  1  0.84303000  0.23803000  0.18976000  1.0
  C  C162  1  0.65697000  0.73803000  0.68977000  1.0
  C  C163  1  0.15697000  0.76197000  0.81024000  1.0
  C  C164  1  0.26442000  0.34723000  0.23364000  1.0
  C  C165  1  0.76442000  0.15277000  0.26636000  1.0
  C  C166  1  0.73558000  0.65277000  0.76636000  1.0
  C  C167  1  0.23558000  0.84724000  0.73364000  1.0
  C  C168  1  0.22080000  0.41986000  0.19840000  1.0
  C  C169  1  0.72080000  0.08014000  0.30160000  1.0
  C  C170  1  0.77920000  0.58014000  0.80160000  1.0
  C  C171  1  0.27920000  0.91986000  0.69840000  1.0
  C  C172  1  0.16270000  0.39272000  0.12913000  1.0
  C  C173  1  0.66270000  0.10727000  0.37087000  1.0
  C  C174  1  0.83730000  0.60727000  0.87087000  1.0
  C  C175  1  0.33730000  0.89273000  0.62913000  1.0
  C  C176  1  0.14906000  0.29702000  0.09513000  1.0
  C  C177  1  0.64906000  0.20298000  0.40487000  1.0
  C  C178  1  0.85094000  0.70298000  0.90487000  1.0
  C  C179  1  0.35094000  0.79702000  0.59513000  1.0
  C  C180  1  0.19287000  0.22420000  0.12895000  1.0
  C  C181  1  0.69287000  0.27580000  0.37106000  1.0
  C  C182  1  0.80713000  0.77580000  0.87105000  1.0
  C  C183  1  0.30713000  0.72420000  0.62895000  1.0
  C  C184  1  0.25013000  0.25123000  0.19876000  1.0
  C  C185  1  0.75014000  0.24877000  0.30124000  1.0
  C  C186  1  0.74987000  0.74877000  0.80124000  1.0
  C  C187  1  0.24987000  0.75124000  0.69876000  1.0
  C  C188  1  0.30435000  0.09592000  0.24232000  1.0
  C  C189  1  0.80435000  0.40408000  0.25768000  1.0
  C  C190  1  0.69565000  0.90408000  0.75768000  1.0
  C  C191  1  0.19565000  0.59592000  0.74232000  1.0
  C  C192  1  0.40219000  0.05260000  0.21649000  1.0
  C  C193  1  0.90219000  0.44740000  0.28351000  1.0
  C  C194  1  0.59781000  0.94740000  0.78351000  1.0
  C  C195  1  0.09781000  0.55260000  0.71649000  1.0
  C  C196  1  0.42978000  0.06374000  0.12773000  1.0
  C  C197  1  0.92978000  0.43626000  0.37227000  1.0
  C  C198  1  0.57022000  0.93626000  0.87227000  1.0
  C  C199  1  0.07022000  0.56374000  0.62774000  1.0
  C  C200  1  0.60990000  0.05519000  0.10935000  1.0
  C  C201  1  0.10990000  0.44481000  0.39065000  1.0
  C  C202  1  0.39010000  0.94481000  0.89065000  1.0
  C  C203  1  0.89010000  0.55519000  0.60935000  1.0
  C  C204  1  0.53234000  0.91901000  0.07877000  1.0
  C  C205  1  0.03234000  0.58099000  0.42124000  1.0
  C  C206  1  0.46765000  0.08099000  0.92124000  1.0
  C  C207  1  0.96766000  0.41901000  0.57876000  1.0
  C  C208  1  0.46664000  0.84505000  0.05943000  1.0
  C  C209  1  0.96663000  0.65495000  0.44057000  1.0
  C  C210  1  0.53336000  0.15495000  0.94057000  1.0
  C  C211  1  0.03337000  0.34505000  0.55943000  1.0
  C  C212  1  0.50566000  0.75571000  0.03308000  1.0
  C  C213  1  0.00566000  0.74429000  0.46692000  1.0
  C  C214  1  0.49434000  0.24429000  0.96692000  1.0
  C  C215  1  0.99435000  0.25572000  0.53308000  1.0
  C  C216  1  0.60602000  0.74078000  0.02655000  1.0
  C  C217  1  0.10602000  0.75922000  0.47345000  1.0
  C  C218  1  0.39397000  0.25922000  0.97345000  1.0
  C  C219  1  0.89398000  0.24078000  0.52655000  1.0
  C  C220  1  0.67120000  0.81474000  0.04600000  1.0
  C  C221  1  0.17120000  0.68526000  0.45400000  1.0
  C  C222  1  0.32880000  0.18526000  0.95400000  1.0
  C  C223  1  0.82880000  0.31474000  0.54600000  1.0
  C  C224  1  0.63325000  0.90498000  0.07167000  1.0
  C  C225  1  0.13325000  0.59502000  0.42833000  1.0
  C  C226  1  0.36675000  0.09502000  0.92833000  1.0
  C  C227  1  0.86676000  0.40498000  0.57167000  1.0
  N  N228  1  0.32276000  0.35079000  0.30328000  1.0
  N  N229  1  0.82276000  0.14921000  0.19672000  1.0
  N  N230  1  0.67723000  0.64921000  0.69672000  1.0
  N  N231  1  0.17723000  0.85079000  0.80328000  1.0
  N  N232  1  0.30179000  0.19889000  0.24905000  1.0
  N  N233  1  0.80179000  0.30111000  0.25095000  1.0
  N  N234  1  0.69821000  0.80111000  0.75095000  1.0
  N  N235  1  0.19821000  0.69890000  0.74905000  1.0
  N  N236  1  0.52022000  0.01572000  0.10341000  1.0
  N  N237  1  0.02022000  0.48428000  0.39659000  1.0
  N  N238  1  0.47978000  0.98428000  0.89660000  1.0
  N  N239  1  0.97978000  0.51572000  0.60340000  1.0
  N  N240  1  0.67914000  0.99182000  0.09083000  1.0
  N  N241  1  0.17914000  0.50817000  0.40917000  1.0
  N  N242  1  0.32086000  0.00818000  0.90917000  1.0
  N  N243  1  0.82086000  0.49183000  0.59083000  1.0
  O  O244  1  0.37281000  0.58846000  0.30174000  1.0
  O  O245  1  0.87281000  0.91155000  0.19826000  1.0
  O  O246  1  0.62718000  0.41154000  0.69826000  1.0
  O  O247  1  0.12719000  0.08846000  0.80174000  1.0
  O  O248  1  0.41833000  0.61701000  0.43515000  1.0
  O  O249  1  0.91833000  0.88298000  0.06485000  1.0
  O  O250  1  0.58167000  0.38299000  0.56485000  1.0
  O  O251  1  0.08167000  0.11702000  0.93515000  1.0
  O  O252  1  0.34239000  0.48405000  0.56446000  1.0
  O  O253  1  0.84239000  0.01594000  0.93553000  1.0
  O  O254  1  0.65761000  0.51595000  0.43554000  1.0
  O  O255  1  0.15761000  0.98406000  0.06447000  1.0
  O  O256  1  0.28159000  0.34637000  0.50066000  1.0
  O  O257  1  0.78159000  0.15362000  0.99934000  1.0
  O  O258  1  0.71841000  0.65363000  0.49934000  1.0
  O  O259  1  0.21841000  0.84637000  0.00066000  1.0
  O  O260  1  0.49753000  0.40395000  0.42070000  1.0
  O  O261  1  0.99753000  0.09605000  0.07930000  1.0
  O  O262  1  0.50247000  0.59605000  0.57930000  1.0
  O  O263  1  0.00247000  0.90395000  0.92070000  1.0
