# generated using pymatgen
data_ZnH18C24Br2(N3O2)2
_symmetry_space_group_name_H-M   'P 1'
_cell_length_a   5.77333000
_cell_length_b   25.18160000
_cell_length_c   27.02276975
_cell_angle_alpha   89.28102552
_cell_angle_beta   83.86108260
_cell_angle_gamma   83.42700000
_symmetry_Int_Tables_number   1
_chemical_formula_structural   ZnH18C24Br2(N3O2)2
_chemical_formula_sum   'Zn6 H108 C144 Br12 N36 O24'
_cell_volume   3880.41173151
_cell_formula_units_Z   6
loop_
 _symmetry_equiv_pos_site_id
 _symmetry_equiv_pos_as_xyz
  1  'x, y, z'
loop_
 _atom_site_type_symbol
 _atom_site_label
 _atom_site_symmetry_multiplicity
 _atom_site_fract_x
 _atom_site_fract_y
 _atom_site_fract_z
 _atom_site_occupancy
  Zn  Zn0  1  0.31474000  0.24532000  0.27526000  1.0
  Zn  Zn1  1  0.83687000  0.75471000  0.72468000  1.0
  Zn  Zn2  1  0.34066000  0.74538000  0.22490000  1.0
  Zn  Zn3  1  0.30999000  0.25463000  0.77521000  1.0
  Zn  Zn4  1  0.87388000  0.49990000  0.49989000  1.0
  Zn  Zn5  1  0.12361000  0.99983000  0.99991000  1.0
  H  H6  1  0.33261000  0.35376000  0.23652000  1.0
  H  H7  1  0.92446000  0.64628000  0.76341000  1.0
  H  H8  1  0.31967000  0.85387000  0.26367000  1.0
  H  H9  1  0.43662000  0.14624000  0.73645000  1.0
  H  H10  1  0.54139000  0.43315000  0.24834000  1.0
  H  H11  1  0.22411000  0.56685000  0.75145000  1.0
  H  H12  1  0.54064000  0.93323000  0.25169000  1.0
  H  H13  1  0.72533000  0.06693000  0.74829000  1.0
  H  H14  1  0.93307000  0.34032000  0.35381000  1.0
  H  H15  1  0.62903000  0.65984000  0.64619000  1.0
  H  H16  1  0.03769000  0.84020000  0.14642000  1.0
  H  H17  1  0.02315000  0.15979000  0.85385000  1.0
  H  H18  1  0.70622000  0.26479000  0.33826000  1.0
  H  H19  1  0.31148000  0.73537000  0.66187000  1.0
  H  H20  1  0.79503000  0.76474000  0.16212000  1.0
  H  H21  1  0.72067000  0.23527000  0.83820000  1.0
  H  H22  1  0.66428000  0.40912000  0.45404000  1.0
  H  H23  1  0.52802000  0.59068000  0.54581000  1.0
  H  H24  1  0.86834000  0.90911000  0.04595000  1.0
  H  H25  1  0.82385000  0.09058000  0.95413000  1.0
  H  H26  1  0.35110000  0.40133000  0.39732000  1.0
  H  H27  1  0.15027000  0.59844000  0.60257000  1.0
  H  H28  1  0.49853000  0.90139000  0.10272000  1.0
  H  H29  1  0.50264000  0.09858000  0.89745000  1.0
  H  H30  1  0.33743000  0.57097000  0.37054000  1.0
  H  H31  1  0.27868000  0.42877000  0.62914000  1.0
  H  H32  1  0.45811000  0.07109000  0.12918000  1.0
  H  H33  1  0.65725000  0.92893000  0.87058000  1.0
  H  H34  1  0.65392000  0.57152000  0.42735000  1.0
  H  H35  1  0.65273000  0.42825000  0.57236000  1.0
  H  H36  1  0.83142000  0.07153000  0.07237000  1.0
  H  H37  1  0.97441000  0.92818000  0.92736000  1.0
  H  H38  1  0.73294000  0.71707000  0.29171000  1.0
  H  H39  1  0.74069000  0.28287000  0.70842000  1.0
  H  H40  1  0.77420000  0.21708000  0.20874000  1.0
  H  H41  1  0.20100000  0.78311000  0.79115000  1.0
  H  H42  1  0.94935000  0.63417000  0.32207000  1.0
  H  H43  1  0.90459000  0.36570000  0.67783000  1.0
  H  H44  1  0.02096000  0.13430000  0.17820000  1.0
  H  H45  1  0.33382000  0.86596000  0.82176000  1.0
  H  H46  1  0.50501000  0.54408000  0.24437000  1.0
  H  H47  1  0.29268000  0.45597000  0.75541000  1.0
  H  H48  1  0.49837000  0.04392000  0.25535000  1.0
  H  H49  1  0.79802000  0.95618000  0.74454000  1.0
  H  H50  1  0.31620000  0.63159000  0.21413000  1.0
  H  H51  1  0.16119000  0.36852000  0.78592000  1.0
  H  H52  1  0.27915000  0.13131000  0.28577000  1.0
  H  H53  1  0.69676000  0.86871000  0.71414000  1.0
  H  H54  1  0.58523000  0.66167000  0.44053000  1.0
  H  H55  1  0.68571000  0.33819000  0.55963000  1.0
  H  H56  1  0.77537000  0.16185000  0.05919000  1.0
  H  H57  1  0.99822000  0.83809000  0.94085000  1.0
  H  H58  1  0.70264000  0.69071000  0.52090000  1.0
  H  H59  1  0.91285000  0.30929000  0.47923000  1.0
  H  H60  1  0.97201000  0.19107000  0.97871000  1.0
  H  H61  1  0.14250000  0.80897000  0.02141000  1.0
  H  H62  1  0.43787000  0.75747000  0.57361000  1.0
  H  H63  1  0.76783000  0.24257000  0.42643000  1.0
  H  H64  1  0.75864000  0.25781000  0.92618000  1.0
  H  H65  1  0.94223000  0.74242000  0.07402000  1.0
  H  H66  1  0.04826000  0.79303000  0.54725000  1.0
  H  H67  1  0.38735000  0.20698000  0.45266000  1.0
  H  H68  1  0.34261000  0.29310000  0.95273000  1.0
  H  H69  1  0.58796000  0.70723000  0.04739000  1.0
  H  H70  1  0.92832000  0.76166000  0.46697000  1.0
  H  H71  1  0.15552000  0.23819000  0.53293000  1.0
  H  H72  1  0.14368000  0.26159000  0.03309000  1.0
  H  H73  1  0.43886000  0.73862000  0.96693000  1.0
  H  H74  1  0.70719000  0.45511000  0.14433000  1.0
  H  H75  1  0.30703000  0.54521000  0.85557000  1.0
  H  H76  1  0.60055000  0.95490000  0.35561000  1.0
  H  H77  1  0.91211000  0.04507000  0.64428000  1.0
  H  H78  1  0.47148000  0.52291000  0.09511000  1.0
  H  H79  1  0.08859000  0.47762000  0.90482000  1.0
  H  H80  1  0.31477000  0.02261000  0.40468000  1.0
  H  H81  1  0.74316000  0.97733000  0.59518000  1.0
  H  H82  1  0.57068000  0.61544000  0.08826000  1.0
  H  H83  1  0.27171000  0.38496000  0.91167000  1.0
  H  H84  1  0.40642000  0.11518000  0.41160000  1.0
  H  H85  1  0.93387000  0.88473000  0.58843000  1.0
  H  H86  1  0.91768000  0.64175000  0.12661000  1.0
  H  H87  1  0.68301000  0.35828000  0.87328000  1.0
  H  H88  1  0.79152000  0.14168000  0.37325000  1.0
  H  H89  1  0.30674000  0.85822000  0.62686000  1.0
  H  H90  1  0.15611000  0.57379000  0.17351000  1.0
  H  H91  1  0.90170000  0.42603000  0.82635000  1.0
  H  H92  1  0.07757000  0.07383000  0.32644000  1.0
  H  H93  1  0.47810000  0.92609000  0.67368000  1.0
  H  H94  1  0.30219000  0.44731000  0.03864000  1.0
  H  H95  1  0.78768000  0.55267000  0.96141000  1.0
  H  H96  1  0.09004000  0.94764000  0.46202000  1.0
  H  H97  1  0.50005000  0.05245000  0.53864000  1.0
  H  H98  1  0.14609000  0.39392000  0.11145000  1.0
  H  H99  1  0.65095000  0.60607000  0.88860000  1.0
  H  H100  1  0.00470000  0.89454000  0.38925000  1.0
  H  H101  1  0.28984000  0.10585000  0.61134000  1.0
  H  H102  1  0.40025000  0.32023000  0.14588000  1.0
  H  H103  1  0.86558000  0.67986000  0.85424000  1.0
  H  H104  1  0.29172000  0.82068000  0.35457000  1.0
  H  H105  1  0.46942000  0.17974000  0.64567000  1.0
  H  H106  1  0.81439000  0.29746000  0.10833000  1.0
  H  H107  1  0.21944000  0.70264000  0.89178000  1.0
  H  H108  1  0.66882000  0.79748000  0.39185000  1.0
  H  H109  1  0.86075000  0.20265000  0.60812000  1.0
  H  H110  1  0.96642000  0.34961000  0.03428000  1.0
  H  H111  1  0.35024000  0.65032000  0.96566000  1.0
  H  H112  1  0.74901000  0.84942000  0.46579000  1.0
  H  H113  1  0.06579000  0.15041000  0.53427000  1.0
  C  C114  1  0.46817000  0.35255000  0.26183000  1.0
  C  C115  1  0.08415000  0.64752000  0.73810000  1.0
  C  C116  1  0.48060000  0.85262000  0.23837000  1.0
  C  C117  1  0.57090000  0.14748000  0.76177000  1.0
  C  C118  1  0.58557000  0.39641000  0.26847000  1.0
  C  C119  1  0.25180000  0.60364000  0.73138000  1.0
  C  C120  1  0.60479000  0.89644000  0.23166000  1.0
  C  C121  1  0.73233000  0.10367000  0.76843000  1.0
  C  C122  1  0.75525000  0.39308000  0.30208000  1.0
  C  C123  1  0.45176000  0.60697000  0.69778000  1.0
  C  C124  1  0.80811000  0.89305000  0.19805000  1.0
  C  C125  1  0.89842000  0.10703000  0.80209000  1.0
  C  C126  1  0.80143000  0.34502000  0.32762000  1.0
  C  C127  1  0.47583000  0.65508000  0.67236000  1.0
  C  C128  1  0.87989000  0.84496000  0.17261000  1.0
  C  C129  1  0.89639000  0.15508000  0.82762000  1.0
  C  C130  1  0.67463000  0.30285000  0.31914000  1.0
  C  C131  1  0.29857000  0.69727000  0.68091000  1.0
  C  C132  1  0.74447000  0.80282000  0.18116000  1.0
  C  C133  1  0.72734000  0.19721000  0.81910000  1.0
  C  C134  1  0.86919000  0.44131000  0.31108000  1.0
  C  C135  1  0.62229000  0.55865000  0.68872000  1.0
  C  C136  1  0.93088000  0.94131000  0.18896000  1.0
  C  C137  1  0.06040000  0.05880000  0.81114000  1.0
  C  C138  1  0.86393000  0.53130000  0.30223000  1.0
  C  C139  1  0.69702000  0.46861000  0.69752000  1.0
  C  C140  1  0.91602000  0.03134000  0.19771000  1.0
  C  C141  1  0.14472000  0.96882000  0.80226000  1.0
  C  C142  1  0.12948000  0.48500000  0.34721000  1.0
  C  C143  1  0.96195000  0.51480000  0.65258000  1.0
  C  C144  1  0.22696000  0.98509000  0.15278000  1.0
  C  C145  1  0.36403000  0.01503000  0.84730000  1.0
  C  C146  1  0.58771000  0.44368000  0.43425000  1.0
  C  C147  1  0.46607000  0.55612000  0.56558000  1.0
  C  C148  1  0.77208000  0.94369000  0.06571000  1.0
  C  C149  1  0.78145000  0.05608000  0.93433000  1.0
  C  C150  1  0.41522000  0.43954000  0.40274000  1.0
  C  C151  1  0.25799000  0.56023000  0.59710000  1.0
  C  C152  1  0.56817000  0.93960000  0.09726000  1.0
  C  C153  1  0.60476000  0.06032000  0.90283000  1.0
  C  C154  1  0.32167000  0.48569000  0.37919000  1.0
  C  C155  1  0.18681000  0.51407000  0.62060000  1.0
  C  C156  1  0.45107000  0.98578000  0.12076000  1.0
  C  C157  1  0.55685000  0.01423000  0.87928000  1.0
  C  C158  1  0.40749000  0.53421000  0.38777000  1.0
  C  C159  1  0.32946000  0.46553000  0.61195000  1.0
  C  C160  1  0.54541000  0.03430000  0.11204000  1.0
  C  C161  1  0.69081000  0.96565000  0.88784000  1.0
  C  C162  1  0.58068000  0.53491000  0.41937000  1.0
  C  C163  1  0.53499000  0.46485000  0.58036000  1.0
  C  C164  1  0.75016000  0.03495000  0.08042000  1.0
  C  C165  1  0.86481000  0.96484000  0.91944000  1.0
  C  C166  1  0.68865000  0.67803000  0.28155000  1.0
  C  C167  1  0.64721000  0.32193000  0.71850000  1.0
  C  C168  1  0.71954000  0.17800000  0.21873000  1.0
  C  C169  1  0.11699000  0.82216000  0.78119000  1.0
  C  C170  1  0.81041000  0.63153000  0.29824000  1.0
  C  C171  1  0.73917000  0.36839000  0.70166000  1.0
  C  C172  1  0.85806000  0.13157000  0.20193000  1.0
  C  C173  1  0.19197000  0.86863000  0.79800000  1.0
  C  C174  1  0.74674000  0.58228000  0.28458000  1.0
  C  C175  1  0.61273000  0.41768000  0.71522000  1.0
  C  C176  1  0.78069000  0.08227000  0.21538000  1.0
  C  C177  1  0.07850000  0.91789000  0.78454000  1.0
  C  C178  1  0.56196000  0.58161000  0.25493000  1.0
  C  C179  1  0.39764000  0.41841000  0.74491000  1.0
  C  C180  1  0.56597000  0.08149000  0.24493000  1.0
  C  C181  1  0.89275000  0.91861000  0.75496000  1.0
  C  C182  1  0.45477000  0.62971000  0.23871000  1.0
  C  C183  1  0.32232000  0.37035000  0.76127000  1.0
  C  C184  1  0.44243000  0.12953000  0.26126000  1.0
  C  C185  1  0.83377000  0.87054000  0.73865000  1.0
  C  C186  1  0.25058000  0.71038000  0.45022000  1.0
  C  C187  1  0.40956000  0.28946000  0.54982000  1.0
  C  C188  1  0.44985000  0.21043000  0.04968000  1.0
  C  C189  1  0.71116000  0.78963000  0.95033000  1.0
  C  C190  1  0.46905000  0.69005000  0.46424000  1.0
  C  C191  1  0.62178000  0.30984000  0.53587000  1.0
  C  C192  1  0.68238000  0.19021000  0.03554000  1.0
  C  C193  1  0.90948000  0.80979000  0.96451000  1.0
  C  C194  1  0.53392000  0.70700000  0.50916000  1.0
  C  C195  1  0.74869000  0.29297000  0.49094000  1.0
  C  C196  1  0.79150000  0.20727000  0.99057000  1.0
  C  C197  1  0.99009000  0.79279000  0.00953000  1.0
  C  C198  1  0.38377000  0.74427000  0.53873000  1.0
  C  C199  1  0.66551000  0.25573000  0.46130000  1.0
  C  C200  1  0.67020000  0.24452000  0.96108000  1.0
  C  C201  1  0.87589000  0.75564000  0.03905000  1.0
  C  C202  1  0.16639000  0.76463000  0.52371000  1.0
  C  C203  1  0.45348000  0.23533000  0.47624000  1.0
  C  C204  1  0.43778000  0.26475000  0.97622000  1.0
  C  C205  1  0.67877000  0.73549000  0.02388000  1.0
  C  C206  1  0.09777000  0.74749000  0.47930000  1.0
  C  C207  1  0.32313000  0.25239000  0.52067000  1.0
  C  C208  1  0.32544000  0.24751000  0.02068000  1.0
  C  C209  1  0.59419000  0.75268000  0.97934000  1.0
  C  C210  1  0.94122000  0.51176000  0.16145000  1.0
  C  C211  1  0.61389000  0.48829000  0.83841000  1.0
  C  C212  1  0.85130000  0.01168000  0.33850000  1.0
  C  C213  1  0.20205000  0.98826000  0.66151000  1.0
  C  C214  1  0.75061000  0.49595000  0.13979000  1.0
  C  C215  1  0.38601000  0.50431000  0.86009000  1.0
  C  C216  1  0.63906000  0.99577000  0.36012000  1.0
  C  C217  1  0.99580000  0.00418000  0.63983000  1.0
  C  C218  1  0.61947000  0.53376000  0.11305000  1.0
  C  C219  1  0.26524000  0.46661000  0.88686000  1.0
  C  C220  1  0.48075000  0.03353000  0.38679000  1.0
  C  C221  1  0.90196000  0.96640000  0.61314000  1.0
  C  C222  1  0.67766000  0.58620000  0.10863000  1.0
  C  C223  1  0.37048000  0.41410000  0.89129000  1.0
  C  C224  1  0.53407000  0.08600000  0.39122000  1.0
  C  C225  1  0.01193000  0.91392000  0.60879000  1.0
  C  C226  1  0.87021000  0.60109000  0.13018000  1.0
  C  C227  1  0.59930000  0.39902000  0.86974000  1.0
  C  C228  1  0.74805000  0.10099000  0.36971000  1.0
  C  C229  1  0.21924000  0.89893000  0.63037000  1.0
  C  C230  1  0.00433000  0.56366000  0.15665000  1.0
  C  C231  1  0.72315000  0.43631000  0.84324000  1.0
  C  C232  1  0.90904000  0.06362000  0.34328000  1.0
  C  C233  1  0.31639000  0.93630000  0.65678000  1.0
  C  C234  1  0.64128000  0.40038000  0.03345000  1.0
  C  C235  1  0.07485000  0.59956000  0.96653000  1.0
  C  C236  1  0.42355000  0.90045000  0.46691000  1.0
  C  C237  1  0.79173000  0.09951000  0.53344000  1.0
  C  C238  1  0.41041000  0.41424000  0.05413000  1.0
  C  C239  1  0.87838000  0.58573000  0.94588000  1.0
  C  C240  1  0.21305000  0.91451000  0.44642000  1.0
  C  C241  1  0.57478000  0.08560000  0.55412000  1.0
  C  C242  1  0.32594000  0.38455000  0.09462000  1.0
  C  C243  1  0.80457000  0.61545000  0.90543000  1.0
  C  C244  1  0.16785000  0.88495000  0.40597000  1.0
  C  C245  1  0.46019000  0.11530000  0.59452000  1.0
  C  C246  1  0.47060000  0.34282000  0.11412000  1.0
  C  C247  1  0.92688000  0.65723000  0.88597000  1.0
  C  C248  1  0.33112000  0.84315000  0.38633000  1.0
  C  C249  1  0.56269000  0.15713000  0.61396000  1.0
  C  C250  1  0.70170000  0.32985000  0.09291000  1.0
  C  C251  1  0.12387000  0.67019000  0.90716000  1.0
  C  C252  1  0.54133000  0.82994000  0.40738000  1.0
  C  C253  1  0.78078000  0.17018000  0.59276000  1.0
  C  C254  1  0.78799000  0.35847000  0.05188000  1.0
  C  C255  1  0.19808000  0.64149000  0.94811000  1.0
  C  C256  1  0.58785000  0.85845000  0.44834000  1.0
  C  C257  1  0.89616000  0.14150000  0.55183000  1.0
  Br  Br258  1  0.15880000  0.21709000  0.35614000  1.0
  Br  Br259  1  0.73432000  0.78291000  0.64372000  1.0
  Br  Br260  1  0.26676000  0.71714000  0.14393000  1.0
  Br  Br261  1  0.12651000  0.28291000  0.85613000  1.0
  Br  Br262  1  0.08536000  0.27922000  0.21128000  1.0
  Br  Br263  1  0.57653000  0.72067000  0.78845000  1.0
  Br  Br264  1  0.04711000  0.77912000  0.28887000  1.0
  Br  Br265  1  0.11428000  0.22079000  0.71125000  1.0
  Br  Br266  1  0.00674000  0.58521000  0.48768000  1.0
  Br  Br267  1  0.07992000  0.41462000  0.51216000  1.0
  Br  Br268  1  0.24420000  0.08515000  0.01217000  1.0
  Br  Br269  1  0.34213000  0.91459000  0.98780000  1.0
  N  N270  1  0.51076000  0.30648000  0.28693000  1.0
  N  N271  1  0.10600000  0.69362000  0.71307000  1.0
  N  N272  1  0.54829000  0.80653000  0.21333000  1.0
  N  N273  1  0.56717000  0.19354000  0.78688000  1.0
  N  N274  1  0.04737000  0.43812000  0.33956000  1.0
  N  N275  1  0.82595000  0.56175000  0.66027000  1.0
  N  N276  1  0.13758000  0.93816000  0.16052000  1.0
  N  N277  1  0.23535000  0.06194000  0.83964000  1.0
  N  N278  1  0.04360000  0.53255000  0.32956000  1.0
  N  N279  1  0.90532000  0.46726000  0.67018000  1.0
  N  N280  1  0.12313000  0.03265000  0.17038000  1.0
  N  N281  1  0.32553000  0.96750000  0.82961000  1.0
  N  N282  1  0.77406000  0.48675000  0.29124000  1.0
  N  N283  1  0.55214000  0.51325000  0.70851000  1.0
  N  N284  1  0.81553000  0.98674000  0.20872000  1.0
  N  N285  1  0.01053000  0.01341000  0.79128000  1.0
  N  N286  1  0.66814000  0.49055000  0.44257000  1.0
  N  N287  1  0.60150000  0.50923000  0.55721000  1.0
  N  N288  1  0.86077000  0.99055000  0.05731000  1.0
  N  N289  1  0.90839000  0.00916000  0.94263000  1.0
  N  N290  1  0.51759000  0.67719000  0.25151000  1.0
  N  N291  1  0.44530000  0.32284000  0.74857000  1.0
  N  N292  1  0.51817000  0.17706000  0.24867000  1.0
  N  N293  1  0.94463000  0.82303000  0.75126000  1.0
  N  N294  1  0.17489000  0.69118000  0.40419000  1.0
  N  N295  1  0.26830000  0.30862000  0.59582000  1.0
  N  N296  1  0.32890000  0.19112000  0.09576000  1.0
  N  N297  1  0.61769000  0.80893000  0.90416000  1.0
  N  N298  1  0.07738000  0.47316000  0.19079000  1.0
  N  N299  1  0.74154000  0.52673000  0.80900000  1.0
  N  N300  1  0.01746000  0.97315000  0.30925000  1.0
  N  N301  1  0.30018000  0.02675000  0.69086000  1.0
  N  N302  1  0.73440000  0.43092000  0.99080000  1.0
  N  N303  1  0.15575000  0.56898000  0.00915000  1.0
  N  N304  1  0.47528000  0.93093000  0.50944000  1.0
  N  N305  1  0.91537000  0.06893000  0.49086000  1.0
  O  O306  1  0.32098000  0.66269000  0.37586000  1.0
  O  O307  1  0.35723000  0.33710000  0.62422000  1.0
  O  O308  1  0.44733000  0.16271000  0.12404000  1.0
  O  O309  1  0.73664000  0.83727000  0.87592000  1.0
  O  O310  1  0.96828000  0.70386000  0.39593000  1.0
  O  O311  1  0.06609000  0.29590000  0.60398000  1.0
  O  O312  1  0.11395000  0.20365000  0.10412000  1.0
  O  O313  1  0.42365000  0.79647000  0.89571000  1.0
  O  O314  1  0.02530000  0.42662000  0.19408000  1.0
  O  O315  1  0.64719000  0.57336000  0.80571000  1.0
  O  O316  1  0.96928000  0.92655000  0.30595000  1.0
  O  O317  1  0.20201000  0.07332000  0.69420000  1.0
  O  O318  1  0.23959000  0.48886000  0.21180000  1.0
  O  O319  1  0.94010000  0.51081000  0.78792000  1.0
  O  O320  1  0.20070000  0.98894000  0.28832000  1.0
  O  O321  1  0.47804000  0.01094000  0.71185000  1.0
  O  O322  1  0.92774000  0.41343000  0.96874000  1.0
  O  O323  1  0.30977000  0.58640000  0.03119000  1.0
  O  O324  1  0.64746000  0.91346000  0.53123000  1.0
  O  O325  1  0.09190000  0.08625000  0.46890000  1.0
  O  O326  1  0.61573000  0.47241000  0.97872000  1.0
  O  O327  1  0.06609000  0.52755000  0.02126000  1.0
  O  O328  1  0.34459000  0.97236000  0.52173000  1.0
  O  O329  1  0.83737000  0.02757000  0.47869000  1.0
