# generated using pymatgen
data_VH11C14NO5
_symmetry_space_group_name_H-M   'P 1'
_cell_length_a   6.75194000
_cell_length_b   12.07850000
_cell_length_c   17.56590000
_cell_angle_alpha   89.98460000
_cell_angle_beta   90.00390000
_cell_angle_gamma   89.96850000
_symmetry_Int_Tables_number   1
_chemical_formula_structural   VH11C14NO5
_chemical_formula_sum   'V4 H44 C56 N4 O20'
_cell_volume   1432.55696895
_cell_formula_units_Z   4
loop_
 _symmetry_equiv_pos_site_id
 _symmetry_equiv_pos_as_xyz
  1  'x, y, z'
loop_
 _atom_site_type_symbol
 _atom_site_label
 _atom_site_symmetry_multiplicity
 _atom_site_fract_x
 _atom_site_fract_y
 _atom_site_fract_z
 _atom_site_occupancy
  V  V0  1  0.05255000  0.76651000  0.49936000  1.0
  V  V1  1  0.44771000  0.23251000  0.99930000  1.0
  V  V2  1  0.94773000  0.26745000  0.00071000  1.0
  V  V3  1  0.55277000  0.73341000  0.50064000  1.0
  H  H4  1  0.94648000  0.59403000  0.69886000  1.0
  H  H5  1  0.55353000  0.40513000  0.20018000  1.0
  H  H6  1  0.05401000  0.09505000  0.79966000  1.0
  H  H7  1  0.44703000  0.90600000  0.30103000  1.0
  H  H8  1  0.93097000  0.49043000  0.82261000  1.0
  H  H9  1  0.56891000  0.50923000  0.32368000  1.0
  H  H10  1  0.06928000  0.99093000  0.67617000  1.0
  H  H11  1  0.43155000  0.00960000  0.17727000  1.0
  H  H12  1  0.55019000  0.41124000  0.80243000  1.0
  H  H13  1  0.94981000  0.58884000  0.30295000  1.0
  H  H14  1  0.45050000  0.91108000  0.69720000  1.0
  H  H15  1  0.05055000  0.08873000  0.19765000  1.0
  H  H16  1  0.56500000  0.51319000  0.67833000  1.0
  H  H17  1  0.93547000  0.48679000  0.17897000  1.0
  H  H18  1  0.43627000  0.01318000  0.82115000  1.0
  H  H19  1  0.06539000  0.98679000  0.32178000  1.0
  H  H20  1  0.18947000  0.03288000  0.50969000  1.0
  H  H21  1  0.31057000  0.96782000  0.00819000  1.0
  H  H22  1  0.81052000  0.53232000  0.99174000  1.0
  H  H23  1  0.68907000  0.46716000  0.49037000  1.0
  H  H24  1  0.46961000  0.06911000  0.42352000  1.0
  H  H25  1  0.03022000  0.93095000  0.92227000  1.0
  H  H26  1  0.53025000  0.56918000  0.07771000  1.0
  H  H27  1  0.96930000  0.43083000  0.57653000  1.0
  H  H28  1  0.43438000  0.20389000  0.31582000  1.0
  H  H29  1  0.06467000  0.79497000  0.81531000  1.0
  H  H30  1  0.56473000  0.70505000  0.18473000  1.0
  H  H31  1  0.93429000  0.29600000  0.68420000  1.0
  H  H32  1  0.11459000  0.30529000  0.29964000  1.0
  H  H33  1  0.38406000  0.69298000  0.79965000  1.0
  H  H34  1  0.88410000  0.80690000  0.20041000  1.0
  H  H35  1  0.61472000  0.19463000  0.70036000  1.0
  H  H36  1  0.83348000  0.27013000  0.38677000  1.0
  H  H37  1  0.66546000  0.72868000  0.88650000  1.0
  H  H38  1  0.16540000  0.77116000  0.11349000  1.0
  H  H39  1  0.33349000  0.22985000  0.61325000  1.0
  H  H40  1  0.86261000  0.08857000  0.55074000  1.0
  H  H41  1  0.63748000  0.91332000  0.04910000  1.0
  H  H42  1  0.13732000  0.58685000  0.95078000  1.0
  H  H43  1  0.36234000  0.41148000  0.44928000  1.0
  H  H44  1  0.72452000  0.18295000  0.50498000  1.0
  H  H45  1  0.77457000  0.81687000  0.00468000  1.0
  H  H46  1  0.27443000  0.68308000  0.99529000  1.0
  H  H47  1  0.22442000  0.31707000  0.49502000  1.0
  C  C48  1  0.26657000  0.62396000  0.61006000  1.0
  C  C49  1  0.23423000  0.37572000  0.11084000  1.0
  C  C50  1  0.73462000  0.12432000  0.88914000  1.0
  C  C51  1  0.76659000  0.87611000  0.38997000  1.0
  C  C52  1  0.25696000  0.56045000  0.68214000  1.0
  C  C53  1  0.24327000  0.43898000  0.18319000  1.0
  C  C54  1  0.74390000  0.06104000  0.81680000  1.0
  C  C55  1  0.75738000  0.93956000  0.31785000  1.0
  C  C56  1  0.07759000  0.55413000  0.72240000  1.0
  C  C57  1  0.42247000  0.44521000  0.22358000  1.0
  C  C58  1  0.92300000  0.05487000  0.77634000  1.0
  C  C59  1  0.57807000  0.94593000  0.27753000  1.0
  C  C60  1  0.06939000  0.49711000  0.79100000  1.0
  C  C61  1  0.43052000  0.50244000  0.29207000  1.0
  C  C62  1  0.93099000  0.99762000  0.70785000  1.0
  C  C63  1  0.56991000  0.00292000  0.20892000  1.0
  C  C64  1  0.41975000  0.45263000  0.77964000  1.0
  C  C65  1  0.08022000  0.54706000  0.28048000  1.0
  C  C66  1  0.58087000  0.95286000  0.71963000  1.0
  C  C67  1  0.92018000  0.04729000  0.22039000  1.0
  C  C68  1  0.42799000  0.50925000  0.71094000  1.0
  C  C69  1  0.07228000  0.49042000  0.21176000  1.0
  C  C70  1  0.57297000  0.00950000  0.78832000  1.0
  C  C71  1  0.92842000  0.99071000  0.28911000  1.0
  C  C72  1  0.23191000  0.38126000  0.89169000  1.0
  C  C73  1  0.26840000  0.61897000  0.39227000  1.0
  C  C74  1  0.76857000  0.88102000  0.60775000  1.0
  C  C75  1  0.73229000  0.11873000  0.10830000  1.0
  C  C76  1  0.24060000  0.44606000  0.81995000  1.0
  C  C77  1  0.25928000  0.55367000  0.32087000  1.0
  C  C78  1  0.75981000  0.94628000  0.67916000  1.0
  C  C79  1  0.74109000  0.05396000  0.18004000  1.0
  C  C80  1  0.99031000  0.14827000  0.45418000  1.0
  C  C81  1  0.50919000  0.85145000  0.95330000  1.0
  C  C82  1  0.00914000  0.64853000  0.04666000  1.0
  C  C83  1  0.49014000  0.35173000  0.54584000  1.0
  C  C84  1  0.17297000  0.09324000  0.46390000  1.0
  C  C85  1  0.32682000  0.90692000  0.96276000  1.0
  C  C86  1  0.82679000  0.59316000  0.03721000  1.0
  C  C87  1  0.67271000  0.40675000  0.53613000  1.0
  C  C88  1  0.33049000  0.11311000  0.41451000  1.0
  C  C89  1  0.16919000  0.88675000  0.91349000  1.0
  C  C90  1  0.66919000  0.61334000  0.08650000  1.0
  C  C91  1  0.83026000  0.38684000  0.58554000  1.0
  C  C92  1  0.31132000  0.18881000  0.35460000  1.0
  C  C93  1  0.18796000  0.81034000  0.85399000  1.0
  C  C94  1  0.68795000  0.68968000  0.14603000  1.0
  C  C95  1  0.81119000  0.31112000  0.64543000  1.0
  C  C96  1  0.13193000  0.24531000  0.34554000  1.0
  C  C97  1  0.36708000  0.75344000  0.84522000  1.0
  C  C98  1  0.86702000  0.74650000  0.15479000  1.0
  C  C99  1  0.63189000  0.25463000  0.65448000  1.0
  C  C100  1  0.97330000  0.22607000  0.39461000  1.0
  C  C101  1  0.52584000  0.77296000  0.89416000  1.0
  C  C102  1  0.02576000  0.72696000  0.10584000  1.0
  C  C103  1  0.47322000  0.27391000  0.60540000  1.0
  N  N104  1  0.82881000  0.12260000  0.49955000  1.0
  N  N105  1  0.67086000  0.87740000  0.99850000  1.0
  N  N106  1  0.17077000  0.62258000  0.00143000  1.0
  N  N107  1  0.32860000  0.37742000  0.50046000  1.0
  O  O108  1  0.28139000  0.81355000  0.49949000  1.0
  O  O109  1  0.21687000  0.18713000  0.99952000  1.0
  O  O110  1  0.71683000  0.31284000  0.00047000  1.0
  O  O111  1  0.78181000  0.68629000  0.50050000  1.0
  O  O112  1  0.10320000  0.65984000  0.58249000  1.0
  O  O113  1  0.39756000  0.33898000  0.08413000  1.0
  O  O114  1  0.89786000  0.16103000  0.91592000  1.0
  O  O115  1  0.60331000  0.84023000  0.41741000  1.0
  O  O116  1  0.06188000  0.36784000  0.92245000  1.0
  O  O117  1  0.43886000  0.63492000  0.42207000  1.0
  O  O118  1  0.93907000  0.86495000  0.57788000  1.0
  O  O119  1  0.56228000  0.13210000  0.07751000  1.0
  O  O120  1  0.43739000  0.64108000  0.58128000  1.0
  O  O121  1  0.06349000  0.36043000  0.08151000  1.0
  O  O122  1  0.56382000  0.13964000  0.91843000  1.0
  O  O123  1  0.93747000  0.85898000  0.41888000  1.0
  O  O124  1  0.39494000  0.34274000  0.91715000  1.0
  O  O125  1  0.10502000  0.65640000  0.41855000  1.0
  O  O126  1  0.60525000  0.84373000  0.58152000  1.0
  O  O127  1  0.89522000  0.15733000  0.08287000  1.0
