# generated using pymatgen
data_Cu3H6C4N8Cl
_symmetry_space_group_name_H-M   'P 1'
_cell_length_a   9.86866000
_cell_length_b   9.87058000
_cell_length_c   12.21689519
_cell_angle_alpha   113.83077950
_cell_angle_beta   113.82307341
_cell_angle_gamma   89.98960000
_symmetry_Int_Tables_number   1
_chemical_formula_structural   Cu3H6C4N8Cl
_chemical_formula_sum   'Cu12 H24 C16 N32 Cl4'
_cell_volume   976.75223417
_cell_formula_units_Z   4
loop_
 _symmetry_equiv_pos_site_id
 _symmetry_equiv_pos_as_xyz
  1  'x, y, z'
loop_
 _atom_site_type_symbol
 _atom_site_label
 _atom_site_symmetry_multiplicity
 _atom_site_fract_x
 _atom_site_fract_y
 _atom_site_fract_z
 _atom_site_occupancy
  Cu  Cu0  1  0.30666000  0.05683000  0.11343000  1.0
  Cu  Cu1  1  0.05672000  0.30671000  0.61349000  1.0
  Cu  Cu2  1  0.69334000  0.94317000  0.88657000  1.0
  Cu  Cu3  1  0.94328000  0.69329000  0.38651000  1.0
  Cu  Cu4  1  0.68442000  0.19549000  0.32711000  1.0
  Cu  Cu5  1  0.14262000  0.13159000  0.32714000  1.0
  Cu  Cu6  1  0.13155000  0.68447000  0.82700000  1.0
  Cu  Cu7  1  0.19541000  0.14267000  0.82700000  1.0
  Cu  Cu8  1  0.31558000  0.80451000  0.67289000  1.0
  Cu  Cu9  1  0.85738000  0.86841000  0.67286000  1.0
  Cu  Cu10  1  0.86846000  0.31552000  0.17300000  1.0
  Cu  Cu11  1  0.80458000  0.85734000  0.17299000  1.0
  H  H12  1  0.44487000  0.25889000  0.80414000  1.0
  H  H13  1  0.85932000  0.54522000  0.80415000  1.0
  H  H14  1  0.54523000  0.44493000  0.30418000  1.0
  H  H15  1  0.25891000  0.85910000  0.30418000  1.0
  H  H16  1  0.55513000  0.74111000  0.19586000  1.0
  H  H17  1  0.14067000  0.45478000  0.19585000  1.0
  H  H18  1  0.45476000  0.55507000  0.69581000  1.0
  H  H19  1  0.74109000  0.14090000  0.69582000  1.0
  H  H20  1  0.62844000  0.21268000  0.84534000  1.0
  H  H21  1  0.71697000  0.63268000  0.84536000  1.0
  H  H22  1  0.63262000  0.62843000  0.34537000  1.0
  H  H23  1  0.21273000  0.71677000  0.34538000  1.0
  H  H24  1  0.37156000  0.78733000  0.15466000  1.0
  H  H25  1  0.28303000  0.36732000  0.15464000  1.0
  H  H26  1  0.36738000  0.37156000  0.65463000  1.0
  H  H27  1  0.78728000  0.28323000  0.65463000  1.0
  H  H28  1  0.60905000  0.39883000  0.93578000  1.0
  H  H29  1  0.82683000  0.53705000  0.93587000  1.0
  H  H30  1  0.53688000  0.60910000  0.43582000  1.0
  H  H31  1  0.39887000  0.82659000  0.43587000  1.0
  H  H32  1  0.39095000  0.60117000  0.06422000  1.0
  H  H33  1  0.17316000  0.46295000  0.06413000  1.0
  H  H34  1  0.46312000  0.39089000  0.56418000  1.0
  H  H35  1  0.60113000  0.17341000  0.56413000  1.0
  C  C36  1  0.55612000  0.27894000  0.88595000  1.0
  C  C37  1  0.82989000  0.60704000  0.88596000  1.0
  C  C38  1  0.60697000  0.55617000  0.38599000  1.0
  C  C39  1  0.27894000  0.82967000  0.38599000  1.0
  C  C40  1  0.44388000  0.72107000  0.11405000  1.0
  C  C41  1  0.17011000  0.39296000  0.11404000  1.0
  C  C42  1  0.39303000  0.44383000  0.61401000  1.0
  C  C43  1  0.72106000  0.17033000  0.61401000  1.0
  C  C44  1  0.53893000  0.23362000  0.98202000  1.0
  C  C45  1  0.94310000  0.74848000  0.98193000  1.0
  C  C46  1  0.74838000  0.53892000  0.48204000  1.0
  C  C47  1  0.23348000  0.94295000  0.48197000  1.0
  C  C48  1  0.46107000  0.76639000  0.01798000  1.0
  C  C49  1  0.05690000  0.25151000  0.01807000  1.0
  C  C50  1  0.25162000  0.46108000  0.51797000  1.0
  C  C51  1  0.76652000  0.05704000  0.51803000  1.0
  N  N52  1  0.40647000  0.17444000  0.96686000  1.0
  N  N53  1  0.06030000  0.79260000  0.96670000  1.0
  N  N54  1  0.79242000  0.40647000  0.46681000  1.0
  N  N55  1  0.17412000  0.06014000  0.46669000  1.0
  N  N56  1  0.59354000  0.82556000  0.03314000  1.0
  N  N57  1  0.93970000  0.20739000  0.03330000  1.0
  N  N58  1  0.20758000  0.59353000  0.53319000  1.0
  N  N59  1  0.82588000  0.93986000  0.53331000  1.0
  N  N60  1  0.43844000  0.14461000  0.07210000  1.0
  N  N61  1  0.13362000  0.92759000  0.07204000  1.0
  N  N62  1  0.92756000  0.43847000  0.57206000  1.0
  N  N63  1  0.14444000  0.13354000  0.57202000  1.0
  N  N64  1  0.56156000  0.85540000  0.92790000  1.0
  N  N65  1  0.86638000  0.07241000  0.92796000  1.0
  N  N66  1  0.07244000  0.56153000  0.42794000  1.0
  N  N67  1  0.85556000  0.86646000  0.42798000  1.0
  N  N68  1  0.58627000  0.18687000  0.15080000  1.0
  N  N69  1  0.06462000  0.96384000  0.15085000  1.0
  N  N70  1  0.96393000  0.58628000  0.65079000  1.0
  N  N71  1  0.18699000  0.06460000  0.65086000  1.0
  N  N72  1  0.41373000  0.81313000  0.84920000  1.0
  N  N73  1  0.93538000  0.03616000  0.84915000  1.0
  N  N74  1  0.03606000  0.41372000  0.34921000  1.0
  N  N75  1  0.81302000  0.93539000  0.34914000  1.0
  N  N76  1  0.65169000  0.24251000  0.09594000  1.0
  N  N77  1  0.94436000  0.85333000  0.09596000  1.0
  N  N78  1  0.85337000  0.65166000  0.59597000  1.0
  N  N79  1  0.24264000  0.94434000  0.59602000  1.0
  N  N80  1  0.34831000  0.75749000  0.90406000  1.0
  N  N81  1  0.05563000  0.14666000  0.90403000  1.0
  N  N82  1  0.14663000  0.34834000  0.40403000  1.0
  N  N83  1  0.75736000  0.05566000  0.40398000  1.0
  Cl  Cl84  1  0.42263000  0.17237000  0.34502000  1.0
  Cl  Cl85  1  0.17261000  0.42271000  0.84518000  1.0
  Cl  Cl86  1  0.57737000  0.82763000  0.65498000  1.0
  Cl  Cl87  1  0.82739000  0.57729000  0.15482000  1.0
