# generated using pymatgen
data_AlH3C7SO8
_symmetry_space_group_name_H-M   'P 1'
_cell_length_a   6.68308000
_cell_length_b   14.52280000
_cell_length_c   16.75120000
_cell_angle_alpha   85.42980000
_cell_angle_beta   89.99960000
_cell_angle_gamma   89.99870000
_symmetry_Int_Tables_number   1
_chemical_formula_structural   AlH3C7SO8
_chemical_formula_sum   'Al4 H12 C28 S4 O32'
_cell_volume   1620.65241892
_cell_formula_units_Z   4
loop_
 _symmetry_equiv_pos_site_id
 _symmetry_equiv_pos_as_xyz
  1  'x, y, z'
loop_
 _atom_site_type_symbol
 _atom_site_label
 _atom_site_symmetry_multiplicity
 _atom_site_fract_x
 _atom_site_fract_y
 _atom_site_fract_z
 _atom_site_occupancy
  Al  Al0  1  0.25048000  0.75063000  0.74764000  1.0
  Al  Al1  1  0.74217000  0.25094000  0.24847000  1.0
  Al  Al2  1  0.75047000  0.74938000  0.75236000  1.0
  Al  Al3  1  0.24218000  0.24907000  0.25153000  1.0
  H  H4  1  0.77303000  0.49377000  0.88798000  1.0
  H  H5  1  0.24671000  0.50427000  0.11411000  1.0
  H  H6  1  0.27302000  0.00624000  0.61202000  1.0
  H  H7  1  0.74672000  0.99573000  0.38589000  1.0
  H  H8  1  0.76644000  0.22200000  0.07137000  1.0
  H  H9  1  0.59588000  0.63219000  0.96710000  1.0
  H  H10  1  0.26644000  0.27801000  0.42863000  1.0
  H  H11  1  0.09579000  0.86775000  0.53291000  1.0
  H  H12  1  0.50157000  0.63817000  0.72289000  1.0
  H  H13  1  0.48901000  0.36043000  0.20828000  1.0
  H  H14  1  0.00156000  0.86183000  0.77711000  1.0
  H  H15  1  0.98902000  0.13957000  0.29172000  1.0
  C  C16  1  0.49829000  0.85843000  0.85129000  1.0
  C  C17  1  0.48708000  0.14670000  0.14139000  1.0
  C  C18  1  0.99830000  0.64158000  0.64871000  1.0
  C  C19  1  0.98705000  0.35330000  0.35861000  1.0
  C  C20  1  0.50500000  0.86087000  0.63375000  1.0
  C  C21  1  0.49632000  0.13563000  0.36148000  1.0
  C  C22  1  0.00503000  0.63913000  0.86624000  1.0
  C  C23  1  0.99629000  0.36438000  0.13852000  1.0
  C  C24  1  0.87391000  0.49733000  0.93875000  1.0
  C  C25  1  0.14201000  0.50197000  0.06457000  1.0
  C  C26  1  0.37391000  0.00268000  0.56125000  1.0
  C  C27  1  0.64202000  0.99803000  0.43543000  1.0
  C  C28  1  0.86678000  0.42818000  0.00149000  1.0
  C  C29  1  0.14712000  0.57154000  0.00243000  1.0
  C  C30  1  0.36679000  0.07183000  0.49851000  1.0
  C  C31  1  0.64712000  0.92846000  0.49757000  1.0
  C  C32  1  0.00049000  0.43088000  0.06601000  1.0
  C  C33  1  0.01086000  0.57031000  0.93840000  1.0
  C  C34  1  0.50050000  0.06912000  0.43400000  1.0
  C  C35  1  0.51084000  0.92969000  0.56159000  1.0
  C  C36  1  0.98262000  0.41343000  0.42247000  1.0
  C  C37  1  0.99312000  0.57936000  0.58610000  1.0
  C  C38  1  0.48265000  0.08656000  0.07754000  1.0
  C  C39  1  0.49309000  0.92063000  0.91391000  1.0
  C  C40  1  0.98472000  0.46696000  0.47521000  1.0
  C  C41  1  0.98843000  0.52588000  0.53341000  1.0
  C  C42  1  0.48474000  0.03303000  0.02480000  1.0
  C  C43  1  0.48846000  0.97412000  0.96659000  1.0
  S  S44  1  0.68534000  0.33840000  0.98883000  1.0
  S  S45  1  0.31107000  0.66672000  0.01730000  1.0
  S  S46  1  0.18535000  0.16161000  0.51117000  1.0
  S  S47  1  0.81098000  0.83326000  0.48268000  1.0
  O  O48  1  0.67093000  0.83770000  0.66540000  1.0
  O  O49  1  0.32539000  0.16226000  0.33587000  1.0
  O  O50  1  0.17096000  0.66231000  0.83459000  1.0
  O  O51  1  0.82539000  0.33775000  0.16414000  1.0
  O  O52  1  0.33078000  0.83672000  0.82216000  1.0
  O  O53  1  0.66181000  0.17571000  0.16073000  1.0
  O  O54  1  0.83077000  0.66329000  0.67784000  1.0
  O  O55  1  0.16180000  0.32429000  0.33927000  1.0
  O  O56  1  0.33097000  0.83695000  0.65833000  1.0
  O  O57  1  0.66257000  0.15843000  0.32897000  1.0
  O  O58  1  0.83100000  0.66305000  0.84166000  1.0
  O  O59  1  0.16256000  0.34158000  0.17104000  1.0
  O  O60  1  0.17025000  0.66806000  0.67006000  1.0
  O  O61  1  0.82202000  0.33488000  0.32654000  1.0
  O  O62  1  0.67026000  0.83194000  0.82994000  1.0
  O  O63  1  0.32202000  0.16512000  0.17347000  1.0
  O  O64  1  0.50001000  0.69413000  0.75101000  1.0
  O  O65  1  0.49135000  0.30641000  0.24657000  1.0
  O  O66  1  1.00000000  0.80588000  0.74899000  1.0
  O  O67  1  0.99136000  0.19359000  0.25343000  1.0
  O  O68  1  0.51719000  0.34930000  0.04133000  1.0
  O  O69  1  0.65445000  0.33817000  0.90415000  1.0
  O  O70  1  0.80664000  0.24761000  0.01615000  1.0
  O  O71  1  0.19737000  0.74946000  0.99950000  1.0
  O  O72  1  0.40984000  0.64664000  0.09312000  1.0
  O  O73  1  0.47510000  0.66525000  0.94785000  1.0
  O  O74  1  0.01719000  0.15071000  0.45867000  1.0
  O  O75  1  0.15446000  0.16185000  0.59585000  1.0
  O  O76  1  0.30664000  0.25240000  0.48385000  1.0
  O  O77  1  0.69717000  0.75056000  0.50045000  1.0
  O  O78  1  0.90977000  0.85333000  0.40686000  1.0
  O  O79  1  0.97501000  0.83467000  0.55214000  1.0
