# generated using pymatgen
data_ZnH20C29N5O4
_symmetry_space_group_name_H-M   'P 1'
_cell_length_a   11.37480000
_cell_length_b   13.35638625
_cell_length_c   18.47540000
_cell_angle_alpha   100.78025664
_cell_angle_beta   90.01900000
_cell_angle_gamma   115.19073242
_symmetry_Int_Tables_number   1
_chemical_formula_structural   ZnH20C29N5O4
_chemical_formula_sum   'Zn4 H80 C116 N20 O16'
_cell_volume   2485.01407660
_cell_formula_units_Z   4
loop_
 _symmetry_equiv_pos_site_id
 _symmetry_equiv_pos_as_xyz
  1  'x, y, z'
loop_
 _atom_site_type_symbol
 _atom_site_label
 _atom_site_symmetry_multiplicity
 _atom_site_fract_x
 _atom_site_fract_y
 _atom_site_fract_z
 _atom_site_occupancy
  Zn  Zn0  1  0.02351000  0.60517000  0.59375000  1.0
  Zn  Zn1  1  0.41820000  0.39474000  0.90621000  1.0
  Zn  Zn2  1  0.97649000  0.39483000  0.40625000  1.0
  Zn  Zn3  1  0.58180000  0.60526000  0.09379000  1.0
  H  H4  1  0.84854000  0.36132000  0.69944000  1.0
  H  H5  1  0.48710000  0.63860000  0.80040000  1.0
  H  H6  1  0.15145000  0.63868000  0.30057000  1.0
  H  H7  1  0.51290000  0.36140000  0.19960000  1.0
  H  H8  1  0.75895000  0.20552000  0.77120000  1.0
  H  H9  1  0.55308000  0.79442000  0.72866000  1.0
  H  H10  1  0.24105000  0.79448000  0.22880000  1.0
  H  H11  1  0.44692000  0.20558000  0.27134000  1.0
  H  H12  1  0.74421000  0.96391000  0.57756000  1.0
  H  H13  1  0.77968000  0.03607000  0.92236000  1.0
  H  H14  1  0.25579000  0.03609000  0.42244000  1.0
  H  H15  1  0.22032000  0.96393000  0.07764000  1.0
  H  H16  1  0.83313000  0.12010000  0.50587000  1.0
  H  H17  1  0.71270000  0.87990000  0.99403000  1.0
  H  H18  1  0.16687000  0.87991000  0.49413000  1.0
  H  H19  1  0.28730000  0.12010000  0.00597000  1.0
  H  H20  1  0.17703000  0.65602000  0.87081000  1.0
  H  H21  1  0.52139000  0.34415000  0.62925000  1.0
  H  H22  1  0.82297000  0.34398000  0.12919000  1.0
  H  H23  1  0.47861000  0.65585000  0.37075000  1.0
  H  H24  1  0.34874000  0.79306000  0.97078000  1.0
  H  H25  1  0.55568000  0.20703000  0.52922000  1.0
  H  H26  1  0.65125000  0.20693000  0.02922000  1.0
  H  H27  1  0.44432000  0.79297000  0.47078000  1.0
  H  H28  1  0.42665000  0.05812000  0.85129000  1.0
  H  H29  1  0.36825000  0.94191000  0.64862000  1.0
  H  H30  1  0.57336000  0.94188000  0.14871000  1.0
  H  H31  1  0.63176000  0.05809000  0.35138000  1.0
  H  H32  1  0.25581000  0.91751000  0.74959000  1.0
  H  H33  1  0.33830000  0.08261000  0.75035000  1.0
  H  H34  1  0.74419000  0.08249000  0.25041000  1.0
  H  H35  1  0.66171000  0.91739000  0.24965000  1.0
  H  H36  1  0.87272000  0.70992000  0.51760000  1.0
  H  H37  1  0.16289000  0.29009000  0.98236000  1.0
  H  H38  1  0.12728000  0.29008000  0.48240000  1.0
  H  H39  1  0.83711000  0.70991000  0.01764000  1.0
  H  H40  1  0.65509000  0.71103000  0.51883000  1.0
  H  H41  1  0.94419000  0.28908000  0.98129000  1.0
  H  H42  1  0.34491000  0.28897000  0.48117000  1.0
  H  H43  1  0.05581000  0.71092000  0.01871000  1.0
  H  H44  1  0.57683000  0.52387000  0.69570000  1.0
  H  H45  1  0.05256000  0.47617000  0.80438000  1.0
  H  H46  1  0.42316000  0.47613000  0.30430000  1.0
  H  H47  1  0.94744000  0.52383000  0.19562000  1.0
  H  H48  1  0.79975000  0.53084000  0.68552000  1.0
  H  H49  1  0.26850000  0.46919000  0.81445000  1.0
  H  H50  1  0.20025000  0.46916000  0.31448000  1.0
  H  H51  1  0.73150000  0.53081000  0.18555000  1.0
  H  H52  1  0.51882000  0.77526000  0.57847000  1.0
  H  H53  1  0.74342000  0.22464000  0.92151000  1.0
  H  H54  1  0.48118000  0.22474000  0.42153000  1.0
  H  H55  1  0.25659000  0.77537000  0.07850000  1.0
  H  H56  1  0.29106000  0.75243000  0.56767000  1.0
  H  H57  1  0.53850000  0.24756000  0.93231000  1.0
  H  H58  1  0.70894000  0.24757000  0.43233000  1.0
  H  H59  1  0.46149000  0.75243000  0.06769000  1.0
  H  H60  1  0.14744000  0.44209000  0.62884000  1.0
  H  H61  1  0.70512000  0.55786000  0.87110000  1.0
  H  H62  1  0.85256000  0.55791000  0.37116000  1.0
  H  H63  1  0.29489000  0.44214000  0.12890000  1.0
  H  H64  1  0.36983000  0.44991000  0.64198000  1.0
  H  H65  1  0.91970000  0.55001000  0.85802000  1.0
  H  H66  1  0.63017000  0.55009000  0.35802000  1.0
  H  H67  1  0.08031000  0.45000000  0.14198000  1.0
  H  H68  1  0.09000000  0.99320000  0.96316000  1.0
  H  H69  1  0.09697000  0.00681000  0.53684000  1.0
  H  H70  1  0.91000000  0.00680000  0.03684000  1.0
  H  H71  1  0.90303000  0.99319000  0.46316000  1.0
  H  H72  1  0.14756000  0.10739000  0.86540000  1.0
  H  H73  1  0.04017000  0.89249000  0.63454000  1.0
  H  H74  1  0.85244000  0.89261000  0.13460000  1.0
  H  H75  1  0.95983000  0.10751000  0.36546000  1.0
  H  H76  1  0.87646000  0.80947000  0.71271000  1.0
  H  H77  1  0.06685000  0.19035000  0.78723000  1.0
  H  H78  1  0.12354000  0.19053000  0.28729000  1.0
  H  H79  1  0.93314000  0.80964000  0.21277000  1.0
  H  H80  1  0.83560000  0.70684000  0.81547000  1.0
  H  H81  1  0.12893000  0.29312000  0.68455000  1.0
  H  H82  1  0.16439000  0.29315000  0.18453000  1.0
  H  H83  1  0.87107000  0.70688000  0.31545000  1.0
  C  C84  1  0.90372000  0.34149000  0.55684000  1.0
  C  C85  1  0.56205000  0.65840000  0.94304000  1.0
  C  C86  1  0.09629000  0.65852000  0.44316000  1.0
  C  C87  1  0.43795000  0.34160000  0.05696000  1.0
  C  C88  1  0.84721000  0.24885000  0.59895000  1.0
  C  C89  1  0.59808000  0.75108000  0.90093000  1.0
  C  C90  1  0.15280000  0.75116000  0.40105000  1.0
  C  C91  1  0.40191000  0.24892000  0.09907000  1.0
  C  C92  1  0.82537000  0.27391000  0.67373000  1.0
  C  C93  1  0.55120000  0.72604000  0.82613000  1.0
  C  C94  1  0.17463000  0.72609000  0.32627000  1.0
  C  C95  1  0.44881000  0.27397000  0.17387000  1.0
  C  C96  1  0.77695000  0.18871000  0.71340000  1.0
  C  C97  1  0.58790000  0.81127000  0.78647000  1.0
  C  C98  1  0.22305000  0.81129000  0.28660000  1.0
  C  C99  1  0.41210000  0.18873000  0.21353000  1.0
  C  C100  1  0.74991000  0.07709000  0.67851000  1.0
  C  C101  1  0.67236000  0.92290000  0.82139000  1.0
  C  C102  1  0.25009000  0.92291000  0.32149000  1.0
  C  C103  1  0.32764000  0.07710000  0.17861000  1.0
  C  C104  1  0.76786000  0.05140000  0.60341000  1.0
  C  C105  1  0.71592000  0.94859000  0.89650000  1.0
  C  C106  1  0.23215000  0.94861000  0.39659000  1.0
  C  C107  1  0.28408000  0.05141000  0.10350000  1.0
  C  C108  1  0.81728000  0.13735000  0.56405000  1.0
  C  C109  1  0.67953000  0.86261000  0.93585000  1.0
  C  C110  1  0.18271000  0.86265000  0.43595000  1.0
  C  C111  1  0.32047000  0.13739000  0.06415000  1.0
  C  C112  1  0.11039000  0.69720000  0.74159000  1.0
  C  C113  1  0.41331000  0.30287000  0.75843000  1.0
  C  C114  1  0.88961000  0.30280000  0.25841000  1.0
  C  C115  1  0.58669000  0.69713000  0.24157000  1.0
  C  C116  1  0.20672000  0.77985000  0.80433000  1.0
  C  C117  1  0.42711000  0.22030000  0.69568000  1.0
  C  C118  1  0.79328000  0.22015000  0.19567000  1.0
  C  C119  1  0.57289000  0.77970000  0.30432000  1.0
  C  C120  1  0.23121000  0.74433000  0.86726000  1.0
  C  C121  1  0.48711000  0.25580000  0.63277000  1.0
  C  C122  1  0.76878000  0.25566000  0.13274000  1.0
  C  C123  1  0.51289000  0.74420000  0.36723000  1.0
  C  C124  1  0.32543000  0.81991000  0.92294000  1.0
  C  C125  1  0.50555000  0.18017000  0.57704000  1.0
  C  C126  1  0.67456000  0.18008000  0.07706000  1.0
  C  C127  1  0.49445000  0.81983000  0.42296000  1.0
  C  C128  1  0.39561000  0.93365000  0.91733000  1.0
  C  C129  1  0.46183000  0.06638000  0.58262000  1.0
  C  C130  1  0.60438000  0.06634000  0.08267000  1.0
  C  C131  1  0.53817000  0.93362000  0.41738000  1.0
  C  C132  1  0.37103000  0.96977000  0.85481000  1.0
  C  C133  1  0.40115000  0.03031000  0.64513000  1.0
  C  C134  1  0.62897000  0.03023000  0.14519000  1.0
  C  C135  1  0.59885000  0.96969000  0.35486000  1.0
  C  C136  1  0.27730000  0.89281000  0.79890000  1.0
  C  C137  1  0.38456000  0.10731000  0.70107000  1.0
  C  C138  1  0.72270000  0.10719000  0.20110000  1.0
  C  C139  1  0.61544000  0.89269000  0.29893000  1.0
  C  C140  1  0.80424000  0.67026000  0.55632000  1.0
  C  C141  1  0.13402000  0.32981000  0.94369000  1.0
  C  C142  1  0.19576000  0.32974000  0.44368000  1.0
  C  C143  1  0.86599000  0.67020000  0.05631000  1.0
  C  C144  1  0.68262000  0.67139000  0.55808000  1.0
  C  C145  1  0.01127000  0.32869000  0.94202000  1.0
  C  C146  1  0.31737000  0.32861000  0.44192000  1.0
  C  C147  1  0.98873000  0.67131000  0.05797000  1.0
  C  C148  1  0.59631000  0.61729000  0.60772000  1.0
  C  C149  1  0.97889000  0.38278000  0.89241000  1.0
  C  C150  1  0.40370000  0.38271000  0.39228000  1.0
  C  C151  1  0.02111000  0.61722000  0.10759000  1.0
  C  C152  1  0.63906000  0.56667000  0.65546000  1.0
  C  C153  1  0.07208000  0.43337000  0.84461000  1.0
  C  C154  1  0.36094000  0.43333000  0.34454000  1.0
  C  C155  1  0.92792000  0.56663000  0.15539000  1.0
  C  C156  1  0.76231000  0.56948000  0.65005000  1.0
  C  C157  1  0.19251000  0.43056000  0.84995000  1.0
  C  C158  1  0.23769000  0.43052000  0.34995000  1.0
  C  C159  1  0.80749000  0.56944000  0.15005000  1.0
  C  C160  1  0.46370000  0.61130000  0.60734000  1.0
  C  C161  1  0.85220000  0.38865000  0.89272000  1.0
  C  C162  1  0.53630000  0.38870000  0.39266000  1.0
  C  C163  1  0.14779000  0.61135000  0.10728000  1.0
  C  C164  1  0.43941000  0.69792000  0.58796000  1.0
  C  C165  1  0.74130000  0.30197000  0.91203000  1.0
  C  C166  1  0.56058000  0.30207000  0.41204000  1.0
  C  C167  1  0.25870000  0.69803000  0.08798000  1.0
  C  C168  1  0.31242000  0.68631000  0.58258000  1.0
  C  C169  1  0.62597000  0.31365000  0.91740000  1.0
  C  C170  1  0.68758000  0.31369000  0.41742000  1.0
  C  C171  1  0.37403000  0.68635000  0.08260000  1.0
  C  C172  1  0.23271000  0.51354000  0.61708000  1.0
  C  C173  1  0.71898000  0.48641000  0.88286000  1.0
  C  C174  1  0.76729000  0.48646000  0.38292000  1.0
  C  C175  1  0.28102000  0.51359000  0.11714000  1.0
  C  C176  1  0.35701000  0.51832000  0.62412000  1.0
  C  C177  1  0.83848000  0.48162000  0.87589000  1.0
  C  C178  1  0.64298000  0.48167000  0.37588000  1.0
  C  C179  1  0.16152000  0.51838000  0.12411000  1.0
  C  C180  1  0.04438000  0.95454000  0.90675000  1.0
  C  C181  1  0.09004000  0.04544000  0.59326000  1.0
  C  C182  1  0.95562000  0.04546000  0.09325000  1.0
  C  C183  1  0.90996000  0.95456000  0.40674000  1.0
  C  C184  1  0.07488000  0.01934000  0.85243000  1.0
  C  C185  1  0.05560000  0.98055000  0.64754000  1.0
  C  C186  1  0.92512000  0.98066000  0.14757000  1.0
  C  C187  1  0.94439000  0.01944000  0.35246000  1.0
  C  C188  1  0.01555000  0.96817000  0.78013000  1.0
  C  C189  1  0.04737000  0.03169000  0.71981000  1.0
  C  C190  1  0.98444000  0.03182000  0.21987000  1.0
  C  C191  1  0.95262000  0.96830000  0.28019000  1.0
  C  C192  1  0.92731000  0.85350000  0.76729000  1.0
  C  C193  1  0.07378000  0.14638000  0.73266000  1.0
  C  C194  1  0.07269000  0.14650000  0.23271000  1.0
  C  C195  1  0.92621000  0.85361000  0.26734000  1.0
  C  C196  1  0.90401000  0.79630000  0.82538000  1.0
  C  C197  1  0.10788000  0.20366000  0.67462000  1.0
  C  C198  1  0.09599000  0.20370000  0.17462000  1.0
  C  C199  1  0.89212000  0.79634000  0.32538000  1.0
  N  N200  1  0.84299000  0.61904000  0.60090000  1.0
  N  N201  1  0.22382000  0.38098000  0.89905000  1.0
  N  N202  1  0.15702000  0.38097000  0.39910000  1.0
  N  N203  1  0.77618000  0.61902000  0.10094000  1.0
  N  N204  1  0.20964000  0.59450000  0.59526000  1.0
  N  N205  1  0.61501000  0.40547000  0.90471000  1.0
  N  N206  1  0.79036000  0.40550000  0.40474000  1.0
  N  N207  1  0.38499000  0.59453000  0.09529000  1.0
  N  N208  1  0.70465000  0.98559000  0.71491000  1.0
  N  N209  1  0.71869000  0.01437000  0.78497000  1.0
  N  N210  1  0.29536000  0.01441000  0.28509000  1.0
  N  N211  1  0.28132000  0.98563000  0.21502000  1.0
  N  N212  1  0.49293000  0.01662000  0.97098000  1.0
  N  N213  1  0.47611000  0.98335000  0.52897000  1.0
  N  N214  1  0.50706000  0.98337000  0.02902000  1.0
  N  N215  1  0.52390000  0.01665000  0.47103000  1.0
  N  N216  1  0.96085000  0.84433000  0.89458000  1.0
  N  N217  1  0.11678000  0.15566000  0.60544000  1.0
  N  N218  1  0.03915000  0.15567000  0.10542000  1.0
  N  N219  1  0.88322000  0.84434000  0.39456000  1.0
  O  O220  1  0.91530000  0.43843000  0.58861000  1.0
  O  O221  1  0.47686000  0.56143000  0.91118000  1.0
  O  O222  1  0.08471000  0.56158000  0.41139000  1.0
  O  O223  1  0.52314000  0.43857000  0.08882000  1.0
  O  O224  1  0.03834000  0.59789000  0.74850000  1.0
  O  O225  1  0.44059000  0.40221000  0.75158000  1.0
  O  O226  1  0.96166000  0.40211000  0.25150000  1.0
  O  O227  1  0.55940000  0.59778000  0.24842000  1.0
  O  O228  1  0.11122000  0.73488000  0.68195000  1.0
  O  O229  1  0.37631000  0.26507000  0.81800000  1.0
  O  O230  1  0.88878000  0.26512000  0.31805000  1.0
  O  O231  1  0.62370000  0.73493000  0.18200000  1.0
  O  O232  1  0.93631000  0.31553000  0.49243000  1.0
  O  O233  1  0.62046000  0.68441000  0.00751000  1.0
  O  O234  1  0.06369000  0.68447000  0.50757000  1.0
  O  O235  1  0.37955000  0.31560000  0.99249000  1.0
