# generated using pymatgen
data_ZnH9C14NO4
_symmetry_space_group_name_H-M   'P 1'
_cell_length_a   7.46183000
_cell_length_b   10.22120000
_cell_length_c   17.89970000
_cell_angle_alpha   88.30720000
_cell_angle_beta   78.83520000
_cell_angle_gamma   70.56710000
_symmetry_Int_Tables_number   1
_chemical_formula_structural   ZnH9C14NO4
_chemical_formula_sum   'Zn4 H36 C56 N4 O16'
_cell_volume   1262.15395827
_cell_formula_units_Z   4
loop_
 _symmetry_equiv_pos_site_id
 _symmetry_equiv_pos_as_xyz
  1  'x, y, z'
loop_
 _atom_site_type_symbol
 _atom_site_label
 _atom_site_symmetry_multiplicity
 _atom_site_fract_x
 _atom_site_fract_y
 _atom_site_fract_z
 _atom_site_occupancy
  Zn  Zn0  1  0.00357000  0.45243000  0.22183000  1.0
  Zn  Zn1  1  0.99643000  0.54756000  0.77817000  1.0
  Zn  Zn2  1  0.64306000  0.46503000  0.70781000  1.0
  Zn  Zn3  1  0.35694000  0.53497000  0.29219000  1.0
  H  H4  1  0.92374000  0.46450000  0.39712000  1.0
  H  H5  1  0.07626000  0.53550000  0.60288000  1.0
  H  H6  1  0.01424000  0.29401000  0.50037000  1.0
  H  H7  1  0.98576000  0.70599000  0.49963000  1.0
  H  H8  1  0.27405000  0.97324000  0.32214000  1.0
  H  H9  1  0.72595000  0.02676000  0.67786000  1.0
  H  H10  1  0.17511000  0.15593000  0.22842000  1.0
  H  H11  1  0.82489000  0.84407000  0.77158000  1.0
  H  H12  1  0.16822000  0.06837000  0.53713000  1.0
  H  H13  1  0.83178000  0.93163000  0.46288000  1.0
  H  H14  1  0.39905000  0.85209000  0.40583000  1.0
  H  H15  1  0.60094000  0.14791000  0.59417000  1.0
  H  H16  1  0.24913000  0.92423000  0.62393000  1.0
  H  H17  1  0.75087000  0.07577000  0.37607000  1.0
  H  H18  1  0.38227000  0.74375000  0.71283000  1.0
  H  H19  1  0.61773000  0.25625000  0.28717000  1.0
  H  H20  1  0.73547000  0.47115000  0.53547000  1.0
  H  H21  1  0.26453000  0.52885000  0.46453000  1.0
  H  H22  1  0.61176000  0.63815000  0.43745000  1.0
  H  H23  1  0.38824000  0.36185000  0.56255000  1.0
  H  H24  1  0.01403000  0.35722000  0.97801000  1.0
  H  H25  1  0.98597000  0.64278000  0.02199000  1.0
  H  H26  1  0.89975000  0.29590000  0.86816000  1.0
  H  H27  1  0.10025000  0.70410000  0.13184000  1.0
  H  H28  1  0.57061000  0.27390000  0.88503000  1.0
  H  H29  1  0.42938000  0.72610000  0.11497000  1.0
  H  H30  1  0.35983000  0.31231000  0.01447000  1.0
  H  H31  1  0.64016000  0.68769000  0.98553000  1.0
  H  H32  1  0.03300000  0.93423000  0.24951000  1.0
  H  H33  1  0.96700000  0.06577000  0.75049000  1.0
  H  H34  1  0.85122000  0.10437000  0.16584000  1.0
  H  H35  1  0.14879000  0.89563000  0.83416000  1.0
  H  H36  1  0.55281000  0.07923000  0.13285000  1.0
  H  H37  1  0.44719000  0.92077000  0.86715000  1.0
  H  H38  1  0.43497000  0.88919000  0.18873000  1.0
  H  H39  1  0.56503000  0.11081000  0.81127000  1.0
  C  C40  1  0.00145000  0.35431000  0.38406000  1.0
  C  C41  1  0.99855000  0.64569000  0.61594000  1.0
  C  C42  1  0.05109000  0.26039000  0.44043000  1.0
  C  C43  1  0.94891000  0.73961000  0.55957000  1.0
  C  C44  1  0.15645000  0.11993000  0.41994000  1.0
  C  C45  1  0.84355000  0.88007000  0.58007000  1.0
  C  C46  1  0.19805000  0.08075000  0.34207000  1.0
  C  C47  1  0.80195000  0.91924000  0.65793000  1.0
  C  C48  1  0.14358000  0.18094000  0.28935000  1.0
  C  C49  1  0.85642000  0.81905000  0.71065000  1.0
  C  C50  1  0.22104000  0.02433000  0.47885000  1.0
  C  C51  1  0.77896000  0.97567000  0.52115000  1.0
  C  C52  1  0.34507000  0.89286000  0.46458000  1.0
  C  C53  1  0.65493000  0.10714000  0.53542000  1.0
  C  C54  1  0.41814000  0.79679000  0.52178000  1.0
  C  C55  1  0.58186000  0.20322000  0.47822000  1.0
  C  C56  1  0.35632000  0.82557000  0.60092000  1.0
  C  C57  1  0.64368000  0.17443000  0.39908000  1.0
  C  C58  1  0.43069000  0.72642000  0.65130000  1.0
  C  C59  1  0.56931000  0.27358000  0.34870000  1.0
  C  C60  1  0.62734000  0.57293000  0.55194000  1.0
  C  C61  1  0.37266000  0.42707000  0.44806000  1.0
  C  C62  1  0.55793000  0.66625000  0.49802000  1.0
  C  C63  1  0.44207000  0.33375000  0.50198000  1.0
  C  C64  1  0.56956000  0.35201000  0.06898000  1.0
  C  C65  1  0.43044000  0.64799000  0.93102000  1.0
  C  C66  1  0.75553000  0.36439000  0.05934000  1.0
  C  C67  1  0.24447000  0.63561000  0.94066000  1.0
  C  C68  1  0.87244000  0.34412000  0.98662000  1.0
  C  C69  1  0.12756000  0.65588000  0.01338000  1.0
  C  C70  1  0.80717000  0.30993000  0.92441000  1.0
  C  C71  1  0.19283000  0.69007000  0.07559000  1.0
  C  C72  1  0.62419000  0.29617000  0.93394000  1.0
  C  C73  1  0.37581000  0.70383000  0.06606000  1.0
  C  C74  1  0.50575000  0.31765000  0.00597000  1.0
  C  C75  1  0.49425000  0.68235000  0.99403000  1.0
  C  C76  1  0.43333000  0.38600000  0.14401000  1.0
  C  C77  1  0.56667000  0.61399000  0.85598000  1.0
  C  C78  1  0.84005000  0.39111000  0.12462000  1.0
  C  C79  1  0.15995000  0.60889000  0.87538000  1.0
  C  C80  1  0.66808000  0.80414000  0.24888000  1.0
  C  C81  1  0.33192000  0.19586000  0.75112000  1.0
  C  C82  1  0.83844000  0.81629000  0.26560000  1.0
  C  C83  1  0.16156000  0.18372000  0.73441000  1.0
  C  C84  1  0.90095000  0.92558000  0.23597000  1.0
  C  C85  1  0.09905000  0.07442000  0.76403000  1.0
  C  C86  1  0.79985000  0.01982000  0.18819000  1.0
  C  C87  1  0.20015000  0.98018000  0.81181000  1.0
  C  C88  1  0.63215000  0.00642000  0.17047000  1.0
  C  C89  1  0.36785000  0.99358000  0.82953000  1.0
  C  C90  1  0.56622000  0.90045000  0.20142000  1.0
  C  C91  1  0.43379000  0.09955000  0.79858000  1.0
  C  C92  1  0.59628000  0.69001000  0.28010000  1.0
  C  C93  1  0.40372000  0.30999000  0.71990000  1.0
  C  C94  1  0.96607000  0.71554000  0.31185000  1.0
  C  C95  1  0.03393000  0.28446000  0.68815000  1.0
  N  N96  1  0.04898000  0.31612000  0.30963000  1.0
  N  N97  1  0.95102000  0.68388000  0.69037000  1.0
  N  N98  1  0.56504000  0.60143000  0.62740000  1.0
  N  N99  1  0.43497000  0.39857000  0.37260000  1.0
  O  O100  1  0.26973000  0.36994000  0.15071000  1.0
  O  O101  1  0.73027000  0.63006000  0.84929000  1.0
  O  O102  1  0.49395000  0.43081000  0.19710000  1.0
  O  O103  1  0.50605000  0.56919000  0.80289000  1.0
  O  O104  1  0.91128000  0.29046000  0.16499000  1.0
  O  O105  1  0.08871000  0.70955000  0.83502000  1.0
  O  O106  1  0.85288000  0.51167000  0.13471000  1.0
  O  O107  1  0.14712000  0.48833000  0.86528000  1.0
  O  O108  1  0.08673000  0.60196000  0.27359000  1.0
  O  O109  1  0.91326000  0.39804000  0.72641000  1.0
  O  O110  1  0.97131000  0.74507000  0.37785000  1.0
  O  O111  1  0.02869000  0.25493000  0.62215000  1.0
  O  O112  1  0.70870000  0.58139000  0.30348000  1.0
  O  O113  1  0.29131000  0.41861000  0.69652000  1.0
  O  O114  1  0.41422000  0.71042000  0.28289000  1.0
  O  O115  1  0.58578000  0.28958000  0.71711000  1.0
