# generated using pymatgen
data_CoPH9C9N2O3
_symmetry_space_group_name_H-M   'P 1'
_cell_length_a   9.31345000
_cell_length_b   9.90201000
_cell_length_c   12.93050000
_cell_angle_alpha   85.42520000
_cell_angle_beta   69.09800000
_cell_angle_gamma   89.97280000
_symmetry_Int_Tables_number   1
_chemical_formula_structural   CoPH9C9N2O3
_chemical_formula_sum   'Co4 P4 H36 C36 N8 O12'
_cell_volume   1109.95001678
_cell_formula_units_Z   4
loop_
 _symmetry_equiv_pos_site_id
 _symmetry_equiv_pos_as_xyz
  1  'x, y, z'
loop_
 _atom_site_type_symbol
 _atom_site_label
 _atom_site_symmetry_multiplicity
 _atom_site_fract_x
 _atom_site_fract_y
 _atom_site_fract_z
 _atom_site_occupancy
  Co  Co0  1  0.66621000  0.60806000  0.52733000  1.0
  Co  Co1  1  0.19444000  0.89094000  0.47150000  1.0
  Co  Co2  1  0.33275000  0.39154000  0.47175000  1.0
  Co  Co3  1  0.80632000  0.10788000  0.52692000  1.0
  P  P4  1  0.85515000  0.80990000  0.62212000  1.0
  P  P5  1  0.47759000  0.68880000  0.37697000  1.0
  P  P6  1  0.14304000  0.18964000  0.37661000  1.0
  P  P7  1  0.52337000  0.31161000  0.62188000  1.0
  H  H8  1  0.87971000  0.77258000  0.72229000  1.0
  H  H9  1  0.60137000  0.72903000  0.27753000  1.0
  H  H10  1  0.12033000  0.22869000  0.27604000  1.0
  H  H11  1  0.40108000  0.26978000  0.72175000  1.0
  H  H12  1  0.03929000  0.63215000  0.41322000  1.0
  H  H13  1  0.45264000  0.86792000  0.58674000  1.0
  H  H14  1  0.96029000  0.36764000  0.58663000  1.0
  H  H15  1  0.54804000  0.13217000  0.41517000  1.0
  H  H16  1  0.70227000  0.43756000  0.32431000  1.0
  H  H17  1  0.02671000  0.06180000  0.67502000  1.0
  H  H18  1  0.29783000  0.56205000  0.67527000  1.0
  H  H19  1  0.97372000  0.93780000  0.32591000  1.0
  H  H20  1  0.98858000  0.41198000  0.15902000  1.0
  H  H21  1  0.14850000  0.08777000  0.84057000  1.0
  H  H22  1  0.01170000  0.58784000  0.84065000  1.0
  H  H23  1  0.85179000  0.91321000  0.16018000  1.0
  H  H24  1  0.27387000  0.42971000  0.21676000  1.0
  H  H25  1  0.49103000  0.07025000  0.78382000  1.0
  H  H26  1  0.72615000  0.57013000  0.78329000  1.0
  H  H27  1  0.50992000  0.93014000  0.21703000  1.0
  H  H28  1  0.27690000  0.59393000  0.25805000  1.0
  H  H29  1  0.53522000  0.90600000  0.74257000  1.0
  H  H30  1  0.72292000  0.40604000  0.74200000  1.0
  H  H31  1  0.46535000  0.09452000  0.25791000  1.0
  H  H32  1  0.30990000  0.38526000  0.03580000  1.0
  H  H33  1  0.34586000  0.11479000  0.96459000  1.0
  H  H34  1  0.69012000  0.61470000  0.96414000  1.0
  H  H35  1  0.65433000  0.88525000  0.03610000  1.0
  H  H36  1  0.20660000  0.79360000  0.22601000  1.0
  H  H37  1  0.43278000  0.70637000  0.77426000  1.0
  H  H38  1  0.79273000  0.20608000  0.77431000  1.0
  H  H39  1  0.56747000  0.29393000  0.22593000  1.0
  H  H40  1  0.40041000  0.46497000  0.83361000  1.0
  H  H41  1  0.23384000  0.03508000  0.16666000  1.0
  H  H42  1  0.59942000  0.53531000  0.16634000  1.0
  H  H43  1  0.76534000  0.96456000  0.83404000  1.0
  C  C44  1  0.98591000  0.57451000  0.36776000  1.0
  C  C45  1  0.35398000  0.92549000  0.63202000  1.0
  C  C46  1  0.01376000  0.42528000  0.63206000  1.0
  C  C47  1  0.64625000  0.07421000  0.36959000  1.0
  C  C48  1  0.81536000  0.47261000  0.31814000  1.0
  C  C49  1  0.13380000  0.02689000  0.68120000  1.0
  C  C50  1  0.18467000  0.52724000  0.68138000  1.0
  C  C51  1  0.86652000  0.97238000  0.31992000  1.0
  C  C52  1  0.95579000  0.45940000  0.23641000  1.0
  C  C53  1  0.19288000  0.04043000  0.76313000  1.0
  C  C54  1  0.04432000  0.54044000  0.76324000  1.0
  C  C55  1  0.80749000  0.95996000  0.23786000  1.0
  C  C56  1  0.22947000  0.53159000  0.21082000  1.0
  C  C57  1  0.44082000  0.96841000  0.78954000  1.0
  C  C58  1  0.77049000  0.46825000  0.78922000  1.0
  C  C59  1  0.55995000  0.03203000  0.21129000  1.0
  C  C60  1  0.27703000  0.58492000  0.09067000  1.0
  C  C61  1  0.36814000  0.91514000  0.90964000  1.0
  C  C62  1  0.72304000  0.41503000  0.90939000  1.0
  C  C63  1  0.63254000  0.08498000  0.09101000  1.0
  C  C64  1  0.31564000  0.49358000  0.01020000  1.0
  C  C65  1  0.32605000  0.00648000  0.99010000  1.0
  C  C66  1  0.68445000  0.50644000  0.98980000  1.0
  C  C67  1  0.67421000  0.99357000  0.01055000  1.0
  C  C68  1  0.28882000  0.72731000  0.05842000  1.0
  C  C69  1  0.34731000  0.77276000  0.94185000  1.0
  C  C70  1  0.71129000  0.27269000  0.94180000  1.0
  C  C71  1  0.65314000  0.22734000  0.05843000  1.0
  C  C72  1  0.24814000  0.82560000  0.13752000  1.0
  C  C73  1  0.38568000  0.67443000  0.86276000  1.0
  C  C74  1  0.75152000  0.17426000  0.86283000  1.0
  C  C75  1  0.61456000  0.32578000  0.13740000  1.0
  C  C76  1  0.36837000  0.53783000  0.89624000  1.0
  C  C77  1  0.26451000  0.96219000  0.10404000  1.0
  C  C78  1  0.63166000  0.46234000  0.10379000  1.0
  C  C79  1  0.73516000  0.03770000  0.89651000  1.0
  N  N80  1  0.83530000  0.54547000  0.39951000  1.0
  N  N81  1  0.23498000  0.95414000  0.59996000  1.0
  N  N82  1  0.16441000  0.45443000  0.60005000  1.0
  N  N83  1  0.76547000  0.04484000  0.40139000  1.0
  N  N84  1  0.06208000  0.52430000  0.26905000  1.0
  N  N85  1  0.33175000  0.97586000  0.73074000  1.0
  N  N86  1  0.93785000  0.47549000  0.73082000  1.0
  N  N87  1  0.66882000  0.02474000  0.27037000  1.0
  O  O88  1  0.71878000  0.72169000  0.62461000  1.0
  O  O89  1  0.34179000  0.77520000  0.37492000  1.0
  O  O90  1  0.28036000  0.27588000  0.37547000  1.0
  O  O91  1  0.66083000  0.22659000  0.62189000  1.0
  O  O92  1  0.00355000  0.78272000  0.52551000  1.0
  O  O93  1  0.52858000  0.71691000  0.47428000  1.0
  O  O94  1  0.99426000  0.21962000  0.47211000  1.0
  O  O95  1  0.47080000  0.28412000  0.52517000  1.0
  O  O96  1  0.81730000  0.96097000  0.63053000  1.0
  O  O97  1  0.45192000  0.53759000  0.36747000  1.0
  O  O98  1  0.17783000  0.03818000  0.36869000  1.0
  O  O99  1  0.54772000  0.46285000  0.63233000  1.0
