# generated using pymatgen
data_ZnH18C31NO4
_symmetry_space_group_name_H-M   'P 1'
_cell_length_a   15.66520000
_cell_length_b   16.06810000
_cell_length_c   21.47130000
_cell_angle_alpha   90.00000000
_cell_angle_beta   90.00000000
_cell_angle_gamma   94.16450000
_symmetry_Int_Tables_number   1
_chemical_formula_structural   ZnH18C31NO4
_chemical_formula_sum   'Zn8 H144 C248 N8 O32'
_cell_volume   5390.27111935
_cell_formula_units_Z   8
loop_
 _symmetry_equiv_pos_site_id
 _symmetry_equiv_pos_as_xyz
  1  'x, y, z'
loop_
 _atom_site_type_symbol
 _atom_site_label
 _atom_site_symmetry_multiplicity
 _atom_site_fract_x
 _atom_site_fract_y
 _atom_site_fract_z
 _atom_site_occupancy
  Zn  Zn0  1  0.19438000  0.05151000  0.23683000  1.0
  Zn  Zn1  1  0.80562000  0.44849000  0.73683000  1.0
  Zn  Zn2  1  0.80562000  0.94849000  0.76317000  1.0
  Zn  Zn3  1  0.19438000  0.55151000  0.26317000  1.0
  Zn  Zn4  1  0.67417000  0.56656000  0.74397000  1.0
  Zn  Zn5  1  0.32583000  0.93344000  0.24397000  1.0
  Zn  Zn6  1  0.32583000  0.43344000  0.25603000  1.0
  Zn  Zn7  1  0.67417000  0.06656000  0.75603000  1.0
  H  H8  1  0.02268000  0.04496000  0.17835000  1.0
  H  H9  1  0.97732000  0.45504000  0.67835000  1.0
  H  H10  1  0.97732000  0.95504000  0.82165000  1.0
  H  H11  1  0.02268000  0.54496000  0.32165000  1.0
  H  H12  1  0.90328000  0.13967000  0.16418000  1.0
  H  H13  1  0.09672000  0.36033000  0.66418000  1.0
  H  H14  1  0.09672000  0.86033000  0.83582000  1.0
  H  H15  1  0.90328000  0.63967000  0.33582000  1.0
  H  H16  1  0.06289000  0.33203000  0.25741000  1.0
  H  H17  1  0.93711000  0.16797000  0.75741000  1.0
  H  H18  1  0.93711000  0.66797000  0.74259000  1.0
  H  H19  1  0.06289000  0.83203000  0.24259000  1.0
  H  H20  1  0.17483000  0.22879000  0.26865000  1.0
  H  H21  1  0.82517000  0.27121000  0.76865000  1.0
  H  H22  1  0.82517000  0.77121000  0.73135000  1.0
  H  H23  1  0.17483000  0.72879000  0.23135000  1.0
  H  H24  1  0.83219000  0.33520000  0.33353000  1.0
  H  H25  1  0.16781000  0.16480000  0.83353000  1.0
  H  H26  1  0.16781000  0.66480000  0.66647000  1.0
  H  H27  1  0.83219000  0.83520000  0.16647000  1.0
  H  H28  1  0.76386000  0.36248000  0.43644000  1.0
  H  H29  1  0.23614000  0.13752000  0.93644000  1.0
  H  H30  1  0.23614000  0.63752000  0.56356000  1.0
  H  H31  1  0.76386000  0.86248000  0.06356000  1.0
  H  H32  1  0.66409000  0.47433000  0.44641000  1.0
  H  H33  1  0.33591000  0.02567000  0.94641000  1.0
  H  H34  1  0.33591000  0.52567000  0.55359000  1.0
  H  H35  1  0.66409000  0.97433000  0.05359000  1.0
  H  H36  1  0.63196000  0.56171000  0.35330000  1.0
  H  H37  1  0.36804000  0.93829000  0.85331000  1.0
  H  H38  1  0.36804000  0.43829000  0.64669000  1.0
  H  H39  1  0.63196000  0.06171000  0.14669000  1.0
  H  H40  1  0.96499000  0.47060000  0.17136000  1.0
  H  H41  1  0.03501000  0.02940000  0.67136000  1.0
  H  H42  1  0.03501000  0.52940000  0.82864000  1.0
  H  H43  1  0.96499000  0.97060000  0.32864000  1.0
  H  H44  1  0.01128000  0.61475000  0.13514000  1.0
  H  H45  1  0.98872000  0.88524000  0.63514000  1.0
  H  H46  1  0.98872000  0.38525000  0.86486000  1.0
  H  H47  1  0.01128000  0.11475000  0.36486000  1.0
  H  H48  1  0.91189000  0.72716000  0.14207000  1.0
  H  H49  1  0.08811000  0.77284000  0.64207000  1.0
  H  H50  1  0.08811000  0.27284000  0.85793000  1.0
  H  H51  1  0.91189000  0.22716000  0.35793000  1.0
  H  H52  1  0.76509000  0.69793000  0.18757000  1.0
  H  H53  1  0.23491000  0.80207000  0.68757000  1.0
  H  H54  1  0.23491000  0.30207000  0.81243000  1.0
  H  H55  1  0.76509000  0.19793000  0.31243000  1.0
  H  H56  1  0.73899000  0.28544000  0.13948000  1.0
  H  H57  1  0.26101000  0.21456000  0.63948000  1.0
  H  H58  1  0.26101000  0.71456000  0.86052000  1.0
  H  H59  1  0.73899000  0.78544000  0.36052000  1.0
  H  H60  1  0.59778000  0.27502000  0.08405000  1.0
  H  H61  1  0.40222000  0.22498000  0.58405000  1.0
  H  H62  1  0.40222000  0.72498000  0.91595000  1.0
  H  H63  1  0.59778000  0.77502000  0.41595000  1.0
  H  H64  1  0.49645000  0.38545000  0.09854000  1.0
  H  H65  1  0.50355000  0.11455000  0.59854000  1.0
  H  H66  1  0.50354000  0.61455000  0.90146000  1.0
  H  H67  1  0.49645000  0.88545000  0.40146000  1.0
  H  H68  1  0.53634000  0.50853000  0.16656000  1.0
  H  H69  1  0.46366000  0.99147000  0.66656000  1.0
  H  H70  1  0.46366000  0.49147000  0.83344000  1.0
  H  H71  1  0.53634000  0.00853000  0.33344000  1.0
  H  H72  1  0.44722000  0.65791000  0.30492000  1.0
  H  H73  1  0.55278000  0.84209000  0.80492000  1.0
  H  H74  1  0.55278000  0.34209000  0.69508000  1.0
  H  H75  1  0.44722000  0.15791000  0.19508000  1.0
  H  H76  1  0.34398000  0.77024000  0.30706000  1.0
  H  H77  1  0.65602000  0.72976000  0.80706000  1.0
  H  H78  1  0.65602000  0.22976000  0.69294000  1.0
  H  H79  1  0.34397000  0.27024000  0.19294000  1.0
  H  H80  1  0.50153000  0.92422000  0.19462000  1.0
  H  H81  1  0.49847000  0.57578000  0.69462000  1.0
  H  H82  1  0.49847000  0.07578000  0.80538000  1.0
  H  H83  1  0.50153000  0.42422000  0.30538000  1.0
  H  H84  1  0.61133000  0.81921000  0.18772000  1.0
  H  H85  1  0.38867000  0.68079000  0.68772000  1.0
  H  H86  1  0.38867000  0.18079000  0.81228000  1.0
  H  H87  1  0.61133000  0.31921000  0.31228000  1.0
  H  H88  1  0.31664000  0.25934000  0.34193000  1.0
  H  H89  1  0.68336000  0.24066000  0.84193000  1.0
  H  H90  1  0.68336000  0.74066000  0.65808000  1.0
  H  H91  1  0.31664000  0.75934000  0.15808000  1.0
  H  H92  1  0.39599000  0.35188000  0.41604000  1.0
  H  H93  1  0.60401000  0.14812000  0.91604000  1.0
  H  H94  1  0.60401000  0.64812000  0.58396000  1.0
  H  H95  1  0.39599000  0.85188000  0.08396000  1.0
  H  H96  1  0.53949000  0.14603000  0.47510000  1.0
  H  H97  1  0.46051000  0.35397000  0.97510000  1.0
  H  H98  1  0.46051000  0.85397000  0.52490000  1.0
  H  H99  1  0.53949000  0.64603000  0.02490000  1.0
  H  H100  1  0.45877000  0.05419000  0.39972000  1.0
  H  H101  1  0.54123000  0.44581000  0.89972000  1.0
  H  H102  1  0.54123000  0.94581000  0.60028000  1.0
  H  H103  1  0.45877000  0.55420000  0.10028000  1.0
  H  H104  1  0.42455000  0.39310000  0.51236000  1.0
  H  H105  1  0.57545000  0.10690000  0.01236000  1.0
  H  H106  1  0.57545000  0.60690000  0.48764000  1.0
  H  H107  1  0.42455000  0.89310000  0.98764000  1.0
  H  H108  1  0.50614000  0.47575000  0.59350000  1.0
  H  H109  1  0.49386000  0.02425000  0.09350000  1.0
  H  H110  1  0.49386000  0.52425000  0.40651000  1.0
  H  H111  1  0.50614000  0.97575000  0.90650000  1.0
  H  H112  1  0.71944000  0.32625000  0.56881000  1.0
  H  H113  1  0.28056000  0.17375000  0.06881000  1.0
  H  H114  1  0.28056000  0.67375000  0.43119000  1.0
  H  H115  1  0.71944000  0.82625000  0.93119000  1.0
  H  H116  1  0.63994000  0.24407000  0.48647000  1.0
  H  H117  1  0.36006000  0.25593000  0.98647000  1.0
  H  H118  1  0.36006000  0.75593000  0.51353000  1.0
  H  H119  1  0.63994000  0.74407000  0.01353000  1.0
  H  H120  1  0.93147000  0.51955000  0.91235000  1.0
  H  H121  1  0.06853000  0.98045000  0.41235000  1.0
  H  H122  1  0.06853000  0.48045000  0.08765000  1.0
  H  H123  1  0.93147000  0.01955000  0.58765000  1.0
  H  H124  1  0.01936000  0.59725000  0.99291000  1.0
  H  H125  1  0.98064000  0.90275000  0.49291000  1.0
  H  H126  1  0.98064000  0.40275000  0.00709000  1.0
  H  H127  1  0.01936000  0.09725000  0.50709000  1.0
  H  H128  1  0.89103000  0.81917000  0.95036000  1.0
  H  H129  1  0.10897000  0.68083000  0.45036000  1.0
  H  H130  1  0.10897000  0.18083000  0.04964000  1.0
  H  H131  1  0.89103000  0.31917000  0.54964000  1.0
  H  H132  1  0.80188000  0.73940000  0.87224000  1.0
  H  H133  1  0.19812000  0.76060000  0.37224000  1.0
  H  H134  1  0.19812000  0.26060000  0.12776000  1.0
  H  H135  1  0.80188000  0.23940000  0.62776000  1.0
  H  H136  1  0.12794000  0.69231000  0.00891000  1.0
  H  H137  1  0.87206000  0.80769000  0.50891000  1.0
  H  H138  1  0.87207000  0.30769000  0.99109000  1.0
  H  H139  1  0.12793000  0.19231000  0.49109000  1.0
  H  H140  1  0.21562000  0.77032000  0.08865000  1.0
  H  H141  1  0.78438000  0.72968000  0.58865000  1.0
  H  H142  1  0.78438000  0.22968000  0.91135000  1.0
  H  H143  1  0.21562000  0.27032000  0.41135000  1.0
  H  H144  1  0.00676000  0.92144000  0.12748000  1.0
  H  H145  1  0.99324000  0.57856000  0.62748000  1.0
  H  H146  1  0.99324000  0.07856000  0.87252000  1.0
  H  H147  1  0.00676000  0.42144000  0.37252000  1.0
  H  H148  1  0.91812000  0.84384000  0.04827000  1.0
  H  H149  1  0.08188000  0.65616000  0.54827000  1.0
  H  H150  1  0.08188000  0.15616000  0.95173000  1.0
  H  H151  1  0.91812000  0.34384000  0.45173000  1.0
  C  C152  1  0.02802000  0.10923000  0.19492000  1.0
  C  C153  1  0.97198000  0.39077000  0.69492000  1.0
  C  C154  1  0.97198000  0.89077000  0.80508000  1.0
  C  C155  1  0.02802000  0.60923000  0.30508000  1.0
  C  C156  1  0.96259000  0.16194000  0.18710000  1.0
  C  C157  1  0.03741000  0.33806000  0.68710000  1.0
  C  C158  1  0.03741000  0.83806000  0.81290000  1.0
  C  C159  1  0.96259000  0.66194000  0.31290000  1.0
  C  C160  1  0.97363000  0.24342000  0.21095000  1.0
  C  C161  1  0.02637000  0.25658000  0.71095000  1.0
  C  C162  1  0.02638000  0.75658000  0.78905000  1.0
  C  C163  1  0.97362000  0.74342000  0.28905000  1.0
  C  C164  1  0.05174000  0.26868000  0.23987000  1.0
  C  C165  1  0.94826000  0.23132000  0.73987000  1.0
  C  C166  1  0.94826000  0.73132000  0.76013000  1.0
  C  C167  1  0.05174000  0.76868000  0.26013000  1.0
  C  C168  1  0.11370000  0.21198000  0.24600000  1.0
  C  C169  1  0.88630000  0.28802000  0.74600000  1.0
  C  C170  1  0.88630000  0.78802000  0.75400000  1.0
  C  C171  1  0.11370000  0.71198000  0.25400000  1.0
  C  C172  1  0.90882000  0.30029000  0.20924000  1.0
  C  C173  1  0.09118000  0.19971000  0.70923000  1.0
  C  C174  1  0.09118000  0.69971000  0.79076000  1.0
  C  C175  1  0.90882000  0.80029000  0.29077000  1.0
  C  C176  1  0.85762000  0.35321000  0.21370000  1.0
  C  C177  1  0.14238000  0.14679000  0.71370000  1.0
  C  C178  1  0.14238000  0.64679000  0.78630000  1.0
  C  C179  1  0.85762000  0.85321000  0.28630000  1.0
  C  C180  1  0.79957000  0.41866000  0.21951000  1.0
  C  C181  1  0.20043000  0.08134000  0.71951000  1.0
  C  C182  1  0.20043000  0.58134000  0.78049000  1.0
  C  C183  1  0.79957000  0.91866000  0.28049000  1.0
  C  C184  1  0.76851000  0.43157000  0.28678000  1.0
  C  C185  1  0.23149000  0.06843000  0.78678000  1.0
  C  C186  1  0.23149000  0.56843000  0.71322000  1.0
  C  C187  1  0.76851000  0.93157000  0.21322000  1.0
  C  C188  1  0.78828000  0.38441000  0.33844000  1.0
  C  C189  1  0.21172000  0.11559000  0.83844000  1.0
  C  C190  1  0.21172000  0.61559000  0.66156000  1.0
  C  C191  1  0.78828000  0.88441000  0.16156000  1.0
  C  C192  1  0.75032000  0.40027000  0.39595000  1.0
  C  C193  1  0.24968000  0.09973000  0.89595000  1.0
  C  C194  1  0.24968000  0.59973000  0.60405000  1.0
  C  C195  1  0.75032000  0.90027000  0.10405000  1.0
  C  C196  1  0.69411000  0.46341000  0.40160000  1.0
  C  C197  1  0.30589000  0.03659000  0.90160000  1.0
  C  C198  1  0.30589000  0.53660000  0.59840000  1.0
  C  C199  1  0.69411000  0.96340000  0.09840000  1.0
  C  C200  1  0.67562000  0.51198000  0.34973000  1.0
  C  C201  1  0.32438000  0.98802000  0.84973000  1.0
  C  C202  1  0.32438000  0.48802000  0.65027000  1.0
  C  C203  1  0.67562000  0.01198000  0.15027000  1.0
  C  C204  1  0.71271000  0.49556000  0.29255000  1.0
  C  C205  1  0.28729000  0.00444000  0.79255000  1.0
  C  C206  1  0.28729000  0.50444000  0.70745000  1.0
  C  C207  1  0.71271000  0.99556000  0.20745000  1.0
  C  C208  1  0.69537000  0.53934000  0.23047000  1.0
  C  C209  1  0.30463000  0.96066000  0.73047000  1.0
  C  C210  1  0.30463000  0.46066000  0.76953000  1.0
  C  C211  1  0.69537000  0.03934000  0.26953000  1.0
  C  C212  1  0.78366000  0.56829000  0.20329000  1.0
  C  C213  1  0.21634000  0.93171000  0.70329000  1.0
  C  C214  1  0.21634000  0.43171000  0.79671000  1.0
  C  C215  1  0.78366000  0.06829000  0.29671000  1.0
  C  C216  1  0.83946000  0.50439000  0.19815000  1.0
  C  C217  1  0.16054000  0.99561000  0.69815000  1.0
  C  C218  1  0.16054000  0.49561000  0.80185000  1.0
  C  C219  1  0.83946000  0.00439000  0.30185000  1.0
  C  C220  1  0.92148000  0.52042000  0.17418000  1.0
  C  C221  1  0.07852000  0.97957000  0.67418000  1.0
  C  C222  1  0.07852000  0.47958000  0.82582000  1.0
  C  C223  1  0.92148000  0.02042000  0.32582000  1.0
  C  C224  1  0.94702000  0.60121000  0.15380000  1.0
  C  C225  1  0.05298000  0.89879000  0.65380000  1.0
  C  C226  1  0.05298000  0.39879000  0.84620000  1.0
  C  C227  1  0.94702000  0.10121000  0.34620000  1.0
  C  C228  1  0.89098000  0.66458000  0.15797000  1.0
  C  C229  1  0.10902000  0.83542000  0.65797000  1.0
  C  C230  1  0.10902000  0.33542000  0.84203000  1.0
  C  C231  1  0.89098000  0.16458000  0.34203000  1.0
  C  C232  1  0.80898000  0.64857000  0.18320000  1.0
  C  C233  1  0.19102000  0.85143000  0.68320000  1.0
  C  C234  1  0.19102000  0.35143000  0.81680000  1.0
  C  C235  1  0.80898000  0.14857000  0.31680000  1.0
  C  C236  1  0.71669000  0.40372000  0.18115000  1.0
  C  C237  1  0.28331000  0.09628000  0.68115000  1.0
  C  C238  1  0.28331000  0.59628000  0.81885000  1.0
  C  C239  1  0.71669000  0.90372000  0.31885000  1.0
  C  C240  1  0.69481000  0.33456000  0.14401000  1.0
  C  C241  1  0.30519000  0.16544000  0.64401000  1.0
  C  C242  1  0.30519000  0.66544000  0.85599000  1.0
  C  C243  1  0.69481000  0.83456000  0.35599000  1.0
  C  C244  1  0.61561000  0.32892000  0.11334000  1.0
  C  C245  1  0.38439000  0.17108000  0.61334000  1.0
  C  C246  1  0.38439000  0.67108000  0.88666000  1.0
  C  C247  1  0.61561000  0.82892000  0.38666000  1.0
  C  C248  1  0.55899000  0.39125000  0.12108000  1.0
  C  C249  1  0.44101000  0.10875000  0.62108000  1.0
  C  C250  1  0.44101000  0.60875000  0.87892000  1.0
  C  C251  1  0.55899000  0.89125000  0.37892000  1.0
  C  C252  1  0.58116000  0.46081000  0.15869000  1.0
  C  C253  1  0.41884000  0.03919000  0.65869000  1.0
  C  C254  1  0.41884000  0.53919000  0.84131000  1.0
  C  C255  1  0.58116000  0.96081000  0.34131000  1.0
  C  C256  1  0.66065000  0.46726000  0.18762000  1.0
  C  C257  1  0.33935000  0.03274000  0.68762000  1.0
  C  C258  1  0.33935000  0.53274000  0.81238000  1.0
  C  C259  1  0.66065000  0.96726000  0.31238000  1.0
  C  C260  1  0.63908000  0.60643000  0.23638000  1.0
  C  C261  1  0.36092000  0.89357000  0.73638000  1.0
  C  C262  1  0.36092000  0.39357000  0.76362000  1.0
  C  C263  1  0.63908000  0.10643000  0.26362000  1.0
  C  C264  1  0.59374000  0.66436000  0.24087000  1.0
  C  C265  1  0.40626000  0.83564000  0.74087000  1.0
  C  C266  1  0.40626000  0.33564000  0.75913000  1.0
  C  C267  1  0.59374000  0.16436000  0.25913000  1.0
  C  C268  1  0.53719000  0.72901000  0.24555000  1.0
  C  C269  1  0.46281000  0.77099000  0.74555000  1.0
  C  C270  1  0.46281000  0.27099000  0.75445000  1.0
  C  C271  1  0.53719000  0.22901000  0.25445000  1.0
  C  C272  1  0.46148000  0.71650000  0.28054000  1.0
  C  C273  1  0.53852000  0.78350000  0.78053000  1.0
  C  C274  1  0.53852000  0.28350000  0.71947000  1.0
  C  C275  1  0.46148000  0.21650000  0.21946000  1.0
  C  C276  1  0.40427000  0.77827000  0.28169000  1.0
  C  C277  1  0.59573000  0.72173000  0.78169000  1.0
  C  C278  1  0.59573000  0.22173000  0.71831000  1.0
  C  C279  1  0.40427000  0.27827000  0.21831000  1.0
  C  C280  1  0.49278000  0.86451000  0.21870000  1.0
  C  C281  1  0.50722000  0.63549000  0.71869000  1.0
  C  C282  1  0.50722000  0.13549000  0.78131000  1.0
  C  C283  1  0.49278000  0.36451000  0.28131000  1.0
  C  C284  1  0.55327000  0.80587000  0.21488000  1.0
  C  C285  1  0.44673000  0.69413000  0.71488000  1.0
  C  C286  1  0.44673000  0.19413000  0.78512000  1.0
  C  C287  1  0.55327000  0.30587000  0.28512000  1.0
  C  C288  1  0.34039000  0.09646000  0.31614000  1.0
  C  C289  1  0.65961000  0.40354000  0.81614000  1.0
  C  C290  1  0.65961000  0.90354000  0.68386000  1.0
  C  C291  1  0.34039000  0.59646000  0.18386000  1.0
  C  C292  1  0.38418000  0.15098000  0.36471000  1.0
  C  C293  1  0.61582000  0.34902000  0.86471000  1.0
  C  C294  1  0.61582000  0.84902000  0.63529000  1.0
  C  C295  1  0.38418000  0.65099000  0.13529000  1.0
  C  C296  1  0.36536000  0.23439000  0.37121000  1.0
  C  C297  1  0.63463000  0.26561000  0.87121000  1.0
  C  C298  1  0.63464000  0.76561000  0.62879000  1.0
  C  C299  1  0.36536000  0.73439000  0.12879000  1.0
  C  C300  1  0.41023000  0.28649000  0.41352000  1.0
  C  C301  1  0.58977000  0.21351000  0.91352000  1.0
  C  C302  1  0.58977000  0.71351000  0.58648000  1.0
  C  C303  1  0.41023000  0.78649000  0.08648000  1.0
  C  C304  1  0.47535000  0.25649000  0.45058000  1.0
  C  C305  1  0.52465000  0.24351000  0.95058000  1.0
  C  C306  1  0.52465000  0.74351000  0.54942000  1.0
  C  C307  1  0.47536000  0.75649000  0.04942000  1.0
  C  C308  1  0.49168000  0.17175000  0.44522000  1.0
  C  C309  1  0.50832000  0.32825000  0.94522000  1.0
  C  C310  1  0.50832000  0.82825000  0.55478000  1.0
  C  C311  1  0.49168000  0.67175000  0.05478000  1.0
  C  C312  1  0.44659000  0.11979000  0.40319000  1.0
  C  C313  1  0.55341000  0.38021000  0.90319000  1.0
  C  C314  1  0.55341000  0.88021000  0.59681000  1.0
  C  C315  1  0.44659000  0.61979000  0.09681000  1.0
  C  C316  1  0.52515000  0.31059000  0.49490000  1.0
  C  C317  1  0.47485000  0.18941000  0.99490000  1.0
  C  C318  1  0.47485000  0.68940000  0.50510000  1.0
  C  C319  1  0.52515000  0.81060000  0.00510000  1.0
  C  C320  1  0.48950000  0.37842000  0.52417000  1.0
  C  C321  1  0.51050000  0.12158000  0.02417000  1.0
  C  C322  1  0.51050000  0.62158000  0.47583000  1.0
  C  C323  1  0.48950000  0.87842000  0.97583000  1.0
  C  C324  1  0.53476000  0.42476000  0.56966000  1.0
  C  C325  1  0.46524000  0.07524000  0.06966000  1.0
  C  C326  1  0.46524000  0.57524000  0.43034000  1.0
  C  C327  1  0.53476000  0.92476000  0.93034000  1.0
  C  C328  1  0.61708000  0.40473000  0.58710000  1.0
  C  C329  1  0.38292000  0.09527000  0.08710000  1.0
  C  C330  1  0.38292000  0.59527000  0.41290000  1.0
  C  C331  1  0.61708000  0.90473000  0.91290000  1.0
  C  C332  1  0.65475000  0.34014000  0.55590000  1.0
  C  C333  1  0.34525000  0.15986000  0.05590000  1.0
  C  C334  1  0.34525000  0.65986000  0.44410000  1.0
  C  C335  1  0.65475000  0.84014000  0.94410000  1.0
  C  C336  1  0.60958000  0.29393000  0.51047000  1.0
  C  C337  1  0.39042000  0.20607000  0.01047000  1.0
  C  C338  1  0.39042000  0.70607000  0.48953000  1.0
  C  C339  1  0.60958000  0.79393000  0.98953000  1.0
  C  C340  1  0.66170000  0.44642000  0.64164000  1.0
  C  C341  1  0.33830000  0.05358000  0.14165000  1.0
  C  C342  1  0.33830000  0.55358000  0.35836000  1.0
  C  C343  1  0.66170000  0.94642000  0.85836000  1.0
  C  C344  1  0.81432000  0.58006000  0.83530000  1.0
  C  C345  1  0.18568000  0.91994000  0.33530000  1.0
  C  C346  1  0.18568000  0.41994000  0.16470000  1.0
  C  C347  1  0.81432000  0.08006000  0.66470000  1.0
  C  C348  1  0.86186000  0.62486000  0.88716000  1.0
  C  C349  1  0.13814000  0.87514000  0.38716000  1.0
  C  C350  1  0.13814000  0.37514000  0.11284000  1.0
  C  C351  1  0.86186000  0.12486000  0.61284000  1.0
  C  C352  1  0.92320000  0.58519000  0.92147000  1.0
  C  C353  1  0.07680000  0.91481000  0.42147000  1.0
  C  C354  1  0.07680000  0.41481000  0.07853000  1.0
  C  C355  1  0.92320000  0.08519000  0.57853000  1.0
  C  C356  1  0.97255000  0.62917000  0.96601000  1.0
  C  C357  1  0.02745000  0.87083000  0.46601000  1.0
  C  C358  1  0.02745000  0.37083000  0.03399000  1.0
  C  C359  1  0.97255000  0.12917000  0.53399000  1.0
  C  C360  1  0.96228000  0.71416000  0.97717000  1.0
  C  C361  1  0.03772000  0.78584000  0.47717000  1.0
  C  C362  1  0.03772000  0.28584000  0.02283000  1.0
  C  C363  1  0.96228000  0.21416000  0.52283000  1.0
  C  C364  1  0.89904000  0.75292000  0.94348000  1.0
  C  C365  1  0.10096000  0.74708000  0.44348000  1.0
  C  C366  1  0.10096000  0.24708000  0.05652000  1.0
  C  C367  1  0.89904000  0.25292000  0.55652000  1.0
  C  C368  1  0.84924000  0.70877000  0.89939000  1.0
  C  C369  1  0.15076000  0.79123000  0.39939000  1.0
  C  C370  1  0.15076000  0.29123000  0.10061000  1.0
  C  C371  1  0.84924000  0.20877000  0.60061000  1.0
  C  C372  1  0.01607000  0.76160000  0.02308000  1.0
  C  C373  1  0.98393000  0.73840000  0.52308000  1.0
  C  C374  1  0.98393000  0.23840000  0.97692000  1.0
  C  C375  1  0.01607000  0.26160000  0.47692000  1.0
  C  C376  1  0.10052000  0.74188000  0.03531000  1.0
  C  C377  1  0.89948000  0.75812000  0.53531000  1.0
  C  C378  1  0.89948000  0.25812000  0.96469000  1.0
  C  C379  1  0.10052000  0.24188000  0.46469000  1.0
  C  C380  1  0.15023000  0.78586000  0.07974000  1.0
  C  C381  1  0.84977000  0.71414000  0.57974000  1.0
  C  C382  1  0.84977000  0.21413000  0.92026000  1.0
  C  C383  1  0.15023000  0.28586000  0.42026000  1.0
  C  C384  1  0.11685000  0.85082000  0.11337000  1.0
  C  C385  1  0.88315000  0.64918000  0.61337000  1.0
  C  C386  1  0.88315000  0.14918000  0.88663000  1.0
  C  C387  1  0.11685000  0.35082000  0.38663000  1.0
  C  C388  1  0.03304000  0.87148000  0.10095000  1.0
  C  C389  1  0.96696000  0.62852000  0.60095000  1.0
  C  C390  1  0.96696000  0.12852000  0.89905000  1.0
  C  C391  1  0.03304000  0.37148000  0.39905000  1.0
  C  C392  1  0.98365000  0.82785000  0.05640000  1.0
  C  C393  1  0.01635000  0.67215000  0.55641000  1.0
  C  C394  1  0.01635000  0.17215000  0.94360000  1.0
  C  C395  1  0.98365000  0.32785000  0.44360000  1.0
  C  C396  1  0.16839000  0.89754000  0.16255000  1.0
  C  C397  1  0.83161000  0.60246000  0.66255000  1.0
  C  C398  1  0.83161000  0.10246000  0.83745000  1.0
  C  C399  1  0.16839000  0.39754000  0.33745000  1.0
  N  N400  1  0.10185000  0.13323000  0.22434000  1.0
  N  N401  1  0.89815000  0.36677000  0.72434000  1.0
  N  N402  1  0.89815000  0.86677000  0.77566000  1.0
  N  N403  1  0.10185000  0.63323000  0.27566000  1.0
  N  N404  1  0.41895000  0.85084000  0.25063000  1.0
  N  N405  1  0.58105000  0.64916000  0.75063000  1.0
  N  N406  1  0.58105000  0.14916000  0.74937000  1.0
  N  N407  1  0.41895000  0.35084000  0.24937000  1.0
  O  O408  1  0.28127000  0.12742000  0.28455000  1.0
  O  O409  1  0.71873000  0.37258000  0.78455000  1.0
  O  O410  1  0.71873000  0.87258000  0.71545000  1.0
  O  O411  1  0.28127000  0.62742000  0.21545000  1.0
  O  O412  1  0.36638000  0.02378000  0.30908000  1.0
  O  O413  1  0.63362000  0.47622000  0.80908000  1.0
  O  O414  1  0.63362000  0.97622000  0.69092000  1.0
  O  O415  1  0.36638000  0.52378000  0.19092000  1.0
  O  O416  1  0.61880000  0.49640000  0.67317000  1.0
  O  O417  1  0.38120000  0.00360000  0.17317000  1.0
  O  O418  1  0.38120000  0.50360000  0.32684000  1.0
  O  O419  1  0.61880000  0.99640000  0.82683000  1.0
  O  O420  1  0.73687000  0.42642000  0.65395000  1.0
  O  O421  1  0.26313000  0.07358000  0.15395000  1.0
  O  O422  1  0.26313000  0.57358000  0.34605000  1.0
  O  O423  1  0.73687000  0.92642000  0.84605000  1.0
  O  O424  1  0.75677000  0.61930000  0.80814000  1.0
  O  O425  1  0.24323000  0.88070000  0.30814000  1.0
  O  O426  1  0.24323000  0.38070000  0.19186000  1.0
  O  O427  1  0.75677000  0.11930000  0.69186000  1.0
  O  O428  1  0.83632000  0.50785000  0.82093000  1.0
  O  O429  1  0.16369000  0.99215000  0.32093000  1.0
  O  O430  1  0.16369000  0.49215000  0.17907000  1.0
  O  O431  1  0.83632000  0.00785000  0.67907000  1.0
  O  O432  1  0.13031000  0.95326000  0.19205000  1.0
  O  O433  1  0.86969000  0.54674000  0.69205000  1.0
  O  O434  1  0.86969000  0.04674000  0.80795000  1.0
  O  O435  1  0.13031000  0.45326000  0.30795000  1.0
  O  O436  1  0.24441000  0.87829000  0.17263000  1.0
  O  O437  1  0.75559000  0.62171000  0.67263000  1.0
  O  O438  1  0.75559000  0.12171000  0.82737000  1.0
  O  O439  1  0.24441000  0.37829000  0.32737000  1.0
