# generated using pymatgen
data_CuH4C9(NO)4
_symmetry_space_group_name_H-M   'P 1'
_cell_length_a   10.85610000
_cell_length_b   11.50810000
_cell_length_c   14.84070000
_cell_angle_alpha   89.99980000
_cell_angle_beta   70.63000000
_cell_angle_gamma   89.99970000
_symmetry_Int_Tables_number   1
_chemical_formula_structural   CuH4C9(NO)4
_chemical_formula_sum   'Cu4 H16 C36 N16 O16'
_cell_volume   1749.14609517
_cell_formula_units_Z   4
loop_
 _symmetry_equiv_pos_site_id
 _symmetry_equiv_pos_as_xyz
  1  'x, y, z'
loop_
 _atom_site_type_symbol
 _atom_site_label
 _atom_site_symmetry_multiplicity
 _atom_site_fract_x
 _atom_site_fract_y
 _atom_site_fract_z
 _atom_site_occupancy
  Cu  Cu0  1  0.40907000  0.42077000  0.02276000  1.0
  Cu  Cu1  1  0.59093000  0.92076000  0.47724000  1.0
  Cu  Cu2  1  0.59093000  0.57922000  0.97724000  1.0
  Cu  Cu3  1  0.40908000  0.07922000  0.52276000  1.0
  H  H4  1  0.89095000  0.37549000  0.04720000  1.0
  H  H5  1  0.10905000  0.87549000  0.45280000  1.0
  H  H6  1  0.10907000  0.62450000  0.95280000  1.0
  H  H7  1  0.89093000  0.12451000  0.54721000  1.0
  H  H8  1  0.88961000  0.12120000  0.26168000  1.0
  H  H9  1  0.11038000  0.62120000  0.23832000  1.0
  H  H10  1  0.11038000  0.87878000  0.73831000  1.0
  H  H11  1  0.88961000  0.37879000  0.76169000  1.0
  H  H12  1  0.52631000  0.25458000  0.24544000  1.0
  H  H13  1  0.47368000  0.75460000  0.25455000  1.0
  H  H14  1  0.47369000  0.74544000  0.75456000  1.0
  H  H15  1  0.52631000  0.24543000  0.74544000  1.0
  H  H16  1  0.10097000  0.42800000  0.08545000  1.0
  H  H17  1  0.89903000  0.92800000  0.41456000  1.0
  H  H18  1  0.89902000  0.57200000  0.91456000  1.0
  H  H19  1  0.10098000  0.07200000  0.58543000  1.0
  C  C20  1  0.62910000  0.39216000  0.08991000  1.0
  C  C21  1  0.37091000  0.89216000  0.41009000  1.0
  C  C22  1  0.37092000  0.60785000  0.91009000  1.0
  C  C23  1  0.62909000  0.10784000  0.58991000  1.0
  C  C24  1  0.70150000  0.32162000  0.14099000  1.0
  C  C25  1  0.29850000  0.82162000  0.35901000  1.0
  C  C26  1  0.29852000  0.67839000  0.85902000  1.0
  C  C27  1  0.70148000  0.17838000  0.64099000  1.0
  C  C28  1  0.83804000  0.32173000  0.10817000  1.0
  C  C29  1  0.16196000  0.82173000  0.39183000  1.0
  C  C30  1  0.16197000  0.67827000  0.89183000  1.0
  C  C31  1  0.83803000  0.17827000  0.60817000  1.0
  C  C32  1  0.90395000  0.24945000  0.15237000  1.0
  C  C33  1  0.09605000  0.74945000  0.34763000  1.0
  C  C34  1  0.09606000  0.75055000  0.84764000  1.0
  C  C35  1  0.90394000  0.25055000  0.65236000  1.0
  C  C36  1  0.83673000  0.17820000  0.22883000  1.0
  C  C37  1  0.16327000  0.67821000  0.27117000  1.0
  C  C38  1  0.16327000  0.82179000  0.77117000  1.0
  C  C39  1  0.83673000  0.32179000  0.72883000  1.0
  C  C40  1  0.70039000  0.18241000  0.26338000  1.0
  C  C41  1  0.29961000  0.68242000  0.23661000  1.0
  C  C42  1  0.29962000  0.81759000  0.73662000  1.0
  C  C43  1  0.70038000  0.31759000  0.76339000  1.0
  C  C44  1  0.63259000  0.25319000  0.21924000  1.0
  C  C45  1  0.36741000  0.75320000  0.28075000  1.0
  C  C46  1  0.36742000  0.74683000  0.78076000  1.0
  C  C47  1  0.63258000  0.24682000  0.71925000  1.0
  C  C48  1  0.62700000  0.11195000  0.34945000  1.0
  C  C49  1  0.37300000  0.61195000  0.15055000  1.0
  C  C50  1  0.37302000  0.88805000  0.65055000  1.0
  C  C51  1  0.62699000  0.38805000  0.84945000  1.0
  C  C52  1  0.12694000  0.33763000  0.08832000  1.0
  C  C53  1  0.87305000  0.83762000  0.41169000  1.0
  C  C54  1  0.87306000  0.66238000  0.91169000  1.0
  C  C55  1  0.12695000  0.16238000  0.58831000  1.0
  N  N56  1  0.04285000  0.24872000  0.11911000  1.0
  N  N57  1  0.95715000  0.74871000  0.38089000  1.0
  N  N58  1  0.95715000  0.75129000  0.88090000  1.0
  N  N59  1  0.04285000  0.25128000  0.61910000  1.0
  N  N60  1  0.11410000  0.14941000  0.11476000  1.0
  N  N61  1  0.88590000  0.64940000  0.38524000  1.0
  N  N62  1  0.88591000  0.85060000  0.88525000  1.0
  N  N63  1  0.11410000  0.35059000  0.61476000  1.0
  N  N64  1  0.23597000  0.17955000  0.08206000  1.0
  N  N65  1  0.76403000  0.67954000  0.41793000  1.0
  N  N66  1  0.76404000  0.82046000  0.91794000  1.0
  N  N67  1  0.23596000  0.32046000  0.58207000  1.0
  N  N68  1  0.24703000  0.29617000  0.06500000  1.0
  N  N69  1  0.75297000  0.79616000  0.43500000  1.0
  N  N70  1  0.75297000  0.70384000  0.93500000  1.0
  N  N71  1  0.24703000  0.20383000  0.56500000  1.0
  O  O72  1  0.51835000  0.35249000  0.09325000  1.0
  O  O73  1  0.48166000  0.85249000  0.40674000  1.0
  O  O74  1  0.48167000  0.64749000  0.90674000  1.0
  O  O75  1  0.51834000  0.14749000  0.59325000  1.0
  O  O76  1  0.68548000  0.48361000  0.04724000  1.0
  O  O77  1  0.31452000  0.98360000  0.45276000  1.0
  O  O78  1  0.31451000  0.51641000  0.95277000  1.0
  O  O79  1  0.68549000  0.01639000  0.54724000  1.0
  O  O80  1  0.51666000  0.15191000  0.40045000  1.0
  O  O81  1  0.48333000  0.65191000  0.09955000  1.0
  O  O82  1  0.48334000  0.84808000  0.59955000  1.0
  O  O83  1  0.51666000  0.34809000  0.90044000  1.0
  O  O84  1  0.68284000  0.01973000  0.36376000  1.0
  O  O85  1  0.31716000  0.51973000  0.13624000  1.0
  O  O86  1  0.31717000  0.98026000  0.63623000  1.0
  O  O87  1  0.68284000  0.48025000  0.86377000  1.0
