# generated using pymatgen
data_CdH10C4O9
_symmetry_space_group_name_H-M   'P 1'
_cell_length_a   5.96186000
_cell_length_b   6.78560032
_cell_length_c   11.06920000
_cell_angle_alpha   90.00070400
_cell_angle_beta   90.00030000
_cell_angle_gamma   110.52555140
_symmetry_Int_Tables_number   1
_chemical_formula_structural   CdH10C4O9
_chemical_formula_sum   'Cd2 H20 C8 O18'
_cell_volume   419.37394722
_cell_formula_units_Z   2
loop_
 _symmetry_equiv_pos_site_id
 _symmetry_equiv_pos_as_xyz
  1  'x, y, z'
loop_
 _atom_site_type_symbol
 _atom_site_label
 _atom_site_symmetry_multiplicity
 _atom_site_fract_x
 _atom_site_fract_y
 _atom_site_fract_z
 _atom_site_occupancy
  Cd  Cd0  1  0.49584000  0.99984000  0.73600000  1.0
  Cd  Cd1  1  0.50415000  0.00015000  0.23599000  1.0
  H  H2  1  0.25071000  0.55056000  0.59879000  1.0
  H  H3  1  0.74930000  0.44945000  0.09879000  1.0
  H  H4  1  0.74253000  0.42553000  0.58578000  1.0
  H  H5  1  0.25743000  0.57446000  0.08578000  1.0
  H  H6  1  0.84771000  0.07372000  0.92997000  1.0
  H  H7  1  0.15243000  0.92634000  0.42997000  1.0
  H  H8  1  0.79970000  0.82443000  0.91283000  1.0
  H  H9  1  0.20033000  0.17560000  0.41283000  1.0
  H  H10  1  0.04691000  0.02564000  0.77060000  1.0
  H  H11  1  0.95311000  0.97436000  0.27062000  1.0
  H  H12  1  0.02841000  0.00940000  0.63094000  1.0
  H  H13  1  0.97159000  0.99057000  0.13095000  1.0
  H  H14  1  0.61761000  0.83660000  0.51973000  1.0
  H  H15  1  0.38239000  0.16340000  0.01973000  1.0
  H  H16  1  0.72453000  0.07813000  0.51799000  1.0
  H  H17  1  0.27547000  0.92187000  0.01798000  1.0
  H  H18  1  0.09675000  0.34884000  0.75052000  1.0
  H  H19  1  0.90323000  0.65114000  0.25053000  1.0
  H  H20  1  0.83693000  0.66027000  0.73368000  1.0
  H  H21  1  0.16307000  0.33974000  0.23368000  1.0
  C  C22  1  0.20472000  0.58906000  0.88505000  1.0
  C  C23  1  0.79527000  0.41092000  0.38505000  1.0
  C  C24  1  0.09795000  0.50954000  0.76236000  1.0
  C  C25  1  0.90204000  0.49045000  0.26237000  1.0
  C  C26  1  0.83142000  0.50113000  0.75748000  1.0
  C  C27  1  0.16857000  0.49887000  0.25749000  1.0
  C  C28  1  0.70675000  0.44268000  0.88019000  1.0
  C  C29  1  0.29322000  0.55733000  0.38019000  1.0
  O  O30  1  0.31480000  0.78732000  0.89848000  1.0
  O  O31  1  0.68522000  0.21266000  0.39846000  1.0
  O  O32  1  0.16870000  0.45479000  0.96833000  1.0
  O  O33  1  0.83126000  0.54518000  0.46834000  1.0
  O  O34  1  0.23808000  0.63961000  0.66847000  1.0
  O  O35  1  0.76190000  0.36039000  0.16847000  1.0
  O  O36  1  0.70024000  0.35518000  0.66944000  1.0
  O  O37  1  0.29974000  0.64480000  0.16944000  1.0
  O  O38  1  0.57409000  0.25177000  0.89712000  1.0
  O  O39  1  0.42589000  0.74824000  0.39712000  1.0
  O  O40  1  0.74606000  0.58480000  0.96037000  1.0
  O  O41  1  0.25395000  0.41523000  0.46037000  1.0
  O  O42  1  0.83240000  0.96419000  0.87010000  1.0
  O  O43  1  0.16764000  0.03585000  0.37009000  1.0
  O  O44  1  0.14828000  0.06228000  0.69572000  1.0
  O  O45  1  0.85172000  0.93771000  0.19573000  1.0
  O  O46  1  0.71578000  0.95627000  0.57201000  1.0
  O  O47  1  0.28421000  0.04372000  0.07200000  1.0
