# generated using pymatgen
data_CdH18C18(NO)4
_symmetry_space_group_name_H-M   'P 1'
_cell_length_a   7.01007000
_cell_length_b   9.67925000
_cell_length_c   13.35360000
_cell_angle_alpha   88.39210000
_cell_angle_beta   84.09150000
_cell_angle_gamma   86.17680000
_symmetry_Int_Tables_number   1
_chemical_formula_structural   CdH18C18(NO)4
_chemical_formula_sum   'Cd2 H36 C36 N8 O8'
_cell_volume   899.04715377
_cell_formula_units_Z   2
loop_
 _symmetry_equiv_pos_site_id
 _symmetry_equiv_pos_as_xyz
  1  'x, y, z'
loop_
 _atom_site_type_symbol
 _atom_site_label
 _atom_site_symmetry_multiplicity
 _atom_site_fract_x
 _atom_site_fract_y
 _atom_site_fract_z
 _atom_site_occupancy
  Cd  Cd0  1  0.35220000  0.74455000  0.26163000  1.0
  Cd  Cd1  1  0.64780000  0.25545000  0.73837000  1.0
  H  H2  1  0.70844000  0.88402000  0.89507000  1.0
  H  H3  1  0.29156000  0.11599000  0.10493000  1.0
  H  H4  1  0.66429000  0.63738000  0.61595000  1.0
  H  H5  1  0.33570000  0.36262000  0.38405000  1.0
  H  H6  1  0.39775000  0.77028000  0.01183000  1.0
  H  H7  1  0.60225000  0.22972000  0.98817000  1.0
  H  H8  1  0.86303000  0.39673000  0.55241000  1.0
  H  H9  1  0.13697000  0.60327000  0.44759000  1.0
  H  H10  1  0.94670000  0.39957000  0.42154000  1.0
  H  H11  1  0.05330000  0.60042000  0.57846000  1.0
  H  H12  1  0.40092000  0.79674000  0.50877000  1.0
  H  H13  1  0.59908000  0.20325000  0.49123000  1.0
  H  H14  1  0.75684000  0.53892000  0.30799000  1.0
  H  H15  1  0.24316000  0.46107000  0.69201000  1.0
  H  H16  1  0.11233000  0.25498000  0.26605000  1.0
  H  H17  1  0.88767000  0.74502000  0.73395000  1.0
  H  H18  1  0.55896000  0.08251000  0.31606000  1.0
  H  H19  1  0.44105000  0.91749000  0.68394000  1.0
  H  H20  1  0.84107000  0.82444000  0.19566000  1.0
  H  H21  1  0.15892000  0.17556000  0.80435000  1.0
  H  H22  1  0.63840000  0.43483000  0.11563000  1.0
  H  H23  1  0.36161000  0.56517000  0.88437000  1.0
  H  H24  1  0.80914000  0.99369000  0.41147000  1.0
  H  H25  1  0.19087000  0.00632000  0.58854000  1.0
  H  H26  1  0.98228000  0.10857000  0.43425000  1.0
  H  H27  1  0.01772000  0.89144000  0.56575000  1.0
  H  H28  1  0.42746000  0.26272000  0.20170000  1.0
  H  H29  1  0.57255000  0.73728000  0.79830000  1.0
  H  H30  1  0.93407000  0.52322000  0.07851000  1.0
  H  H31  1  0.06593000  0.47677000  0.92149000  1.0
  H  H32  1  0.12843000  0.39815000  0.07638000  1.0
  H  H33  1  0.87158000  0.60184000  0.92362000  1.0
  H  H34  1  0.10227000  0.89705000  0.07071000  1.0
  H  H35  1  0.89772000  0.10295000  0.92929000  1.0
  H  H36  1  0.07971000  0.87068000  0.94088000  1.0
  H  H37  1  0.92028000  0.12932000  0.05912000  1.0
  C  C38  1  0.68685000  0.85162000  0.97370000  1.0
  C  C39  1  0.31315000  0.14839000  0.02630000  1.0
  C  C40  1  0.13288000  0.54909000  0.18564000  1.0
  C  C41  1  0.86711000  0.45093000  0.81435000  1.0
  C  C42  1  0.08467000  0.95141000  0.33084000  1.0
  C  C43  1  0.91534000  0.04858000  0.66917000  1.0
  C  C44  1  0.89122000  0.35515000  0.18392000  1.0
  C  C45  1  0.10879000  0.64485000  0.81608000  1.0
  C  C46  1  0.84512000  0.15767000  0.29990000  1.0
  C  C47  1  0.15489000  0.84233000  0.70010000  1.0
  C  C48  1  0.64453000  0.64566000  0.53651000  1.0
  C  C49  1  0.35546000  0.35434000  0.46349000  1.0
  C  C50  1  0.53506000  0.79870000  0.03237000  1.0
  C  C51  1  0.46494000  0.20130000  0.96763000  1.0
  C  C52  1  0.91197000  0.46314000  0.48844000  1.0
  C  C53  1  0.08803000  0.53686000  0.51156000  1.0
  C  C54  1  0.51660000  0.72263000  0.48267000  1.0
  C  C55  1  0.48339000  0.27737000  0.51733000  1.0
  C  C56  1  0.69611000  0.59224000  0.37537000  1.0
  C  C57  1  0.30389000  0.40776000  0.62463000  1.0
  C  C58  1  0.96243000  0.25596000  0.25127000  1.0
  C  C59  1  0.03758000  0.74404000  0.74873000  1.0
  C  C60  1  0.65251000  0.15908000  0.27984000  1.0
  C  C61  1  0.34750000  0.84092000  0.72015000  1.0
  C  C62  1  0.75784000  0.82502000  0.13155000  1.0
  C  C63  1  0.24216000  0.17498000  0.86845000  1.0
  C  C64  1  0.69667000  0.35692000  0.16696000  1.0
  C  C65  1  0.30334000  0.64308000  0.83304000  1.0
  C  C66  1  0.92380000  0.05420000  0.37363000  1.0
  C  C67  1  0.07621000  0.94581000  0.62637000  1.0
  C  C68  1  0.57843000  0.25948000  0.21477000  1.0
  C  C69  1  0.42158000  0.74051000  0.78523000  1.0
  C  C70  1  0.01845000  0.45596000  0.12703000  1.0
  C  C71  1  0.98155000  0.54403000  0.87297000  1.0
  C  C72  1  0.01264000  0.92184000  0.00933000  1.0
  C  C73  1  0.98735000  0.07816000  0.99067000  1.0
  N  N74  1  0.75646000  0.56359000  0.46719000  1.0
  N  N75  1  0.24354000  0.43641000  0.53282000  1.0
  N  N76  1  0.55006000  0.68812000  0.38222000  1.0
  N  N77  1  0.44993000  0.31187000  0.61778000  1.0
  N  N78  1  0.58089000  0.78301000  0.13058000  1.0
  N  N79  1  0.41910000  0.21699000  0.86942000  1.0
  N  N80  1  0.82690000  0.86636000  0.03769000  1.0
  N  N81  1  0.17309000  0.13364000  0.96231000  1.0
  O  O82  1  0.19544000  0.50955000  0.26799000  1.0
  O  O83  1  0.80457000  0.49046000  0.73201000  1.0
  O  O84  1  0.16642000  0.66666667  0.14321000  1.0
  O  O85  1  0.83357000  0.33333333  0.85679000  1.0
  O  O86  1  0.10493000  0.83678000  0.37984000  1.0
  O  O87  1  0.89507000  0.16322000  0.62017000  1.0
  O  O88  1  0.19230000  0.98052000  0.25151000  1.0
  O  O89  1  0.80770000  0.01947000  0.74849000  1.0
