# generated using pymatgen
data_SmH22(C3O)11
_symmetry_space_group_name_H-M   'P 1'
_cell_length_a   10.33320000
_cell_length_b   11.46010000
_cell_length_c   13.83630000
_cell_angle_alpha   102.35300000
_cell_angle_beta   110.86000000
_cell_angle_gamma   100.14200000
_symmetry_Int_Tables_number   1
_chemical_formula_structural   SmH22(C3O)11
_chemical_formula_sum   'Sm2 H44 C66 O22'
_cell_volume   1437.39337634
_cell_formula_units_Z   2
loop_
 _symmetry_equiv_pos_site_id
 _symmetry_equiv_pos_as_xyz
  1  'x, y, z'
loop_
 _atom_site_type_symbol
 _atom_site_label
 _atom_site_symmetry_multiplicity
 _atom_site_fract_x
 _atom_site_fract_y
 _atom_site_fract_z
 _atom_site_occupancy
  Sm  Sm0  1  0.61722000  0.56506000  0.66283000  1.0
  Sm  Sm1  1  0.38278000  0.43494000  0.33717000  1.0
  H  H2  1  0.19028000  0.14396000  0.97920000  1.0
  H  H3  1  0.80972000  0.85604000  0.02081000  1.0
  H  H4  1  0.26422000  0.94037000  0.94153000  1.0
  H  H5  1  0.73578000  0.05964000  0.05847000  1.0
  H  H6  1  0.46434000  0.87276000  0.90610000  1.0
  H  H7  1  0.53566000  0.12724000  0.09390000  1.0
  H  H8  1  0.44555000  0.80596000  0.71783000  1.0
  H  H9  1  0.55445000  0.19404000  0.28216000  1.0
  H  H10  1  0.22585000  0.80575000  0.56316000  1.0
  H  H11  1  0.77414000  0.19425000  0.43684000  1.0
  H  H12  1  0.03057000  0.88006000  0.60089000  1.0
  H  H13  1  0.96942000  0.11994000  0.39911000  1.0
  H  H14  1  0.86215000  0.45952000  0.60849000  1.0
  H  H15  1  0.13785000  0.54048000  0.39151000  1.0
  H  H16  1  0.86566000  0.73159000  0.44859000  1.0
  H  H17  1  0.13433000  0.26841000  0.55141000  1.0
  H  H18  1  0.75519000  0.90353000  0.41962000  1.0
  H  H19  1  0.24480000  0.09648000  0.58038000  1.0
  H  H20  1  0.62799000  0.91237000  0.23259000  1.0
  H  H21  1  0.37201000  0.08763000  0.76740000  1.0
  H  H22  1  0.60422000  0.74557000  0.07348000  1.0
  H  H23  1  0.39578000  0.25443000  0.92651000  1.0
  H  H24  1  0.71659000  0.57285000  0.10316000  1.0
  H  H25  1  0.28342000  0.42715000  0.89684000  1.0
  H  H26  1  0.69457000  0.94564000  0.63457000  1.0
  H  H27  1  0.30543000  0.05437000  0.36543000  1.0
  H  H28  1  0.98983000  0.67573000  0.17558000  1.0
  H  H29  1  0.01018000  0.32427000  0.82442000  1.0
  H  H30  1  0.93794000  0.62223000  0.97803000  1.0
  H  H31  1  0.06206000  0.37777000  0.02197000  1.0
  H  H32  1  0.12966000  0.70063000  0.91986000  1.0
  H  H33  1  0.87034000  0.29937000  0.08014000  1.0
  H  H34  1  0.37057000  0.83200000  0.05719000  1.0
  H  H35  1  0.62943000  0.16800000  0.94280000  1.0
  H  H36  1  0.42034000  0.88682000  0.25296000  1.0
  H  H37  1  0.57966000  0.11317000  0.74704000  1.0
  H  H38  1  0.93874000  0.54005000  0.77511000  1.0
  H  H39  1  0.06126000  0.45996000  0.22489000  1.0
  H  H40  1  0.83112000  0.44353000  0.79455000  1.0
  H  H41  1  0.16888000  0.55647000  0.20545000  1.0
  H  H42  1  0.55533000  0.35968000  0.74471000  1.0
  H  H43  1  0.44468000  0.64032000  0.25530000  1.0
  H  H44  1  0.49702000  0.45440000  0.80409000  1.0
  H  H45  1  0.50298000  0.54560000  0.19591000  1.0
  C  C46  1  0.79981000  0.78556000  0.82253000  1.0
  C  C47  1  0.20019000  0.21444000  0.17747000  1.0
  C  C48  1  0.90186000  0.89863000  0.91230000  1.0
  C  C49  1  0.09815000  0.10137000  0.08771000  1.0
  C  C50  1  0.10673000  0.07888000  0.98705000  1.0
  C  C51  1  0.89327000  0.92112000  0.01296000  1.0
  C  C52  1  0.00952000  0.97842000  0.89858000  1.0
  C  C53  1  0.99049000  0.02158000  0.10143000  1.0
  C  C54  1  0.01831000  0.96294000  0.79016000  1.0
  C  C55  1  0.98169000  0.03707000  0.20984000  1.0
  C  C56  1  0.13489000  0.91414000  0.77272000  1.0
  C  C57  1  0.86511000  0.08586000  0.22728000  1.0
  C  C58  1  0.25664000  0.91122000  0.85898000  1.0
  C  C59  1  0.74336000  0.08878000  0.14102000  1.0
  C  C60  1  0.36854000  0.87356000  0.83916000  1.0
  C  C61  1  0.63146000  0.12644000  0.16084000  1.0
  C  C62  1  0.35840000  0.83588000  0.73311000  1.0
  C  C63  1  0.64160000  0.16412000  0.26689000  1.0
  C  C64  1  0.23543000  0.83560000  0.64638000  1.0
  C  C65  1  0.76457000  0.16440000  0.35363000  1.0
  C  C66  1  0.12528000  0.87554000  0.66641000  1.0
  C  C67  1  0.87472000  0.12446000  0.33359000  1.0
  C  C68  1  0.69870000  0.49244000  0.42594000  1.0
  C  C69  1  0.30130000  0.50756000  0.57407000  1.0
  C  C70  1  0.85525000  0.50131000  0.46339000  1.0
  C  C71  1  0.14474000  0.49868000  0.53662000  1.0
  C  C72  1  0.92419000  0.48087000  0.56243000  1.0
  C  C73  1  0.07581000  0.51912000  0.43757000  1.0
  C  C74  1  0.93185000  0.52068000  0.39947000  1.0
  C  C75  1  0.06814000  0.47931000  0.60054000  1.0
  C  C76  1  0.86991000  0.54199000  0.29143000  1.0
  C  C77  1  0.13009000  0.45800000  0.70857000  1.0
  C  C78  1  0.79626000  0.64056000  0.27729000  1.0
  C  C79  1  0.20374000  0.35944000  0.72271000  1.0
  C  C80  1  0.80661000  0.73356000  0.36645000  1.0
  C  C81  1  0.19339000  0.26644000  0.63355000  1.0
  C  C82  1  0.74504000  0.83040000  0.35021000  1.0
  C  C83  1  0.25496000  0.16960000  0.64979000  1.0
  C  C84  1  0.67282000  0.83489000  0.24495000  1.0
  C  C85  1  0.32719000  0.16511000  0.75505000  1.0
  C  C86  1  0.66098000  0.74202000  0.15557000  1.0
  C  C87  1  0.33902000  0.25797000  0.84442000  1.0
  C  C88  1  0.72278000  0.64538000  0.17147000  1.0
  C  C89  1  0.27722000  0.35462000  0.82853000  1.0
  C  C90  1  0.48262000  0.74290000  0.49629000  1.0
  C  C91  1  0.51739000  0.25710000  0.50372000  1.0
  C  C92  1  0.48722000  0.87547000  0.49879000  1.0
  C  C93  1  0.51279000  0.12454000  0.50121000  1.0
  C  C94  1  0.60839000  0.96968000  0.57628000  1.0
  C  C95  1  0.39162000  0.03032000  0.42372000  1.0
  C  C96  1  0.37733000  0.90638000  0.42249000  1.0
  C  C97  1  0.62268000  0.09363000  0.57751000  1.0
  C  C98  1  0.23951000  0.81028000  0.34317000  1.0
  C  C99  1  0.76049000  0.18973000  0.65684000  1.0
  C  C100  1  0.20866000  0.78308000  0.22636000  1.0
  C  C101  1  0.79134000  0.21692000  0.77365000  1.0
  C  C102  1  0.07240000  0.70840000  0.14841000  1.0
  C  C103  1  0.92760000  0.29159000  0.85159000  1.0
  C  C104  1  0.04397000  0.67893000  0.03864000  1.0
  C  C105  1  0.95603000  0.32107000  0.96137000  1.0
  C  C106  1  0.15129000  0.72358000  0.00564000  1.0
  C  C107  1  0.84871000  0.27642000  0.99436000  1.0
  C  C108  1  0.28667000  0.79785000  0.08275000  1.0
  C  C109  1  0.71333000  0.20215000  0.91724000  1.0
  C  C110  1  0.31520000  0.82831000  0.19259000  1.0
  C  C111  1  0.68481000  0.17169000  0.80741000  1.0
  O  O112  1  0.82827000  0.74741000  0.74057000  1.0
  O  O113  1  0.17172000  0.25259000  0.25943000  1.0
  O  O114  1  0.68836000  0.72769000  0.83109000  1.0
  O  O115  1  0.31164000  0.27230000  0.16891000  1.0
  O  O116  1  0.93580000  0.99883000  0.72106000  1.0
  O  O117  1  0.06421000  0.00117000  0.27894000  1.0
  O  O118  1  0.64893000  0.52773000  0.49668000  1.0
  O  O119  1  0.35107000  0.47227000  0.50331000  1.0
  O  O120  1  0.61730000  0.44734000  0.32585000  1.0
  O  O121  1  0.38269000  0.55266000  0.67414000  1.0
  O  O122  1  0.89068000  0.48078000  0.21525000  1.0
  O  O123  1  0.10932000  0.51922000  0.78476000  1.0
  O  O124  1  0.42631000  0.66129000  0.40303000  1.0
  O  O125  1  0.57369000  0.33871000  0.59697000  1.0
  O  O126  1  0.53741000  0.72254000  0.58653000  1.0
  O  O127  1  0.46259000  0.27746000  0.41346000  1.0
  O  O128  1  0.15606000  0.75815000  0.37623000  1.0
  O  O129  1  0.84395000  0.24185000  0.62377000  1.0
  O  O130  1  0.84041000  0.51932000  0.77296000  1.0
  O  O131  1  0.15959000  0.48068000  0.22704000  1.0
  O  O132  1  0.58254000  0.44505000  0.79187000  1.0
  O  O133  1  0.41746000  0.55495000  0.20813000  1.0
