# generated using pymatgen
data_NdH19(C17O4)2
_symmetry_space_group_name_H-M   'P 1'
_cell_length_a   9.32465000
_cell_length_b   11.97120000
_cell_length_c   15.80710000
_cell_angle_alpha   81.18800000
_cell_angle_beta   73.69860000
_cell_angle_gamma   71.15550000
_symmetry_Int_Tables_number   1
_chemical_formula_structural   NdH19(C17O4)2
_chemical_formula_sum   'Nd2 H38 C68 O16'
_cell_volume   1598.98775368
_cell_formula_units_Z   2
loop_
 _symmetry_equiv_pos_site_id
 _symmetry_equiv_pos_as_xyz
  1  'x, y, z'
loop_
 _atom_site_type_symbol
 _atom_site_label
 _atom_site_symmetry_multiplicity
 _atom_site_fract_x
 _atom_site_fract_y
 _atom_site_fract_z
 _atom_site_occupancy
  Nd  Nd0  1  0.18423000  0.02836000  0.01976000  1.0
  Nd  Nd1  1  0.81577000  0.97164000  0.98024000  1.0
  H  H2  1  0.47619000  0.19235000  0.05248000  1.0
  H  H3  1  0.52381000  0.80765000  0.94752000  1.0
  H  H4  1  0.62739000  0.71787000  0.50296000  1.0
  H  H5  1  0.37261000  0.28213000  0.49704000  1.0
  H  H6  1  0.82475000  0.28368000  0.52075000  1.0
  H  H7  1  0.17525000  0.71632000  0.47925000  1.0
  H  H8  1  0.85549000  0.23637000  0.38026000  1.0
  H  H9  1  0.14451000  0.76363000  0.61974000  1.0
  H  H10  1  0.05299000  0.12955000  0.25405000  1.0
  H  H11  1  0.94701000  0.87045000  0.74595000  1.0
  H  H12  1  0.29748000  0.39008000  0.21189000  1.0
  H  H13  1  0.70252000  0.60992000  0.78811000  1.0
  H  H14  1  0.10584000  0.49353000  0.34097000  1.0
  H  H15  1  0.89416000  0.50647000  0.65903000  1.0
  H  H16  1  0.81421000  0.56670000  0.25686000  1.0
  H  H17  1  0.18579000  0.43330000  0.74314000  1.0
  H  H18  1  0.90230000  0.70890000  0.13818000  1.0
  H  H19  1  0.09770000  0.29110000  0.86182000  1.0
  H  H20  1  0.98449000  0.88618000  0.32842000  1.0
  H  H21  1  0.01551000  0.11381000  0.67158000  1.0
  H  H22  1  0.88668000  0.74791000  0.44934000  1.0
  H  H23  1  0.11331000  0.25209000  0.55066000  1.0
  H  H24  1  0.59794000  0.77543000  0.62762000  1.0
  H  H25  1  0.40206000  0.22457000  0.37237000  1.0
  H  H26  1  0.41702000  0.88844000  0.75382000  1.0
  H  H27  1  0.58298000  0.11156000  0.24618000  1.0
  H  H28  1  0.18429000  0.61938000  0.83257000  1.0
  H  H29  1  0.81571000  0.38062000  0.16743000  1.0
  H  H30  1  0.36864000  0.50278000  0.70787000  1.0
  H  H31  1  0.63136000  0.49722000  0.29213000  1.0
  H  H32  1  0.71848000  0.43455000  0.75145000  1.0
  H  H33  1  0.28152000  0.56545000  0.24855000  1.0
  H  H34  1  0.64959000  0.30524000  0.88514000  1.0
  H  H35  1  0.35041000  0.69476000  0.11486000  1.0
  H  H36  1  0.45463000  0.13776000  0.74224000  1.0
  H  H37  1  0.54537000  0.86224000  0.25776000  1.0
  H  H38  1  0.53651000  0.26042000  0.60525000  1.0
  H  H39  1  0.46349000  0.73958000  0.39475000  1.0
  C  C40  1  0.84180000  0.44221000  0.43921000  1.0
  C  C41  1  0.15820000  0.55779000  0.56080000  1.0
  C  C42  1  0.78739000  0.56762000  0.43591000  1.0
  C  C43  1  0.21261000  0.43238000  0.56409000  1.0
  C  C44  1  0.67352000  0.62172000  0.50826000  1.0
  C  C45  1  0.32648000  0.37828000  0.49174000  1.0
  C  C46  1  0.61370000  0.56003000  0.58584000  1.0
  C  C47  1  0.38630000  0.43997000  0.41416000  1.0
  C  C48  1  0.67086000  0.43466000  0.58952000  1.0
  C  C49  1  0.32914000  0.56533000  0.41048000  1.0
  C  C50  1  0.77931000  0.37995000  0.51575000  1.0
  C  C51  1  0.22069000  0.62005000  0.48425000  1.0
  C  C52  1  0.96417000  0.37485000  0.36794000  1.0
  C  C53  1  0.03583000  0.62515000  0.63206000  1.0
  C  C54  1  0.95415000  0.26904000  0.34478000  1.0
  C  C55  1  0.04585000  0.73096000  0.65522000  1.0
  C  C56  1  0.06316000  0.20938000  0.27396000  1.0
  C  C57  1  0.93684000  0.79062000  0.72604000  1.0
  C  C58  1  0.18495000  0.25498000  0.22450000  1.0
  C  C59  1  0.81506000  0.74502000  0.77550000  1.0
  C  C60  1  0.20035000  0.35721000  0.24950000  1.0
  C  C61  1  0.79965000  0.64279000  0.75050000  1.0
  C  C62  1  0.09245000  0.41518000  0.32103000  1.0
  C  C63  1  0.90755000  0.58482000  0.67897000  1.0
  C  C64  1  0.29295000  0.19584000  0.14564000  1.0
  C  C65  1  0.70705000  0.80416000  0.85436000  1.0
  C  C66  1  0.84290000  0.64786000  0.36166000  1.0
  C  C67  1  0.15710000  0.35215000  0.63834000  1.0
  C  C68  1  0.84893000  0.63755000  0.27332000  1.0
  C  C69  1  0.15107000  0.36245000  0.72668000  1.0
  C  C70  1  0.89919000  0.71665000  0.20649000  1.0
  C  C71  1  0.10081000  0.28335000  0.79352000  1.0
  C  C72  1  0.94833000  0.80633000  0.22633000  1.0
  C  C73  1  0.05166000  0.19367000  0.77367000  1.0
  C  C74  1  0.94305000  0.81743000  0.31421000  1.0
  C  C75  1  0.05695000  0.18257000  0.68579000  1.0
  C  C76  1  0.88889000  0.74015000  0.38109000  1.0
  C  C77  1  0.11111000  0.25985000  0.61891000  1.0
  C  C78  1  0.01446000  0.88603000  0.15562000  1.0
  C  C79  1  0.98554000  0.11397000  0.84438000  1.0
  C  C80  1  0.49842000  0.62904000  0.65883000  1.0
  C  C81  1  0.50158000  0.37096000  0.34117000  1.0
  C  C82  1  0.50666000  0.74064000  0.67151000  1.0
  C  C83  1  0.49334000  0.25936000  0.32849000  1.0
  C  C84  1  0.40607000  0.80435000  0.74248000  1.0
  C  C85  1  0.59393000  0.19565000  0.25752000  1.0
  C  C86  1  0.29106000  0.76008000  0.80191000  1.0
  C  C87  1  0.70895000  0.23992000  0.19809000  1.0
  C  C88  1  0.27671000  0.65205000  0.78768000  1.0
  C  C89  1  0.72329000  0.34795000  0.21232000  1.0
  C  C90  1  0.37987000  0.58718000  0.71774000  1.0
  C  C91  1  0.62013000  0.41282000  0.28226000  1.0
  C  C92  1  0.18653000  0.82901000  0.87897000  1.0
  C  C93  1  0.81347000  0.17099000  0.12103000  1.0
  C  C94  1  0.62984000  0.35740000  0.66956000  1.0
  C  C95  1  0.37017000  0.64260000  0.33044000  1.0
  C  C96  1  0.66209000  0.36893000  0.74884000  1.0
  C  C97  1  0.33791000  0.63107000  0.25116000  1.0
  C  C98  1  0.62307000  0.29718000  0.82385000  1.0
  C  C99  1  0.37693000  0.70282000  0.17615000  1.0
  C  C100  1  0.54534000  0.21524000  0.82217000  1.0
  C  C101  1  0.45466000  0.78476000  0.17783000  1.0
  C  C102  1  0.51527000  0.20150000  0.74307000  1.0
  C  C103  1  0.48473000  0.79850000  0.25693000  1.0
  C  C104  1  0.56076000  0.27014000  0.66689000  1.0
  C  C105  1  0.43924000  0.72986000  0.33311000  1.0
  C  C106  1  0.49086000  0.14792000  0.90577000  1.0
  C  C107  1  0.50915000  0.85208000  0.09423000  1.0
  O  O108  1  0.27736000  0.10814000  0.11988000  1.0
  O  O109  1  0.72264000  0.89187000  0.88012000  1.0
  O  O110  1  0.40698000  0.24236000  0.10398000  1.0
  O  O111  1  0.59302000  0.75764000  0.89602000  1.0
  O  O112  1  0.09372000  0.94428000  0.17252000  1.0
  O  O113  1  0.90628000  0.05572000  0.82748000  1.0
  O  O114  1  0.99605000  0.89192000  0.07672000  1.0
  O  O115  1  0.00395000  0.10808000  0.92328000  1.0
  O  O116  1  0.24439000  0.89306000  0.90912000  1.0
  O  O117  1  0.75561000  0.10694000  0.09088000  1.0
  O  O118  1  0.04777000  0.82144000  0.90805000  1.0
  O  O119  1  0.95223000  0.17856000  0.09195000  1.0
  O  O120  1  0.36581000  0.12089000  0.91711000  1.0
  O  O121  1  0.63419000  0.87911000  0.08289000  1.0
  O  O122  1  0.57154000  0.12553000  0.96405000  1.0
  O  O123  1  0.42846000  0.87447000  0.03595000  1.0
