# generated using pymatgen
data_CuH12C20(NO2)2
_symmetry_space_group_name_H-M   'P 1'
_cell_length_a   8.15030000
_cell_length_b   16.76600000
_cell_length_c   16.76600000
_cell_angle_alpha   90.00030000
_cell_angle_beta   90.00030000
_cell_angle_gamma   89.99890000
_symmetry_Int_Tables_number   1
_chemical_formula_structural   CuH12C20(NO2)2
_chemical_formula_sum   'Cu4 H48 C80 N8 O16'
_cell_volume   2291.03919054
_cell_formula_units_Z   4
loop_
 _symmetry_equiv_pos_site_id
 _symmetry_equiv_pos_as_xyz
  1  'x, y, z'
loop_
 _atom_site_type_symbol
 _atom_site_label
 _atom_site_symmetry_multiplicity
 _atom_site_fract_x
 _atom_site_fract_y
 _atom_site_fract_z
 _atom_site_occupancy
  Cu  Cu0  1  0.00000000  0.21969000  0.21968000  1.0
  Cu  Cu1  1  0.00000000  0.78033000  0.78033000  1.0
  Cu  Cu2  1  0.50000000  0.28032000  0.71968000  1.0
  Cu  Cu3  1  0.49999000  0.71968000  0.28032000  1.0
  H  H4  1  0.58340000  0.97410000  0.30860000  1.0
  H  H5  1  0.58340000  0.02590000  0.69139000  1.0
  H  H6  1  0.08340000  0.19140000  0.47410000  1.0
  H  H7  1  0.08339000  0.80861000  0.52590000  1.0
  H  H8  1  0.91661000  0.52590000  0.80861000  1.0
  H  H9  1  0.91659000  0.47409000  0.19140000  1.0
  H  H10  1  0.41660000  0.30860000  0.97410000  1.0
  H  H11  1  0.41661000  0.69139000  0.02590000  1.0
  H  H12  1  0.05170000  0.87056000  0.23431000  1.0
  H  H13  1  0.05174000  0.12946000  0.76568000  1.0
  H  H14  1  0.55172000  0.26569000  0.37055000  1.0
  H  H15  1  0.55170000  0.73431000  0.62945000  1.0
  H  H16  1  0.44831000  0.62944000  0.73430000  1.0
  H  H17  1  0.44827000  0.37054000  0.26568000  1.0
  H  H18  1  0.94830000  0.23431000  0.87055000  1.0
  H  H19  1  0.94828000  0.76569000  0.12946000  1.0
  H  H20  1  0.78127000  0.08738000  0.18765000  1.0
  H  H21  1  0.78129000  0.91265000  0.81237000  1.0
  H  H22  1  0.28129000  0.31236000  0.58736000  1.0
  H  H23  1  0.28127000  0.68763000  0.41263000  1.0
  H  H24  1  0.71872000  0.41262000  0.68763000  1.0
  H  H25  1  0.71871000  0.58736000  0.31236000  1.0
  H  H26  1  0.21873000  0.18765000  0.08737000  1.0
  H  H27  1  0.21872000  0.81237000  0.91265000  1.0
  H  H28  1  0.78876000  0.93751000  0.19455000  1.0
  H  H29  1  0.78879000  0.06252000  0.80544000  1.0
  H  H30  1  0.28878000  0.30544000  0.43750000  1.0
  H  H31  1  0.28877000  0.69454000  0.56250000  1.0
  H  H32  1  0.71123000  0.56249000  0.69453000  1.0
  H  H33  1  0.71121000  0.43749000  0.30544000  1.0
  H  H34  1  0.21125000  0.19456000  0.93751000  1.0
  H  H35  1  0.21122000  0.80545000  0.06251000  1.0
  H  H36  1  0.28803000  0.18132000  0.25667000  1.0
  H  H37  1  0.28806000  0.81868000  0.74334000  1.0
  H  H38  1  0.78806000  0.24334000  0.68132000  1.0
  H  H39  1  0.78803000  0.75666000  0.31868000  1.0
  H  H40  1  0.21197000  0.31868000  0.75667000  1.0
  H  H41  1  0.21192000  0.68132000  0.24334000  1.0
  H  H42  1  0.71196000  0.25667000  0.18132000  1.0
  H  H43  1  0.71196000  0.74334000  0.81868000  1.0
  H  H44  1  0.55425000  0.12243000  0.29855000  1.0
  H  H45  1  0.55426000  0.87757000  0.70146000  1.0
  H  H46  1  0.05427000  0.20146000  0.62242000  1.0
  H  H47  1  0.05424000  0.79855000  0.37757000  1.0
  H  H48  1  0.94576000  0.37757000  0.79855000  1.0
  H  H49  1  0.94572000  0.62242000  0.20146000  1.0
  H  H50  1  0.44575000  0.29855000  0.12243000  1.0
  H  H51  1  0.44576000  0.70145000  0.87757000  1.0
  C  C52  1  0.33766000  0.94898000  0.27351000  1.0
  C  C53  1  0.33767000  0.05101000  0.72648000  1.0
  C  C54  1  0.83768000  0.22649000  0.44898000  1.0
  C  C55  1  0.83766000  0.77351000  0.55102000  1.0
  C  C56  1  0.16234000  0.55102000  0.77351000  1.0
  C  C57  1  0.16231000  0.44898000  0.22649000  1.0
  C  C58  1  0.66234000  0.27350000  0.94899000  1.0
  C  C59  1  0.66233000  0.72649000  0.05102000  1.0
  C  C60  1  0.36647000  0.86073000  0.28080000  1.0
  C  C61  1  0.36650000  0.13927000  0.71918000  1.0
  C  C62  1  0.86649000  0.21920000  0.36072000  1.0
  C  C63  1  0.86647000  0.78082000  0.63928000  1.0
  C  C64  1  0.13354000  0.63928000  0.78081000  1.0
  C  C65  1  0.13349000  0.36072000  0.21919000  1.0
  C  C66  1  0.63353000  0.28080000  0.86073000  1.0
  C  C67  1  0.63351000  0.71919000  0.13927000  1.0
  C  C68  1  0.46687000  0.00018000  0.29030000  1.0
  C  C69  1  0.46688000  0.99982000  0.70970000  1.0
  C  C70  1  0.96688000  0.20970000  0.50018000  1.0
  C  C71  1  0.96686000  0.79031000  0.49981000  1.0
  C  C72  1  0.03314000  0.49981000  0.79030000  1.0
  C  C73  1  0.03311000  0.50017000  0.20970000  1.0
  C  C74  1  0.53312000  0.29029000  0.00019000  1.0
  C  C75  1  0.53313000  0.70970000  0.99982000  1.0
  C  C76  1  0.16791000  0.06661000  0.24403000  1.0
  C  C77  1  0.16793000  0.93340000  0.75597000  1.0
  C  C78  1  0.66794000  0.25597000  0.56660000  1.0
  C  C79  1  0.66791000  0.74403000  0.43339000  1.0
  C  C80  1  0.33208000  0.43339000  0.74403000  1.0
  C  C81  1  0.33205000  0.56660000  0.25597000  1.0
  C  C82  1  0.83208000  0.24403000  0.06661000  1.0
  C  C83  1  0.83208000  0.75597000  0.93340000  1.0
  C  C84  1  0.04254000  0.93515000  0.23026000  1.0
  C  C85  1  0.04257000  0.06486000  0.76973000  1.0
  C  C86  1  0.54256000  0.26973000  0.43515000  1.0
  C  C87  1  0.54255000  0.73026000  0.56486000  1.0
  C  C88  1  0.45745000  0.56485000  0.73026000  1.0
  C  C89  1  0.45744000  0.43514000  0.26973000  1.0
  C  C90  1  0.95746000  0.23026000  0.93515000  1.0
  C  C91  1  0.95745000  0.76973000  0.06486000  1.0
  C  C92  1  0.89320000  0.05588000  0.20446000  1.0
  C  C93  1  0.89321000  0.94413000  0.79554000  1.0
  C  C94  1  0.39321000  0.29554000  0.55587000  1.0
  C  C95  1  0.39319000  0.70445000  0.44413000  1.0
  C  C96  1  0.60680000  0.44412000  0.70445000  1.0
  C  C97  1  0.60679000  0.55587000  0.29554000  1.0
  C  C98  1  0.10680000  0.20447000  0.05588000  1.0
  C  C99  1  0.10679000  0.79555000  0.94413000  1.0
  C  C100  1  0.89836000  0.97215000  0.20823000  1.0
  C  C101  1  0.89838000  0.02787000  0.79177000  1.0
  C  C102  1  0.39838000  0.29177000  0.47214000  1.0
  C  C103  1  0.39837000  0.70822000  0.52786000  1.0
  C  C104  1  0.60163000  0.52785000  0.70821000  1.0
  C  C105  1  0.60162000  0.47214000  0.29177000  1.0
  C  C106  1  0.10165000  0.20823000  0.97215000  1.0
  C  C107  1  0.10163000  0.79178000  0.02787000  1.0
  C  C108  1  0.18270000  0.98147000  0.24974000  1.0
  C  C109  1  0.18272000  0.01854000  0.75025000  1.0
  C  C110  1  0.68272000  0.25026000  0.48146000  1.0
  C  C111  1  0.68271000  0.74974000  0.51854000  1.0
  C  C112  1  0.31729000  0.51854000  0.74974000  1.0
  C  C113  1  0.31727000  0.48145000  0.25025000  1.0
  C  C114  1  0.81730000  0.24974000  0.98147000  1.0
  C  C115  1  0.81729000  0.75025000  0.01854000  1.0
  C  C116  1  0.30297000  0.11674000  0.26146000  1.0
  C  C117  1  0.30298000  0.88326000  0.73855000  1.0
  C  C118  1  0.80300000  0.23855000  0.61674000  1.0
  C  C119  1  0.80296000  0.76146000  0.38326000  1.0
  C  C120  1  0.19703000  0.38326000  0.76146000  1.0
  C  C121  1  0.19700000  0.61673000  0.23855000  1.0
  C  C122  1  0.69702000  0.26146000  0.11675000  1.0
  C  C123  1  0.69703000  0.73855000  0.88326000  1.0
  C  C124  1  0.45040000  0.08371000  0.28456000  1.0
  C  C125  1  0.45040000  0.91628000  0.71544000  1.0
  C  C126  1  0.95041000  0.21545000  0.58371000  1.0
  C  C127  1  0.95039000  0.78456000  0.41629000  1.0
  C  C128  1  0.04960000  0.41629000  0.78456000  1.0
  C  C129  1  0.04958000  0.58371000  0.21544000  1.0
  C  C130  1  0.54959000  0.28456000  0.08371000  1.0
  C  C131  1  0.54961000  0.71544000  0.91629000  1.0
  N  N132  1  0.02246000  0.10105000  0.22140000  1.0
  N  N133  1  0.02247000  0.89896000  0.77861000  1.0
  N  N134  1  0.52248000  0.27861000  0.60104000  1.0
  N  N135  1  0.52246000  0.72139000  0.39896000  1.0
  N  N136  1  0.47754000  0.39896000  0.72139000  1.0
  N  N137  1  0.47751000  0.60104000  0.27861000  1.0
  N  N138  1  0.97753000  0.22140000  0.10105000  1.0
  N  N139  1  0.97754000  0.77861000  0.89896000  1.0
  O  O140  1  0.51809000  0.83863000  0.27702000  1.0
  O  O141  1  0.51810000  0.16136000  0.72297000  1.0
  O  O142  1  0.01812000  0.22298000  0.33864000  1.0
  O  O143  1  0.01809000  0.77703000  0.66137000  1.0
  O  O144  1  0.98192000  0.66137000  0.77702000  1.0
  O  O145  1  0.98187000  0.33863000  0.22298000  1.0
  O  O146  1  0.48190000  0.27702000  0.83863000  1.0
  O  O147  1  0.48189000  0.72297000  0.16137000  1.0
  O  O148  1  0.24984000  0.81217000  0.29012000  1.0
  O  O149  1  0.24986000  0.18784000  0.70984000  1.0
  O  O150  1  0.74987000  0.20987000  0.31216000  1.0
  O  O151  1  0.74984000  0.79014000  0.68783000  1.0
  O  O152  1  0.25017000  0.68783000  0.79014000  1.0
  O  O153  1  0.25012000  0.31216000  0.20986000  1.0
  O  O154  1  0.75015000  0.29012000  0.81217000  1.0
  O  O155  1  0.75013000  0.70987000  0.18784000  1.0
