# generated using pymatgen
data_Zn3H18C26(N3O5)2
_symmetry_space_group_name_H-M   'P 1'
_cell_length_a   9.14109000
_cell_length_b   10.64790000
_cell_length_c   11.02303393
_cell_angle_alpha   63.64748589
_cell_angle_beta   72.71002804
_cell_angle_gamma   82.54710000
_symmetry_Int_Tables_number   1
_chemical_formula_structural   Zn3H18C26(N3O5)2
_chemical_formula_sum   'Zn3 H18 C26 N6 O10'
_cell_volume   917.96610654
_cell_formula_units_Z   1
loop_
 _symmetry_equiv_pos_site_id
 _symmetry_equiv_pos_as_xyz
  1  'x, y, z'
loop_
 _atom_site_type_symbol
 _atom_site_label
 _atom_site_symmetry_multiplicity
 _atom_site_fract_x
 _atom_site_fract_y
 _atom_site_fract_z
 _atom_site_occupancy
  Zn  Zn0  1  0.31551000  0.99882000  0.62704000  1.0
  Zn  Zn1  1  0.68449000  0.00117000  0.37297000  1.0
  Zn  Zn2  1  0.00000000  0.00000000  0.50000000  1.0
  H  H3  1  0.87159000  0.61202000  0.80708000  1.0
  H  H4  1  0.12841000  0.38797000  0.19292000  1.0
  H  H5  1  0.24769000  0.43857000  0.56318000  1.0
  H  H6  1  0.75230000  0.56144000  0.43682000  1.0
  H  H7  1  0.85515000  0.31511000  0.50366000  1.0
  H  H8  1  0.14486000  0.68490000  0.49633000  1.0
  H  H9  1  0.21868000  0.62283000  0.99222000  1.0
  H  H10  1  0.78132000  0.37717000  0.00779000  1.0
  H  H11  1  0.21174000  0.06947000  0.17628000  1.0
  H  H12  1  0.78827000  0.93054000  0.82371000  1.0
  H  H13  1  0.53420000  0.07045000  0.11596000  1.0
  H  H14  1  0.46580000  0.92954000  0.88405000  1.0
  H  H15  1  0.76535000  0.22364000  0.84194000  1.0
  H  H16  1  0.23464000  0.77637000  0.15806000  1.0
  H  H17  1  0.98877000  0.74516000  0.15771000  1.0
  H  H18  1  0.01121000  0.25487000  0.84228000  1.0
  H  H19  1  0.75742000  0.86741000  0.08574000  1.0
  H  H20  1  0.24256000  0.13261000  0.91426000  1.0
  C  C21  1  0.92681000  0.56169000  0.89222000  1.0
  C  C22  1  0.07318000  0.43830000  0.10777000  1.0
  C  C23  1  0.13968000  0.46713000  0.53481000  1.0
  C  C24  1  0.86032000  0.53285000  0.46520000  1.0
  C  C25  1  0.11557000  0.21657000  0.57926000  1.0
  C  C26  1  0.88442000  0.78347000  0.42074000  1.0
  C  C27  1  0.91625000  0.39661000  0.50333000  1.0
  C  C28  1  0.08377000  0.60337000  0.49668000  1.0
  C  C29  1  0.12312000  0.56770000  0.99705000  1.0
  C  C30  1  0.87688000  0.43230000  0.00294000  1.0
  C  C31  1  0.28635000  0.05299000  0.24202000  1.0
  C  C32  1  0.71366000  0.94701000  0.75798000  1.0
  C  C33  1  0.05633000  0.36317000  0.53847000  1.0
  C  C34  1  0.94368000  0.63682000  0.46154000  1.0
  C  C35  1  0.10482000  0.76838000  0.76761000  1.0
  C  C36  1  0.89519000  0.23161000  0.23239000  1.0
  C  C37  1  0.05042000  0.63006000  0.88851000  1.0
  C  C38  1  0.94958000  0.36992000  0.11149000  1.0
  C  C39  1  0.44500000  0.05197000  0.21271000  1.0
  C  C40  1  0.55501000  0.94803000  0.78729000  1.0
  C  C41  1  0.99349000  0.85726000  0.08925000  1.0
  C  C42  1  0.00651000  0.14275000  0.91075000  1.0
  C  C43  1  0.86386000  0.92543000  0.04793000  1.0
  C  C44  1  0.13613000  0.07458000  0.95207000  1.0
  C  C45  1  0.87041000  0.06846000  0.95812000  1.0
  C  C46  1  0.12958000  0.93154000  0.04188000  1.0
  N  N47  1  0.34653000  0.00650000  0.43354000  1.0
  N  N48  1  0.65347000  0.99349000  0.56646000  1.0
  N  N49  1  0.22950000  0.02491000  0.37921000  1.0
  N  N50  1  0.77050000  0.97509000  0.62079000  1.0
  N  N51  1  0.47856000  0.02308000  0.33396000  1.0
  N  N52  1  0.52143000  0.97692000  0.66604000  1.0
  O  O53  1  0.20792000  0.83127000  0.77879000  1.0
  O  O54  1  0.79209000  0.16873000  0.22121000  1.0
  O  O55  1  0.25367000  0.19509000  0.59085000  1.0
  O  O56  1  0.74630000  0.80489000  0.40916000  1.0
  O  O57  1  0.04814000  0.81128000  0.66466000  1.0
  O  O58  1  0.95186000  0.18872000  0.33533000  1.0
  O  O59  1  0.02856000  0.12090000  0.60207000  1.0
  O  O60  1  0.97148000  0.87911000  0.39794000  1.0
  O  O61  1  0.73890000  0.13151000  0.91995000  1.0
  O  O62  1  0.26108000  0.86851000  0.08003000  1.0
