# generated using pymatgen
data_Tb2MnH28(C8O9)2
_symmetry_space_group_name_H-M   'P 1'
_cell_length_a   8.89730000
_cell_length_b   9.10433000
_cell_length_c   10.63010000
_cell_angle_alpha   81.87460000
_cell_angle_beta   71.85300000
_cell_angle_gamma   77.31560000
_symmetry_Int_Tables_number   1
_chemical_formula_structural   Tb2MnH28(C8O9)2
_chemical_formula_sum   'Tb2 Mn1 H28 C16 O18'
_cell_volume   795.80526311
_cell_formula_units_Z   1
loop_
 _symmetry_equiv_pos_site_id
 _symmetry_equiv_pos_as_xyz
  1  'x, y, z'
loop_
 _atom_site_type_symbol
 _atom_site_label
 _atom_site_symmetry_multiplicity
 _atom_site_fract_x
 _atom_site_fract_y
 _atom_site_fract_z
 _atom_site_occupancy
  Tb  Tb0  1  0.91448000  0.07780000  0.68268000  1.0
  Tb  Tb1  1  0.08552000  0.92219000  0.31732000  1.0
  Mn  Mn2  1  0.00000000  0.00000000  0.00000000  1.0
  H  H3  1  0.82834000  0.36697000  0.05475000  1.0
  H  H4  1  0.17166000  0.63302000  0.94526000  1.0
  H  H5  1  0.63114000  0.41435000  0.03075000  1.0
  H  H6  1  0.36887000  0.58564000  0.96926000  1.0
  H  H7  1  0.78568000  0.51018000  0.93115000  1.0
  H  H8  1  0.21432000  0.48982000  0.06887000  1.0
  H  H9  1  0.73350000  0.74011000  0.07309000  1.0
  H  H10  1  0.26650000  0.25989000  0.92691000  1.0
  H  H11  1  0.58299000  0.74505000  0.99057000  1.0
  H  H12  1  0.41700000  0.25496000  0.00943000  1.0
  H  H13  1  0.56634000  0.89433000  0.08492000  1.0
  H  H14  1  0.43366000  0.10567000  0.91508000  1.0
  H  H15  1  0.49490000  0.86749000  0.57655000  1.0
  H  H16  1  0.50510000  0.13253000  0.42344000  1.0
  H  H17  1  0.45604000  0.72076000  0.70524000  1.0
  H  H18  1  0.54397000  0.27925000  0.29475000  1.0
  H  H19  1  0.52633000  0.87733000  0.73407000  1.0
  H  H20  1  0.47367000  0.12268000  0.26593000  1.0
  H  H21  1  0.17990000  0.31999000  0.25486000  1.0
  H  H22  1  0.82009000  0.68001000  0.74515000  1.0
  H  H23  1  0.25866000  0.39043000  0.36582000  1.0
  H  H24  1  0.74135000  0.60956000  0.63418000  1.0
  H  H25  1  0.06468000  0.47290000  0.35626000  1.0
  H  H26  1  0.93533000  0.52710000  0.64374000  1.0
  H  H27  1  0.61040000  0.17848000  0.61452000  1.0
  H  H28  1  0.38961000  0.82152000  0.38548000  1.0
  H  H29  1  0.74202000  0.12185000  0.47896000  1.0
  H  H30  1  0.25798000  0.87815000  0.52104000  1.0
  C  C31  1  0.27711000  0.92036000  0.74028000  1.0
  C  C32  1  0.72289000  0.07964000  0.25972000  1.0
  C  C33  1  0.76102000  0.40044000  0.98168000  1.0
  C  C34  1  0.23898000  0.59955000  0.01833000  1.0
  C  C35  1  0.65396000  0.81185000  0.01933000  1.0
  C  C36  1  0.34603000  0.18816000  0.98067000  1.0
  C  C37  1  0.81111000  0.28766000  0.87910000  1.0
  C  C38  1  0.18889000  0.71235000  0.12090000  1.0
  C  C39  1  0.74695000  0.89616000  0.89972000  1.0
  C  C40  1  0.25305000  0.10384000  0.10028000  1.0
  C  C41  1  0.44971000  0.84348000  0.68428000  1.0
  C  C42  1  0.55029000  0.15653000  0.31572000  1.0
  C  C43  1  0.15041000  0.36500000  0.35133000  1.0
  C  C44  1  0.84960000  0.63498000  0.64865000  1.0
  C  C45  1  0.07981000  0.25688000  0.46233000  1.0
  C  C46  1  0.92019000  0.74312000  0.53766000  1.0
  O  O47  1  0.18890000  0.96095000  0.66092000  1.0
  O  O48  1  0.81110000  0.03905000  0.33908000  1.0
  O  O49  1  0.03951000  0.29039000  0.58147000  1.0
  O  O50  1  0.96050000  0.70961000  0.41853000  1.0
  O  O51  1  0.89877000  0.89412000  0.88065000  1.0
  O  O52  1  0.10122000  0.10589000  0.11936000  1.0
  O  O53  1  0.94533000  0.19102000  0.86697000  1.0
  O  O54  1  0.05468000  0.80897000  0.13303000  1.0
  O  O55  1  0.67939000  0.97185000  0.81550000  1.0
  O  O56  1  0.32060000  0.02815000  0.18449000  1.0
  O  O57  1  0.72752000  0.28722000  0.80235000  1.0
  O  O58  1  0.27248000  0.71278000  0.19765000  1.0
  O  O59  1  0.05608000  0.12925000  0.43875000  1.0
  O  O60  1  0.94393000  0.87075000  0.56125000  1.0
  O  O61  1  0.72205000  0.17387000  0.56210000  1.0
  O  O62  1  0.27795000  0.82613000  0.43790000  1.0
  O  O63  1  0.22846000  0.93839000  0.86310000  1.0
  O  O64  1  0.77154000  0.06161000  0.13690000  1.0
