# generated using pymatgen
data_MnH60C66(N4O)2
_symmetry_space_group_name_H-M   'P 1'
_cell_length_a   11.57070000
_cell_length_b   12.44290000
_cell_length_c   14.02370000
_cell_angle_alpha   112.37800000
_cell_angle_beta   105.74300000
_cell_angle_gamma   91.96610000
_symmetry_Int_Tables_number   1
_chemical_formula_structural   MnH60C66(N4O)2
_chemical_formula_sum   'Mn1 H60 C66 N8 O2'
_cell_volume   1775.34478977
_cell_formula_units_Z   1
loop_
 _symmetry_equiv_pos_site_id
 _symmetry_equiv_pos_as_xyz
  1  'x, y, z'
loop_
 _atom_site_type_symbol
 _atom_site_label
 _atom_site_symmetry_multiplicity
 _atom_site_fract_x
 _atom_site_fract_y
 _atom_site_fract_z
 _atom_site_occupancy
  Mn  Mn0  1  0.99720000  0.00364000  0.99911000  1.0
  H  H1  1  0.33869000  0.13171000  0.86402000  1.0
  H  H2  1  0.66160000  0.86738000  0.13581000  1.0
  H  H3  1  0.17316000  0.96969000  0.68244000  1.0
  H  H4  1  0.82696000  0.02973000  0.31741000  1.0
  H  H5  1  0.75308000  0.72110000  0.59752000  1.0
  H  H6  1  0.24697000  0.27786000  0.40221000  1.0
  H  H7  1  0.61784000  0.69100000  0.71945000  1.0
  H  H8  1  0.38268000  0.30764000  0.28054000  1.0
  H  H9  1  0.01757000  0.61268000  0.40551000  1.0
  H  H10  1  0.98216000  0.38749000  0.59460000  1.0
  H  H11  1  0.83049000  0.89991000  0.38881000  1.0
  H  H12  1  0.16876000  0.09966000  0.61020000  1.0
  H  H13  1  0.05511000  0.69555000  0.69929000  1.0
  H  H14  1  0.94531000  0.30630000  0.30137000  1.0
  H  H15  1  0.04523000  0.57513000  0.57581000  1.0
  H  H16  1  0.95376000  0.42569000  0.42508000  1.0
  H  H17  1  0.16915000  0.69097000  0.63653000  1.0
  H  H18  1  0.83038000  0.30913000  0.36287000  1.0
  H  H19  1  0.90133000  0.61163000  0.22641000  1.0
  H  H20  1  0.09818000  0.38778000  0.77332000  1.0
  H  H21  1  0.82259000  0.73083000  0.22148000  1.0
  H  H22  1  0.17715000  0.26863000  0.77790000  1.0
  H  H23  1  0.98213000  0.74666000  0.24925000  1.0
  H  H24  1  0.01763000  0.25258000  0.75029000  1.0
  H  H25  1  0.84701000  0.06832000  0.55803000  1.0
  H  H26  1  0.15194000  0.93155000  0.44056000  1.0
  H  H27  1  0.74804000  0.98768000  0.59274000  1.0
  H  H28  1  0.25137000  0.01275000  0.40670000  1.0
  H  H29  1  0.89300000  0.05750000  0.68513000  1.0
  H  H30  1  0.10669000  0.94308000  0.31377000  1.0
  H  H31  1  0.55903000  0.45797000  0.07163000  1.0
  H  H32  1  0.44181000  0.54124000  0.92814000  1.0
  H  H33  1  0.68882000  0.17616000  0.15542000  1.0
  H  H34  1  0.31023000  0.82231000  0.84406000  1.0
  H  H35  1  0.23049000  0.35234000  0.01775000  1.0
  H  H36  1  0.77002000  0.64863000  0.98256000  1.0
  H  H37  1  0.31653000  0.39214000  0.94633000  1.0
  H  H38  1  0.68420000  0.60781000  0.05356000  1.0
  H  H39  1  0.33357000  0.48642000  0.08216000  1.0
  H  H40  1  0.66759000  0.51409000  0.91768000  1.0
  H  H41  1  0.77166000  0.42113000  0.08535000  1.0
  H  H42  1  0.22878000  0.57584000  0.91308000  1.0
  H  H43  1  0.82445000  0.30524000  0.12162000  1.0
  H  H44  1  0.17547000  0.69239000  0.87832000  1.0
  H  H45  1  0.80752000  0.43817000  0.22198000  1.0
  H  H46  1  0.19257000  0.56035000  0.77685000  1.0
  H  H47  1  0.46304000  0.08337000  0.21172000  1.0
  H  H48  1  0.53673000  0.91613000  0.78825000  1.0
  H  H49  1  0.55034000  0.01420000  0.12574000  1.0
  H  H50  1  0.44748000  0.98426000  0.87273000  1.0
  H  H51  1  0.39034000  0.00370000  0.07175000  1.0
  H  H52  1  0.60736000  0.99650000  0.92853000  1.0
  H  H53  1  0.23538000  0.56878000  0.35033000  1.0
  H  H54  1  0.76560000  0.43175000  0.65173000  1.0
  H  H55  1  0.09085000  0.47656000  0.27384000  1.0
  H  H56  1  0.91042000  0.52358000  0.72785000  1.0
  H  H57  1  0.22057000  0.44160000  0.22818000  1.0
  H  H58  1  0.78090000  0.55938000  0.77363000  1.0
  H  H59  1  0.03529000  0.36557000  0.09537000  1.0
  H  H60  1  0.96641000  0.63543000  0.90669000  1.0
  C  C61  1  0.20827000  0.09959000  0.94626000  1.0
  C  C62  1  0.79098000  0.90122000  0.05340000  1.0
  C  C63  1  0.25347000  0.08520000  0.85657000  1.0
  C  C64  1  0.74633000  0.91466000  0.14321000  1.0
  C  C65  1  0.17005000  0.00425000  0.76518000  1.0
  C  C66  1  0.82965000  0.99575000  0.23456000  1.0
  C  C67  1  0.07285000  0.96830000  0.79774000  1.0
  C  C68  1  0.92616000  0.03267000  0.20178000  1.0
  C  C69  1  0.97123000  0.88429000  0.72635000  1.0
  C  C70  1  0.02779000  0.11667000  0.27318000  1.0
  C  C71  1  0.88105000  0.84283000  0.75872000  1.0
  C  C72  1  0.11790000  0.15817000  0.24080000  1.0
  C  C73  1  0.77338000  0.76057000  0.68501000  1.0
  C  C74  1  0.22628000  0.23923000  0.31468000  1.0
  C  C75  1  0.70540000  0.74540000  0.74627000  1.0
  C  C76  1  0.29449000  0.25423000  0.25352000  1.0
  C  C77  1  0.77091000  0.81772000  0.85805000  1.0
  C  C78  1  0.22833000  0.18300000  0.14161000  1.0
  C  C79  1  0.27158000  0.17144000  0.05464000  1.0
  C  C80  1  0.72774000  0.82912000  0.94505000  1.0
  C  C81  1  0.95607000  0.83843000  0.60781000  1.0
  C  C82  1  0.04323000  0.16206000  0.39175000  1.0
  C  C83  1  0.00123000  0.73501000  0.55683000  1.0
  C  C84  1  0.99828000  0.26548000  0.44306000  1.0
  C  C85  1  0.98294000  0.69302000  0.44507000  1.0
  C  C86  1  0.01663000  0.30712000  0.55480000  1.0
  C  C87  1  0.92181000  0.75107000  0.38309000  1.0
  C  C88  1  0.07763000  0.24871000  0.61646000  1.0
  C  C89  1  0.87848000  0.85364000  0.43599000  1.0
  C  C90  1  0.12080000  0.14613000  0.56325000  1.0
  C  C91  1  0.89454000  0.89904000  0.54731000  1.0
  C  C92  1  0.10469000  0.10110000  0.45194000  1.0
  C  C93  1  0.07055000  0.67092000  0.62046000  1.0
  C  C94  1  0.92908000  0.32992000  0.37979000  1.0
  C  C95  1  0.90560000  0.70736000  0.26391000  1.0
  C  C96  1  0.09402000  0.29209000  0.73564000  1.0
  C  C97  1  0.84366000  0.00892000  0.59877000  1.0
  C  C98  1  0.15561000  0.99133000  0.40023000  1.0
  C  C99  1  0.39801000  0.22872000  0.07915000  1.0
  C  C100  1  0.60163000  0.77121000  0.92067000  1.0
  C  C101  1  0.42087000  0.33206000  0.06405000  1.0
  C  C102  1  0.57936000  0.66787000  0.93594000  1.0
  C  C103  1  0.54138000  0.37809000  0.08389000  1.0
  C  C104  1  0.45899000  0.62122000  0.91589000  1.0
  C  C105  1  0.63896000  0.32393000  0.11712000  1.0
  C  C106  1  0.36095000  0.67469000  0.88232000  1.0
  C  C107  1  0.61404000  0.22127000  0.13162000  1.0
  C  C108  1  0.38533000  0.77753000  0.86788000  1.0
  C  C109  1  0.49532000  0.17290000  0.11391000  1.0
  C  C110  1  0.50387000  0.82646000  0.88575000  1.0
  C  C111  1  0.31986000  0.39346000  0.02595000  1.0
  C  C112  1  0.68081000  0.60693000  0.97409000  1.0
  C  C113  1  0.76738000  0.37463000  0.13723000  1.0
  C  C114  1  0.23271000  0.62326000  0.86186000  1.0
  C  C115  1  0.47337000  0.06256000  0.13107000  1.0
  C  C116  1  0.52521000  0.93682000  0.86850000  1.0
  C  C117  1  0.11246000  0.80470000  0.06458000  1.0
  C  C118  1  0.89127000  0.19506000  0.93643000  1.0
  C  C119  1  0.05780000  0.61986000  0.05494000  1.0
  C  C120  1  0.94388000  0.38134000  0.94725000  1.0
  C  C121  1  0.07706000  0.54228000  0.10959000  1.0
  C  C122  1  0.92429000  0.45871000  0.89258000  1.0
  C  C123  1  0.02080000  0.42629000  0.05571000  1.0
  C  C124  1  0.98083000  0.57471000  0.94635000  1.0
  C  C125  1  0.17551000  0.51404000  0.26865000  1.0
  C  C126  1  0.82566000  0.48663000  0.73330000  1.0
  N  N127  1  0.09752000  0.02816000  0.90827000  1.0
  N  N128  1  0.90121000  0.97336000  0.09119000  1.0
  N  N129  1  0.87860000  0.87503000  0.86381000  1.0
  N  N130  1  0.12011000  0.12658000  0.13568000  1.0
  N  N131  1  0.12128000  0.87472000  0.02651000  1.0
  N  N132  1  0.88546000  0.12328000  0.97354000  1.0
  N  N133  1  0.11473000  0.73342000  0.11020000  1.0
  N  N134  1  0.88722000  0.26734000  0.89249000  1.0
  O  O135  1  0.15269000  0.59026000  0.21329000  1.0
  O  O136  1  0.84828000  0.41069000  0.78902000  1.0
