# generated using pymatgen
data_CdH14Pd(C5N4)2
_symmetry_space_group_name_H-M   'P 1'
_cell_length_a   8.66818000
_cell_length_b   8.77333000
_cell_length_c   11.54890000
_cell_angle_alpha   74.60490000
_cell_angle_beta   73.81120000
_cell_angle_gamma   69.17760000
_symmetry_Int_Tables_number   1
_chemical_formula_structural   CdH14Pd(C5N4)2
_chemical_formula_sum   'Cd2 H28 Pd2 C20 N16'
_cell_volume   774.70687248
_cell_formula_units_Z   2
loop_
 _symmetry_equiv_pos_site_id
 _symmetry_equiv_pos_as_xyz
  1  'x, y, z'
loop_
 _atom_site_type_symbol
 _atom_site_label
 _atom_site_symmetry_multiplicity
 _atom_site_fract_x
 _atom_site_fract_y
 _atom_site_fract_z
 _atom_site_occupancy
  Cd  Cd0  1  0.33975000  0.64775000  0.27037000  1.0
  Cd  Cd1  1  0.66025000  0.35225000  0.72963000  1.0
  H  H2  1  0.07518000  0.92114000  0.37482000  1.0
  H  H3  1  0.92482000  0.07886000  0.62518000  1.0
  H  H4  1  0.17528000  0.00103000  0.24140000  1.0
  H  H5  1  0.82473000  0.99897000  0.75860000  1.0
  H  H6  1  0.10548000  0.61927000  0.49960000  1.0
  H  H7  1  0.89452000  0.38073000  0.50040000  1.0
  H  H8  1  0.29300000  0.48422000  0.51971000  1.0
  H  H9  1  0.70700000  0.51578000  0.48029000  1.0
  H  H10  1  0.17389000  0.43605000  0.45547000  1.0
  H  H11  1  0.82611000  0.56395000  0.54453000  1.0
  H  H12  1  0.45433000  0.70037000  0.01486000  1.0
  H  H13  1  0.54567000  0.29963000  0.98514000  1.0
  H  H14  1  0.36773000  0.88894000  0.04776000  1.0
  H  H15  1  0.63227000  0.11106000  0.95224000  1.0
  H  H16  1  0.56426000  0.78350000  0.06111000  1.0
  H  H17  1  0.43574000  0.21650000  0.93889000  1.0
  H  H18  1  0.42786000  0.28304000  0.20473000  1.0
  H  H19  1  0.57214000  0.71696000  0.79527000  1.0
  H  H20  1  0.65985000  0.01520000  0.18711000  1.0
  H  H21  1  0.34015000  0.98480000  0.81289000  1.0
  H  H22  1  0.97161000  0.22767000  0.28935000  1.0
  H  H23  1  0.02839000  0.77233000  0.71065000  1.0
  H  H24  1  0.73344000  0.48922000  0.29011000  1.0
  H  H25  1  0.26656000  0.51078000  0.70989000  1.0
  H  H26  1  0.92256000  0.83291000  0.27139000  1.0
  H  H27  1  0.07744000  0.16709000  0.72861000  1.0
  H  H28  1  0.02549000  0.92558000  0.13129000  1.0
  H  H29  1  0.97451000  0.07443000  0.86871000  1.0
  Pd  Pd30  1  0.00000000  0.50000000  0.00000000  1.0
  Pd  Pd31  1  0.50000000  0.00000000  0.50000000  1.0
  C  C32  1  0.13587000  0.26328000  0.00900000  1.0
  C  C33  1  0.86413000  0.73672000  0.99101000  1.0
  C  C34  1  0.12482000  0.52924000  0.10755000  1.0
  C  C35  1  0.87518000  0.47076000  0.89245000  1.0
  C  C36  1  0.50146000  0.82489000  0.42149000  1.0
  C  C37  1  0.49854000  0.17510000  0.57851000  1.0
  C  C38  1  0.26540000  0.11998000  0.47559000  1.0
  C  C39  1  0.73459000  0.88003000  0.52440000  1.0
  C  C40  1  0.55236000  0.26600000  0.21965000  1.0
  C  C41  1  0.44764000  0.73400000  0.78035000  1.0
  C  C42  1  0.68104000  0.11693000  0.21156000  1.0
  C  C43  1  0.31896000  0.88307000  0.78844000  1.0
  C  C44  1  0.83694000  0.09799000  0.23624000  1.0
  C  C45  1  0.16306000  0.90201000  0.76376000  1.0
  C  C46  1  0.85536000  0.23361000  0.26671000  1.0
  C  C47  1  0.14464000  0.76639000  0.73329000  1.0
  C  C48  1  0.72139000  0.38000000  0.26961000  1.0
  C  C49  1  0.27861000  0.62001000  0.73039000  1.0
  C  C50  1  0.97616000  0.93575000  0.22859000  1.0
  C  C51  1  0.02384000  0.06425000  0.77141000  1.0
  N  N52  1  0.21791000  0.12341000  0.01484000  1.0
  N  N53  1  0.78209000  0.87659000  0.98516000  1.0
  N  N54  1  0.19722000  0.54772000  0.17197000  1.0
  N  N55  1  0.80278000  0.45228000  0.82803000  1.0
  N  N56  1  0.50120000  0.72350000  0.37273000  1.0
  N  N57  1  0.49880000  0.27650000  0.62727000  1.0
  N  N58  1  0.12645000  0.19120000  0.46245000  1.0
  N  N59  1  0.87357000  0.80879000  0.53755000  1.0
  N  N60  1  0.57137000  0.39683000  0.24782000  1.0
  N  N61  1  0.42863000  0.60317000  0.75218000  1.0
  N  N62  1  0.11811000  0.91115000  0.28424000  1.0
  N  N63  1  0.88189000  0.08885000  0.71576000  1.0
  N  N64  1  0.20983000  0.53223000  0.46199000  1.0
  N  N65  1  0.79017000  0.46777000  0.53800000  1.0
  N  N66  1  0.44677000  0.77218000  0.07397000  1.0
  N  N67  1  0.55324000  0.22782000  0.92603000  1.0
