# generated using pymatgen
data_CdH7C8S2N3O
_symmetry_space_group_name_H-M   'P 1'
_cell_length_a   7.93016000
_cell_length_b   8.15868000
_cell_length_c   18.15770000
_cell_angle_alpha   86.34730000
_cell_angle_beta   89.99950000
_cell_angle_gamma   89.99990000
_symmetry_Int_Tables_number   1
_chemical_formula_structural   CdH7C8S2N3O
_chemical_formula_sum   'Cd4 H28 C32 S8 N12 O4'
_cell_volume   1172.41007512
_cell_formula_units_Z   4
loop_
 _symmetry_equiv_pos_site_id
 _symmetry_equiv_pos_as_xyz
  1  'x, y, z'
loop_
 _atom_site_type_symbol
 _atom_site_label
 _atom_site_symmetry_multiplicity
 _atom_site_fract_x
 _atom_site_fract_y
 _atom_site_fract_z
 _atom_site_occupancy
  Cd  Cd0  1  0.67145000  0.67423000  0.99797000  1.0
  Cd  Cd1  1  0.17145000  0.32578000  0.50203000  1.0
  Cd  Cd2  1  0.32855000  0.32578000  0.00203000  1.0
  Cd  Cd3  1  0.82855000  0.67423000  0.49797000  1.0
  H  H4  1  0.69723000  0.25152000  0.29101000  1.0
  H  H5  1  0.19723000  0.74849000  0.20899000  1.0
  H  H6  1  0.30276000  0.74848000  0.70899000  1.0
  H  H7  1  0.80277000  0.25151000  0.79101000  1.0
  H  H8  1  0.90511000  0.05005000  0.24597000  1.0
  H  H9  1  0.40511000  0.94995000  0.25403000  1.0
  H  H10  1  0.09489000  0.94995000  0.75403000  1.0
  H  H11  1  0.59489000  0.05005000  0.74597000  1.0
  H  H12  1  0.95076000  0.04079000  0.10880000  1.0
  H  H13  1  0.45076000  0.95920000  0.39120000  1.0
  H  H14  1  0.04923000  0.95920000  0.89120000  1.0
  H  H15  1  0.54923000  0.04079000  0.60880000  1.0
  H  H16  1  0.77806000  0.23162000  0.02317000  1.0
  H  H17  1  0.27806000  0.76838000  0.47683000  1.0
  H  H18  1  0.22194000  0.76838000  0.97683000  1.0
  H  H19  1  0.72194000  0.23162000  0.52317000  1.0
  H  H20  1  0.54096000  0.59589000  0.18022000  1.0
  H  H21  1  0.04095000  0.40412000  0.31978000  1.0
  H  H22  1  0.45905000  0.40412000  0.81978000  1.0
  H  H23  1  0.95905000  0.59588000  0.68022000  1.0
  H  H24  1  0.49831000  0.47439000  0.26432000  1.0
  H  H25  1  0.99831000  0.52561000  0.23569000  1.0
  H  H26  1  0.50169000  0.52561000  0.73569000  1.0
  H  H27  1  0.00169000  0.47438000  0.76431000  1.0
  H  H28  1  0.38090000  0.44671000  0.18182000  1.0
  H  H29  1  0.88090000  0.55329000  0.31818000  1.0
  H  H30  1  0.61910000  0.55329000  0.81818000  1.0
  H  H31  1  0.11910000  0.44670000  0.68182000  1.0
  C  C32  1  0.58299000  0.05684000  0.91597000  1.0
  C  C33  1  0.08298000  0.94314000  0.58402000  1.0
  C  C34  1  0.41703000  0.94315000  0.08403000  1.0
  C  C35  1  0.91703000  0.05686000  0.41598000  1.0
  C  C36  1  0.95411000  0.42562000  0.91718000  1.0
  C  C37  1  0.45412000  0.57438000  0.58282000  1.0
  C  C38  1  0.04589000  0.57437000  0.08282000  1.0
  C  C39  1  0.54588000  0.42562000  0.41718000  1.0
  C  C40  1  0.63043000  0.34899000  0.18307000  1.0
  C  C41  1  0.13043000  0.65101000  0.31693000  1.0
  C  C42  1  0.36957000  0.65101000  0.81693000  1.0
  C  C43  1  0.86957000  0.34899000  0.68307000  1.0
  C  C44  1  0.72064000  0.24404000  0.23220000  1.0
  C  C45  1  0.22064000  0.75597000  0.26780000  1.0
  C  C46  1  0.27936000  0.75596000  0.76780000  1.0
  C  C47  1  0.77936000  0.24403000  0.73220000  1.0
  C  C48  1  0.83621000  0.13198000  0.20691000  1.0
  C  C49  1  0.33621000  0.86802000  0.29308000  1.0
  C  C50  1  0.16378000  0.86801000  0.79309000  1.0
  C  C51  1  0.66379000  0.13198000  0.70691000  1.0
  C  C52  1  0.86099000  0.12543000  0.13108000  1.0
  C  C53  1  0.36099000  0.87457000  0.36891000  1.0
  C  C54  1  0.13901000  0.87457000  0.86891000  1.0
  C  C55  1  0.63901000  0.12543000  0.63109000  1.0
  C  C56  1  0.76952000  0.22856000  0.08294000  1.0
  C  C57  1  0.26952000  0.77145000  0.41706000  1.0
  C  C58  1  0.23048000  0.77145000  0.91706000  1.0
  C  C59  1  0.73047000  0.22855000  0.58294000  1.0
  C  C60  1  0.50603000  0.47351000  0.20423000  1.0
  C  C61  1  0.00602000  0.52650000  0.29577000  1.0
  C  C62  1  0.49398000  0.52650000  0.79577000  1.0
  C  C63  1  0.99398000  0.47350000  0.70423000  1.0
  S  S64  1  0.70378000  0.91041000  0.88849000  1.0
  S  S65  1  0.20379000  0.08959000  0.61151000  1.0
  S  S66  1  0.29622000  0.08959000  0.11151000  1.0
  S  S67  1  0.79622000  0.91042000  0.38849000  1.0
  S  S68  1  0.09507000  0.28933000  0.89712000  1.0
  S  S69  1  0.59507000  0.71067000  0.60288000  1.0
  S  S70  1  0.90493000  0.71066000  0.10288000  1.0
  S  S71  1  0.40493000  0.28933000  0.39712000  1.0
  N  N72  1  0.49799000  0.16635000  0.93394000  1.0
  N  N73  1  0.99799000  0.83366000  0.56606000  1.0
  N  N74  1  0.50202000  0.83366000  0.06606000  1.0
  N  N75  1  0.00202000  0.16634000  0.43394000  1.0
  N  N76  1  0.84936000  0.52341000  0.92925000  1.0
  N  N77  1  0.34936000  0.47660000  0.57075000  1.0
  N  N78  1  0.15063000  0.47659000  0.07075000  1.0
  N  N79  1  0.65062000  0.52341000  0.42925000  1.0
  N  N80  1  0.65747000  0.33630000  0.10921000  1.0
  N  N81  1  0.15747000  0.66371000  0.39079000  1.0
  N  N82  1  0.34253000  0.66371000  0.89079000  1.0
  N  N83  1  0.84253000  0.33629000  0.60921000  1.0
  O  O84  1  0.56766000  0.43192000  0.06154000  1.0
  O  O85  1  0.06766000  0.56808000  0.43846000  1.0
  O  O86  1  0.43233000  0.56808000  0.93846000  1.0
  O  O87  1  0.93233000  0.43191000  0.56153000  1.0
