# generated using pymatgen
data_CuH20C20(NO2)2
_symmetry_space_group_name_H-M   'P 1'
_cell_length_a   8.73083000
_cell_length_b   13.93670000
_cell_length_c   14.65900000
_cell_angle_alpha   89.99740000
_cell_angle_beta   80.98790000
_cell_angle_gamma   89.99940000
_symmetry_Int_Tables_number   1
_chemical_formula_structural   CuH20C20(NO2)2
_chemical_formula_sum   'Cu2 H40 C40 N4 O8'
_cell_volume   1761.67267731
_cell_formula_units_Z   2
loop_
 _symmetry_equiv_pos_site_id
 _symmetry_equiv_pos_as_xyz
  1  'x, y, z'
loop_
 _atom_site_type_symbol
 _atom_site_label
 _atom_site_symmetry_multiplicity
 _atom_site_fract_x
 _atom_site_fract_y
 _atom_site_fract_z
 _atom_site_occupancy
  Cu  Cu0  1  0.50000000  0.50000000  0.50000000  1.0
  Cu  Cu1  1  0.50000000  0.00000000  0.00000000  1.0
  H  H2  1  0.50364000  0.48455000  0.27294000  1.0
  H  H3  1  0.49639000  0.98456000  0.22702000  1.0
  H  H4  1  0.49636000  0.51545000  0.72707000  1.0
  H  H5  1  0.50364000  0.01544000  0.77296000  1.0
  H  H6  1  0.46666000  0.26740000  0.46695000  1.0
  H  H7  1  0.53332000  0.76741000  0.03304000  1.0
  H  H8  1  0.53334000  0.73260000  0.53306000  1.0
  H  H9  1  0.46666000  0.23258000  0.96695000  1.0
  H  H10  1  0.88832000  0.66881000  0.35123000  1.0
  H  H11  1  0.11166000  0.16880000  0.14877000  1.0
  H  H12  1  0.11167000  0.33119000  0.64878000  1.0
  H  H13  1  0.88834000  0.83120000  0.85123000  1.0
  H  H14  1  0.79241000  0.73641000  0.27215000  1.0
  H  H15  1  0.20757000  0.23640000  0.22785000  1.0
  H  H16  1  0.20759000  0.26360000  0.72786000  1.0
  H  H17  1  0.79243000  0.76361000  0.77215000  1.0
  H  H18  1  0.84073000  0.61355000  0.25072000  1.0
  H  H19  1  0.15927000  0.11354000  0.24927000  1.0
  H  H20  1  0.15927000  0.38646000  0.74928000  1.0
  H  H21  1  0.84073000  0.88647000  0.75073000  1.0
  H  H22  1  0.19538000  0.65969000  0.29772000  1.0
  H  H23  1  0.80461000  0.15968000  0.20227000  1.0
  H  H24  1  0.80461000  0.34031000  0.70227000  1.0
  H  H25  1  0.19539000  0.84032000  0.79774000  1.0
  H  H26  1  0.21842000  0.76338000  0.36315000  1.0
  H  H27  1  0.78157000  0.26337000  0.13683000  1.0
  H  H28  1  0.78158000  0.23662000  0.63685000  1.0
  H  H29  1  0.21843000  0.73663000  0.86317000  1.0
  H  H30  1  0.11501000  0.66163000  0.41777000  1.0
  H  H31  1  0.88498000  0.16162000  0.08222000  1.0
  H  H32  1  0.88499000  0.33837000  0.58223000  1.0
  H  H33  1  0.11501000  0.83838000  0.91778000  1.0
  H  H34  1  0.51075000  0.36720000  0.14272000  1.0
  H  H35  1  0.48927000  0.86721000  0.35725000  1.0
  H  H36  1  0.48926000  0.63280000  0.85728000  1.0
  H  H37  1  0.51075000  0.13279000  0.64274000  1.0
  H  H38  1  0.47119000  0.14062000  0.34524000  1.0
  H  H39  1  0.52879000  0.64063000  0.15475000  1.0
  H  H40  1  0.52881000  0.85938000  0.65476000  1.0
  H  H41  1  0.47120000  0.35936000  0.84525000  1.0
  C  C42  1  0.64944000  0.63243000  0.35989000  1.0
  C  C43  1  0.35055000  0.13242000  0.14010000  1.0
  C  C44  1  0.35056000  0.36758000  0.64011000  1.0
  C  C45  1  0.64945000  0.86758000  0.85990000  1.0
  C  C46  1  0.36036000  0.64160000  0.39145000  1.0
  C  C47  1  0.63963000  0.14159000  0.10854000  1.0
  C  C48  1  0.63963000  0.35840000  0.60855000  1.0
  C  C49  1  0.36037000  0.85841000  0.89146000  1.0
  C  C50  1  0.49736000  0.40731000  0.28618000  1.0
  C  C51  1  0.50266000  0.90732000  0.21378000  1.0
  C  C52  1  0.50265000  0.59269000  0.71383000  1.0
  C  C53  1  0.49736000  0.09268000  0.78620000  1.0
  C  C54  1  0.47633000  0.28680000  0.39395000  1.0
  C  C55  1  0.52366000  0.78680000  0.10603000  1.0
  C  C56  1  0.52367000  0.71320000  0.60605000  1.0
  C  C57  1  0.47633000  0.21319000  0.89396000  1.0
  C  C58  1  0.80099000  0.66649000  0.30508000  1.0
  C  C59  1  0.19899000  0.16648000  0.19491000  1.0
  C  C60  1  0.19900000  0.33352000  0.69492000  1.0
  C  C61  1  0.80100000  0.83353000  0.80509000  1.0
  C  C62  1  0.50640000  0.67068000  0.34180000  1.0
  C  C63  1  0.49359000  0.17067000  0.15819000  1.0
  C  C64  1  0.49359000  0.32932000  0.65820000  1.0
  C  C65  1  0.50641000  0.82933000  0.84181000  1.0
  C  C66  1  0.21313000  0.68471000  0.36656000  1.0
  C  C67  1  0.78686000  0.18470000  0.13343000  1.0
  C  C68  1  0.78686000  0.31529000  0.63344000  1.0
  C  C69  1  0.21314000  0.81530000  0.86657000  1.0
  C  C70  1  0.50123000  0.34196000  0.21391000  1.0
  C  C71  1  0.49879000  0.84198000  0.28607000  1.0
  C  C72  1  0.49878000  0.65803000  0.78610000  1.0
  C  C73  1  0.50122000  0.15802000  0.71392000  1.0
  C  C74  1  0.47909000  0.21638000  0.32608000  1.0
  C  C75  1  0.52090000  0.71640000  0.17390000  1.0
  C  C76  1  0.52091000  0.78362000  0.67393000  1.0
  C  C77  1  0.47909000  0.28360000  0.82609000  1.0
  C  C78  1  0.50840000  0.74328000  0.26699000  1.0
  C  C79  1  0.49159000  0.24328000  0.23299000  1.0
  C  C80  1  0.49160000  0.25671000  0.73300000  1.0
  C  C81  1  0.50841000  0.75672000  0.76701000  1.0
  N  N82  1  0.48520000  0.38092000  0.37503000  1.0
  N  N83  1  0.51480000  0.88094000  0.12494000  1.0
  N  N84  1  0.51480000  0.61907000  0.62497000  1.0
  N  N85  1  0.48520000  0.11906000  0.87505000  1.0
  O  O86  1  0.66523000  0.56862000  0.42015000  1.0
  O  O87  1  0.33476000  0.06862000  0.07985000  1.0
  O  O88  1  0.33477000  0.43138000  0.57986000  1.0
  O  O89  1  0.66524000  0.93138000  0.92015000  1.0
  O  O90  1  0.33978000  0.57940000  0.45580000  1.0
  O  O91  1  0.66022000  0.07940000  0.04420000  1.0
  O  O92  1  0.66022000  0.42060000  0.54420000  1.0
  O  O93  1  0.33978000  0.92060000  0.95581000  1.0
