# generated using pymatgen
data_CuH7C9N2
_symmetry_space_group_name_H-M   'P 1'
_cell_length_a   33.69040000
_cell_length_b   34.31790000
_cell_length_c   34.46180000
_cell_angle_alpha   89.90820000
_cell_angle_beta   90.08880000
_cell_angle_gamma   89.99250000
_symmetry_Int_Tables_number   1
_chemical_formula_structural   CuH7C9N2
_chemical_formula_sum   'Cu12 H84 C108 N24'
_cell_volume   39844.07477647
_cell_formula_units_Z   12
loop_
 _symmetry_equiv_pos_site_id
 _symmetry_equiv_pos_as_xyz
  1  'x, y, z'
loop_
 _atom_site_type_symbol
 _atom_site_label
 _atom_site_symmetry_multiplicity
 _atom_site_fract_x
 _atom_site_fract_y
 _atom_site_fract_z
 _atom_site_occupancy
  Cu  Cu0  1  0.12444000  0.90918000  0.17418000  1.0
  Cu  Cu1  1  0.16051000  0.87503000  0.09660000  1.0
  Cu  Cu2  1  0.07662000  0.84492000  0.12770000  1.0
  Cu  Cu3  1  0.88225000  0.58215000  0.66611000  1.0
  Cu  Cu4  1  0.84110000  0.62318000  0.59409000  1.0
  Cu  Cu5  1  0.92492000  0.65324000  0.62515000  1.0
  Cu  Cu6  1  0.62539000  0.09294000  0.34922000  1.0
  Cu  Cu7  1  0.66082000  0.12763000  0.42704000  1.0
  Cu  Cu8  1  0.59613000  0.17544000  0.37908000  1.0
  Cu  Cu9  1  0.37398000  0.41035000  0.84988000  1.0
  Cu  Cu10  1  0.33697000  0.37442000  0.92665000  1.0
  Cu  Cu11  1  0.40129000  0.32676000  0.87860000  1.0
  H  H12  1  0.63931000  0.40074000  0.55154000  1.0
  H  H13  1  0.53881000  0.35751000  0.61533000  1.0
  H  H14  1  0.60205000  0.45866000  0.65616000  1.0
  H  H15  1  0.39748000  0.04262000  0.15657000  1.0
  H  H16  1  0.46074000  0.14260000  0.11326000  1.0
  H  H17  1  0.35609000  0.10206000  0.05394000  1.0
  H  H18  1  0.21192000  0.64907000  0.90570000  1.0
  H  H19  1  0.10875000  0.71021000  0.86363000  1.0
  H  H20  1  0.15119000  0.60865000  0.80333000  1.0
  H  H21  1  0.84940000  0.89487000  0.30472000  1.0
  H  H22  1  0.88809000  0.79071000  0.36342000  1.0
  H  H23  1  0.78829000  0.85536000  0.40729000  1.0
  H  H24  1  0.19547000  0.96313000  0.20203000  1.0
  H  H25  1  0.23994000  0.92525000  0.09037000  1.0
  H  H26  1  0.00016000  0.83639000  0.18116000  1.0
  H  H27  1  0.06130000  0.93110000  0.23890000  1.0
  H  H28  1  0.17006000  0.82250000  0.02186000  1.0
  H  H29  1  0.05374000  0.78555000  0.06077000  1.0
  H  H30  1  0.81512000  0.52251000  0.69076000  1.0
  H  H31  1  0.75998000  0.57564000  0.59006000  1.0
  H  H32  1  0.99890000  0.66469000  0.68156000  1.0
  H  H33  1  0.94723000  0.55931000  0.72908000  1.0
  H  H34  1  0.82947000  0.67832000  0.52130000  1.0
  H  H35  1  0.94626000  0.71483000  0.55951000  1.0
  H  H36  1  0.67423000  0.01410000  0.34325000  1.0
  H  H37  1  0.71466000  0.05662000  0.45485000  1.0
  H  H38  1  0.53695000  0.19898000  0.31053000  1.0
  H  H39  1  0.57269000  0.08346000  0.27384000  1.0
  H  H40  1  0.68294000  0.18988000  0.49169000  1.0
  H  H41  1  0.58776000  0.25032000  0.43207000  1.0
  H  H42  1  0.32587000  0.48941000  0.84410000  1.0
  H  H43  1  0.28071000  0.44418000  0.95289000  1.0
  H  H44  1  0.45806000  0.30218000  0.80913000  1.0
  H  H45  1  0.42751000  0.41997000  0.77477000  1.0
  H  H46  1  0.31555000  0.31216000  0.99163000  1.0
  H  H47  1  0.41003000  0.25163000  0.93148000  1.0
  H  H48  1  0.33231000  0.02542000  0.16003000  1.0
  H  H49  1  0.27937000  0.99094000  0.09442000  1.0
  H  H50  1  0.32616000  0.04051000  0.07211000  1.0
  H  H51  1  0.27442000  0.98777000  0.18361000  1.0
  H  H52  1  0.67304000  0.46835000  0.65739000  1.0
  H  H53  1  0.71618000  0.51317000  0.59105000  1.0
  H  H54  1  0.66585000  0.46654000  0.56834000  1.0
  H  H55  1  0.73551000  0.50022000  0.67750000  1.0
  H  H56  1  0.77397000  0.92030000  0.41174000  1.0
  H  H57  1  0.73913000  0.97353000  0.34687000  1.0
  H  H58  1  0.78759000  0.92609000  0.32357000  1.0
  H  H59  1  0.73779000  0.97844000  0.43611000  1.0
  H  H60  1  0.22227000  0.58080000  0.91051000  1.0
  H  H61  1  0.26428000  0.53274000  0.84595000  1.0
  H  H62  1  0.21685000  0.58118000  0.82130000  1.0
  H  H63  1  0.25601000  0.52120000  0.93425000  1.0
  H  H64  1  0.92111000  0.89662000  0.29674000  1.0
  H  H65  1  0.96147000  0.83194000  0.24725000  1.0
  H  H66  1  0.91255000  0.80732000  0.29562000  1.0
  H  H67  1  0.98232000  0.91765000  0.26416000  1.0
  H  H68  1  0.52462000  0.35158000  0.67900000  1.0
  H  H69  1  0.49147000  0.41533000  0.73428000  1.0
  H  H70  1  0.54045000  0.43953000  0.68775000  1.0
  H  H71  1  0.48646000  0.32567000  0.73474000  1.0
  H  H72  1  0.08167000  0.60346000  0.79400000  1.0
  H  H73  1  0.03577000  0.66718000  0.74773000  1.0
  H  H74  1  0.08282000  0.69313000  0.79706000  1.0
  H  H75  1  0.02358000  0.57884000  0.75841000  1.0
  H  H76  1  0.47154000  0.14954000  0.17989000  1.0
  H  H77  1  0.51124000  0.08597000  0.23147000  1.0
  H  H78  1  0.46277000  0.06032000  0.18435000  1.0
  H  H79  1  0.50759000  0.17553000  0.23670000  1.0
  H  H80  1  0.10262000  0.72040000  0.93071000  1.0
  H  H81  1  0.16783000  0.76113000  0.98023000  1.0
  H  H82  1  0.19373000  0.71348000  0.93317000  1.0
  H  H83  1  0.07684000  0.75606000  0.98757000  1.0
  H  H84  1  0.64571000  0.32982000  0.54662000  1.0
  H  H85  1  0.58116000  0.28595000  0.49888000  1.0
  H  H86  1  0.55439000  0.33343000  0.54675000  1.0
  H  H87  1  0.66949000  0.26933000  0.51512000  1.0
  H  H88  1  0.35204000  0.17280000  0.04725000  1.0
  H  H89  1  0.41652000  0.21451000  0.99759000  1.0
  H  H90  1  0.44318000  0.16657000  0.04524000  1.0
  H  H91  1  0.32909000  0.23338000  0.01566000  1.0
  H  H92  1  0.89563000  0.78113000  0.43046000  1.0
  H  H93  1  0.83082000  0.74090000  0.48082000  1.0
  H  H94  1  0.80472000  0.78969000  0.43417000  1.0
  H  H95  1  0.92198000  0.74520000  0.48668000  1.0
  C  C96  1  0.62507000  0.43248000  0.60383000  1.0
  C  C97  1  0.61973000  0.40240000  0.57670000  1.0
  C  C98  1  0.58934000  0.37469000  0.58102000  1.0
  C  C99  1  0.56329000  0.37814000  0.61256000  1.0
  C  C100  1  0.56807000  0.40763000  0.64048000  1.0
  C  C101  1  0.59887000  0.43483000  0.63542000  1.0
  C  C102  1  0.37213000  0.06967000  0.10544000  1.0
  C  C103  1  0.40001000  0.06645000  0.13571000  1.0
  C  C104  1  0.43144000  0.09307000  0.13955000  1.0
  C  C105  1  0.43560000  0.12260000  0.11148000  1.0
  C  C106  1  0.40822000  0.12669000  0.08099000  1.0
  C  C107  1  0.37683000  0.09988000  0.07822000  1.0
  C  C108  1  0.18413000  0.62428000  0.85483000  1.0
  C  C109  1  0.18736000  0.65147000  0.88514000  1.0
  C  C110  1  0.15994000  0.68205000  0.88925000  1.0
  C  C111  1  0.12946000  0.68584000  0.86155000  1.0
  C  C112  1  0.12543000  0.65916000  0.83093000  1.0
  C  C113  1  0.15328000  0.62882000  0.82771000  1.0
  C  C114  1  0.81637000  0.87983000  0.35631000  1.0
  C  C115  1  0.84674000  0.87445000  0.32890000  1.0
  C  C116  1  0.87315000  0.84283000  0.33137000  1.0
  C  C117  1  0.86843000  0.81596000  0.36178000  1.0
  C  C118  1  0.83864000  0.82071000  0.38994000  1.0
  C  C119  1  0.81239000  0.85233000  0.38637000  1.0
  C  C120  1  0.20081000  0.94979000  0.17397000  1.0
  C  C121  1  0.23274000  0.95521000  0.14829000  1.0
  C  C122  1  0.22316000  0.93108000  0.11659000  1.0
  C  C123  1  0.02061000  0.85858000  0.19133000  1.0
  C  C124  1  0.01661000  0.88511000  0.22222000  1.0
  C  C125  1  0.05156000  0.90746000  0.22030000  1.0
  C  C126  1  0.14231000  0.81719000  0.03691000  1.0
  C  C127  1  0.11062000  0.79235000  0.02694000  1.0
  C  C128  1  0.08266000  0.79883000  0.05652000  1.0
  C  C129  1  0.80714000  0.53960000  0.66539000  1.0
  C  C130  1  0.77250000  0.53804000  0.64263000  1.0
  C  C131  1  0.77922000  0.56617000  0.61355000  1.0
  C  C132  1  0.98079000  0.63965000  0.68912000  1.0
  C  C133  1  0.98698000  0.61101000  0.71783000  1.0
  C  C134  1  0.95475000  0.58543000  0.71287000  1.0
  C  C135  1  0.85741000  0.68343000  0.53616000  1.0
  C  C136  1  0.88886000  0.70858000  0.52626000  1.0
  C  C137  1  0.91732000  0.70155000  0.55537000  1.0
  C  C138  1  0.68078000  0.03035000  0.36948000  1.0
  C  C139  1  0.70526000  0.02027000  0.40112000  1.0
  C  C140  1  0.70076000  0.05175000  0.42684000  1.0
  C  C141  1  0.54991000  0.17024000  0.30689000  1.0
  C  C142  1  0.54321000  0.14252000  0.27755000  1.0
  C  C143  1  0.56764000  0.11101000  0.28843000  1.0
  C  C144  1  0.65920000  0.19954000  0.47264000  1.0
  C  C145  1  0.63669000  0.23401000  0.47397000  1.0
  C  C146  1  0.61001000  0.23007000  0.44273000  1.0
  C  C147  1  0.31833000  0.47262000  0.86976000  1.0
  C  C148  1  0.29226000  0.48179000  0.90032000  1.0
  C  C149  1  0.29583000  0.44976000  0.92563000  1.0
  C  C150  1  0.44641000  0.33154000  0.80611000  1.0
  C  C151  1  0.45421000  0.35958000  0.77728000  1.0
  C  C152  1  0.43142000  0.39195000  0.78889000  1.0
  C  C153  1  0.33907000  0.30247000  0.97244000  1.0
  C  C154  1  0.36152000  0.26793000  0.97366000  1.0
  C  C155  1  0.38787000  0.27186000  0.94223000  1.0
  C  C156  1  0.33894000  0.04272000  0.10126000  1.0
  C  C157  1  0.32161000  0.02195000  0.13020000  1.0
  C  C158  1  0.28831000  0.99648000  0.12448000  1.0
  C  C159  1  0.26666000  0.98045000  0.15362000  1.0
  C  C160  1  0.65750000  0.46021000  0.59841000  1.0
  C  C161  1  0.67927000  0.47651000  0.62726000  1.0
  C  C162  1  0.71207000  0.50245000  0.62074000  1.0
  C  C163  1  0.73876000  0.51274000  0.64843000  1.0
  C  C164  1  0.79001000  0.91336000  0.35265000  1.0
  C  C165  1  0.77011000  0.93100000  0.38200000  1.0
  C  C166  1  0.74514000  0.96452000  0.37682000  1.0
  C  C167  1  0.73005000  0.98625000  0.40621000  1.0
  C  C168  1  0.21171000  0.59171000  0.85086000  1.0
  C  C169  1  0.22923000  0.57230000  0.88065000  1.0
  C  C170  1  0.25503000  0.53937000  0.87567000  1.0
  C  C171  1  0.26698000  0.51549000  0.90490000  1.0
  C  C172  1  0.90497000  0.83744000  0.30305000  1.0
  C  C173  1  0.92669000  0.86667000  0.28722000  1.0
  C  C174  1  0.95828000  0.86109000  0.25978000  1.0
  C  C175  1  0.98462000  0.88930000  0.24978000  1.0
  C  C176  1  0.54209000  0.41077000  0.67413000  1.0
  C  C177  1  0.52153000  0.38108000  0.69072000  1.0
  C  C178  1  0.49650000  0.38553000  0.72407000  1.0
  C  C179  1  0.47982000  0.35550000  0.74394000  1.0
  C  C180  1  0.09290000  0.66338000  0.80312000  1.0
  C  C181  1  0.07356000  0.63332000  0.78592000  1.0
  C  C182  1  0.04175000  0.63770000  0.75846000  1.0
  C  C183  1  0.01862000  0.60782000  0.74598000  1.0
  C  C184  1  0.45874000  0.08962000  0.17233000  1.0
  C  C185  1  0.47737000  0.11982000  0.19006000  1.0
  C  C186  1  0.50327000  0.11573000  0.22295000  1.0
  C  C187  1  0.51715000  0.14601000  0.24440000  1.0
  C  C188  1  0.16368000  0.70893000  0.92186000  1.0
  C  C189  1  0.13300000  0.72678000  0.94013000  1.0
  C  C190  1  0.13748000  0.75265000  0.97254000  1.0
  C  C191  1  0.10690000  0.76611000  0.99440000  1.0
  C  C192  1  0.58476000  0.34262000  0.55348000  1.0
  C  C193  1  0.61538000  0.32254000  0.53767000  1.0
  C  C194  1  0.61084000  0.29068000  0.51100000  1.0
  C  C195  1  0.64049000  0.26582000  0.50116000  1.0
  C  C196  1  0.41276000  0.15834000  0.05288000  1.0
  C  C197  1  0.38231000  0.17913000  0.03752000  1.0
  C  C198  1  0.38704000  0.21064000  0.01039000  1.0
  C  C199  1  0.35778000  0.23619000  0.00102000  1.0
  C  C200  1  0.83467000  0.79371000  0.42252000  1.0
  C  C201  1  0.86532000  0.77521000  0.44032000  1.0
  C  C202  1  0.86110000  0.74916000  0.47271000  1.0
  C  C203  1  0.89202000  0.73527000  0.49397000  1.0
  N  N204  1  0.18828000  0.91299000  0.12304000  1.0
  N  N205  1  0.17419000  0.92490000  0.15853000  1.0
  N  N206  1  0.07459000  0.89494000  0.19092000  1.0
  N  N207  1  0.05518000  0.86481000  0.17271000  1.0
  N  N208  1  0.09678000  0.82508000  0.08213000  1.0
  N  N209  1  0.13374000  0.83668000  0.06974000  1.0
  N  N210  1  0.81501000  0.58291000  0.61876000  1.0
  N  N211  1  0.83250000  0.56617000  0.65079000  1.0
  N  N212  1  0.93117000  0.59810000  0.68386000  1.0
  N  N213  1  0.94755000  0.63161000  0.66891000  1.0
  N  N214  1  0.90370000  0.67469000  0.58064000  1.0
  N  N215  1  0.86658000  0.66324000  0.56850000  1.0
  N  N216  1  0.67602000  0.07854000  0.41147000  1.0
  N  N217  1  0.66334000  0.06505000  0.37600000  1.0
  N  N218  1  0.58712000  0.11946000  0.32150000  1.0
  N  N219  1  0.57591000  0.15615000  0.33318000  1.0
  N  N220  1  0.61629000  0.19595000  0.42445000  1.0
  N  N221  1  0.64660000  0.17680000  0.44323000  1.0
  N  N222  1  0.32159000  0.42355000  0.91103000  1.0
  N  N223  1  0.33578000  0.43794000  0.87646000  1.0
  N  N224  1  0.41182000  0.38365000  0.82193000  1.0
  N  N225  1  0.42138000  0.34624000  0.83284000  1.0
  N  N226  1  0.38147000  0.30602000  0.92394000  1.0
  N  N227  1  0.35141000  0.32522000  0.94290000  1.0
