# generated using pymatgen
data_Ni2H24C36S2Br2N4O9
_symmetry_space_group_name_H-M   'P 1'
_cell_length_a   13.84990000
_cell_length_b   15.50210000
_cell_length_c   16.03130000
_cell_angle_alpha   78.88040000
_cell_angle_beta   64.42490000
_cell_angle_gamma   63.46610000
_symmetry_Int_Tables_number   1
_chemical_formula_structural   Ni2H24C36S2Br2N4O9
_chemical_formula_sum   'Ni4 H48 C72 S4 Br4 N8 O18'
_cell_volume   2777.69885783
_cell_formula_units_Z   2
loop_
 _symmetry_equiv_pos_site_id
 _symmetry_equiv_pos_as_xyz
  1  'x, y, z'
loop_
 _atom_site_type_symbol
 _atom_site_label
 _atom_site_symmetry_multiplicity
 _atom_site_fract_x
 _atom_site_fract_y
 _atom_site_fract_z
 _atom_site_occupancy
  Ni  Ni0  1  0.73845000  0.30322000  0.47246000  1.0
  Ni  Ni1  1  0.95826000  0.30324000  0.52756000  1.0
  Ni  Ni2  1  0.23581000  0.80324000  0.97246000  1.0
  Ni  Ni3  1  0.96087000  0.80324000  0.02763000  1.0
  H  H4  1  0.73488000  0.42516000  0.55382000  1.0
  H  H5  1  0.83985000  0.42517000  0.44622000  1.0
  H  H6  1  0.03607000  0.92519000  0.05382000  1.0
  H  H7  1  0.03874000  0.92518000  0.94622000  1.0
  H  H8  1  0.42761000  0.58612000  0.75886000  1.0
  H  H9  1  0.98605000  0.58621000  0.24130000  1.0
  H  H10  1  0.97756000  0.08608000  0.25870000  1.0
  H  H11  1  0.93634000  0.08613000  0.74125000  1.0
  H  H12  1  0.07562000  0.63535000  0.80816000  1.0
  H  H13  1  0.28902000  0.63524000  0.19184000  1.0
  H  H14  1  0.23094000  0.13542000  0.30802000  1.0
  H  H15  1  0.63368000  0.13530000  0.69193000  1.0
  H  H16  1  0.37366000  0.43685000  0.59425000  1.0
  H  H17  1  0.18960000  0.43662000  0.40562000  1.0
  H  H18  1  0.34536000  0.93669000  0.09426000  1.0
  H  H19  1  0.71803000  0.93666000  0.90573000  1.0
  H  H20  1  0.51408000  0.35674000  0.45544000  1.0
  H  H21  1  0.12913000  0.35685000  0.54456000  1.0
  H  H22  1  0.42389000  0.85670000  0.95547000  1.0
  H  H23  1  0.71966000  0.85665000  0.04445000  1.0
  H  H24  1  0.42245000  0.27933000  0.40648000  1.0
  H  H25  1  0.29829000  0.27931000  0.59341000  1.0
  H  H26  1  0.64187000  0.77930000  0.90651000  1.0
  H  H27  1  0.57903000  0.77931000  0.09332000  1.0
  H  H28  1  0.71249000  0.00688000  0.40402000  1.0
  H  H29  1  0.28032000  0.00697000  0.59612000  1.0
  H  H30  1  0.62677000  0.50684000  0.90397000  1.0
  H  H31  1  0.86647000  0.50682000  0.09611000  1.0
  H  H32  1  0.79355000  0.09748000  0.44929000  1.0
  H  H33  1  0.10874000  0.09763000  0.55075000  1.0
  H  H34  1  0.40985000  0.59746000  0.94927000  1.0
  H  H35  1  0.99289000  0.59738000  0.05074000  1.0
  H  H36  1  0.82615000  0.01522000  0.06516000  1.0
  H  H37  1  0.15893000  0.01513000  0.93497000  1.0
  H  H38  1  0.84364000  0.51518000  0.56506000  1.0
  H  H39  1  0.64128000  0.51520000  0.43491000  1.0
  H  H40  1  0.64506000  0.12298000  0.18904000  1.0
  H  H41  1  0.23207000  0.12293000  0.81104000  1.0
  H  H42  1  0.79304000  0.62293000  0.68900000  1.0
  H  H43  1  0.58410000  0.62302000  0.31101000  1.0
  H  H44  1  0.63724000  0.86819000  0.35320000  1.0
  H  H45  1  0.49452000  0.86821000  0.64677000  1.0
  H  H46  1  0.89131000  0.36819000  0.85325000  1.0
  H  H47  1  0.74040000  0.36832000  0.14675000  1.0
  H  H48  1  0.82177000  0.77073000  0.22276000  1.0
  H  H49  1  0.40752000  0.77069000  0.77718000  1.0
  H  H50  1  0.93460000  0.27071000  0.72282000  1.0
  H  H51  1  0.79454000  0.27078000  0.27716000  1.0
  C  C52  1  0.54364000  0.45747000  0.61480000  1.0
  C  C53  1  0.99876000  0.45744000  0.38521000  1.0
  C  C54  1  0.13413000  0.95735000  0.11476000  1.0
  C  C55  1  0.90861000  0.95729000  0.88521000  1.0
  C  C56  1  0.41359000  0.50676000  0.67110000  1.0
  C  C57  1  0.07952000  0.50673000  0.32897000  1.0
  C  C58  1  0.15871000  0.00669000  0.17094000  1.0
  C  C59  1  0.83476000  0.00662000  0.82897000  1.0
  C  C60  1  0.36801000  0.57146000  0.74220000  1.0
  C  C61  1  0.06036000  0.57153000  0.25793000  1.0
  C  C62  1  0.06848000  0.07145000  0.24202000  1.0
  C  C63  1  0.86012000  0.07143000  0.75793000  1.0
  C  C64  1  0.24645000  0.61672000  0.79195000  1.0
  C  C65  1  0.13668000  0.61677000  0.20816000  1.0
  C  C66  1  0.09502000  0.11672000  0.29178000  1.0
  C  C67  1  0.78828000  0.11665000  0.70818000  1.0
  C  C68  1  0.16984000  0.59865000  0.76949000  1.0
  C  C69  1  0.23148000  0.59857000  0.23052000  1.0
  C  C70  1  0.21213000  0.09868000  0.26934000  1.0
  C  C71  1  0.68922000  0.09859000  0.73063000  1.0
  C  C72  1  0.21691000  0.53463000  0.69814000  1.0
  C  C73  1  0.24850000  0.53443000  0.30175000  1.0
  C  C74  1  0.30040000  0.03457000  0.19808000  1.0
  C  C75  1  0.66505000  0.03452000  0.80193000  1.0
  C  C76  1  0.33721000  0.48770000  0.64930000  1.0
  C  C77  1  0.17509000  0.48754000  0.35065000  1.0
  C  C78  1  0.27590000  0.98760000  0.14922000  1.0
  C  C79  1  0.73660000  0.98756000  0.85074000  1.0
  C  C80  1  0.19438000  0.68569000  0.87040000  1.0
  C  C81  1  0.11984000  0.68573000  0.12970000  1.0
  C  C82  1  0.99964000  0.18567000  0.37025000  1.0
  C  C83  1  0.81466000  0.18562000  0.62974000  1.0
  C  C84  1  0.55456000  0.27930000  0.44332000  1.0
  C  C85  1  0.16606000  0.27939000  0.55667000  1.0
  C  C86  1  0.47299000  0.77924000  0.94337000  1.0
  C  C87  1  0.74800000  0.77920000  0.05654000  1.0
  C  C88  1  0.50337000  0.23570000  0.41706000  1.0
  C  C89  1  0.26088000  0.23575000  0.58291000  1.0
  C  C90  1  0.59403000  0.73567000  0.91705000  1.0
  C  C91  1  0.67051000  0.73567000  0.08280000  1.0
  C  C92  1  0.56025000  0.13609000  0.40147000  1.0
  C  C93  1  0.30347000  0.13616000  0.59859000  1.0
  C  C94  1  0.65231000  0.63608000  0.90146000  1.0
  C  C95  1  0.71175000  0.63609000  0.09851000  1.0
  C  C96  1  0.66571000  0.08461000  0.41431000  1.0
  C  C97  1  0.24941000  0.08470000  0.58581000  1.0
  C  C98  1  0.58557000  0.58456000  0.91426000  1.0
  C  C99  1  0.83004000  0.58455000  0.08574000  1.0
  C  C100  1  0.71107000  0.13418000  0.43983000  1.0
  C  C101  1  0.15451000  0.13431000  0.56026000  1.0
  C  C102  1  0.46511000  0.63414000  0.93982000  1.0
  C  C103  1  0.90095000  0.63408000  0.06019000  1.0
  C  C104  1  0.78206000  0.98564000  0.13023000  1.0
  C  C105  1  0.23251000  0.98557000  0.86985000  1.0
  C  C106  1  0.85214000  0.48560000  0.63018000  1.0
  C  C107  1  0.66230000  0.48566000  0.36979000  1.0
  C  C108  1  0.68146000  0.04518000  0.19899000  1.0
  C  C109  1  0.27347000  0.04514000  0.80107000  1.0
  C  C110  1  0.82446000  0.54515000  0.69894000  1.0
  C  C111  1  0.63044000  0.54524000  0.30103000  1.0
  C  C112  1  0.62698000  0.00340000  0.28066000  1.0
  C  C113  1  0.36958000  0.00340000  0.71933000  1.0
  C  C114  1  0.83897000  0.50339000  0.78066000  1.0
  C  C115  1  0.65763000  0.50351000  0.21932000  1.0
  C  C116  1  0.67652000  0.90325000  0.29036000  1.0
  C  C117  1  0.42019000  0.90326000  0.70963000  1.0
  C  C118  1  0.87981000  0.40325000  0.79039000  1.0
  C  C119  1  0.71687000  0.40336000  0.20961000  1.0
  C  C120  1  0.77825000  0.84894000  0.21825000  1.0
  C  C121  1  0.37284000  0.84890000  0.78174000  1.0
  C  C122  1  0.90447000  0.34892000  0.71830000  1.0
  C  C123  1  0.74651000  0.34899000  0.28171000  1.0
  S  S124  1  0.49702000  0.07819000  0.36876000  1.0
  S  S125  1  0.42468000  0.07820000  0.63121000  1.0
  S  S126  1  0.80613000  0.57817000  0.86875000  1.0
  S  S127  1  0.61577000  0.57825000  0.13120000  1.0
  Br  Br128  1  0.11337000  0.51035000  0.66560000  1.0
  Br  Br129  1  0.37674000  0.50962000  0.33392000  1.0
  Br  Br130  1  0.46075000  0.01008000  0.16577000  1.0
  Br  Br131  1  0.52914000  0.01009000  0.83446000  1.0
  N  N132  1  0.82959000  0.88903000  0.13913000  1.0
  N  N133  1  0.28151000  0.88896000  0.86092000  1.0
  N  N134  1  0.89224000  0.38900000  0.63914000  1.0
  N  N135  1  0.71871000  0.38905000  0.36087000  1.0
  N  N136  1  0.65714000  0.23022000  0.45333000  1.0
  N  N137  1  0.11251000  0.23034000  0.54668000  1.0
  N  N138  1  0.40948000  0.73016000  0.95342000  1.0
  N  N139  1  0.86054000  0.73009000  0.04658000  1.0
  O  O140  1  0.57276000  0.39538000  0.55660000  1.0
  O  O141  1  0.03175000  0.39534000  0.44340000  1.0
  O  O142  1  0.22527000  0.89513000  0.05664000  1.0
  O  O143  1  0.87956000  0.89518000  0.94341000  1.0
  O  O144  1  0.61385000  0.48131000  0.62626000  1.0
  O  O145  1  0.90472000  0.48131000  0.37375000  1.0
  O  O146  1  0.02861000  0.98128000  0.12623000  1.0
  O  O147  1  0.99021000  0.98117000  0.87376000  1.0
  O  O148  1  0.26615000  0.70722000  0.88248000  1.0
  O  O149  1  0.02657000  0.70714000  0.11759000  1.0
  O  O150  1  0.89430000  0.20706000  0.38240000  1.0
  O  O151  1  0.89861000  0.20701000  0.61760000  1.0
  O  O152  1  0.08453000  0.71486000  0.91612000  1.0
  O  O153  1  0.20045000  0.71495000  0.08398000  1.0
  O  O154  1  0.03459000  0.21491000  0.41596000  1.0
  O  O155  1  0.75048000  0.21487000  0.58402000  1.0
  O  O156  1  0.80895000  0.38202000  0.49999000  1.0
  O  O157  1  0.05906000  0.88204000  0.99997000  1.0
