# generated using pymatgen
data_Zn2H17C28N5O8
_symmetry_space_group_name_H-M   'P 1'
_cell_length_a   13.67990000
_cell_length_b   16.79840000
_cell_length_c   19.07855036
_cell_angle_alpha   116.09716996
_cell_angle_beta   102.89075507
_cell_angle_gamma   90.00140000
_symmetry_Int_Tables_number   1
_chemical_formula_structural   Zn2H17C28N5O8
_chemical_formula_sum   'Zn8 H68 C112 N20 O32'
_cell_volume   3813.84517425
_cell_formula_units_Z   4
loop_
 _symmetry_equiv_pos_site_id
 _symmetry_equiv_pos_as_xyz
  1  'x, y, z'
loop_
 _atom_site_type_symbol
 _atom_site_label
 _atom_site_symmetry_multiplicity
 _atom_site_fract_x
 _atom_site_fract_y
 _atom_site_fract_z
 _atom_site_occupancy
  Zn  Zn0  1  0.24900000  0.43096000  0.35064000  1.0
  Zn  Zn1  1  0.18924000  0.33355000  0.17792000  1.0
  Zn  Zn2  1  0.74896000  0.91990000  0.35075000  1.0
  Zn  Zn3  1  0.68914000  0.84460667  0.17794000  1.0
  Zn  Zn4  1  0.25105000  0.08010000  0.64925000  1.0
  Zn  Zn5  1  0.31086000  0.15532000  0.82205000  1.0
  Zn  Zn6  1  0.75100000  0.56904000  0.64936000  1.0
  Zn  Zn7  1  0.81076000  0.66645000  0.82208000  1.0
  H  H8  1  0.92685000  0.18089000  0.15599000  1.0
  H  H9  1  0.82222000  0.05829000  0.15691000  1.0
  H  H10  1  0.94610000  0.16245000  0.41183000  1.0
  H  H11  1  0.04980000  0.28591000  0.41083000  1.0
  H  H12  1  0.48641000  0.60577000  0.11802000  1.0
  H  H13  1  0.61959000  0.70597000  0.37125000  1.0
  H  H14  1  0.51187000  0.58737000  0.37452000  1.0
  H  H15  1  0.37921000  0.48623000  0.12114000  1.0
  H  H16  1  0.13004000  0.14144000  0.09873000  1.0
  H  H17  1  0.02922000  0.02499000  0.96327000  1.0
  H  H18  1  0.03242000  0.22143000  0.87524000  1.0
  H  H19  1  0.13274000  0.32949000  0.01352000  1.0
  H  H20  1  0.81222000  0.88000000  0.72356000  1.0
  H  H21  1  0.97562000  0.06646000  0.63745000  1.0
  H  H22  1  0.91334000  0.03716000  0.49340000  1.0
  H  H23  1  0.66727000  0.86776000  0.45598000  1.0
  H  H24  1  0.71441000  0.89229000  0.59932000  1.0
  H  H25  1  0.42656000  0.97520000  0.15606000  1.0
  H  H26  1  0.32218000  0.09886000  0.15693000  1.0
  H  H27  1  0.44606000  0.24945000  0.41184000  1.0
  H  H28  1  0.54965000  0.12493000  0.41087000  1.0
  H  H29  1  0.98616000  0.51254000  0.11789000  1.0
  H  H30  1  0.11961000  0.66531000  0.37110000  1.0
  H  H31  1  0.01173000  0.78709000  0.37455000  1.0
  H  H32  1  0.87889000  0.63521000  0.12118000  1.0
  H  H33  1  0.62974000  0.95737000  0.09858000  1.0
  H  H34  1  0.52889000  0.93828000  0.96306000  1.0
  H  H35  1  0.53242000  0.65394000  0.87523000  1.0
  H  H36  1  0.63273000  0.68422000  0.01355000  1.0
  H  H37  1  0.31218000  0.84356000  0.72325000  1.0
  H  H38  1  0.47573000  0.57115000  0.63735000  1.0
  H  H39  1  0.41332000  0.45625000  0.49342000  1.0
  H  H40  1  0.16719000  0.58809000  0.45580000  1.0
  H  H41  1  0.21434000  0.70695000  0.59907000  1.0
  H  H42  1  0.57343000  0.02480000  0.84393000  1.0
  H  H43  1  0.67782000  0.90114000  0.84307000  1.0
  H  H44  1  0.55394000  0.75054000  0.58816000  1.0
  H  H45  1  0.45036000  0.87506000  0.58912000  1.0
  H  H46  1  0.01383000  0.48746000  0.88211000  1.0
  H  H47  1  0.88039000  0.33470000  0.62891000  1.0
  H  H48  1  0.98827000  0.21292000  0.62546000  1.0
  H  H49  1  0.12111000  0.36479000  0.87882000  1.0
  H  H50  1  0.37026000  0.04263000  0.90142000  1.0
  H  H51  1  0.47111000  0.06172000  0.03694000  1.0
  H  H52  1  0.46758000  0.34606000  0.12477000  1.0
  H  H53  1  0.36727000  0.31577000  0.98644000  1.0
  H  H54  1  0.68782000  0.15645000  0.27676000  1.0
  H  H55  1  0.52427000  0.42886000  0.36266000  1.0
  H  H56  1  0.58668000  0.54375000  0.50658000  1.0
  H  H57  1  0.83281000  0.41191000  0.54420000  1.0
  H  H58  1  0.78566000  0.29305000  0.40093000  1.0
  H  H59  1  0.07315000  0.81911000  0.84401000  1.0
  H  H60  1  0.17778000  0.94172000  0.84309000  1.0
  H  H61  1  0.05389000  0.83755000  0.58817000  1.0
  H  H62  1  0.95020000  0.71409000  0.58917000  1.0
  H  H63  1  0.51359000  0.39423000  0.88198000  1.0
  H  H64  1  0.38041000  0.29403000  0.62875000  1.0
  H  H65  1  0.48813000  0.41263000  0.62548000  1.0
  H  H66  1  0.62079000  0.51377000  0.87886000  1.0
  H  H67  1  0.86996000  0.85856000  0.90127000  1.0
  H  H68  1  0.97079000  0.97501000  0.03673000  1.0
  H  H69  1  0.96758000  0.77857000  0.12476000  1.0
  H  H70  1  0.86725000  0.67051000  0.98647000  1.0
  H  H71  1  0.18778000  0.12000000  0.27644000  1.0
  H  H72  1  0.02438000  0.93355000  0.36256000  1.0
  H  H73  1  0.08666000  0.96284000  0.50660000  1.0
  H  H74  1  0.33273000  0.13224000  0.54402000  1.0
  H  H75  1  0.28559000  0.10770000  0.40068000  1.0
  C  C76  1  0.82202000  0.02561000  0.28296000  1.0
  C  C77  1  0.06673000  0.30458000  0.28009000  1.0
  C  C78  1  0.99438000  0.23981000  0.28326000  1.0
  C  C79  1  0.92916000  0.17677000  0.21174000  1.0
  C  C80  1  0.87197000  0.10876000  0.21221000  1.0
  C  C81  1  0.87931000  0.10261000  0.28416000  1.0
  C  C82  1  0.94163000  0.16773000  0.35629000  1.0
  C  C83  1  0.99881000  0.23607000  0.35586000  1.0
  C  C84  1  0.61699000  0.73859000  0.24422000  1.0
  C  C85  1  0.55844000  0.66330000  0.24459000  1.0
  C  C86  1  0.49221000  0.60036000  0.17362000  1.0
  C  C87  1  0.56696000  0.65732000  0.31671000  1.0
  C  C88  1  0.37048000  0.46315000  0.25129000  1.0
  C  C89  1  0.44009000  0.52935000  0.24783000  1.0
  C  C90  1  0.50801000  0.59115000  0.31843000  1.0
  C  C91  1  0.43342000  0.53389000  0.17527000  1.0
  C  C92  1  0.10724000  0.15586000  0.04737000  1.0
  C  C93  1  0.05101000  0.09206000  0.97324000  1.0
  C  C94  1  0.02200000  0.11631000  0.91085000  1.0
  C  C95  1  0.05253000  0.20182000  0.92333000  1.0
  C  C96  1  0.10890000  0.26111000  0.99956000  1.0
  C  C97  1  0.88299000  0.99584000  0.71350000  1.0
  C  C98  1  0.86014000  0.94249000  0.74969000  1.0
  C  C99  1  0.84981000  0.98138000  0.63031000  1.0
  C  C100  1  0.90594000  0.02308000  0.59989000  1.0
  C  C101  1  0.87254000  0.00648000  0.52001000  1.0
  C  C102  1  0.73419000  0.91161000  0.49912000  1.0
  C  C103  1  0.76183000  0.92494000  0.57840000  1.0
  C  C104  1  0.32205000  0.25751000  0.28295000  1.0
  C  C105  1  0.56658000  0.97565000  0.28013000  1.0
  C  C106  1  0.49411000  0.04350000  0.28332000  1.0
  C  C107  1  0.42890000  0.03507000  0.21180000  1.0
  C  C108  1  0.37185000  0.10361000  0.21224000  1.0
  C  C109  1  0.37927000  0.18168000  0.28417000  1.0
  C  C110  1  0.44152000  0.18862000  0.35631000  1.0
  C  C111  1  0.49862000  0.11982000  0.35590000  1.0
  C  C112  1  0.11703000  0.50582000  0.24406000  1.0
  C  C113  1  0.05836000  0.58145000  0.24445000  1.0
  C  C114  1  0.99202000  0.57349000  0.17352000  1.0
  C  C115  1  0.06688000  0.65946000  0.31660000  1.0
  C  C116  1  0.87032000  0.78832000  0.25138000  1.0
  C  C117  1  0.93989000  0.71861000  0.24786000  1.0
  C  C118  1  0.00785000  0.72731000  0.31841000  1.0
  C  C119  1  0.93317000  0.64160000  0.17526000  1.0
  C  C120  1  0.60700000  0.89161000  0.04724000  1.0
  C  C121  1  0.55077000  0.88122000  0.97308000  1.0
  C  C122  1  0.52186000  0.79461000  0.91072000  1.0
  C  C123  1  0.55250000  0.72163000  0.92328000  1.0
  C  C124  1  0.60886000  0.73861000  0.99953000  1.0
  C  C125  1  0.38300000  0.71773000  0.71331000  1.0
  C  C126  1  0.36010000  0.80722000  0.74944000  1.0
  C  C127  1  0.34986000  0.64899000  0.63013000  1.0
  C  C128  1  0.40601000  0.57691000  0.59977000  1.0
  C  C129  1  0.37256000  0.51355000  0.51994000  1.0
  C  C130  1  0.23415000  0.58746000  0.49896000  1.0
  C  C131  1  0.26181000  0.65344000  0.57820000  1.0
  C  C132  1  0.67795000  0.74249000  0.71705000  1.0
  C  C133  1  0.43342000  0.02434000  0.71986000  1.0
  C  C134  1  0.50589000  0.95650000  0.71668000  1.0
  C  C135  1  0.57109000  0.96493000  0.78819000  1.0
  C  C136  1  0.62815000  0.89640000  0.78776000  1.0
  C  C137  1  0.62073000  0.81832000  0.71583000  1.0
  C  C138  1  0.55848000  0.81137000  0.64368000  1.0
  C  C139  1  0.50138000  0.88017000  0.64409000  1.0
  C  C140  1  0.88297000  0.49418000  0.75595000  1.0
  C  C141  1  0.94164000  0.41855000  0.75555000  1.0
  C  C142  1  0.00798000  0.42651000  0.82648000  1.0
  C  C143  1  0.93312000  0.34054000  0.68340000  1.0
  C  C144  1  0.12968000  0.21168000  0.74862000  1.0
  C  C145  1  0.06011000  0.28138000  0.75214000  1.0
  C  C146  1  0.99215000  0.27268000  0.68159000  1.0
  C  C147  1  0.06683000  0.35839000  0.82474000  1.0
  C  C148  1  0.39300000  0.10839000  0.95276000  1.0
  C  C149  1  0.44924000  0.11877000  0.02692000  1.0
  C  C150  1  0.47814000  0.20540000  0.08929000  1.0
  C  C151  1  0.44750000  0.27837000  0.07672000  1.0
  C  C152  1  0.39114000  0.26139000  0.00047000  1.0
  C  C153  1  0.61700000  0.28228000  0.28670000  1.0
  C  C154  1  0.63990000  0.19278000  0.25056000  1.0
  C  C155  1  0.65015000  0.35101000  0.36987000  1.0
  C  C156  1  0.59399000  0.42311000  0.40024000  1.0
  C  C157  1  0.62745000  0.48645000  0.48006000  1.0
  C  C158  1  0.76585000  0.41255000  0.50104000  1.0
  C  C159  1  0.73819000  0.34656000  0.42180000  1.0
  C  C160  1  0.17798000  0.97438000  0.71703000  1.0
  C  C161  1  0.93327000  0.69542000  0.71991000  1.0
  C  C162  1  0.00562000  0.76020000  0.71674000  1.0
  C  C163  1  0.07083000  0.82323000  0.78826000  1.0
  C  C164  1  0.12803000  0.89125000  0.78779000  1.0
  C  C165  1  0.12069000  0.89740000  0.71584000  1.0
  C  C166  1  0.05837000  0.83227000  0.64371000  1.0
  C  C167  1  0.00118000  0.76393000  0.64414000  1.0
  C  C168  1  0.38301000  0.26141000  0.75578000  1.0
  C  C169  1  0.44156000  0.33670000  0.75541000  1.0
  C  C170  1  0.50779000  0.39964000  0.82639000  1.0
  C  C171  1  0.43304000  0.34268000  0.68329000  1.0
  C  C172  1  0.62952000  0.53685000  0.74872000  1.0
  C  C173  1  0.55991000  0.47065000  0.75217000  1.0
  C  C174  1  0.49199000  0.40885000  0.68157000  1.0
  C  C175  1  0.56659000  0.46612000  0.82474000  1.0
  C  C176  1  0.89276000  0.84414000  0.95263000  1.0
  C  C177  1  0.94899000  0.90794000  0.02676000  1.0
  C  C178  1  0.97800000  0.88369000  0.08915000  1.0
  C  C179  1  0.94746000  0.79817000  0.07666000  1.0
  C  C180  1  0.89109000  0.73889000  0.00044000  1.0
  C  C181  1  0.11701000  0.00416000  0.28650000  1.0
  C  C182  1  0.13986000  0.05750000  0.25030000  1.0
  C  C183  1  0.15019000  0.01862000  0.36969000  1.0
  C  C184  1  0.09405000  0.97693000  0.40012000  1.0
  C  C185  1  0.12746000  0.99352000  0.47999000  1.0
  C  C186  1  0.26581000  0.08839000  0.50088000  1.0
  C  C187  1  0.23817000  0.07506000  0.42160000  1.0
  N  N188  1  0.13517000  0.23932000  0.06067000  1.0
  N  N189  1  0.78869000  0.95130000  0.47021000  1.0
  N  N190  1  0.96087000  0.05473000  0.83608000  1.0
  N  N191  1  0.94713000  0.06686000  0.77007000  1.0
  N  N192  1  0.91012000  0.98042000  0.82693000  1.0
  N  N193  1  0.63506000  0.82149000  0.06061000  1.0
  N  N194  1  0.28866000  0.51887000  0.47012000  1.0
  N  N195  1  0.46076000  0.78139000  0.83591000  1.0
  N  N196  1  0.44710000  0.70328000  0.76992000  1.0
  N  N197  1  0.41000000  0.84651000  0.82668000  1.0
  N  N198  1  0.36494000  0.17851000  0.93939000  1.0
  N  N199  1  0.71134000  0.48113000  0.52988000  1.0
  N  N200  1  0.53924000  0.21861000  0.16409000  1.0
  N  N201  1  0.55290000  0.29672000  0.23008000  1.0
  N  N202  1  0.59000000  0.15349000  0.17332000  1.0
  N  N203  1  0.86483000  0.76068000  0.93933000  1.0
  N  N204  1  0.21131000  0.04870000  0.52979000  1.0
  N  N205  1  0.03913000  0.94527000  0.16392000  1.0
  N  N206  1  0.05286000  0.93314000  0.22993000  1.0
  N  N207  1  0.08988000  0.01958000  0.17307000  1.0
  O  O208  1  0.82476000  0.02657000  0.35049000  1.0
  O  O209  1  0.77471000  0.96531000  0.21398000  1.0
  O  O210  1  0.07179000  0.29162000  0.21016000  1.0
  O  O211  1  0.12052000  0.36412000  0.34667000  1.0
  O  O212  1  0.61134000  0.73819000  0.17660000  1.0
  O  O213  1  0.66760000  0.79816000  0.31257000  1.0
  O  O214  1  0.31381000  0.40576000  0.18467000  1.0
  O  O215  1  0.37137000  0.47034000  0.32076000  1.0
  O  O216  1  0.32477000  0.32403000  0.35047000  1.0
  O  O217  1  0.27480000  0.24889000  0.21396000  1.0
  O  O218  1  0.57170000  0.91882000  0.21018000  1.0
  O  O219  1  0.62043000  0.98267000  0.34670000  1.0
  O  O220  1  0.11136000  0.43864000  0.17643000  1.0
  O  O221  1  0.16770000  0.51458000  0.31240000  1.0
  O  O222  1  0.81369000  0.77924000  0.18479000  1.0
  O  O223  1  0.87126000  0.85053000  0.32087000  1.0
  O  O224  1  0.67523000  0.67597000  0.64954000  1.0
  O  O225  1  0.72520000  0.75112000  0.78605000  1.0
  O  O226  1  0.42830000  0.08118000  0.78981000  1.0
  O  O227  1  0.37956000  0.01732000  0.65328000  1.0
  O  O228  1  0.88864000  0.56135000  0.82356000  1.0
  O  O229  1  0.83230000  0.48542000  0.68760000  1.0
  O  O230  1  0.18631000  0.22076000  0.81521000  1.0
  O  O231  1  0.12875000  0.14948000  0.67913000  1.0
  O  O232  1  0.17524000  0.97343000  0.64951000  1.0
  O  O233  1  0.22529000  0.03469000  0.78602000  1.0
  O  O234  1  0.92821000  0.70838000  0.78984000  1.0
  O  O235  1  0.87948000  0.63588000  0.65333000  1.0
  O  O236  1  0.38867000  0.26182000  0.82341000  1.0
  O  O237  1  0.33241000  0.20184000  0.68744000  1.0
  O  O238  1  0.68619000  0.59424000  0.81533000  1.0
  O  O239  1  0.62863000  0.52966000  0.67924000  1.0
