# generated using pymatgen
data_FeH4(C3N2)2
_symmetry_space_group_name_H-M   'P 1'
_cell_length_a   6.95080000
_cell_length_b   9.16417000
_cell_length_c   9.16409000
_cell_angle_alpha   89.97080000
_cell_angle_beta   90.00070000
_cell_angle_gamma   89.99970000
_symmetry_Int_Tables_number   1
_chemical_formula_structural   FeH4(C3N2)2
_chemical_formula_sum   'Fe2 H8 C12 N8'
_cell_volume   583.73699582
_cell_formula_units_Z   2
loop_
 _symmetry_equiv_pos_site_id
 _symmetry_equiv_pos_as_xyz
  1  'x, y, z'
loop_
 _atom_site_type_symbol
 _atom_site_label
 _atom_site_symmetry_multiplicity
 _atom_site_fract_x
 _atom_site_fract_y
 _atom_site_fract_z
 _atom_site_occupancy
  Fe  Fe0  1  0.25000000  0.50000000  0.50000000  1.0
  Fe  Fe1  1  0.75000000  0.50000000  0.50001000  1.0
  H  H2  1  0.18858000  0.50093000  0.85088000  1.0
  H  H3  1  0.18858000  0.49908000  0.14911000  1.0
  H  H4  1  0.68855000  0.14911000  0.49910000  1.0
  H  H5  1  0.68855000  0.85090000  0.50091000  1.0
  H  H6  1  0.81145000  0.50091000  0.85090000  1.0
  H  H7  1  0.81145000  0.49909000  0.14911000  1.0
  H  H8  1  0.31142000  0.85089000  0.50091000  1.0
  H  H9  1  0.31142000  0.14911000  0.49907000  1.0
  C  C10  1  0.50002000  0.49991000  0.92093000  1.0
  C  C11  1  0.50001000  0.50008000  0.07908000  1.0
  C  C12  1  0.99998000  0.07907000  0.50008000  1.0
  C  C13  1  0.99999000  0.92093000  0.49991000  1.0
  C  C14  1  0.34123000  0.49989000  0.82590000  1.0
  C  C15  1  0.34123000  0.50011000  0.17410000  1.0
  C  C16  1  0.84120000  0.17410000  0.50012000  1.0
  C  C17  1  0.84120000  0.82590000  0.49989000  1.0
  C  C18  1  0.65879000  0.49989000  0.82590000  1.0
  C  C19  1  0.65880000  0.50011000  0.17411000  1.0
  C  C20  1  0.15877000  0.82590000  0.49988000  1.0
  C  C21  1  0.15877000  0.17410000  0.50010000  1.0
  N  N22  1  0.40156000  0.49956000  0.68585000  1.0
  N  N23  1  0.40156000  0.50045000  0.31415000  1.0
  N  N24  1  0.90155000  0.31415000  0.50046000  1.0
  N  N25  1  0.90154000  0.68585000  0.49955000  1.0
  N  N26  1  0.59845000  0.49956000  0.68585000  1.0
  N  N27  1  0.59845000  0.50045000  0.31416000  1.0
  N  N28  1  0.09844000  0.68585000  0.49955000  1.0
  N  N29  1  0.09844000  0.31415000  0.50045000  1.0
