# generated using pymatgen
data_ZnH24C28NO10
_symmetry_space_group_name_H-M   'P 1'
_cell_length_a   14.36590000
_cell_length_b   16.87560000
_cell_length_c   17.53540000
_cell_angle_alpha   89.78340000
_cell_angle_beta   88.80030000
_cell_angle_gamma   89.95170000
_symmetry_Int_Tables_number   1
_chemical_formula_structural   ZnH24C28NO10
_chemical_formula_sum   'Zn2 H48 C56 N2 O20'
_cell_volume   4250.19932510
_cell_formula_units_Z   2
loop_
 _symmetry_equiv_pos_site_id
 _symmetry_equiv_pos_as_xyz
  1  'x, y, z'
loop_
 _atom_site_type_symbol
 _atom_site_label
 _atom_site_symmetry_multiplicity
 _atom_site_fract_x
 _atom_site_fract_y
 _atom_site_fract_z
 _atom_site_occupancy
  Zn  Zn0  1  0.50959000  0.59397000  0.50129000  1.0
  Zn  Zn1  1  0.50775000  0.41082000  0.49779000  1.0
  H  H2  1  0.41031000  0.62220000  0.26579000  1.0
  H  H3  1  0.30315000  0.92454000  0.48420000  1.0
  H  H4  1  0.24685000  0.99982000  0.59849000  1.0
  H  H5  1  0.15132000  0.95306000  0.55353000  1.0
  H  H6  1  0.19684000  0.91165000  0.63844000  1.0
  H  H7  1  0.54581000  0.16898000  0.29642000  1.0
  H  H8  1  0.49523000  0.08017000  0.33514000  1.0
  H  H9  1  0.63641000  0.00289000  0.29627000  1.0
  H  H10  1  0.59027000  0.05269000  0.21551000  1.0
  H  H11  1  0.69093000  0.09080000  0.25992000  1.0
  H  H12  1  0.75643000  0.83455000  0.47064000  1.0
  H  H13  1  0.42316000  0.38898000  0.72383000  1.0
  H  H14  1  0.70981000  0.92264000  0.51356000  1.0
  H  H15  1  0.75841000  0.00205000  0.39892000  1.0
  H  H16  1  0.85653000  0.95228000  0.43736000  1.0
  H  H17  1  0.80379000  0.91500000  0.35390000  1.0
  H  H18  1  0.44881000  0.17340000  0.70397000  1.0
  H  H19  1  0.50298000  0.08430000  0.66988000  1.0
  H  H20  1  0.36073000  0.00645000  0.70566000  1.0
  H  H21  1  0.40242000  0.05805000  0.78662000  1.0
  H  H22  1  0.30364000  0.09460000  0.73812000  1.0
  H  H23  1  0.33580000  0.77649000  0.67151000  1.0
  H  H24  1  0.53546000  0.62137000  0.75298000  1.0
  H  H25  1  0.42140000  0.70031000  0.68493000  1.0
  H  H26  1  0.30201000  0.59626000  0.66050000  1.0
  H  H27  1  0.26456000  0.65779000  0.73794000  1.0
  H  H28  1  0.21610000  0.67040000  0.64592000  1.0
  H  H29  1  0.72299000  0.22330000  0.38153000  1.0
  H  H30  1  0.73130000  0.30495000  0.44695000  1.0
  H  H31  1  0.71405000  0.40071000  0.33903000  1.0
  H  H32  1  0.81197000  0.33770000  0.32196000  1.0
  H  H33  1  0.70646000  0.32067000  0.27319000  1.0
  H  H34  1  0.66805000  0.77962000  0.32791000  1.0
  H  H35  1  0.53318000  0.39113000  0.26520000  1.0
  H  H36  1  0.58302000  0.70228000  0.31915000  1.0
  H  H37  1  0.70557000  0.59979000  0.33881000  1.0
  H  H38  1  0.73732000  0.66191000  0.25976000  1.0
  H  H39  1  0.79130000  0.67476000  0.34945000  1.0
  H  H40  1  0.27232000  0.22351000  0.59606000  1.0
  H  H41  1  0.27638000  0.30903000  0.53409000  1.0
  H  H42  1  0.27129000  0.39796000  0.64817000  1.0
  H  H43  1  0.17233000  0.33481000  0.64759000  1.0
  H  H44  1  0.26528000  0.31354000  0.70994000  1.0
  H  H45  1  0.34228000  0.67764000  0.16218000  1.0
  H  H46  1  0.36660000  0.31302000  0.82344000  1.0
  H  H47  1  0.54410000  0.68288000  0.86489000  1.0
  H  H48  1  0.53772000  0.31111000  0.16343000  1.0
  H  H49  1  0.25171000  0.83544000  0.52156000  1.0
  C  C50  1  0.49632000  0.51150000  0.64492000  1.0
  C  C51  1  0.55589000  0.24683000  0.44891000  1.0
  C  C52  1  0.57155000  0.75823000  0.46096000  1.0
  C  C53  1  0.44595000  0.24737000  0.54971000  1.0
  C  C54  1  0.50290000  0.88271000  0.50066000  1.0
  C  C55  1  0.50179000  0.12166000  0.50070000  1.0
  C  C56  1  0.50190000  0.96612000  0.50067000  1.0
  C  C57  1  0.50169000  0.03825000  0.50097000  1.0
  C  C58  1  0.33028000  0.48998000  0.49348000  1.0
  C  C59  1  0.68603000  0.48813000  0.50546000  1.0
  C  C60  1  0.22976000  0.49190000  0.49489000  1.0
  C  C61  1  0.50157000  0.51655000  0.35555000  1.0
  C  C62  1  0.78663000  0.48965000  0.50563000  1.0
  C  C63  1  0.14436000  0.49321000  0.49755000  1.0
  C  C64  1  0.87204000  0.49165000  0.50449000  1.0
  C  C65  1  0.05115000  0.49363000  0.50030000  1.0
  C  C66  1  0.96526000  0.49315000  0.50269000  1.0
  C  C67  1  0.40527000  0.56014000  0.15859000  1.0
  C  C68  1  0.41708000  0.43350000  0.83923000  1.0
  C  C69  1  0.48672000  0.56420000  0.85648000  1.0
  C  C70  1  0.48027000  0.43002000  0.15687000  1.0
  C  C71  1  0.42991000  0.56846000  0.23482000  1.0
  C  C72  1  0.42294000  0.48787000  0.03772000  1.0
  C  C73  1  0.43924000  0.43830000  0.76146000  1.0
  C  C74  1  0.50262000  0.56854000  0.77762000  1.0
  C  C75  1  0.49920000  0.43897000  0.23417000  1.0
  C  C76  1  0.47741000  0.50868000  0.27330000  1.0
  C  C77  1  0.47998000  0.50617000  0.72945000  1.0
  C  C78  1  0.43386000  0.49169000  0.11668000  1.0
  C  C79  1  0.44173000  0.49621000  0.88913000  1.0
  C  C80  1  0.34885000  0.62407000  0.12489000  1.0
  C  C81  1  0.36673000  0.36214000  0.86632000  1.0
  C  C82  1  0.52017000  0.63198000  0.90159000  1.0
  C  C83  1  0.42675000  0.49065000  0.96800000  1.0
  C  C84  1  0.51221000  0.35546000  0.12084000  1.0
  C  C85  1  0.28199000  0.89307000  0.53699000  1.0
  C  C86  1  0.21554000  0.94239000  0.58495000  1.0
  C  C87  1  0.56144000  0.11077000  0.32195000  1.0
  C  C88  1  0.62378000  0.06126000  0.27062000  1.0
  C  C89  1  0.72616000  0.89326000  0.45883000  1.0
  C  C90  1  0.78977000  0.94372000  0.40907000  1.0
  C  C91  1  0.43565000  0.11438000  0.67969000  1.0
  C  C92  1  0.37149000  0.06539000  0.73024000  1.0
  C  C93  1  0.35596000  0.71551000  0.65683000  1.0
  C  C94  1  0.43424000  0.83968000  0.54202000  1.0
  C  C95  1  0.28014000  0.65638000  0.67634000  1.0
  C  C96  1  0.70403000  0.28545000  0.39199000  1.0
  C  C97  1  0.73572000  0.33944000  0.32765000  1.0
  C  C98  1  0.65001000  0.71846000  0.34406000  1.0
  C  C99  1  0.72560000  0.66016000  0.32186000  1.0
  C  C100  1  0.29283000  0.28609000  0.59101000  1.0
  C  C101  1  0.24837000  0.33608000  0.65301000  1.0
  C  C102  1  0.55686000  0.16369000  0.44665000  1.0
  C  C103  1  0.57284000  0.84138000  0.45931000  1.0
  C  C104  1  0.44587000  0.16424000  0.55355000  1.0
  C  C105  1  0.43898000  0.75657000  0.54163000  1.0
  N  N106  1  0.50647000  0.71807000  0.50192000  1.0
  N  N107  1  0.50144000  0.28665000  0.49939000  1.0
  O  O108  1  0.51655000  0.57952000  0.61746000  1.0
  O  O109  1  0.32657000  0.35475000  0.92807000  1.0
  O  O110  1  0.52444000  0.63592000  0.97105000  1.0
  O  O111  1  0.51317000  0.34008000  0.05275000  1.0
  O  O112  1  0.36501000  0.87865000  0.58151000  1.0
  O  O113  1  0.60948000  0.12368000  0.39338000  1.0
  O  O114  1  0.63938000  0.88236000  0.41847000  1.0
  O  O115  1  0.39143000  0.12472000  0.60614000  1.0
  O  O116  1  0.37345000  0.71014000  0.57464000  1.0
  O  O117  1  0.60237000  0.29209000  0.39731000  1.0
  O  O118  1  0.63809000  0.71347000  0.42705000  1.0
  O  O119  1  0.52933000  0.45399000  0.38847000  1.0
  O  O120  1  0.39425000  0.29169000  0.59870000  1.0
  O  O121  1  0.49209000  0.58485000  0.38560000  1.0
  O  O122  1  0.48607000  0.44754000  0.60827000  1.0
  O  O123  1  0.37049000  0.55438000  0.50941000  1.0
  O  O124  1  0.64855000  0.42032000  0.51531000  1.0
  O  O125  1  0.64668000  0.55437000  0.49463000  1.0
  O  O126  1  0.36732000  0.42329000  0.47725000  1.0
  O  O127  1  0.30989000  0.62140000  0.06361000  1.0
