# generated using pymatgen
data_KVH13C9(NO)5
_symmetry_space_group_name_H-M   'P 1'
_cell_length_a   8.46710000
_cell_length_b   9.05620000
_cell_length_c   9.66780000
_cell_angle_alpha   95.70860000
_cell_angle_beta   94.97490000
_cell_angle_gamma   117.18800000
_symmetry_Int_Tables_number   1
_chemical_formula_structural   KVH13C9(NO)5
_chemical_formula_sum   'K2 V2 H26 C18 N10 O10'
_cell_volume   648.79018627
_cell_formula_units_Z   2
loop_
 _symmetry_equiv_pos_site_id
 _symmetry_equiv_pos_as_xyz
  1  'x, y, z'
loop_
 _atom_site_type_symbol
 _atom_site_label
 _atom_site_symmetry_multiplicity
 _atom_site_fract_x
 _atom_site_fract_y
 _atom_site_fract_z
 _atom_site_occupancy
  K  K0  1  0.19716000  0.46846000  0.91587000  1.0
  K  K1  1  0.80284000  0.53155000  0.08414000  1.0
  V  V2  1  0.15114000  0.82715000  0.82864000  1.0
  V  V3  1  0.84885000  0.17285000  0.17135000  1.0
  H  H4  1  0.00848000  0.06103000  0.72579000  1.0
  H  H5  1  0.99152000  0.93898000  0.27421000  1.0
  H  H6  1  0.10336000  0.92549000  0.08283000  1.0
  H  H7  1  0.89664000  0.07451000  0.91717000  1.0
  H  H8  1  0.39893000  0.36504000  0.15210000  1.0
  H  H9  1  0.60107000  0.63496000  0.84790000  1.0
  H  H10  1  0.19682000  0.20070000  0.18644000  1.0
  H  H11  1  0.80318000  0.79930000  0.81356000  1.0
  H  H12  1  0.78809000  0.90168000  0.42636000  1.0
  H  H13  1  0.21191000  0.09832000  0.57364000  1.0
  H  H14  1  0.66926000  0.20007000  0.80685000  1.0
  H  H15  1  0.33074000  0.79993000  0.19315000  1.0
  H  H16  1  0.93137000  0.17669000  0.53224000  1.0
  H  H17  1  0.06863000  0.82331000  0.46776000  1.0
  H  H18  1  0.84286000  0.26534000  0.65596000  1.0
  H  H19  1  0.15714000  0.73466000  0.34404000  1.0
  H  H20  1  0.11611000  0.51098000  0.47373000  1.0
  H  H21  1  0.88389000  0.48903000  0.52627000  1.0
  H  H22  1  0.23286000  0.42957000  0.57434000  1.0
  H  H23  1  0.76714000  0.57043000  0.42566000  1.0
  H  H24  1  0.25454000  0.43770000  0.39375000  1.0
  H  H25  1  0.74547000  0.56230000  0.60625000  1.0
  H  H26  1  0.46081000  0.34047000  0.85960000  1.0
  H  H27  1  0.53919000  0.65953000  0.14040000  1.0
  H  H28  1  0.46373000  0.38041000  0.70188000  1.0
  H  H29  1  0.53627000  0.61959000  0.29812000  1.0
  C  C30  1  0.30847000  0.12870000  0.03153000  1.0
  C  C31  1  0.69153000  0.87130000  0.96847000  1.0
  C  C32  1  0.40221000  0.78971000  0.64184000  1.0
  C  C33  1  0.59779000  0.21029000  0.35816000  1.0
  C  C34  1  0.39974000  0.67617000  0.52823000  1.0
  C  C35  1  0.60027000  0.32384000  0.47177000  1.0
  C  C36  1  0.68057000  0.87327000  0.49017000  1.0
  C  C37  1  0.31943000  0.12673000  0.50983000  1.0
  C  C38  1  0.69495000  0.99416000  0.59773000  1.0
  C  C39  1  0.30504000  0.00584000  0.40227000  1.0
  C  C40  1  0.54907000  0.95433000  0.67499000  1.0
  C  C41  1  0.45093000  0.04567000  0.32500000  1.0
  C  C42  1  0.55125000  0.07605000  0.78324000  1.0
  C  C43  1  0.44875000  0.92395000  0.21676000  1.0
  C  C44  1  0.86693000  0.15759000  0.62782000  1.0
  C  C45  1  0.13307000  0.84241000  0.37218000  1.0
  C  C46  1  0.24269000  0.50451000  0.48964000  1.0
  C  C47  1  0.75731000  0.49549000  0.51036000  1.0
  N  N48  1  0.18696000  0.96571000  0.00894000  1.0
  N  N49  1  0.81304000  0.03429000  0.99106000  1.0
  N  N50  1  0.44470000  0.18161000  0.95337000  1.0
  N  N51  1  0.55530000  0.81840000  0.04662000  1.0
  N  N52  1  0.41978000  0.04996000  0.85564000  1.0
  N  N53  1  0.58022000  0.95004000  0.14436000  1.0
  N  N54  1  0.30014000  0.24053000  0.12838000  1.0
  N  N55  1  0.69986000  0.75947000  0.87162000  1.0
  N  N56  1  0.53695000  0.72028000  0.45459000  1.0
  N  N57  1  0.46305000  0.27972000  0.54542000  1.0
  O  O58  1  0.26501000  0.73382000  0.71367000  1.0
  O  O59  1  0.73499000  0.26618000  0.28633000  1.0
  O  O60  1  0.98979000  0.16234000  0.74417000  1.0
  O  O61  1  0.01021000  0.83766000  0.25583000  1.0
  O  O62  1  0.02163000  0.65134000  0.88748000  1.0
  O  O63  1  0.97837000  0.34866000  0.11253000  1.0
  O  O64  1  0.02529000  0.88098000  0.72414000  1.0
  O  O65  1  0.97471000  0.11903000  0.27586000  1.0
  O  O66  1  0.45683000  0.42445000  0.80109000  1.0
  O  O67  1  0.54317000  0.57555000  0.19891000  1.0
