# generated using pymatgen
data_KH6C4N7O5
_symmetry_space_group_name_H-M   'P 1'
_cell_length_a   7.64453000
_cell_length_b   11.17950000
_cell_length_c   11.34410000
_cell_angle_alpha   89.99990000
_cell_angle_beta   98.48370000
_cell_angle_gamma   90.00000000
_symmetry_Int_Tables_number   1
_chemical_formula_structural   KH6C4N7O5
_chemical_formula_sum   'K4 H24 C16 N28 O20'
_cell_volume   958.88145725
_cell_formula_units_Z   4
loop_
 _symmetry_equiv_pos_site_id
 _symmetry_equiv_pos_as_xyz
  1  'x, y, z'
loop_
 _atom_site_type_symbol
 _atom_site_label
 _atom_site_symmetry_multiplicity
 _atom_site_fract_x
 _atom_site_fract_y
 _atom_site_fract_z
 _atom_site_occupancy
  K  K0  1  0.96583000  0.69175000  0.22067000  1.0
  K  K1  1  0.53417000  0.19175000  0.27933000  1.0
  K  K2  1  0.03417000  0.30825000  0.77933000  1.0
  K  K3  1  0.46583000  0.80825000  0.72067000  1.0
  H  H4  1  0.17211000  0.93994000  0.21636000  1.0
  H  H5  1  0.32789000  0.43994000  0.28364000  1.0
  H  H6  1  0.82789000  0.06006000  0.78364000  1.0
  H  H7  1  0.67211000  0.56006000  0.71636000  1.0
  H  H8  1  0.04106000  0.02876000  0.26463000  1.0
  H  H9  1  0.45894000  0.52876000  0.23537000  1.0
  H  H10  1  0.95894000  0.97124000  0.73537000  1.0
  H  H11  1  0.54106000  0.47124000  0.76463000  1.0
  H  H12  1  0.70910000  0.45635000  0.50930000  1.0
  H  H13  1  0.79090000  0.95635000  0.99070000  1.0
  H  H14  1  0.29090000  0.54365000  0.49071000  1.0
  H  H15  1  0.20910000  0.04365000  0.00929000  1.0
  H  H16  1  0.74370000  0.52699000  0.37799000  1.0
  H  H17  1  0.75631000  0.02699000  0.12201000  1.0
  H  H18  1  0.25630000  0.47301000  0.62201000  1.0
  H  H19  1  0.24370000  0.97301000  0.87799000  1.0
  H  H20  1  0.16467000  0.93503000  0.54618000  1.0
  H  H21  1  0.33533000  0.43503000  0.95382000  1.0
  H  H22  1  0.83533000  0.06497000  0.45382000  1.0
  H  H23  1  0.66467000  0.56497000  0.04618000  1.0
  H  H24  1  0.07423000  0.88883000  0.40166000  1.0
  H  H25  1  0.42577000  0.38883000  0.09834000  1.0
  H  H26  1  0.92577000  0.11117000  0.59834000  1.0
  H  H27  1  0.57423000  0.61117000  0.90166000  1.0
  C  C28  1  0.02281000  0.78110000  0.54239000  1.0
  C  C29  1  0.47719000  0.28110000  0.95761000  1.0
  C  C30  1  0.97719000  0.21890000  0.45760000  1.0
  C  C31  1  0.52281000  0.71890000  0.04240000  1.0
  C  C32  1  0.85337000  0.61236000  0.53147000  1.0
  C  C33  1  0.64663000  0.11236000  0.96853000  1.0
  C  C34  1  0.14663000  0.38764000  0.46853000  1.0
  C  C35  1  0.35337000  0.88764000  0.03147000  1.0
  C  C36  1  0.97144000  0.68788000  0.71207000  1.0
  C  C37  1  0.52856000  0.18788000  0.78793000  1.0
  C  C38  1  0.02857000  0.31212000  0.28793000  1.0
  C  C39  1  0.47143000  0.81212000  0.21207000  1.0
  C  C40  1  0.99537000  0.68577000  0.84498000  1.0
  C  C41  1  0.50463000  0.18577000  0.65502000  1.0
  C  C42  1  0.00463000  0.31423000  0.15502000  1.0
  C  C43  1  0.49537000  0.81423000  0.34498000  1.0
  N  N44  1  0.92596000  0.69970000  0.47285000  1.0
  N  N45  1  0.57404000  0.19970000  0.02715000  1.0
  N  N46  1  0.07404000  0.30030000  0.52715000  1.0
  N  N47  1  0.42596000  0.80030000  0.97285000  1.0
  N  N48  1  0.05630000  0.77569000  0.66479000  1.0
  N  N49  1  0.44370000  0.27569000  0.83521000  1.0
  N  N50  1  0.94370000  0.22430000  0.33521000  1.0
  N  N51  1  0.55630000  0.72431000  0.16479000  1.0
  N  N52  1  0.86648000  0.60512000  0.65325000  1.0
  N  N53  1  0.63352000  0.10512000  0.84675000  1.0
  N  N54  1  0.13352000  0.39488000  0.34675000  1.0
  N  N55  1  0.36648000  0.89488000  0.15325000  1.0
  N  N56  1  0.09500000  0.87274000  0.49215000  1.0
  N  N57  1  0.40501000  0.37274000  0.00785000  1.0
  N  N58  1  0.90500000  0.12726000  0.50785000  1.0
  N  N59  1  0.59500000  0.62726000  0.99215000  1.0
  N  N60  1  0.76061000  0.52636000  0.46824000  1.0
  N  N61  1  0.73939000  0.02636000  0.03176000  1.0
  N  N62  1  0.23939000  0.47364000  0.53176000  1.0
  N  N63  1  0.26061000  0.97364000  0.96824000  1.0
  N  N64  1  0.10865000  0.60403000  0.90717000  1.0
  N  N65  1  0.39135000  0.10403000  0.59283000  1.0
  N  N66  1  0.89135000  0.39597000  0.09283000  1.0
  N  N67  1  0.60865000  0.89597000  0.40717000  1.0
  N  N68  1  0.91087000  0.77325000  0.90072000  1.0
  N  N69  1  0.58913000  0.27325000  0.59928000  1.0
  N  N70  1  0.08913000  0.22675000  0.09928000  1.0
  N  N71  1  0.41087000  0.72675000  0.40072000  1.0
  O  O72  1  0.05909000  0.94351000  0.25112000  1.0
  O  O73  1  0.44091000  0.44351000  0.24888000  1.0
  O  O74  1  0.94091000  0.05649000  0.74888000  1.0
  O  O75  1  0.55909000  0.55649000  0.75112000  1.0
  O  O76  1  0.13652000  0.59719000  0.01846000  1.0
  O  O77  1  0.36347000  0.09719000  0.48154000  1.0
  O  O78  1  0.86347000  0.40281000  0.98153000  1.0
  O  O79  1  0.63653000  0.90281000  0.51847000  1.0
  O  O80  1  0.79827000  0.83585000  0.83292000  1.0
  O  O81  1  0.70173000  0.33585000  0.66708000  1.0
  O  O82  1  0.20173000  0.16415000  0.16708000  1.0
  O  O83  1  0.29827000  0.66415000  0.33292000  1.0
  O  O84  1  0.94105000  0.79470000  0.01041000  1.0
  O  O85  1  0.55895000  0.29470000  0.48959000  1.0
  O  O86  1  0.05895000  0.20530000  0.98959000  1.0
  O  O87  1  0.44105000  0.70530000  0.51041000  1.0
  O  O88  1  0.18510000  0.53267000  0.84225000  1.0
  O  O89  1  0.31490000  0.03267000  0.65775000  1.0
  O  O90  1  0.81490000  0.46733000  0.15775000  1.0
  O  O91  1  0.68510000  0.96733000  0.34225000  1.0
