# generated using pymatgen
data_MnH6C8(BrN2)2
_symmetry_space_group_name_H-M   'P 1'
_cell_length_a   7.84784000
_cell_length_b   9.52142646
_cell_length_c   9.58887390
_cell_angle_alpha   62.15148022
_cell_angle_beta   65.90487880
_cell_angle_gamma   65.71140631
_symmetry_Int_Tables_number   1
_chemical_formula_structural   MnH6C8(BrN2)2
_chemical_formula_sum   'Mn2 H12 C16 Br4 N8'
_cell_volume   556.30090877
_cell_formula_units_Z   2
loop_
 _symmetry_equiv_pos_site_id
 _symmetry_equiv_pos_as_xyz
  1  'x, y, z'
loop_
 _atom_site_type_symbol
 _atom_site_label
 _atom_site_symmetry_multiplicity
 _atom_site_fract_x
 _atom_site_fract_y
 _atom_site_fract_z
 _atom_site_occupancy
  Mn  Mn0  1  0.76664000  0.25004000  0.75026000  1.0
  Mn  Mn1  1  0.23336000  0.74997000  0.24974000  1.0
  H  H2  1  0.49171000  0.60034000  0.78938000  1.0
  H  H3  1  0.88107000  0.89977000  0.71026000  1.0
  H  H4  1  0.50829000  0.39966000  0.21062000  1.0
  H  H5  1  0.11895000  0.10023000  0.28973000  1.0
  H  H6  1  0.51360000  0.89722000  0.66796000  1.0
  H  H7  1  0.07840000  0.60293000  0.83157000  1.0
  H  H8  1  0.48640000  0.10278000  0.33204000  1.0
  H  H9  1  0.92160000  0.39707000  0.16843000  1.0
  H  H10  1  0.80357000  0.96349000  0.43383000  1.0
  H  H11  1  0.20067000  0.53663000  0.06575000  1.0
  H  H12  1  0.19643000  0.03651000  0.56617000  1.0
  H  H13  1  0.79934000  0.46337000  0.93424000  1.0
  C  C14  1  0.61569000  0.63949000  0.69233000  1.0
  C  C15  1  0.94707000  0.86061000  0.80748000  1.0
  C  C16  1  0.38430000  0.36051000  0.30767000  1.0
  C  C17  1  0.05294000  0.13939000  0.19252000  1.0
  C  C18  1  0.62608000  0.80223000  0.62288000  1.0
  C  C19  1  0.05088000  0.69791000  0.87677000  1.0
  C  C20  1  0.37391000  0.19777000  0.37712000  1.0
  C  C21  1  0.94914000  0.30209000  0.12322000  1.0
  C  C22  1  0.78758000  0.83831000  0.49470000  1.0
  C  C23  1  0.12045000  0.66176000  0.00500000  1.0
  C  C24  1  0.21242000  0.16169000  0.50530000  1.0
  C  C25  1  0.87956000  0.33823000  0.99500000  1.0
  C  C26  1  0.91688000  0.56568000  0.52340000  1.0
  C  C27  1  0.00592000  0.93433000  0.97652000  1.0
  C  C28  1  0.08311000  0.43432000  0.47660000  1.0
  C  C29  1  0.99409000  0.06566000  0.02347000  1.0
  Br  Br30  1  0.68422000  0.22693000  0.53528000  1.0
  Br  Br31  1  0.44527000  0.27420000  0.96361000  1.0
  Br  Br32  1  0.31577000  0.77310000  0.46472000  1.0
  Br  Br33  1  0.55474000  0.72579000  0.03640000  1.0
  N  N34  1  0.76252000  0.52019000  0.64505000  1.0
  N  N35  1  0.92730000  0.97981000  0.85504000  1.0
  N  N36  1  0.23747000  0.47981000  0.35495000  1.0
  N  N37  1  0.07271000  0.02019000  0.14496000  1.0
  N  N38  1  0.93250000  0.72041000  0.44292000  1.0
  N  N39  1  0.09601000  0.77964000  0.05675000  1.0
  N  N40  1  0.06748000  0.27959000  0.55708000  1.0
  N  N41  1  0.90400000  0.22036000  0.94324000  1.0
