# generated using pymatgen
data_AgH9C11S2N3O5F3
_symmetry_space_group_name_H-M   'P 1'
_cell_length_a   8.28466000
_cell_length_b   9.00075000
_cell_length_c   14.07600000
_cell_angle_alpha   90.00120000
_cell_angle_beta   90.00100000
_cell_angle_gamma   66.05100000
_symmetry_Int_Tables_number   1
_chemical_formula_structural   AgH9C11S2N3O5F3
_chemical_formula_sum   'Ag2 H18 C22 S4 N6 O10 F6'
_cell_volume   959.25642547
_cell_formula_units_Z   2
loop_
 _symmetry_equiv_pos_site_id
 _symmetry_equiv_pos_as_xyz
  1  'x, y, z'
loop_
 _atom_site_type_symbol
 _atom_site_label
 _atom_site_symmetry_multiplicity
 _atom_site_fract_x
 _atom_site_fract_y
 _atom_site_fract_z
 _atom_site_occupancy
  Ag  Ag0  1  0.48887000  0.14395000  0.76292000  1.0
  Ag  Ag1  1  0.51113000  0.85604000  0.26293000  1.0
  H  H2  1  0.72175000  0.39112000  0.83744000  1.0
  H  H3  1  0.27824000  0.60889000  0.33745000  1.0
  H  H4  1  0.42664000  0.75122000  0.06784000  1.0
  H  H5  1  0.57336000  0.24878000  0.56784000  1.0
  H  H6  1  0.79045000  0.50771000  0.27748000  1.0
  H  H7  1  0.20954000  0.49228000  0.77748000  1.0
  H  H8  1  0.88302000  0.24254000  0.19131000  1.0
  H  H9  1  0.11698000  0.75746000  0.69131000  1.0
  H  H10  1  0.05077000  0.70347000  0.90412000  1.0
  H  H11  1  0.94922000  0.29654000  0.40411000  1.0
  H  H12  1  0.84396000  0.97883000  0.85023000  1.0
  H  H13  1  0.15604000  0.02117000  0.35023000  1.0
  H  H14  1  0.44397000  0.82169000  0.79805000  1.0
  H  H15  1  0.55602000  0.17831000  0.29806000  1.0
  H  H16  1  0.94731000  0.47562000  0.90254000  1.0
  H  H17  1  0.05268000  0.52438000  0.40253000  1.0
  H  H18  1  0.74503000  0.23847000  0.03198000  1.0
  H  H19  1  0.25497000  0.76153000  0.53199000  1.0
  C  C20  1  0.52964000  0.63801000  0.09285000  1.0
  C  C21  1  0.47036000  0.36199000  0.59285000  1.0
  C  C22  1  0.73198000  0.49969000  0.20958000  1.0
  C  C23  1  0.26801000  0.50030000  0.70957000  1.0
  C  C24  1  0.57865000  0.49636000  0.03927000  1.0
  C  C25  1  0.42136000  0.50365000  0.53927000  1.0
  C  C26  1  0.78549000  0.35327000  0.16016000  1.0
  C  C27  1  0.21451000  0.64672000  0.66016000  1.0
  C  C28  1  0.68745000  0.63279000  0.85098000  1.0
  C  C29  1  0.31254000  0.36722000  0.35098000  1.0
  C  C30  1  0.91790000  0.72359000  0.88124000  1.0
  C  C31  1  0.08209000  0.27641000  0.38123000  1.0
  C  C32  1  0.80349000  0.87786000  0.85167000  1.0
  C  C33  1  0.19651000  0.12214000  0.35168000  1.0
  C  C34  1  0.57916000  0.79056000  0.82168000  1.0
  C  C35  1  0.42083000  0.20944000  0.32168000  1.0
  C  C36  1  0.85998000  0.59852000  0.88107000  1.0
  C  C37  1  0.14001000  0.40148000  0.38107000  1.0
  C  C38  1  0.70777000  0.35040000  0.07291000  1.0
  C  C39  1  0.29223000  0.64960000  0.57291000  1.0
  C  C40  1  0.00497000  0.21745000  0.64811000  1.0
  C  C41  1  0.99503000  0.78254000  0.14810000  1.0
  S  S42  1  0.05312000  0.15071000  0.77461000  1.0
  S  S43  1  0.94689000  0.84929000  0.27461000  1.0
  S  S44  1  0.47723000  0.50708000  0.92698000  1.0
  S  S45  1  0.52277000  0.49292000  0.42698000  1.0
  N  N46  1  0.63738000  0.91032000  0.82198000  1.0
  N  N47  1  0.36261000  0.08968000  0.32198000  1.0
  N  N48  1  0.60524000  0.63931000  0.17724000  1.0
  N  N49  1  0.39477000  0.36069000  0.67724000  1.0
  N  N50  1  0.62391000  0.50787000  0.84790000  1.0
  N  N51  1  0.37609000  0.49214000  0.34790000  1.0
  O  O52  1  0.15437000  0.97635000  0.76693000  1.0
  O  O53  1  0.84564000  0.02365000  0.26693000  1.0
  O  O54  1  0.87564000  0.19778000  0.81545000  1.0
  O  O55  1  0.12436000  0.80222000  0.31545000  1.0
  O  O56  1  0.14715000  0.24515000  0.81096000  1.0
  O  O57  1  0.85286000  0.75484000  0.31096000  1.0
  O  O58  1  0.32815000  0.66236000  0.92281000  1.0
  O  O59  1  0.67184000  0.33766000  0.42281000  1.0
  O  O60  1  0.45639000  0.35698000  0.91251000  1.0
  O  O61  1  0.54360000  0.64303000  0.41251000  1.0
  F  F62  1  0.15749000  0.18406000  0.59943000  1.0
  F  F63  1  0.84251000  0.81595000  0.09942000  1.0
  F  F64  1  0.91619000  0.13859000  0.60425000  1.0
  F  F65  1  0.08383000  0.86138000  0.10426000  1.0
  F  F66  1  0.90503000  0.38008000  0.64183000  1.0
  F  F67  1  0.09496000  0.61991000  0.14183000  1.0
