# generated using pymatgen
data_CdH9C6SN5O6
_symmetry_space_group_name_H-M   'P 1'
_cell_length_a   6.63624000
_cell_length_b   9.58831000
_cell_length_c   10.75367292
_cell_angle_alpha   115.47476771
_cell_angle_beta   95.18425254
_cell_angle_gamma   102.97600000
_symmetry_Int_Tables_number   1
_chemical_formula_structural   CdH9C6SN5O6
_chemical_formula_sum   'Cd2 H18 C12 S2 N10 O12'
_cell_volume   588.21050702
_cell_formula_units_Z   2
loop_
 _symmetry_equiv_pos_site_id
 _symmetry_equiv_pos_as_xyz
  1  'x, y, z'
loop_
 _atom_site_type_symbol
 _atom_site_label
 _atom_site_symmetry_multiplicity
 _atom_site_fract_x
 _atom_site_fract_y
 _atom_site_fract_z
 _atom_site_occupancy
  Cd  Cd0  1  0.60960000  0.80932000  0.62813000  1.0
  Cd  Cd1  1  0.39041000  0.19069000  0.37188000  1.0
  H  H2  1  0.28502000  0.28151000  0.14269000  1.0
  H  H3  1  0.71497000  0.71849000  0.85730000  1.0
  H  H4  1  0.18792000  0.26256000  0.91357000  1.0
  H  H5  1  0.81210000  0.73745000  0.08643000  1.0
  H  H6  1  0.22381000  0.76376000  0.88355000  1.0
  H  H7  1  0.77617000  0.23622000  0.11644000  1.0
  H  H8  1  0.08138000  0.26586000  0.69022000  1.0
  H  H9  1  0.91864000  0.73415000  0.30979000  1.0
  H  H10  1  0.34005000  0.78618000  0.12095000  1.0
  H  H11  1  0.65994000  0.21383000  0.87905000  1.0
  H  H12  1  0.63484000  0.12454000  0.64191000  1.0
  H  H13  1  0.36517000  0.87547000  0.35809000  1.0
  H  H14  1  0.74767000  0.02700000  0.52189000  1.0
  H  H15  1  0.25233000  0.97300000  0.47810000  1.0
  H  H16  1  0.75348000  0.95929000  0.97900000  1.0
  H  H17  1  0.24651000  0.04071000  0.02099000  1.0
  H  H18  1  0.91311000  0.94396000  0.87263000  1.0
  H  H19  1  0.08687000  0.05603000  0.12736000  1.0
  C  C20  1  0.33498000  0.53477000  0.17534000  1.0
  C  C21  1  0.66503000  0.46523000  0.82466000  1.0
  C  C22  1  0.27025000  0.52596000  0.03849000  1.0
  C  C23  1  0.72975000  0.47403000  0.96151000  1.0
  C  C24  1  0.19796000  0.37835000  0.91495000  1.0
  C  C25  1  0.80204000  0.62166000  0.08506000  1.0
  C  C26  1  0.21648000  0.65599000  0.89627000  1.0
  C  C27  1  0.78352000  0.34402000  0.10373000  1.0
  C  C28  1  0.13735000  0.37965000  0.78763000  1.0
  C  C29  1  0.86264000  0.62034000  0.21237000  1.0
  C  C30  1  0.28187000  0.66848000  0.02822000  1.0
  C  C31  1  0.71812000  0.33152000  0.97178000  1.0
  S  S32  1  0.15212000  0.90252000  0.69490000  1.0
  S  S33  1  0.84786000  0.09747000  0.30510000  1.0
  N  N34  1  0.45357000  0.62116000  0.39541000  1.0
  N  N35  1  0.54642000  0.37883000  0.60459000  1.0
  N  N36  1  0.40861000  0.66953000  0.29890000  1.0
  N  N37  1  0.59140000  0.33048000  0.70110000  1.0
  N  N38  1  0.33633000  0.40943000  0.20186000  1.0
  N  N39  1  0.66367000  0.59056000  0.79814000  1.0
  N  N40  1  0.14368000  0.51488000  0.77718000  1.0
  N  N41  1  0.85633000  0.48512000  0.22282000  1.0
  N  N42  1  0.41068000  0.46436000  0.33885000  1.0
  N  N43  1  0.58932000  0.53564000  0.66116000  1.0
  O  O44  1  0.93847000  0.78804000  0.61493000  1.0
  O  O45  1  0.06152000  0.21196000  0.38507000  1.0
  O  O46  1  0.71293000  0.04281000  0.61526000  1.0
  O  O47  1  0.28707000  0.95719000  0.38473000  1.0
  O  O48  1  0.76062000  0.90217000  0.87827000  1.0
  O  O49  1  0.23939000  0.09784000  0.12173000  1.0
  O  O50  1  0.14175000  0.99575000  0.84789000  1.0
  O  O51  1  0.85825000  0.00424000  0.15211000  1.0
  O  O52  1  0.22520000  0.01770000  0.64015000  1.0
  O  O53  1  0.77478000  0.98228000  0.35984000  1.0
  O  O54  1  0.30080000  0.80497000  0.68874000  1.0
  O  O55  1  0.69918000  0.19503000  0.31126000  1.0
