# generated using pymatgen
data_Cu4H24C29S4(N2O)4
_symmetry_space_group_name_H-M   'P 1'
_cell_length_a   10.74820000
_cell_length_b   13.27530000
_cell_length_c   13.44810000
_cell_angle_alpha   90.00000000
_cell_angle_beta   90.00000000
_cell_angle_gamma   90.00000000
_symmetry_Int_Tables_number   1
_chemical_formula_structural   Cu4H24C29S4(N2O)4
_chemical_formula_sum   'Cu8 H48 C58 S8 N16 O8'
_cell_volume   1918.84994114
_cell_formula_units_Z   2
loop_
 _symmetry_equiv_pos_site_id
 _symmetry_equiv_pos_as_xyz
  1  'x, y, z'
loop_
 _atom_site_type_symbol
 _atom_site_label
 _atom_site_symmetry_multiplicity
 _atom_site_fract_x
 _atom_site_fract_y
 _atom_site_fract_z
 _atom_site_occupancy
  Cu  Cu0  1  0.23766000  0.65490000  0.27121000  1.0
  Cu  Cu1  1  0.23766000  0.84511000  0.22879000  1.0
  Cu  Cu2  1  0.73882000  0.72843000  0.15496000  1.0
  Cu  Cu3  1  0.73883000  0.77157000  0.34504000  1.0
  Cu  Cu4  1  0.76234000  0.34511000  0.72880000  1.0
  Cu  Cu5  1  0.76234000  0.15490000  0.77120000  1.0
  Cu  Cu6  1  0.26118000  0.27157000  0.84504000  1.0
  Cu  Cu7  1  0.26118000  0.22843000  0.65496000  1.0
  H  H8  1  0.46736000  0.52520000  0.21705000  1.0
  H  H9  1  0.46735000  0.97480000  0.28295000  1.0
  H  H10  1  0.96956000  0.78438000  0.02513000  1.0
  H  H11  1  0.96956000  0.71562000  0.47488000  1.0
  H  H12  1  0.53264000  0.47480000  0.78295000  1.0
  H  H13  1  0.53265000  0.02520000  0.71705000  1.0
  H  H14  1  0.03044000  0.21561000  0.97488000  1.0
  H  H15  1  0.03043000  0.28438000  0.52512000  1.0
  H  H16  1  0.50310000  0.31960000  0.46557000  1.0
  H  H17  1  0.50310000  0.18040000  0.03443000  1.0
  H  H18  1  0.00113000  0.53367000  0.82042000  1.0
  H  H19  1  0.00112000  0.96633000  0.67959000  1.0
  H  H20  1  0.49690000  0.68041000  0.53443000  1.0
  H  H21  1  0.49690000  0.81960000  0.96557000  1.0
  H  H22  1  0.99888000  0.46632000  0.17959000  1.0
  H  H23  1  0.99887000  0.03367000  0.32042000  1.0
  H  H24  1  0.31545000  0.39957000  0.53867000  1.0
  H  H25  1  0.31546000  0.10043000  0.96133000  1.0
  H  H26  1  0.81376000  0.46024000  0.90011000  1.0
  H  H27  1  0.81376000  0.03977000  0.59989000  1.0
  H  H28  1  0.68454000  0.60043000  0.46133000  1.0
  H  H29  1  0.68455000  0.89957000  0.03867000  1.0
  H  H30  1  0.18624000  0.53976000  0.09989000  1.0
  H  H31  1  0.18623000  0.96024000  0.40011000  1.0
  H  H32  1  0.21124000  0.54134000  0.44808000  1.0
  H  H33  1  0.21125000  0.95866000  0.05192000  1.0
  H  H34  1  0.71167000  0.55159000  0.04118000  1.0
  H  H35  1  0.71168000  0.94841000  0.45882000  1.0
  H  H36  1  0.78876000  0.45866000  0.55192000  1.0
  H  H37  1  0.78876000  0.04134000  0.94808000  1.0
  H  H38  1  0.28833000  0.44841000  0.95882000  1.0
  H  H39  1  0.28832000  0.05159000  0.54119000  1.0
  H  H40  1  0.60694000  0.24120000  0.36100000  1.0
  H  H41  1  0.60694000  0.25880000  0.13900000  1.0
  H  H42  1  0.10482000  0.63808000  0.74244000  1.0
  H  H43  1  0.10482000  0.86192000  0.75756000  1.0
  H  H44  1  0.39305000  0.75880000  0.63900000  1.0
  H  H45  1  0.39305000  0.74120000  0.86100000  1.0
  H  H46  1  0.89517000  0.36192000  0.25756000  1.0
  H  H47  1  0.89517000  0.13808000  0.24244000  1.0
  H  H48  1  0.72444000  0.33209000  0.38958000  1.0
  H  H49  1  0.72444000  0.16790000  0.11042000  1.0
  H  H50  1  0.22315000  0.60890000  0.83144000  1.0
  H  H51  1  0.22315000  0.89110000  0.66856000  1.0
  H  H52  1  0.27556000  0.66790000  0.61042000  1.0
  H  H53  1  0.27556000  0.83210000  0.88958000  1.0
  H  H54  1  0.77685000  0.39110000  0.16856000  1.0
  H  H55  1  0.77684000  0.10890000  0.33144000  1.0
  C  C56  1  0.45526000  0.71255000  0.12627000  1.0
  C  C57  1  0.45526000  0.78745000  0.37373000  1.0
  C  C58  1  0.95433000  0.87462000  0.21290000  1.0
  C  C59  1  0.95434000  0.62538000  0.28710000  1.0
  C  C60  1  0.54474000  0.28745000  0.87373000  1.0
  C  C61  1  0.54474000  0.21255000  0.62626000  1.0
  C  C62  1  0.04567000  0.12538000  0.78709000  1.0
  C  C63  1  0.04567000  0.37462000  0.71291000  1.0
  C  C64  1  0.43504000  0.49563000  0.28822000  1.0
  C  C65  1  0.43504000  0.00437000  0.21178000  1.0
  C  C66  1  0.93644000  0.71263000  0.99569000  1.0
  C  C67  1  0.93644000  0.78737000  0.50431000  1.0
  C  C68  1  0.56496000  0.50437000  0.71178000  1.0
  C  C69  1  0.56496000  0.99563000  0.78822000  1.0
  C  C70  1  0.06356000  0.28736000  0.00432000  1.0
  C  C71  1  0.06355000  0.21264000  0.49569000  1.0
  C  C72  1  0.49803000  0.41525000  0.33374000  1.0
  C  C73  1  0.49803000  0.08475000  0.16626000  1.0
  C  C74  1  0.99806000  0.66666667  0.91542000  1.0
  C  C75  1  0.99806000  0.83327000  0.58458000  1.0
  C  C76  1  0.50197000  0.58475000  0.66626000  1.0
  C  C77  1  0.50197000  0.91525000  0.83374000  1.0
  C  C78  1  0.00194000  0.33326000  0.08459000  1.0
  C  C79  1  0.00193000  0.16673000  0.41542000  1.0
  C  C80  1  0.45647000  0.38017000  0.42595000  1.0
  C  C81  1  0.45648000  0.11983000  0.07405000  1.0
  C  C82  1  0.95547000  0.57368000  0.88076000  1.0
  C  C83  1  0.95547000  0.92632000  0.61925000  1.0
  C  C84  1  0.54353000  0.61983000  0.57405000  1.0
  C  C85  1  0.54353000  0.88017000  0.92595000  1.0
  C  C86  1  0.04453000  0.42632000  0.11925000  1.0
  C  C87  1  0.04452000  0.07368000  0.38076000  1.0
  C  C88  1  0.35174000  0.42557000  0.46749000  1.0
  C  C89  1  0.35174000  0.07443000  0.03250000  1.0
  C  C90  1  0.85093000  0.53192000  0.92602000  1.0
  C  C91  1  0.85093000  0.96808000  0.57398000  1.0
  C  C92  1  0.64826000  0.57443000  0.53250000  1.0
  C  C93  1  0.64826000  0.92557000  0.96749000  1.0
  C  C94  1  0.14908000  0.46808000  0.07398000  1.0
  C  C95  1  0.14907000  0.03192000  0.42603000  1.0
  C  C96  1  0.29343000  0.50409000  0.41797000  1.0
  C  C97  1  0.29344000  0.99590000  0.08203000  1.0
  C  C98  1  0.79387000  0.58188000  0.00425000  1.0
  C  C99  1  0.79387000  0.91812000  0.49575000  1.0
  C  C100  1  0.70656000  0.49590000  0.58203000  1.0
  C  C101  1  0.70657000  0.00409000  0.91797000  1.0
  C  C102  1  0.20613000  0.41811000  0.99575000  1.0
  C  C103  1  0.20612000  0.08188000  0.50426000  1.0
  C  C104  1  0.66834000  0.29928000  0.32933000  1.0
  C  C105  1  0.66835000  0.20072000  0.17067000  1.0
  C  C106  1  0.16705000  0.67003000  0.79923000  1.0
  C  C107  1  0.16705000  0.82997000  0.70078000  1.0
  C  C108  1  0.33165000  0.70072000  0.67067000  1.0
  C  C109  1  0.33165000  0.79928000  0.82933000  1.0
  C  C110  1  0.83295000  0.32997000  0.20077000  1.0
  C  C111  1  0.83295000  0.17003000  0.29923000  1.0
  C  C112  1  0.75064000  0.25000000  0.25000000  1.0
  C  C113  1  0.24935000  0.75000000  0.75000000  1.0
  S  S114  1  0.30257000  0.71026000  0.11568000  1.0
  S  S115  1  0.30258000  0.78974000  0.38431000  1.0
  S  S116  1  0.80169000  0.88573000  0.21101000  1.0
  S  S117  1  0.80169000  0.61427000  0.28899000  1.0
  S  S118  1  0.69743000  0.28974000  0.88431000  1.0
  S  S119  1  0.69743000  0.21026000  0.61568000  1.0
  S  S120  1  0.19831000  0.11427000  0.78899000  1.0
  S  S121  1  0.19831000  0.38573000  0.71101000  1.0
  N  N122  1  0.56494000  0.71557000  0.13179000  1.0
  N  N123  1  0.56495000  0.78443000  0.36821000  1.0
  N  N124  1  0.06398000  0.86865000  0.21582000  1.0
  N  N125  1  0.06398000  0.63136000  0.28417000  1.0
  N  N126  1  0.43507000  0.28443000  0.86821000  1.0
  N  N127  1  0.43505000  0.21557000  0.63179000  1.0
  N  N128  1  0.93602000  0.13136000  0.78417000  1.0
  N  N129  1  0.93602000  0.36865000  0.71582000  1.0
  N  N130  1  0.33509000  0.53898000  0.32955000  1.0
  N  N131  1  0.33509000  0.96101000  0.17045000  1.0
  N  N132  1  0.83664000  0.67094000  0.03913000  1.0
  N  N133  1  0.83664000  0.82906000  0.46087000  1.0
  N  N134  1  0.66491000  0.46102000  0.67045000  1.0
  N  N135  1  0.66491000  0.03898000  0.82954000  1.0
  N  N136  1  0.16336000  0.32905000  0.96087000  1.0
  N  N137  1  0.16335000  0.17095000  0.53914000  1.0
  O  O138  1  0.59619000  0.37692000  0.28211000  1.0
  O  O139  1  0.59619000  0.12308000  0.21788000  1.0
  O  O140  1  0.09609000  0.71848000  0.87649000  1.0
  O  O141  1  0.09609000  0.78152000  0.62352000  1.0
  O  O142  1  0.40381000  0.62308000  0.71789000  1.0
  O  O143  1  0.40381000  0.87692000  0.78211000  1.0
  O  O144  1  0.90392000  0.28151000  0.12352000  1.0
  O  O145  1  0.90391000  0.21848000  0.37649000  1.0
