# generated using pymatgen
data_NiH24C36(NO2)2
_symmetry_space_group_name_H-M   'P 1'
_cell_length_a   16.91309855
_cell_length_b   16.91310000
_cell_length_c   16.91420000
_cell_angle_alpha   72.27400000
_cell_angle_beta   72.29350866
_cell_angle_gamma   113.03951594
_symmetry_Int_Tables_number   1
_chemical_formula_structural   NiH24C36(NO2)2
_chemical_formula_sum   'Ni4 H96 C144 N8 O16'
_cell_volume   3713.73589938
_cell_formula_units_Z   4
loop_
 _symmetry_equiv_pos_site_id
 _symmetry_equiv_pos_as_xyz
  1  'x, y, z'
loop_
 _atom_site_type_symbol
 _atom_site_label
 _atom_site_symmetry_multiplicity
 _atom_site_fract_x
 _atom_site_fract_y
 _atom_site_fract_z
 _atom_site_occupancy
  Ni  Ni0  1  0.35081000  0.35081000  0.00000000  1.0
  Ni  Ni1  1  0.60064000  0.10064000  0.50000000  1.0
  Ni  Ni2  1  0.85738000  0.85737000  1.00000000  1.0
  Ni  Ni3  1  0.10735000  0.60735000  0.50000000  1.0
  H  H4  1  0.18738000  0.68852000  0.70978000  1.0
  H  H5  1  0.39830000  0.89716000  0.29021000  1.0
  H  H6  1  0.93861000  0.14838000  0.99881000  1.0
  H  H7  1  0.14720000  0.93742000  0.00118000  1.0
  H  H8  1  0.89100000  0.18753000  0.49866000  1.0
  H  H9  1  0.68618000  0.38966000  0.50134000  1.0
  H  H10  1  0.63968000  0.64105000  0.79651000  1.0
  H  H11  1  0.43757000  0.43619000  0.20348000  1.0
  H  H12  1  0.22976000  0.80334000  0.77483000  1.0
  H  H13  1  0.57817000  0.00459000  0.22516000  1.0
  H  H14  1  0.05347000  0.32824000  0.92633000  1.0
  H  H15  1  0.25457000  0.97981000  0.07367000  1.0
  H  H16  1  0.07029000  0.30011000  0.43135000  1.0
  H  H17  1  0.73147000  0.50165000  0.56865000  1.0
  H  H18  1  0.75173000  0.82041000  0.72968000  1.0
  H  H19  1  0.55008000  0.48140000  0.27033000  1.0
  H  H20  1  0.08854000  0.93250000  0.66031000  1.0
  H  H21  1  0.59280000  0.74885000  0.33970000  1.0
  H  H22  1  0.18250000  0.34278000  0.65604000  1.0
  H  H23  1  0.99882000  0.83855000  0.34395000  1.0
  H  H24  1  0.09658000  0.43337000  0.15590000  1.0
  H  H25  1  0.58927000  0.25248000  0.84410000  1.0
  H  H26  1  0.50261000  0.84678000  0.83663000  1.0
  H  H27  1  0.68341000  0.33924000  0.16337000  1.0
  H  H28  1  0.04275000  0.81433000  0.59972000  1.0
  H  H29  1  0.41405000  0.64247000  0.40028000  1.0
  H  H30  1  0.06417000  0.16407000  0.72842000  1.0
  H  H31  1  0.89249000  0.79259000  0.27158000  1.0
  H  H32  1  0.91775000  0.31782000  0.22369000  1.0
  H  H33  1  0.54151000  0.14144000  0.77630000  1.0
  H  H34  1  0.39159000  0.66792000  0.89989000  1.0
  H  H35  1  0.56781000  0.29148000  0.10011000  1.0
  H  H36  1  0.33177000  0.95598000  0.73379000  1.0
  H  H37  1  0.68978000  0.06557000  0.26620000  1.0
  H  H38  1  0.20581000  0.43982000  0.87573000  1.0
  H  H39  1  0.31555000  0.08154000  0.12427000  1.0
  H  H40  1  0.18683000  0.45498000  0.37872000  1.0
  H  H41  1  0.83370000  0.56555000  0.62128000  1.0
  H  H42  1  0.81568000  0.93697000  0.76796000  1.0
  H  H43  1  0.70493000  0.58364000  0.23204000  1.0
  H  H44  1  0.39070000  0.08127000  0.77906000  1.0
  H  H45  1  0.86033000  0.16976000  0.22095000  1.0
  H  H46  1  0.33108000  0.61044000  0.80935000  1.0
  H  H47  1  0.41978000  0.14042000  0.19066000  1.0
  H  H48  1  0.35840000  0.58065000  0.31193000  1.0
  H  H49  1  0.89258000  0.67033000  0.68807000  1.0
  H  H50  1  0.92033000  0.10852000  0.72224000  1.0
  H  H51  1  0.83076000  0.64257000  0.27776000  1.0
  H  H52  1  0.13002000  0.09189000  0.82732000  1.0
  H  H53  1  0.91920000  0.95733000  0.17269000  1.0
  H  H54  1  0.34199000  0.66920000  0.53798000  1.0
  H  H55  1  0.20717000  0.87997000  0.46202000  1.0
  H  H56  1  0.41807000  0.58762000  0.04212000  1.0
  H  H57  1  0.62973000  0.46018000  0.95788000  1.0
  H  H58  1  0.71014000  0.16817000  0.66953000  1.0
  H  H59  1  0.83770000  0.37967000  0.33047000  1.0
  H  H60  1  0.07213000  0.96843000  0.77913000  1.0
  H  H61  1  0.74755000  0.85125000  0.22088000  1.0
  H  H62  1  0.21854000  0.49749000  0.60354000  1.0
  H  H63  1  0.10102000  0.82207000  0.39647000  1.0
  H  H64  1  0.24672000  0.46391000  0.10773000  1.0
  H  H65  1  0.57164000  0.35444000  0.89227000  1.0
  H  H66  1  0.60454000  0.99681000  0.71702000  1.0
  H  H67  1  0.71383000  0.32156000  0.28298000  1.0
  H  H68  1  0.23175000  0.24789000  0.78775000  1.0
  H  H69  1  0.03564000  0.01950000  0.21225000  1.0
  H  H70  1  0.49785000  0.78547000  0.48389000  1.0
  H  H71  1  0.26935000  0.98173000  0.51611000  1.0
  H  H72  1  0.53643000  0.74590000  0.98743000  1.0
  H  H73  1  0.73332000  0.52385000  0.01257000  1.0
  H  H74  1  0.77388000  0.28655000  0.70941000  1.0
  H  H75  1  0.99596000  0.48329000  0.29059000  1.0
  H  H76  1  0.27648000  0.35787000  0.85686000  1.0
  H  H77  1  0.21473000  0.13333000  0.14315000  1.0
  H  H78  1  0.60781000  0.96460000  0.41854000  1.0
  H  H79  1  0.38313000  0.02635000  0.58146000  1.0
  H  H80  1  0.71446000  0.85714000  0.92610000  1.0
  H  H81  1  0.78324000  0.64055000  0.07390000  1.0
  H  H82  1  0.89060000  0.46458000  0.64268000  1.0
  H  H83  1  0.10726000  0.53328000  0.35732000  1.0
  H  H84  1  0.40852000  0.22992000  0.96838000  1.0
  H  H85  1  0.19831000  0.37691000  0.03162000  1.0
  H  H86  1  0.47997000  0.94826000  0.67847000  1.0
  H  H87  1  0.62672000  0.15844000  0.32154000  1.0
  H  H88  1  0.69256000  0.72584000  0.18814000  1.0
  H  H89  1  0.91398000  0.88070000  0.81186000  1.0
  H  H90  1  0.13067000  0.44257000  0.53332000  1.0
  H  H91  1  0.97588000  0.66399000  0.46668000  1.0
  H  H92  1  0.37238000  0.11530000  0.90113000  1.0
  H  H93  1  0.01644000  0.27352000  0.09887000  1.0
  H  H94  1  0.36524000  0.76642000  0.75693000  1.0
  H  H95  1  0.52335000  0.12216000  0.24307000  1.0
  H  H96  1  0.51199000  0.60993000  0.26257000  1.0
  H  H97  1  0.87249000  0.77455000  0.73744000  1.0
  H  H98  1  0.02448000  0.26199000  0.59808000  1.0
  H  H99  1  0.86005000  0.62255000  0.40193000  1.0
  C  C100  1  0.09586000  0.68023000  0.60555000  1.0
  C  C101  1  0.28578000  0.70142000  0.39444000  1.0
  C  C102  1  0.93013000  0.03582000  0.91569000  1.0
  C  C103  1  0.95151000  0.84581000  0.08431000  1.0
  C  C104  1  0.78481000  0.18440000  0.40154000  1.0
  C  C105  1  0.58593000  0.18635000  0.59846000  1.0
  C  C106  1  0.43656000  0.53497000  0.89942000  1.0
  C  C107  1  0.43439000  0.33598000  0.10058000  1.0
  C  C108  1  0.11181000  0.74354000  0.65133000  1.0
  C  C109  1  0.39486000  0.76314000  0.34867000  1.0
  C  C110  1  0.99343000  0.14493000  0.86824000  1.0
  C  C111  1  0.01317000  0.86167000  0.13176000  1.0
  C  C112  1  0.89312000  0.24519000  0.36498000  1.0
  C  C113  1  0.61017000  0.25810000  0.63502000  1.0
  C  C114  1  0.50823000  0.64332000  0.85186000  1.0
  C  C115  1  0.49518000  0.36009000  0.14814000  1.0
  C  C116  1  0.16484000  0.74138000  0.70077000  1.0
  C  C117  1  0.44216000  0.86562000  0.29922000  1.0
  C  C118  1  0.99139000  0.19223000  0.92340000  1.0
  C  C119  1  0.11564000  0.91480000  0.07660000  1.0
  C  C120  1  0.93668000  0.24092000  0.42341000  1.0
  C  C121  1  0.66433000  0.36010000  0.57659000  1.0
  C  C122  1  0.61019000  0.68683000  0.80407000  1.0
  C  C123  1  0.49090000  0.41426000  0.19593000  1.0
  C  C124  1  0.18942000  0.80666000  0.73575000  1.0
  C  C125  1  0.54241000  0.92517000  0.26425000  1.0
  C  C126  1  0.05672000  0.29249000  0.88267000  1.0
  C  C127  1  0.17517000  0.93940000  0.11732000  1.0
  C  C128  1  0.03708000  0.30500000  0.38544000  1.0
  C  C129  1  0.69044000  0.42252000  0.61456000  1.0
  C  C130  1  0.67263000  0.78725000  0.76766000  1.0
  C  C131  1  0.55492000  0.44029000  0.23233000  1.0
  C  C132  1  0.16354000  0.87749000  0.72149000  1.0
  C  C133  1  0.59898000  0.88503000  0.27851000  1.0
  C  C134  1  0.12752000  0.34902000  0.78598000  1.0
  C  C135  1  0.13499000  0.91350000  0.21402000  1.0
  C  C136  1  0.09696000  0.37588000  0.28875000  1.0
  C  C137  1  0.66462000  0.38570000  0.71126000  1.0
  C  C138  1  0.63586000  0.84716000  0.77864000  1.0
  C  C139  1  0.62581000  0.41451000  0.22135000  1.0
  C  C140  1  0.10819000  0.87739000  0.67382000  1.0
  C  C141  1  0.55120000  0.78200000  0.32619000  1.0
  C  C142  1  0.12735000  0.30121000  0.73078000  1.0
  C  C143  1  0.03199000  0.85813000  0.26922000  1.0
  C  C144  1  0.05251000  0.37813000  0.23065000  1.0
  C  C145  1  0.60878000  0.28316000  0.76935000  1.0
  C  C146  1  0.53332000  0.80275000  0.82535000  1.0
  C  C147  1  0.62811000  0.35868000  0.17464000  1.0
  C  C148  1  0.08239000  0.81126000  0.63965000  1.0
  C  C149  1  0.45090000  0.72203000  0.36036000  1.0
  C  C150  1  0.06113000  0.20093000  0.77112000  1.0
  C  C151  1  0.97205000  0.83225000  0.22888000  1.0
  C  C152  1  0.95265000  0.31384000  0.26813000  1.0
  C  C153  1  0.58196000  0.22077000  0.73188000  1.0
  C  C154  1  0.47093000  0.70289000  0.86091000  1.0
  C  C155  1  0.56380000  0.33184000  0.13908000  1.0
  C  C156  1  0.19719000  0.95188000  0.75182000  1.0
  C  C157  1  0.70370000  0.94901000  0.24818000  1.0
  C  C158  1  0.20187000  0.45372000  0.74521000  1.0
  C  C159  1  0.19893000  0.94708000  0.25479000  1.0
  C  C160  1  0.20195000  0.44874000  0.24911000  1.0
  C  C161  1  0.69785000  0.45105000  0.75089000  1.0
  C  C162  1  0.70122000  0.95213000  0.74657000  1.0
  C  C163  1  0.69870000  0.44779000  0.25343000  1.0
  C  C164  1  0.28599000  0.98440000  0.75520000  1.0
  C  C165  1  0.73960000  0.04119000  0.24481000  1.0
  C  C166  1  0.23431000  0.48965000  0.80150000  1.0
  C  C167  1  0.29115000  0.03582000  0.19850000  1.0
  C  C168  1  0.23734000  0.48239000  0.30504000  1.0
  C  C169  1  0.78743000  0.54238000  0.69496000  1.0
  C  C170  1  0.79250000  0.98749000  0.74488000  1.0
  C  C171  1  0.73237000  0.53738000  0.25512000  1.0
  C  C172  1  0.31943000  0.05565000  0.78191000  1.0
  C  C173  1  0.83756000  0.10134000  0.21809000  1.0
  C  C174  1  0.30547000  0.58761000  0.76372000  1.0
  C  C175  1  0.35133000  0.06919000  0.23628000  1.0
  C  C176  1  0.33535000  0.55361000  0.26715000  1.0
  C  C177  1  0.82077000  0.60250000  0.73284000  1.0
  C  C178  1  0.85255000  0.08549000  0.71817000  1.0
  C  C179  1  0.80365000  0.57072000  0.28184000  1.0
  C  C180  1  0.26477000  0.09712000  0.80708000  1.0
  C  C181  1  0.90420000  0.07185000  0.19292000  1.0
  C  C182  1  0.34702000  0.65417000  0.66756000  1.0
  C  C183  1  0.32173000  0.01458000  0.33243000  1.0
  C  C184  1  0.40248000  0.59393000  0.17146000  1.0
  C  C185  1  0.76539000  0.57393000  0.82854000  1.0
  C  C186  1  0.82394000  0.15260000  0.69140000  1.0
  C  C187  1  0.84400000  0.51534000  0.30860000  1.0
  C  C188  1  0.17626000  0.06484000  0.80374000  1.0
  C  C189  1  0.86858000  0.98000000  0.19627000  1.0
  C  C190  1  0.31485000  0.61855000  0.61130000  1.0
  C  C191  1  0.22984000  0.92615000  0.38870000  1.0
  C  C192  1  0.36740000  0.56055000  0.11546000  1.0
  C  C193  1  0.67601000  0.48285000  0.88454000  1.0
  C  C194  1  0.73288000  0.11753000  0.69307000  1.0
  C  C195  1  0.81060000  0.42595000  0.30693000  1.0
  C  C196  1  0.14329000  0.99408000  0.77648000  1.0
  C  C197  1  0.77056000  0.91977000  0.22352000  1.0
  C  C198  1  0.24412000  0.52053000  0.64906000  1.0
  C  C199  1  0.16959000  0.89319000  0.35093000  1.0
  C  C200  1  0.26937000  0.48959000  0.15337000  1.0
  C  C201  1  0.64296000  0.42274000  0.84662000  1.0
  C  C202  1  0.67284000  0.01951000  0.72006000  1.0
  C  C203  1  0.73957000  0.39290000  0.27994000  1.0
  C  C204  1  0.29616000  0.16927000  0.83988000  1.0
  C  C205  1  0.00915000  0.13604000  0.16012000  1.0
  C  C206  1  0.41919000  0.75909000  0.62680000  1.0
  C  C207  1  0.38589000  0.04598000  0.37320000  1.0
  C  C208  1  0.50735000  0.66609000  0.13146000  1.0
  C  C209  1  0.79755000  0.63880000  0.86855000  1.0
  C  C210  1  0.88879000  0.25744000  0.65878000  1.0
  C  C211  1  0.91621000  0.54756000  0.34123000  1.0
  C  C212  1  0.27104000  0.24051000  0.82715000  1.0
  C  C213  1  0.06767000  0.09820000  0.17284000  1.0
  C  C214  1  0.49046000  0.81754000  0.53049000  1.0
  C  C215  1  0.34802000  0.02094000  0.46951000  1.0
  C  C216  1  0.56707000  0.73814000  0.03536000  1.0
  C  C217  1  0.77350000  0.60243000  0.96464000  1.0
  C  C218  1  0.85243000  0.31717000  0.67109000  1.0
  C  C219  1  0.98825000  0.52352000  0.32891000  1.0
  C  C220  1  0.29539000  0.30239000  0.86555000  1.0
  C  C221  1  0.16794000  0.16093000  0.13446000  1.0
  C  C222  1  0.55235000  0.91783000  0.49291000  1.0
  C  C223  1  0.41073000  0.04526000  0.50709000  1.0
  C  C224  1  0.66679000  0.80070000  0.00025000  1.0
  C  C225  1  0.80095000  0.66703000  0.99975000  1.0
  C  C226  1  0.91705000  0.41688000  0.63396000  1.0
  C  C227  1  0.05084000  0.55102000  0.36603000  1.0
  C  C228  1  0.37090000  0.23130000  0.92627000  1.0
  C  C229  1  0.15758000  0.29717000  0.07373000  1.0
  C  C230  1  0.48128000  0.90752000  0.63947000  1.0
  C  C231  1  0.54699000  0.12075000  0.36053000  1.0
  C  C232  1  0.65396000  0.72821000  0.14712000  1.0
  C  C233  1  0.87533000  0.80108000  0.85288000  1.0
  C  C234  1  0.05106000  0.40399000  0.57432000  1.0
  C  C235  1  0.97830000  0.62538000  0.42568000  1.0
  C  C236  1  0.34990000  0.16813000  0.88888000  1.0
  C  C237  1  0.05702000  0.23878000  0.11112000  1.0
  C  C238  1  0.41808000  0.80699000  0.68163000  1.0
  C  C239  1  0.48862000  0.09970000  0.31837000  1.0
  C  C240  1  0.55373000  0.66403000  0.18760000  1.0
  C  C241  1  0.85163000  0.74133000  0.81240000  1.0
  C  C242  1  0.99129000  0.30376000  0.61041000  1.0
  C  C243  1  0.91416000  0.60170000  0.38960000  1.0
  N  N244  1  0.34246000  0.29657000  0.91654000  1.0
  N  N245  1  0.21311000  0.25899000  0.08347000  1.0
  N  N246  1  0.54653000  0.96302000  0.54576000  1.0
  N  N247  1  0.50878000  0.09230000  0.45423000  1.0
  N  N248  1  0.71081000  0.79522000  0.05436000  1.0
  N  N249  1  0.84958000  0.76516000  0.94565000  1.0
  N  N250  1  0.01516000  0.46085000  0.58448000  1.0
  N  N251  1  0.04533000  0.59964000  0.41552000  1.0
  O  O252  1  0.04235000  0.67525000  0.56492000  1.0
  O  O253  1  0.24017000  0.60727000  0.43507000  1.0
  O  O254  1  0.92496000  0.99014000  0.86723000  1.0
  O  O255  1  0.85738000  0.79219000  0.13276000  1.0
  O  O256  1  0.75271000  0.18972000  0.34296000  1.0
  O  O257  1  0.53267000  0.09567000  0.65705000  1.0
  O  O258  1  0.34585000  0.50276000  0.93684000  1.0
  O  O259  1  0.43960000  0.28269000  0.06316000  1.0
  O  O260  1  0.14127000  0.63533000  0.60220000  1.0
  O  O261  1  0.23753000  0.74347000  0.39779000  1.0
  O  O262  1  0.88545000  0.98762000  0.00599000  1.0
  O  O263  1  0.99361000  0.89143000  0.99402000  1.0
  O  O264  1  0.72794000  0.13226000  0.49254000  1.0
  O  O265  1  0.62479000  0.22048000  0.50747000  1.0
  O  O266  1  0.47075000  0.47815000  0.90423000  1.0
  O  O267  1  0.38238000  0.37498000  0.09577000  1.0
