# generated using pymatgen
data_CuH4C3SN3
_symmetry_space_group_name_H-M   'P 1'
_cell_length_a   5.05233000
_cell_length_b   8.58971000
_cell_length_c   11.65960000
_cell_angle_alpha   108.63100000
_cell_angle_beta   89.99950000
_cell_angle_gamma   89.99930000
_symmetry_Int_Tables_number   1
_chemical_formula_structural   CuH4C3SN3
_chemical_formula_sum   'Cu4 H16 C12 S4 N12'
_cell_volume   479.48711691
_cell_formula_units_Z   4
loop_
 _symmetry_equiv_pos_site_id
 _symmetry_equiv_pos_as_xyz
  1  'x, y, z'
loop_
 _atom_site_type_symbol
 _atom_site_label
 _atom_site_symmetry_multiplicity
 _atom_site_fract_x
 _atom_site_fract_y
 _atom_site_fract_z
 _atom_site_occupancy
  Cu  Cu0  1  0.99758000  0.33676000  0.34348000  1.0
  Cu  Cu1  1  0.49758000  0.16324000  0.15652000  1.0
  Cu  Cu2  1  0.00241000  0.66324000  0.65652000  1.0
  Cu  Cu3  1  0.50243000  0.83676000  0.84348000  1.0
  H  H4  1  0.91721000  0.61868000  0.92654000  1.0
  H  H5  1  0.41719000  0.88133000  0.57347000  1.0
  H  H6  1  0.08279000  0.38132000  0.07346000  1.0
  H  H7  1  0.58280000  0.11867000  0.42653000  1.0
  H  H8  1  0.36052000  0.61480000  0.03865000  1.0
  H  H9  1  0.86052000  0.88519000  0.46136000  1.0
  H  H10  1  0.63948000  0.38519000  0.96136000  1.0
  H  H11  1  0.13948000  0.11480000  0.53864000  1.0
  H  H12  1  0.21163000  0.63805000  0.18308000  1.0
  H  H13  1  0.71160000  0.86195000  0.31692000  1.0
  H  H14  1  0.78838000  0.36195000  0.81692000  1.0
  H  H15  1  0.28840000  0.13804000  0.68308000  1.0
  H  H16  1  0.43888000  0.78874000  0.16616000  1.0
  H  H17  1  0.93885000  0.71125000  0.33383000  1.0
  H  H18  1  0.56114000  0.21126000  0.83384000  1.0
  H  H19  1  0.06114000  0.28874000  0.66617000  1.0
  C  C20  1  0.99173000  0.95380000  0.15230000  1.0
  C  C21  1  0.49173000  0.54620000  0.34769000  1.0
  C  C22  1  0.00827000  0.04620000  0.84769000  1.0
  C  C23  1  0.50827000  0.45380000  0.65231000  1.0
  C  C24  1  0.89999000  0.73756000  0.99553000  1.0
  C  C25  1  0.39997000  0.76242000  0.50446000  1.0
  C  C26  1  0.10001000  0.26244000  0.00447000  1.0
  C  C27  1  0.60002000  0.23758000  0.49554000  1.0
  C  C28  1  0.28253000  0.70286000  0.12166000  1.0
  C  C29  1  0.78251000  0.79714000  0.37834000  1.0
  C  C30  1  0.71748000  0.29714000  0.87834000  1.0
  C  C31  1  0.21748000  0.20286000  0.62166000  1.0
  S  S32  1  0.17060000  0.08232000  0.27100000  1.0
  S  S33  1  0.67058000  0.41767000  0.22900000  1.0
  S  S34  1  0.82942000  0.91768000  0.72900000  1.0
  S  S35  1  0.32941000  0.58233000  0.77100000  1.0
  N  N36  1  0.72177000  0.84996000  0.99714000  1.0
  N  N37  1  0.22176000  0.65004000  0.50286000  1.0
  N  N38  1  0.27824000  0.15004000  0.00286000  1.0
  N  N39  1  0.77824000  0.34996000  0.49714000  1.0
  N  N40  1  0.77465000  0.98648000  0.09732000  1.0
  N  N41  1  0.27464000  0.51352000  0.40268000  1.0
  N  N42  1  0.22536000  0.01352000  0.90268000  1.0
  N  N43  1  0.72536000  0.48648000  0.59732000  1.0
  N  N44  1  0.06949000  0.79455000  0.09024000  1.0
  N  N45  1  0.56946000  0.70545000  0.40977000  1.0
  N  N46  1  0.93052000  0.20545000  0.90976000  1.0
  N  N47  1  0.43054000  0.29455000  0.59023000  1.0
