# generated using pymatgen
data_H10PbC16N2(OF3)2
_symmetry_space_group_name_H-M   'P 1'
_cell_length_a   8.08365000
_cell_length_b   10.11380000
_cell_length_c   11.23990000
_cell_angle_alpha   99.18860000
_cell_angle_beta   100.03900000
_cell_angle_gamma   108.92000000
_symmetry_Int_Tables_number   1
_chemical_formula_structural   H10PbC16N2(OF3)2
_chemical_formula_sum   'H20 Pb2 C32 N4 O4 F12'
_cell_volume   832.59971746
_cell_formula_units_Z   2
loop_
 _symmetry_equiv_pos_site_id
 _symmetry_equiv_pos_as_xyz
  1  'x, y, z'
loop_
 _atom_site_type_symbol
 _atom_site_label
 _atom_site_symmetry_multiplicity
 _atom_site_fract_x
 _atom_site_fract_y
 _atom_site_fract_z
 _atom_site_occupancy
  H  H0  1  0.57529000  0.19387000  0.01482000  1.0
  H  H1  1  0.42470000  0.80613000  0.98518000  1.0
  H  H2  1  0.45774000  0.00589000  0.12962000  1.0
  H  H3  1  0.54227000  0.99412000  0.87039000  1.0
  H  H4  1  0.40760000  0.08386000  0.34042000  1.0
  H  H5  1  0.59241000  0.91615000  0.65958000  1.0
  H  H6  1  0.46268000  0.34263000  0.41954000  1.0
  H  H7  1  0.53731000  0.65737000  0.58045000  1.0
  H  H8  1  0.55681000  0.58126000  0.40053000  1.0
  H  H9  1  0.44318000  0.41874000  0.59947000  1.0
  H  H10  1  0.95219000  0.82205000  0.19086000  1.0
  H  H11  1  0.04781000  0.17795000  0.80914000  1.0
  H  H12  1  0.10640000  0.96928000  0.40556000  1.0
  H  H13  1  0.89360000  0.03071000  0.59444000  1.0
  H  H14  1  0.21457000  0.84727000  0.56635000  1.0
  H  H15  1  0.78543000  0.15273000  0.43365000  1.0
  H  H16  1  0.17304000  0.58975000  0.50085000  1.0
  H  H17  1  0.82696000  0.41024000  0.49916000  1.0
  H  H18  1  0.06745000  0.37468000  0.35351000  1.0
  H  H19  1  0.93255000  0.62531000  0.64648000  1.0
  Pb  Pb20  1  0.75582000  0.51521000  0.02321000  1.0
  Pb  Pb21  1  0.24418000  0.48479000  0.97679000  1.0
  C  C22  1  0.54809000  0.22219000  0.10517000  1.0
  C  C23  1  0.45192000  0.77781000  0.89484000  1.0
  C  C24  1  0.48407000  0.11794000  0.16939000  1.0
  C  C25  1  0.51593000  0.88207000  0.83062000  1.0
  C  C26  1  0.45632000  0.16192000  0.28611000  1.0
  C  C27  1  0.54369000  0.83808000  0.71390000  1.0
  C  C28  1  0.48813000  0.30598000  0.33052000  1.0
  C  C29  1  0.51188000  0.69402000  0.66948000  1.0
  C  C30  1  0.55040000  0.40730000  0.26002000  1.0
  C  C31  1  0.44959000  0.59270000  0.73998000  1.0
  C  C32  1  0.57040000  0.55473000  0.30602000  1.0
  C  C33  1  0.42960000  0.44527000  0.69398000  1.0
  C  C34  1  0.58471000  0.65883000  0.23967000  1.0
  C  C35  1  0.41528000  0.34117000  0.76033000  1.0
  C  C36  1  0.57325000  0.80065000  0.30091000  1.0
  C  C37  1  0.42674000  0.19936000  0.69909000  1.0
  C  C38  1  0.00406000  0.77437000  0.26238000  1.0
  C  C39  1  0.99594000  0.22563000  0.73761000  1.0
  C  C40  1  0.08954000  0.85630000  0.38221000  1.0
  C  C41  1  0.91046000  0.14370000  0.61779000  1.0
  C  C42  1  0.14903000  0.78821000  0.47056000  1.0
  C  C43  1  0.85098000  0.21179000  0.52944000  1.0
  C  C44  1  0.12465000  0.64440000  0.43439000  1.0
  C  C45  1  0.87536000  0.35560000  0.56561000  1.0
  C  C46  1  0.03842000  0.56632000  0.31054000  1.0
  C  C47  1  0.96159000  0.43369000  0.68946000  1.0
  C  C48  1  0.02386000  0.41836000  0.27655000  1.0
  C  C49  1  0.97615000  0.58165000  0.72345000  1.0
  C  C50  1  0.97497000  0.33137000  0.15966000  1.0
  C  C51  1  0.02504000  0.66863000  0.84033000  1.0
  C  C52  1  0.99102000  0.18331000  0.14534000  1.0
  C  C53  1  0.00899000  0.81669000  0.85466000  1.0
  N  N54  1  0.58422000  0.36281000  0.14886000  1.0
  N  N55  1  0.41578000  0.63720000  0.85114000  1.0
  N  N56  1  0.97550000  0.63361000  0.22726000  1.0
  N  N57  1  0.02450000  0.36638000  0.77273000  1.0
  O  O58  1  0.59478000  0.65335000  0.12479000  1.0
  O  O59  1  0.40521000  0.34666000  0.87520000  1.0
  O  O60  1  0.92244000  0.35709000  0.05223000  1.0
  O  O61  1  0.07755000  0.64291000  0.94778000  1.0
  F  F62  1  0.41200000  0.80989000  0.24713000  1.0
  F  F63  1  0.58799000  0.19011000  0.75286000  1.0
  F  F64  1  0.58429000  0.82051000  0.42588000  1.0
  F  F65  1  0.41570000  0.17949000  0.57411000  1.0
  F  F66  1  0.70538000  0.91664000  0.28535000  1.0
  F  F67  1  0.29461000  0.08337000  0.71465000  1.0
  F  F68  1  0.11729000  0.17652000  0.07927000  1.0
  F  F69  1  0.88273000  0.82348000  0.92075000  1.0
  F  F70  1  0.04080000  0.14786000  0.25495000  1.0
  F  F71  1  0.95920000  0.85213000  0.74505000  1.0
  F  F72  1  0.83329000  0.07631000  0.08006000  1.0
  F  F73  1  0.16672000  0.92369000  0.91993000  1.0
