# generated using pymatgen
data_ZnH20C14S2(NO)4
_symmetry_space_group_name_H-M   'P 1'
_cell_length_a   8.53932000
_cell_length_b   9.47801000
_cell_length_c   12.88310000
_cell_angle_alpha   98.25350000
_cell_angle_beta   107.06800000
_cell_angle_gamma   98.97040000
_symmetry_Int_Tables_number   1
_chemical_formula_structural   ZnH20C14S2(NO)4
_chemical_formula_sum   'Zn2 H40 C28 S4 N8 O8'
_cell_volume   964.59641637
_cell_formula_units_Z   2
loop_
 _symmetry_equiv_pos_site_id
 _symmetry_equiv_pos_as_xyz
  1  'x, y, z'
loop_
 _atom_site_type_symbol
 _atom_site_label
 _atom_site_symmetry_multiplicity
 _atom_site_fract_x
 _atom_site_fract_y
 _atom_site_fract_z
 _atom_site_occupancy
  Zn  Zn0  1  0.83422000  0.75465000  0.23779000  1.0
  Zn  Zn1  1  0.16578000  0.24536000  0.76221000  1.0
  H  H2  1  0.74039000  0.29929000  0.27461000  1.0
  H  H3  1  0.25961000  0.70071000  0.72539000  1.0
  H  H4  1  0.97303000  0.02484000  0.33899000  1.0
  H  H5  1  0.02696000  0.97516000  0.66101000  1.0
  H  H6  1  0.82539000  0.55502000  0.83771000  1.0
  H  H7  1  0.17461000  0.44498000  0.16229000  1.0
  H  H8  1  0.03370000  0.78800000  0.09587000  1.0
  H  H9  1  0.96630000  0.21200000  0.90413000  1.0
  H  H10  1  0.54795000  0.14528000  0.05403000  1.0
  H  H11  1  0.45205000  0.85472000  0.94598000  1.0
  H  H12  1  0.50295000  0.28817000  0.13950000  1.0
  H  H13  1  0.49705000  0.71183000  0.86050000  1.0
  H  H14  1  0.43617000  0.10132000  0.14578000  1.0
  H  H15  1  0.56383000  0.89868000  0.85422000  1.0
  H  H16  1  0.03394000  0.33595000  0.36705000  1.0
  H  H17  1  0.96606000  0.66405000  0.63295000  1.0
  H  H18  1  0.09712000  0.23050000  0.47084000  1.0
  H  H19  1  0.90288000  0.76949000  0.52916000  1.0
  H  H20  1  0.90210000  0.28512000  0.44550000  1.0
  H  H21  1  0.09790000  0.71488000  0.55450000  1.0
  H  H22  1  0.70607000  0.30838000  0.90352000  1.0
  H  H23  1  0.29393000  0.69163000  0.09648000  1.0
  H  H24  1  0.59874000  0.36318000  0.78068000  1.0
  H  H25  1  0.40126000  0.63682000  0.21932000  1.0
  H  H26  1  0.55048000  0.41424000  0.90470000  1.0
  H  H27  1  0.44952000  0.58576000  0.09531000  1.0
  H  H28  1  0.05523000  0.72348000  0.87844000  1.0
  H  H29  1  0.94478000  0.27651000  0.12157000  1.0
  H  H30  1  0.08950000  0.89950000  0.96059000  1.0
  H  H31  1  0.91050000  0.10049000  0.03941000  1.0
  H  H32  1  0.88494000  0.81688000  0.86803000  1.0
  H  H33  1  0.11506000  0.18312000  0.13196000  1.0
  H  H34  1  0.55913000  0.75310000  0.47020000  1.0
  H  H35  1  0.44087000  0.24691000  0.52979000  1.0
  H  H36  1  0.61191000  0.30798000  0.40943000  1.0
  H  H37  1  0.38809000  0.69203000  0.59056000  1.0
  H  H38  1  0.22997000  0.94976000  0.53737000  1.0
  H  H39  1  0.77003000  0.05024000  0.46263000  1.0
  H  H40  1  0.50226000  0.95825000  0.30529000  1.0
  H  H41  1  0.49774000  0.04174000  0.69471000  1.0
  C  C42  1  0.77472000  0.08779000  0.24104000  1.0
  C  C43  1  0.22528000  0.91221000  0.75896000  1.0
  C  C44  1  0.53654000  0.18102000  0.13586000  1.0
  C  C45  1  0.46345000  0.81898000  0.86414000  1.0
  C  C46  1  0.99077000  0.24848000  0.40610000  1.0
  C  C47  1  0.00923000  0.75151000  0.59390000  1.0
  C  C48  1  0.85438000  0.61108000  0.00070000  1.0
  C  C49  1  0.14562000  0.38892000  0.99930000  1.0
  C  C50  1  0.65144000  0.39675000  0.87091000  1.0
  C  C51  1  0.34856000  0.60325000  0.12909000  1.0
  C  C52  1  0.99903000  0.79573000  0.92522000  1.0
  C  C53  1  0.00097000  0.20426000  0.07478000  1.0
  C  C54  1  0.70179000  0.57351000  0.36117000  1.0
  C  C55  1  0.29821000  0.42649000  0.63883000  1.0
  C  C56  1  0.59643000  0.53500000  0.43215000  1.0
  C  C57  1  0.40357000  0.46500000  0.56785000  1.0
  C  C58  1  0.53255000  0.64250000  0.48368000  1.0
  C  C59  1  0.46745000  0.35750000  0.51631000  1.0
  C  C60  1  0.56295000  0.39214000  0.44911000  1.0
  C  C61  1  0.43705000  0.60786000  0.55089000  1.0
  C  C62  1  0.18908000  0.89174000  0.31730000  1.0
  C  C63  1  0.81092000  0.10826000  0.68270000  1.0
  C  C64  1  0.34960000  0.94884000  0.41177000  1.0
  C  C65  1  0.65039000  0.05116000  0.58823000  1.0
  C  C66  1  0.34893000  0.97084000  0.52170000  1.0
  C  C67  1  0.65107000  0.02916000  0.47831000  1.0
  C  C68  1  0.50204000  0.97860000  0.39063000  1.0
  C  C69  1  0.49796000  0.02140000  0.60937000  1.0
  S  S70  1  0.69617000  0.92116000  0.15065000  1.0
  S  S71  1  0.30383000  0.07884000  0.84934000  1.0
  S  S72  1  0.81278000  0.54799000  0.11128000  1.0
  S  S73  1  0.18722000  0.45201000  0.88872000  1.0
  N  N74  1  0.69351000  0.19621000  0.22408000  1.0
  N  N75  1  0.30649000  0.80379000  0.77592000  1.0
  N  N76  1  0.91666000  0.11160000  0.32695000  1.0
  N  N77  1  0.08334000  0.88840000  0.67305000  1.0
  N  N78  1  0.77627000  0.53172000  0.89767000  1.0
  N  N79  1  0.22373000  0.46829000  0.10233000  1.0
  N  N80  1  0.96392000  0.73502000  0.01522000  1.0
  N  N81  1  0.03608000  0.26498000  0.98478000  1.0
  O  O82  1  0.71257000  0.70451000  0.34240000  1.0
  O  O83  1  0.28743000  0.29549000  0.65759000  1.0
  O  O84  1  0.77473000  0.48203000  0.32491000  1.0
  O  O85  1  0.22528000  0.51797000  0.67508000  1.0
  O  O86  1  0.05685000  0.85687000  0.34678000  1.0
  O  O87  1  0.94315000  0.14313000  0.65322000  1.0
  O  O88  1  0.18877000  0.88187000  0.21920000  1.0
  O  O89  1  0.81123000  0.11813000  0.78080000  1.0
