# generated using pymatgen
data_PrH12C11O8
_symmetry_space_group_name_H-M   'P 1'
_cell_length_a   6.28547000
_cell_length_b   8.87479000
_cell_length_c   12.37970000
_cell_angle_alpha   78.24880000
_cell_angle_beta   79.17750000
_cell_angle_gamma   71.22240000
_symmetry_Int_Tables_number   1
_chemical_formula_structural   PrH12C11O8
_chemical_formula_sum   'Pr2 H24 C22 O16'
_cell_volume   634.52108094
_cell_formula_units_Z   2
loop_
 _symmetry_equiv_pos_site_id
 _symmetry_equiv_pos_as_xyz
  1  'x, y, z'
loop_
 _atom_site_type_symbol
 _atom_site_label
 _atom_site_symmetry_multiplicity
 _atom_site_fract_x
 _atom_site_fract_y
 _atom_site_fract_z
 _atom_site_occupancy
  Pr  Pr0  1  0.92626000  0.53689000  0.22789000  1.0
  Pr  Pr1  1  0.70273000  0.00222000  0.03092000  1.0
  H  H2  1  0.96591000  0.50856000  0.81219000  1.0
  H  H3  1  0.80400000  0.55455000  0.63381000  1.0
  H  H4  1  0.39645000  0.69125000  0.62648000  1.0
  H  H5  1  0.13979000  0.76800000  0.80032000  1.0
  H  H6  1  0.29373000  0.11663000  0.46080000  1.0
  H  H7  1  0.11503000  0.99505000  0.64027000  1.0
  H  H8  1  0.85463000  0.83810000  0.64050000  1.0
  H  H9  1  0.75917000  0.80760000  0.45947000  1.0
  H  H10  1  0.18558000  0.53499000  0.57957000  1.0
  H  H11  1  0.11487000  0.35371000  0.60380000  1.0
  H  H12  1  0.57636000  0.40952000  0.50568000  1.0
  H  H13  1  0.52091000  0.23248000  0.49471000  1.0
  H  H14  1  0.71811000  0.21251000  0.65972000  1.0
  H  H15  1  0.47386000  0.35061000  0.71681000  1.0
  H  H16  1  0.24962000  0.15576000  0.73068000  1.0
  H  H17  1  0.49219000  0.02386000  0.66213000  1.0
  H  H18  1  0.41252000  0.62760000  0.32262000  1.0
  H  H19  1  0.46490000  0.79362000  0.26801000  1.0
  H  H20  1  0.52851000  0.38579000  0.29785000  1.0
  H  H21  1  0.73835000  0.25199000  0.23890000  1.0
  H  H22  1  0.35035000  0.28082000  0.10329000  1.0
  H  H23  1  0.47711000  0.39276000  0.02473000  1.0
  H  H24  1  0.10494000  0.13157000  0.93209000  1.0
  H  H25  1  0.91895000  0.28036000  0.97963000  1.0
  C  C26  1  0.74733000  0.58951000  0.00860000  1.0
  C  C27  1  0.64261000  0.60932000  0.90577000  1.0
  C  C28  1  0.78476000  0.56395000  0.80872000  1.0
  C  C29  1  0.69560000  0.59146000  0.70915000  1.0
  C  C30  1  0.46443000  0.66684000  0.70519000  1.0
  C  C31  1  0.32122000  0.71013000  0.80149000  1.0
  C  C32  1  0.40824000  0.67882000  0.90273000  1.0
  C  C33  1  0.23833000  0.70894000  0.00484000  1.0
  C  C34  1  0.23726000  0.10239000  0.25223000  1.0
  C  C35  1  0.12049000  0.03561000  0.36008000  1.0
  C  C36  1  0.17423000  0.05074000  0.46101000  1.0
  C  C37  1  0.07711000  0.98061000  0.56132000  1.0
  C  C38  1  0.92978000  0.89169000  0.56156000  1.0
  C  C39  1  0.87626000  0.87480000  0.46117000  1.0
  C  C40  1  0.96900000  0.94832000  0.36052000  1.0
  C  C41  1  0.88982000  0.94768000  0.25475000  1.0
  C  C42  1  0.12607000  0.46718000  0.43738000  1.0
  C  C43  1  0.22060000  0.42130000  0.54690000  1.0
  C  C44  1  0.47253000  0.32979000  0.54551000  1.0
  C  C45  1  0.53294000  0.25688000  0.66278000  1.0
  C  C46  1  0.43580000  0.11668000  0.71680000  1.0
  C  C47  1  0.52324000  0.04216000  0.82689000  1.0
  O  O48  1  0.53026000  0.68403000  0.30775000  1.0
  O  O49  1  0.69677000  0.70905000  0.06219000  1.0
  O  O50  1  0.69300000  0.35341000  0.27188000  1.0
  O  O51  1  0.88848000  0.45576000  0.04069000  1.0
  O  O52  1  0.46635000  0.28318000  0.03591000  1.0
  O  O53  1  0.25301000  0.59607000  0.08816000  1.0
  O  O54  1  0.93719000  0.18479000  0.94502000  1.0
  O  O55  1  0.08212000  0.84076000  0.99730000  1.0
  O  O56  1  0.19479000  0.25457000  0.22536000  1.0
  O  O57  1  0.38062000  0.00066000  0.19513000  1.0
  O  O58  1  0.83491000  0.08081000  0.18886000  1.0
  O  O59  1  0.87011000  0.81971000  0.23234000  1.0
  O  O60  1  0.25076000  0.49670000  0.34428000  1.0
  O  O61  1  0.91998000  0.47884000  0.43703000  1.0
  O  O62  1  0.73572000  0.97723000  0.82935000  1.0
  O  O63  1  0.38608000  0.05279000  0.91812000  1.0
