# generated using pymatgen
data_NiH20C20(NO4)2
_symmetry_space_group_name_H-M   'P 1'
_cell_length_a   5.66911000
_cell_length_b   7.88458000
_cell_length_c   10.77620000
_cell_angle_alpha   107.10700000
_cell_angle_beta   96.10630000
_cell_angle_gamma   98.14060000
_symmetry_Int_Tables_number   1
_chemical_formula_structural   NiH20C20(NO4)2
_chemical_formula_sum   'Ni1 H20 C20 N2 O8'
_cell_volume   450.11836192
_cell_formula_units_Z   1
loop_
 _symmetry_equiv_pos_site_id
 _symmetry_equiv_pos_as_xyz
  1  'x, y, z'
loop_
 _atom_site_type_symbol
 _atom_site_label
 _atom_site_symmetry_multiplicity
 _atom_site_fract_x
 _atom_site_fract_y
 _atom_site_fract_z
 _atom_site_occupancy
  Ni  Ni0  1  0.00000000  0.00000000  0.00001000  1.0
  H  H1  1  0.32151000  0.73745000  0.87502000  1.0
  H  H2  1  0.67851000  0.26258000  0.12500000  1.0
  H  H3  1  0.32851000  0.51525000  0.66322000  1.0
  H  H4  1  0.67153000  0.48476000  0.33682000  1.0
  H  H5  1  0.66344000  0.65373000  0.51654000  1.0
  H  H6  1  0.33660000  0.34624000  0.48346000  1.0
  H  H7  1  0.67987000  0.86479000  0.73820000  1.0
  H  H8  1  0.32015000  0.13521000  0.26178000  1.0
  H  H9  1  0.75810000  0.44635000  0.75858000  1.0
  H  H10  1  0.24188000  0.55363000  0.24139000  1.0
  H  H11  1  0.60744000  0.46058000  0.89676000  1.0
  H  H12  1  0.39254000  0.53944000  0.10323000  1.0
  H  H13  1  0.12940000  0.98569000  0.60229000  1.0
  H  H14  1  0.87058000  0.01431000  0.39768000  1.0
  H  H15  1  0.86501000  0.23066000  0.61599000  1.0
  H  H16  1  0.13495000  0.76931000  0.38398000  1.0
  H  H17  1  0.75398000  0.75530000  0.05301000  1.0
  H  H18  1  0.24602000  0.24472000  0.94699000  1.0
  H  H19  1  0.55157000  0.88059000  0.06284000  1.0
  H  H20  1  0.44843000  0.11943000  0.93718000  1.0
  C  C21  1  0.17799000  0.71534000  0.79331000  1.0
  C  C22  1  0.82201000  0.28467000  0.20671000  1.0
  C  C23  1  0.18164000  0.59090000  0.67187000  1.0
  C  C24  1  0.81838000  0.40910000  0.32817000  1.0
  C  C25  1  0.99877000  0.56367000  0.56583000  1.0
  C  C26  1  0.00128000  0.43634000  0.43420000  1.0
  C  C27  1  0.81340000  0.66427000  0.59200000  1.0
  C  C28  1  0.18663000  0.33573000  0.40801000  1.0
  C  C29  1  0.82063000  0.78490000  0.71647000  1.0
  C  C30  1  0.17939000  0.21511000  0.28354000  1.0
  C  C31  1  0.86180000  0.28056000  0.87549000  1.0
  C  C32  1  0.13819000  0.71946000  0.12451000  1.0
  C  C33  1  0.67305000  0.36752000  0.81601000  1.0
  C  C34  1  0.32693000  0.63250000  0.18398000  1.0
  C  C35  1  0.49314000  0.12337000  0.62299000  1.0
  C  C36  1  0.50684000  0.87661000  0.37699000  1.0
  C  C37  1  0.29179000  0.99080000  0.55690000  1.0
  C  C38  1  0.70820000  0.00917000  0.44307000  1.0
  C  C39  1  0.29628000  0.86864000  0.43415000  1.0
  C  C40  1  0.70370000  0.13133000  0.56583000  1.0
  N  N41  1  0.00148000  0.81293000  0.81629000  1.0
  N  N42  1  0.99853000  0.18708000  0.18373000  1.0
  O  O43  1  0.78047000  0.14002000  0.90609000  1.0
  O  O44  1  0.21951000  0.86001000  0.09391000  1.0
  O  O45  1  0.92111000  0.64515000  0.10839000  1.0
  O  O46  1  0.07888000  0.35485000  0.89159000  1.0
  O  O47  1  0.46451000  0.24164000  0.74031000  1.0
  O  O48  1  0.53549000  0.75834000  0.25968000  1.0
  O  O49  1  0.67364000  0.83571000  0.00899000  1.0
  O  O50  1  0.32635000  0.16431000  0.99102000  1.0
