# generated using pymatgen
data_Zr3H28C45O16
_symmetry_space_group_name_H-M   'P 1'
_cell_length_a   19.03813917
_cell_length_b   19.11295297
_cell_length_c   19.11340000
_cell_angle_alpha   90.26211581
_cell_angle_beta   119.80943373
_cell_angle_gamma   119.80579632
_symmetry_Int_Tables_number   1
_chemical_formula_structural   Zr3H28C45O16
_chemical_formula_sum   'Zr6 H56 C90 O32'
_cell_volume   4935.14335105
_cell_formula_units_Z   2
loop_
 _symmetry_equiv_pos_site_id
 _symmetry_equiv_pos_as_xyz
  1  'x, y, z'
loop_
 _atom_site_type_symbol
 _atom_site_label
 _atom_site_symmetry_multiplicity
 _atom_site_fract_x
 _atom_site_fract_y
 _atom_site_fract_z
 _atom_site_occupancy
  Zr  Zr0  1  0.50026000  0.90723000  0.90724000  1.0
  Zr  Zr1  1  0.50039000  0.09280000  0.09281000  1.0
  Zr  Zr2  1  0.68545000  0.09203000  0.09196000  1.0
  Zr  Zr3  1  0.31512000  0.90798000  0.90794000  1.0
  Zr  Zr4  1  0.50025000  0.90772000  0.09229000  1.0
  Zr  Zr5  1  0.50023000  0.09231000  0.90771000  1.0
  H  H6  1  0.64607000  0.92698000  0.07210000  1.0
  H  H7  1  0.35457000  0.92786000  0.07305000  1.0
  H  H8  1  0.64595000  0.21800000  0.07275000  1.0
  H  H9  1  0.35459000  0.92725000  0.78201000  1.0
  H  H10  1  0.49747000  0.32014000  0.11080000  1.0
  H  H11  1  0.50042000  0.45036000  0.11331000  1.0
  H  H12  1  0.49767000  0.67723000  0.88671000  1.0
  H  H13  1  0.50068000  0.54998000  0.88721000  1.0
  H  H14  1  0.49751000  0.67813000  0.11094000  1.0
  H  H15  1  0.50049000  0.55088000  0.11333000  1.0
  H  H16  1  0.49762000  0.31932000  0.88655000  1.0
  H  H17  1  0.50053000  0.44949000  0.88716000  1.0
  H  H18  1  0.50249000  0.11323000  0.32262000  1.0
  H  H19  1  0.49928000  0.11270000  0.44976000  1.0
  H  H20  1  0.50267000  0.88915000  0.67971000  1.0
  H  H21  1  0.49952000  0.88660000  0.54939000  1.0
  H  H22  1  0.50251000  0.11339000  0.68061000  1.0
  H  H23  1  0.49937000  0.11274000  0.55032000  1.0
  H  H24  1  0.50260000  0.88897000  0.32181000  1.0
  H  H25  1  0.49942000  0.88656000  0.44894000  1.0
  H  H26  1  0.70903000  0.31950000  0.88688000  1.0
  H  H27  1  0.83649000  0.44974000  0.88747000  1.0
  H  H28  1  0.29123000  0.67807000  0.11067000  1.0
  H  H29  1  0.16371000  0.55098000  0.11318000  1.0
  H  H30  1  0.06639000  0.67747000  0.88673000  1.0
  H  H31  1  0.93694000  0.55028000  0.88727000  1.0
  H  H32  1  0.93398000  0.32022000  0.11088000  1.0
  H  H33  1  0.06333000  0.45051000  0.11338000  1.0
  H  H34  1  0.70899000  0.88941000  0.32195000  1.0
  H  H35  1  0.83646000  0.88691000  0.44918000  1.0
  H  H36  1  0.29118000  0.11317000  0.68057000  1.0
  H  H37  1  0.16367000  0.11261000  0.55043000  1.0
  H  H38  1  0.06637000  0.88918000  0.67995000  1.0
  H  H39  1  0.93692000  0.88669000  0.54973000  1.0
  H  H40  1  0.93400000  0.11335000  0.32271000  1.0
  H  H41  1  0.06335000  0.11279000  0.44999000  1.0
  H  H42  1  0.29080000  0.11473000  0.11235000  1.0
  H  H43  1  0.24215000  0.17702000  0.17723000  1.0
  H  H44  1  0.07158000  0.89153000  0.88899000  1.0
  H  H45  1  0.71009000  0.88758000  0.88530000  1.0
  H  H46  1  0.75879000  0.82269000  0.82292000  1.0
  H  H47  1  0.92945000  0.11098000  0.10854000  1.0
  H  H48  1  0.93429000  0.31993000  0.32241000  1.0
  H  H49  1  0.06347000  0.45002000  0.44947000  1.0
  H  H50  1  0.06624000  0.67773000  0.68022000  1.0
  H  H51  1  0.93686000  0.55066000  0.55012000  1.0
  H  H52  1  0.29121000  0.67752000  0.67999000  1.0
  H  H53  1  0.16378000  0.55049000  0.54994000  1.0
  H  H54  1  0.70900000  0.31982000  0.32233000  1.0
  H  H55  1  0.83629000  0.44991000  0.44939000  1.0
  H  H56  1  0.17323000  0.19822000  0.26376000  1.0
  H  H57  1  0.06645000  0.19678000  0.19677000  1.0
  H  H58  1  0.17345000  0.26365000  0.19849000  1.0
  H  H59  1  0.82805000  0.73623000  0.80178000  1.0
  H  H60  1  0.93494000  0.80346000  0.80347000  1.0
  H  H61  1  0.82783000  0.80150000  0.73633000  1.0
  C  C62  1  0.49578000  0.76275000  0.99775000  1.0
  C  C63  1  0.50461000  0.00223000  0.23724000  1.0
  C  C64  1  0.49588000  0.23291000  0.99796000  1.0
  C  C65  1  0.50450000  0.00205000  0.76708000  1.0
  C  C66  1  0.73552000  0.00061000  0.99668000  1.0
  C  C67  1  0.26481000  0.76283000  0.76706000  1.0
  C  C68  1  0.26534000  0.00341000  0.99936000  1.0
  C  C69  1  0.73573000  0.23295000  0.23716000  1.0
  C  C70  1  0.73559000  0.00215000  0.23685000  1.0
  C  C71  1  0.73556000  0.23256000  0.99772000  1.0
  C  C72  1  0.26480000  0.00223000  0.76744000  1.0
  C  C73  1  0.26480000  0.76315000  0.99787000  1.0
  C  C74  1  0.49698000  0.31133000  0.99844000  1.0
  C  C75  1  0.49694000  0.68547000  0.99846000  1.0
  C  C76  1  0.49807000  0.34936000  0.06212000  1.0
  C  C77  1  0.49977000  0.42285000  0.06283000  1.0
  C  C78  1  0.49815000  0.64856000  0.93594000  1.0
  C  C79  1  0.49987000  0.57678000  0.93696000  1.0
  C  C80  1  0.49806000  0.64911000  0.06218000  1.0
  C  C81  1  0.49978000  0.57732000  0.06285000  1.0
  C  C82  1  0.49814000  0.34885000  0.93586000  1.0
  C  C83  1  0.49982000  0.42233000  0.93691000  1.0
  C  C84  1  0.50032000  0.46131000  0.00015000  1.0
  C  C85  1  0.50033000  0.53884000  0.00015000  1.0
  C  C86  1  0.50326000  0.00149000  0.31444000  1.0
  C  C87  1  0.50321000  0.00153000  0.68858000  1.0
  C  C88  1  0.50198000  0.06400000  0.35128000  1.0
  C  C89  1  0.50014000  0.06297000  0.42302000  1.0
  C  C90  1  0.50203000  0.93782000  0.65049000  1.0
  C  C91  1  0.50023000  0.93709000  0.57695000  1.0
  C  C92  1  0.50196000  0.06408000  0.65104000  1.0
  C  C93  1  0.50015000  0.06300000  0.57750000  1.0
  C  C94  1  0.50203000  0.93774000  0.35078000  1.0
  C  C95  1  0.50020000  0.93706000  0.42252000  1.0
  C  C96  1  0.49962000  0.99976000  0.46096000  1.0
  C  C97  1  0.49963000  0.99976000  0.53849000  1.0
  C  C98  1  0.81333000  0.31126000  0.99851000  1.0
  C  C99  1  0.18701000  0.68572000  0.99840000  1.0
  C  C100  1  0.78720000  0.34897000  0.93612000  1.0
  C  C101  1  0.85985000  0.42253000  0.93716000  1.0
  C  C102  1  0.21308000  0.64918000  0.06199000  1.0
  C  C103  1  0.14037000  0.57742000  0.06272000  1.0
  C  C104  1  0.08652000  0.64883000  0.93597000  1.0
  C  C105  1  0.01414000  0.57703000  0.93699000  1.0
  C  C106  1  0.91381000  0.34940000  0.06218000  1.0
  C  C107  1  0.98614000  0.42297000  0.06290000  1.0
  C  C108  1  0.96141000  0.46149000  0.00025000  1.0
  C  C109  1  0.03880000  0.53900000  0.00015000  1.0
  C  C110  1  0.81333000  0.00166000  0.31437000  1.0
  C  C111  1  0.18695000  0.00152000  0.68883000  1.0
  C  C112  1  0.78718000  0.93808000  0.35090000  1.0
  C  C113  1  0.85983000  0.93735000  0.42271000  1.0
  C  C114  1  0.21303000  0.06394000  0.65114000  1.0
  C  C115  1  0.14033000  0.06290000  0.57763000  1.0
  C  C116  1  0.08648000  0.93788000  0.65076000  1.0
  C  C117  1  0.01411000  0.93717000  0.57723000  1.0
  C  C118  1  0.91383000  0.06411000  0.35133000  1.0
  C  C119  1  0.98615000  0.06307000  0.42318000  1.0
  C  C120  1  0.96140000  0.99990000  0.46117000  1.0
  C  C121  1  0.03878000  0.99981000  0.53869000  1.0
  C  C122  1  0.21278000  0.06533000  0.06347000  1.0
  C  C123  1  0.13922000  0.06473000  0.06425000  1.0
  C  C124  1  0.16364000  0.12816000  0.12826000  1.0
  C  C125  1  0.08724000  0.93857000  0.93662000  1.0
  C  C126  1  0.01072000  0.93496000  0.93443000  1.0
  C  C127  1  0.90705000  0.86951000  0.86957000  1.0
  C  C128  1  0.78810000  0.93647000  0.93471000  1.0
  C  C129  1  0.86165000  0.93568000  0.93525000  1.0
  C  C130  1  0.83728000  0.87169000  0.87180000  1.0
  C  C131  1  0.91368000  0.06330000  0.06147000  1.0
  C  C132  1  0.99020000  0.06551000  0.06503000  1.0
  C  C133  1  0.09389000  0.13039000  0.13045000  1.0
  C  C134  1  0.18686000  0.00281000  0.99993000  1.0
  C  C135  1  0.03725000  0.99957000  0.99942000  1.0
  C  C136  1  0.81402000  0.99999000  0.99726000  1.0
  C  C137  1  0.96364000  0.00051000  0.00039000  1.0
  C  C138  1  0.81347000  0.31137000  0.31447000  1.0
  C  C139  1  0.18694000  0.68553000  0.68863000  1.0
  C  C140  1  0.91401000  0.34922000  0.35115000  1.0
  C  C141  1  0.98623000  0.42268000  0.42289000  1.0
  C  C142  1  0.08641000  0.64892000  0.65085000  1.0
  C  C143  1  0.01407000  0.57718000  0.57738000  1.0
  C  C144  1  0.21303000  0.64880000  0.65074000  1.0
  C  C145  1  0.14036000  0.57708000  0.57729000  1.0
  C  C146  1  0.78721000  0.34915000  0.35111000  1.0
  C  C147  1  0.85978000  0.42261000  0.42284000  1.0
  C  C148  1  0.96139000  0.46139000  0.46107000  1.0
  C  C149  1  0.03877000  0.53891000  0.53858000  1.0
  C  C150  1  0.12758000  0.20048000  0.20059000  1.0
  C  C151  1  0.87363000  0.79946000  0.79958000  1.0
  O  O152  1  0.49578000  0.79309000  0.93826000  1.0
  O  O153  1  0.50476000  0.06178000  0.20693000  1.0
  O  O154  1  0.49628000  0.20272000  0.05763000  1.0
  O  O155  1  0.50430000  0.94245000  0.79734000  1.0
  O  O156  1  0.76409000  0.06003000  0.05615000  1.0
  O  O157  1  0.23591000  0.79377000  0.79771000  1.0
  O  O158  1  0.23674000  0.94394000  0.93993000  1.0
  O  O159  1  0.76469000  0.20238000  0.20622000  1.0
  O  O160  1  0.64540000  0.94269000  0.20607000  1.0
  O  O161  1  0.64538000  0.20211000  0.93857000  1.0
  O  O162  1  0.35498000  0.06139000  0.79787000  1.0
  O  O163  1  0.35500000  0.79391000  0.05733000  1.0
  O  O164  1  0.76455000  0.20190000  0.05698000  1.0
  O  O165  1  0.23587000  0.94288000  0.79803000  1.0
  O  O166  1  0.23584000  0.79407000  0.93887000  1.0
  O  O167  1  0.76461000  0.06111000  0.20592000  1.0
  O  O168  1  0.64536000  0.94104000  0.93759000  1.0
  O  O169  1  0.64548000  0.20262000  0.20649000  1.0
  O  O170  1  0.35546000  0.06247000  0.05896000  1.0
  O  O171  1  0.35503000  0.79349000  0.79731000  1.0
  O  O172  1  0.50414000  0.06139000  0.79778000  1.0
  O  O173  1  0.49641000  0.79395000  0.05758000  1.0
  O  O174  1  0.50399000  0.94239000  0.20608000  1.0
  O  O175  1  0.49624000  0.20223000  0.93861000  1.0
  O  O176  1  0.39601000  0.94792000  0.84405000  1.0
  O  O177  1  0.60455000  0.15598000  0.05208000  1.0
  O  O178  1  0.39610000  0.94843000  0.05233000  1.0
  O  O179  1  0.60451000  0.94767000  0.05156000  1.0
  O  O180  1  0.57720000  0.03847000  0.11494000  1.0
  O  O181  1  0.42338000  0.88503000  0.96152000  1.0
  O  O182  1  0.42340000  0.03863000  0.96201000  1.0
  O  O183  1  0.57716000  0.03800000  0.96136000  1.0
