# generated using pymatgen
data_CoH24C18S2(N3O)2
_symmetry_space_group_name_H-M   'P 1'
_cell_length_a   7.58862000
_cell_length_b   8.55147000
_cell_length_c   9.87957000
_cell_angle_alpha   65.09490000
_cell_angle_beta   81.53710000
_cell_angle_gamma   73.26080000
_symmetry_Int_Tables_number   1
_chemical_formula_structural   CoH24C18S2(N3O)2
_chemical_formula_sum   'Co1 H24 C18 S2 N6 O2'
_cell_volume   556.61504119
_cell_formula_units_Z   1
loop_
 _symmetry_equiv_pos_site_id
 _symmetry_equiv_pos_as_xyz
  1  'x, y, z'
loop_
 _atom_site_type_symbol
 _atom_site_label
 _atom_site_symmetry_multiplicity
 _atom_site_fract_x
 _atom_site_fract_y
 _atom_site_fract_z
 _atom_site_occupancy
  Co  Co0  1  0.50000000  0.50000000  0.50000000  1.0
  H  H1  1  0.41760000  0.42740000  0.26222000  1.0
  H  H2  1  0.58240000  0.57260000  0.73778000  1.0
  H  H3  1  0.56922000  0.25936000  0.36089000  1.0
  H  H4  1  0.43078000  0.74063000  0.63911000  1.0
  H  H5  1  0.38563000  0.17079000  0.67545000  1.0
  H  H6  1  0.61438000  0.82921000  0.32455000  1.0
  H  H7  1  0.12745000  0.08132000  0.84871000  1.0
  H  H8  1  0.87256000  0.91867000  0.15130000  1.0
  H  H9  1  0.86261000  0.64088000  0.72311000  1.0
  H  H10  1  0.13738000  0.35912000  0.27689000  1.0
  H  H11  1  0.13492000  0.70652000  0.56691000  1.0
  H  H12  1  0.86506000  0.29349000  0.43308000  1.0
  H  H13  1  0.78729000  0.18871000  0.89597000  1.0
  H  H14  1  0.21271000  0.81129000  0.10404000  1.0
  H  H15  1  0.88376000  0.22001000  0.03113000  1.0
  H  H16  1  0.11624000  0.77999000  0.96888000  1.0
  H  H17  1  0.53422000  0.23686000  0.10047000  1.0
  H  H18  1  0.46578000  0.76314000  0.89953000  1.0
  H  H19  1  0.48310000  0.27391000  0.91766000  1.0
  H  H20  1  0.51690000  0.72609000  0.08234000  1.0
  H  H21  1  0.78496000  0.59233000  0.95666000  1.0
  H  H22  1  0.21504000  0.40767000  0.04334000  1.0
  H  H23  1  0.71686000  0.42797000  0.12232000  1.0
  H  H24  1  0.28314000  0.57203000  0.87768000  1.0
  C  C25  1  0.26970000  0.27047000  0.69295000  1.0
  C  C26  1  0.73028000  0.72954000  0.30706000  1.0
  C  C27  1  0.12430000  0.22210000  0.78918000  1.0
  C  C28  1  0.87572000  0.77790000  0.21082000  1.0
  C  C29  1  0.97332000  0.35244000  0.80799000  1.0
  C  C30  1  0.02667000  0.64756000  0.19201000  1.0
  C  C31  1  0.97653000  0.52964000  0.72204000  1.0
  C  C32  1  0.02349000  0.47036000  0.27795000  1.0
  C  C33  1  0.13001000  0.56875000  0.63143000  1.0
  C  C34  1  0.86997000  0.43125000  0.36857000  1.0
  C  C35  1  0.82359000  0.29072000  0.91857000  1.0
  C  C36  1  0.17641000  0.70928000  0.08144000  1.0
  C  C37  1  0.50173000  0.34048000  0.98642000  1.0
  C  C38  1  0.49827000  0.65952000  0.01358000  1.0
  C  C39  1  0.67536000  0.52330000  0.00753000  1.0
  C  C40  1  0.32463000  0.47670000  0.99247000  1.0
  C  C41  1  0.27302000  0.86466000  0.30890000  1.0
  C  C42  1  0.72699000  0.13534000  0.69109000  1.0
  S  S43  1  0.15911000  0.06756000  0.21823000  1.0
  S  S44  1  0.84091000  0.93243000  0.78176000  1.0
  N  N45  1  0.35631000  0.71467000  0.37228000  1.0
  N  N46  1  0.64369000  0.28534000  0.62771000  1.0
  N  N47  1  0.27776000  0.44239000  0.61747000  1.0
  N  N48  1  0.72224000  0.55761000  0.38253000  1.0
  N  N49  1  0.65447000  0.42647000  0.92034000  1.0
  N  N50  1  0.34553000  0.57353000  0.07967000  1.0
  O  O51  1  0.45715000  0.34642000  0.36824000  1.0
  O  O52  1  0.54285000  0.65357000  0.63176000  1.0
