# generated using pymatgen
data_NaH6C4N11O2
_symmetry_space_group_name_H-M   'P 1'
_cell_length_a   6.15666000
_cell_length_b   7.48950000
_cell_length_c   11.66140000
_cell_angle_alpha   75.28210000
_cell_angle_beta   77.36330000
_cell_angle_gamma   88.30310000
_symmetry_Int_Tables_number   1
_chemical_formula_structural   NaH6C4N11O2
_chemical_formula_sum   'Na2 H12 C8 N22 O4'
_cell_volume   507.27775273
_cell_formula_units_Z   2
loop_
 _symmetry_equiv_pos_site_id
 _symmetry_equiv_pos_as_xyz
  1  'x, y, z'
loop_
 _atom_site_type_symbol
 _atom_site_label
 _atom_site_symmetry_multiplicity
 _atom_site_fract_x
 _atom_site_fract_y
 _atom_site_fract_z
 _atom_site_occupancy
  Na  Na0  1  0.28609000  0.46485000  0.42395000  1.0
  Na  Na1  1  0.71391000  0.53515000  0.57605000  1.0
  H  H2  1  0.48451000  0.45389000  0.12413000  1.0
  H  H3  1  0.51549000  0.54611000  0.87587000  1.0
  H  H4  1  0.23133000  0.13946000  0.01049000  1.0
  H  H5  1  0.76867000  0.86054000  0.98951000  1.0
  H  H6  1  0.52269000  0.79021000  0.35908000  1.0
  H  H7  1  0.47731000  0.20979000  0.64092000  1.0
  H  H8  1  0.93832000  0.17621000  0.55714000  1.0
  H  H9  1  0.06168000  0.82379000  0.44287000  1.0
  H  H10  1  0.73298000  0.67890000  0.32720000  1.0
  H  H11  1  0.26702000  0.32110000  0.67280000  1.0
  H  H12  1  0.87290000  0.26119000  0.43354000  1.0
  H  H13  1  0.12710000  0.73881000  0.56646000  1.0
  C  C14  1  0.85566000  0.32444000  0.97609000  1.0
  C  C15  1  0.14434000  0.67556000  0.02391000  1.0
  C  C16  1  0.79326000  0.29840000  0.10584000  1.0
  C  C17  1  0.20674000  0.70160000  0.89416000  1.0
  C  C18  1  0.89218000  0.20752000  0.20135000  1.0
  C  C19  1  0.10782000  0.79248000  0.79865000  1.0
  C  C20  1  0.09620000  0.10832000  0.20046000  1.0
  C  C21  1  0.90380000  0.89168000  0.79955000  1.0
  N  N22  1  0.85272000  0.41117000  0.78661000  1.0
  N  N23  1  0.14728000  0.58883000  0.21339000  1.0
  N  N24  1  0.03640000  0.31942000  0.79846000  1.0
  N  N25  1  0.96360000  0.68058000  0.20154000  1.0
  N  N26  1  0.04409000  0.26293000  0.91632000  1.0
  N  N27  1  0.95592000  0.73707000  0.08367000  1.0
  N  N28  1  0.60687000  0.36901000  0.16192000  1.0
  N  N29  1  0.39313000  0.63099000  0.83808000  1.0
  N  N30  1  0.76070000  0.23038000  0.30733000  1.0
  N  N31  1  0.23930000  0.76962000  0.69267000  1.0
  N  N32  1  0.24734000  0.09088000  0.10075000  1.0
  N  N33  1  0.75266000  0.90912000  0.89925000  1.0
  N  N34  1  0.58891000  0.32788000  0.28246000  1.0
  N  N35  1  0.41109000  0.67212000  0.71754000  1.0
  N  N36  1  0.73537000  0.41682000  0.89713000  1.0
  N  N37  1  0.26463000  0.58318000  0.10287000  1.0
  N  N38  1  0.17311000  0.02061000  0.29820000  1.0
  N  N39  1  0.82689000  0.97939000  0.70180000  1.0
  N  N40  1  0.41845000  0.99267000  0.13601000  1.0
  N  N41  1  0.58155000  0.00733000  0.86399000  1.0
  N  N42  1  0.37100000  0.95290000  0.25452000  1.0
  N  N43  1  0.62900000  0.04710000  0.74549000  1.0
  O  O44  1  0.93908000  0.29448000  0.49601000  1.0
  O  O45  1  0.06092000  0.70552000  0.50399000  1.0
  O  O46  1  0.60153000  0.67992000  0.39405000  1.0
  O  O47  1  0.39847000  0.32008000  0.60596000  1.0
