# generated using pymatgen
data_CuH5C5NCl2O
_symmetry_space_group_name_H-M   'P 1'
_cell_length_a   5.77113000
_cell_length_b   9.94878000
_cell_length_c   13.56160000
_cell_angle_alpha   90.00220000
_cell_angle_beta   90.00490000
_cell_angle_gamma   73.24300000
_symmetry_Int_Tables_number   1
_chemical_formula_structural   CuH5C5NCl2O
_chemical_formula_sum   'Cu4 H20 C20 N4 Cl8 O4'
_cell_volume   745.58436084
_cell_formula_units_Z   4
loop_
 _symmetry_equiv_pos_site_id
 _symmetry_equiv_pos_as_xyz
  1  'x, y, z'
loop_
 _atom_site_type_symbol
 _atom_site_label
 _atom_site_symmetry_multiplicity
 _atom_site_fract_x
 _atom_site_fract_y
 _atom_site_fract_z
 _atom_site_occupancy
  Cu  Cu0  1  0.27344000  0.39256000  0.51338000  1.0
  Cu  Cu1  1  0.72658000  0.10747000  0.01335000  1.0
  Cu  Cu2  1  0.72655000  0.60744000  0.48662000  1.0
  Cu  Cu3  1  0.27342000  0.89253000  0.98665000  1.0
  H  H4  1  0.85463000  0.42477000  0.27371000  1.0
  H  H5  1  0.14530000  0.07521000  0.77379000  1.0
  H  H6  1  0.14539000  0.57522000  0.72628000  1.0
  H  H7  1  0.85470000  0.92479000  0.22622000  1.0
  H  H8  1  0.93008000  0.46516000  0.09511000  1.0
  H  H9  1  0.06985000  0.03491000  0.59517000  1.0
  H  H10  1  0.06993000  0.53484000  0.90489000  1.0
  H  H11  1  0.93016000  0.96509000  0.40484000  1.0
  H  H12  1  0.21839000  0.60807000  0.05282000  1.0
  H  H13  1  0.78156000  0.89199000  0.55279000  1.0
  H  H14  1  0.78161000  0.39193000  0.94718000  1.0
  H  H15  1  0.21844000  0.10801000  0.44721000  1.0
  H  H16  1  0.40490000  0.70775000  0.19127000  1.0
  H  H17  1  0.59506000  0.79225000  0.69119000  1.0
  H  H18  1  0.59508000  0.29226000  0.80874000  1.0
  H  H19  1  0.40495000  0.20774000  0.30881000  1.0
  H  H20  1  0.29906000  0.66187000  0.36653000  1.0
  H  H21  1  0.70087000  0.83808000  0.86648000  1.0
  H  H22  1  0.70093000  0.33814000  0.63347000  1.0
  H  H23  1  0.29914000  0.16192000  0.13352000  1.0
  C  C24  1  0.97310000  0.48576000  0.24912000  1.0
  C  C25  1  0.02685000  0.01424000  0.74916000  1.0
  C  C26  1  0.02691000  0.51424000  0.75088000  1.0
  C  C27  1  0.97315000  0.98576000  0.25084000  1.0
  C  C28  1  0.01844000  0.51048000  0.15170000  1.0
  C  C29  1  0.98149000  0.98956000  0.65172000  1.0
  C  C30  1  0.98156000  0.48952000  0.84830000  1.0
  C  C31  1  0.01851000  0.01045000  0.34828000  1.0
  C  C32  1  0.17640000  0.58942000  0.12915000  1.0
  C  C33  1  0.82356000  0.91061000  0.62914000  1.0
  C  C34  1  0.82360000  0.41058000  0.87084000  1.0
  C  C35  1  0.17644000  0.08939000  0.37086000  1.0
  C  C36  1  0.28167000  0.64502000  0.20564000  1.0
  C  C37  1  0.71828000  0.85498000  0.70560000  1.0
  C  C38  1  0.71832000  0.35499000  0.79436000  1.0
  C  C39  1  0.28173000  0.14502000  0.29440000  1.0
  C  C40  1  0.22923000  0.62070000  0.30240000  1.0
  C  C41  1  0.77072000  0.87927000  0.80237000  1.0
  C  C42  1  0.77076000  0.37931000  0.69760000  1.0
  C  C43  1  0.22928000  0.12072000  0.19763000  1.0
  N  N44  1  0.08098000  0.54079000  0.32115000  1.0
  N  N45  1  0.91897000  0.95916000  0.82116000  1.0
  N  N46  1  0.91902000  0.45921000  0.67885000  1.0
  N  N47  1  0.08103000  0.04083000  0.17884000  1.0
  Cl  Cl48  1  0.37270000  0.21074000  0.61435000  1.0
  Cl  Cl49  1  0.62727000  0.28928000  0.11433000  1.0
  Cl  Cl50  1  0.62730000  0.78925000  0.38565000  1.0
  Cl  Cl51  1  0.37272000  0.71072000  0.88567000  1.0
  Cl  Cl52  1  0.60192000  0.34903000  0.42132000  1.0
  Cl  Cl53  1  0.39811000  0.15097000  0.92127000  1.0
  Cl  Cl54  1  0.39808000  0.65097000  0.57868000  1.0
  Cl  Cl55  1  0.60189000  0.84903000  0.07873000  1.0
  O  O56  1  0.03752000  0.51629000  0.41670000  1.0
  O  O57  1  0.96241000  0.98363000  0.91672000  1.0
  O  O58  1  0.96248000  0.48371000  0.58330000  1.0
  O  O59  1  0.03758000  0.01637000  0.08328000  1.0
