# generated using pymatgen
data_PrH8C8NO9
_symmetry_space_group_name_H-M   'P 1'
_cell_length_a   6.71281000
_cell_length_b   7.98713000
_cell_length_c   10.41110000
_cell_angle_alpha   79.11340000
_cell_angle_beta   74.79770000
_cell_angle_gamma   88.57170000
_symmetry_Int_Tables_number   1
_chemical_formula_structural   PrH8C8NO9
_chemical_formula_sum   'Pr2 H16 C16 N2 O18'
_cell_volume   528.79595002
_cell_formula_units_Z   2
loop_
 _symmetry_equiv_pos_site_id
 _symmetry_equiv_pos_as_xyz
  1  'x, y, z'
loop_
 _atom_site_type_symbol
 _atom_site_label
 _atom_site_symmetry_multiplicity
 _atom_site_fract_x
 _atom_site_fract_y
 _atom_site_fract_z
 _atom_site_occupancy
  Pr  Pr0  1  0.25001000  0.35347000  0.31695000  1.0
  Pr  Pr1  1  0.74999000  0.64652000  0.68305000  1.0
  H  H2  1  0.36843000  0.88674000  0.93661000  1.0
  H  H3  1  0.63157000  0.11326000  0.06339000  1.0
  H  H4  1  0.75265000  0.29862000  0.24380000  1.0
  H  H5  1  0.24734000  0.70139000  0.75620000  1.0
  H  H6  1  0.68522000  0.26453000  0.39902000  1.0
  H  H7  1  0.31479000  0.73548000  0.60098000  1.0
  H  H8  1  0.26328000  0.67928000  0.42564000  1.0
  H  H9  1  0.73672000  0.32073000  0.57435000  1.0
  H  H10  1  0.49849000  0.63754000  0.40785000  1.0
  H  H11  1  0.50151000  0.36247000  0.59214000  1.0
  H  H12  1  0.35474000  0.02961000  0.72526000  1.0
  H  H13  1  0.64527000  0.97039000  0.27474000  1.0
  H  H14  1  0.23267000  0.98116000  0.14342000  1.0
  H  H15  1  0.76734000  0.01883000  0.85658000  1.0
  H  H16  1  0.01105000  0.42478000  0.91275000  1.0
  H  H17  1  0.98895000  0.57522000  0.08725000  1.0
  C  C18  1  0.15195000  0.32667000  0.66680000  1.0
  C  C19  1  0.84806000  0.67332000  0.33320000  1.0
  C  C20  1  0.17398000  0.23886000  0.80385000  1.0
  C  C21  1  0.82603000  0.76114000  0.19614000  1.0
  C  C22  1  0.28058000  0.08686000  0.81192000  1.0
  C  C23  1  0.71942000  0.91314000  0.18807000  1.0
  C  C24  1  0.21243000  0.06041000  0.05069000  1.0
  C  C25  1  0.78758000  0.93958000  0.94931000  1.0
  C  C26  1  0.11013000  0.21820000  0.05013000  1.0
  C  C27  1  0.88988000  0.78180000  0.94987000  1.0
  C  C28  1  0.09030000  0.30397000  0.92125000  1.0
  C  C29  1  0.90970000  0.69603000  0.07875000  1.0
  C  C30  1  0.90287000  0.04921000  0.52923000  1.0
  C  C31  1  0.09713000  0.95081000  0.47076000  1.0
  C  C32  1  0.54704000  0.41172000  0.99318000  1.0
  C  C33  1  0.45296000  0.58827000  0.00683000  1.0
  N  N34  1  0.29293000  0.00396000  0.93444000  1.0
  N  N35  1  0.70707000  0.99604000  0.06556000  1.0
  O  O36  1  0.26963000  0.27533000  0.56415000  1.0
  O  O37  1  0.73037000  0.72467000  0.43586000  1.0
  O  O38  1  0.02334000  0.44319000  0.65956000  1.0
  O  O39  1  0.97664000  0.55682000  0.34044000  1.0
  O  O40  1  0.04095000  0.27936000  0.16133000  1.0
  O  O41  1  0.95905000  0.72063000  0.83867000  1.0
  O  O42  1  0.75889000  0.96991000  0.62224000  1.0
  O  O43  1  0.24109000  0.03009000  0.37777000  1.0
  O  O44  1  0.90633000  0.20733000  0.47638000  1.0
  O  O45  1  0.09367000  0.79266000  0.52363000  1.0
  O  O46  1  0.50176000  0.29520000  0.09963000  1.0
  O  O47  1  0.49825000  0.70479000  0.90037000  1.0
  O  O48  1  0.66025000  0.39414000  0.88021000  1.0
  O  O49  1  0.33976000  0.60586000  0.11979000  1.0
  O  O50  1  0.62743000  0.29204000  0.32038000  1.0
  O  O51  1  0.37257000  0.70797000  0.67962000  1.0
  O  O52  1  0.37448000  0.60719000  0.38289000  1.0
  O  O53  1  0.62551000  0.39281000  0.61711000  1.0
