# generated using pymatgen
data_CoH10C4(NCl)2
_symmetry_space_group_name_H-M   'P 1'
_cell_length_a   6.24309000
_cell_length_b   10.32390000
_cell_length_c   11.88780000
_cell_angle_alpha   90.00150000
_cell_angle_beta   77.25000000
_cell_angle_gamma   90.00010000
_symmetry_Int_Tables_number   1
_chemical_formula_structural   CoH10C4(NCl)2
_chemical_formula_sum   'Co4 H40 C16 N8 Cl8'
_cell_volume   747.31197855
_cell_formula_units_Z   4
loop_
 _symmetry_equiv_pos_site_id
 _symmetry_equiv_pos_as_xyz
  1  'x, y, z'
loop_
 _atom_site_type_symbol
 _atom_site_label
 _atom_site_symmetry_multiplicity
 _atom_site_fract_x
 _atom_site_fract_y
 _atom_site_fract_z
 _atom_site_occupancy
  Co  Co0  1  0.85608000  0.63681000  0.76735000  1.0
  Co  Co1  1  0.35607000  0.86319000  0.26734000  1.0
  Co  Co2  1  0.14391000  0.36318000  0.23267000  1.0
  Co  Co3  1  0.64393000  0.13682000  0.73265000  1.0
  H  H4  1  0.22920000  0.59714000  0.56053000  1.0
  H  H5  1  0.72921000  0.90286000  0.06051000  1.0
  H  H6  1  0.77078000  0.40287000  0.43947000  1.0
  H  H7  1  0.27081000  0.09715000  0.93946000  1.0
  H  H8  1  0.22298000  0.45008000  0.64002000  1.0
  H  H9  1  0.72299000  0.04992000  0.14000000  1.0
  H  H10  1  0.77704000  0.54994000  0.35999000  1.0
  H  H11  1  0.27702000  0.95009000  0.85998000  1.0
  H  H12  1  0.63048000  0.58516000  0.57314000  1.0
  H  H13  1  0.13047000  0.91486000  0.07312000  1.0
  H  H14  1  0.36952000  0.41486000  0.42687000  1.0
  H  H15  1  0.86951000  0.08515000  0.92686000  1.0
  H  H16  1  0.00497000  0.73372000  0.96922000  1.0
  H  H17  1  0.50498000  0.76628000  0.46920000  1.0
  H  H18  1  0.99501000  0.26627000  0.03080000  1.0
  H  H19  1  0.49503000  0.23375000  0.53078000  1.0
  H  H20  1  0.77068000  0.63576000  0.02520000  1.0
  H  H21  1  0.27069000  0.86423000  0.52517000  1.0
  H  H22  1  0.22927000  0.36421000  0.97483000  1.0
  H  H23  1  0.72935000  0.13578000  0.47480000  1.0
  H  H24  1  0.75973000  0.41216000  0.94258000  1.0
  H  H25  1  0.25975000  0.08785000  0.44256000  1.0
  H  H26  1  0.24023000  0.58781000  0.05745000  1.0
  H  H27  1  0.74028000  0.91217000  0.55742000  1.0
  H  H28  1  0.98896000  0.35866000  0.83554000  1.0
  H  H29  1  0.48900000  0.14134000  0.33551000  1.0
  H  H30  1  0.01104000  0.64131000  0.16448000  1.0
  H  H31  1  0.51101000  0.85869000  0.66447000  1.0
  H  H32  1  0.16713000  0.56018000  0.85376000  1.0
  H  H33  1  0.66714000  0.93980000  0.35373000  1.0
  H  H34  1  0.83283000  0.43980000  0.14628000  1.0
  H  H35  1  0.33286000  0.06022000  0.64625000  1.0
  H  H36  1  0.84000000  0.43472000  0.65118000  1.0
  H  H37  1  0.34001000  0.06527000  0.15117000  1.0
  H  H38  1  0.16001000  0.56529000  0.34883000  1.0
  H  H39  1  0.66002000  0.93470000  0.84881000  1.0
  H  H40  1  0.87257000  0.67647000  0.51614000  1.0
  H  H41  1  0.37256000  0.82354000  0.01611000  1.0
  H  H42  1  0.12743000  0.32354000  0.48388000  1.0
  H  H43  1  0.62742000  0.17645000  0.98386000  1.0
  C  C44  1  0.15178000  0.50107000  0.57573000  1.0
  C  C45  1  0.65172000  0.99894000  0.07572000  1.0
  C  C46  1  0.84821000  0.49896000  0.42430000  1.0
  C  C47  1  0.34818000  0.00105000  0.92429000  1.0
  C  C48  1  0.80726000  0.57806000  0.53555000  1.0
  C  C49  1  0.30724000  0.92197000  0.03554000  1.0
  C  C50  1  0.19275000  0.42196000  0.46448000  1.0
  C  C51  1  0.69276000  0.07805000  0.96448000  1.0
  C  C52  1  0.94990000  0.63451000  0.99294000  1.0
  C  C53  1  0.44986000  0.86547000  0.49294000  1.0
  C  C54  1  0.05014000  0.36545000  0.00705000  1.0
  C  C55  1  0.55016000  0.13453000  0.50705000  1.0
  C  C56  1  0.93944000  0.41734000  0.91406000  1.0
  C  C57  1  0.43945000  0.08266000  0.41404000  1.0
  C  C58  1  0.06057000  0.58266000  0.08596000  1.0
  C  C59  1  0.56055000  0.91734000  0.58594000  1.0
  N  N60  1  0.91428000  0.52224000  0.62414000  1.0
  N  N61  1  0.41428000  0.97777000  0.12411000  1.0
  N  N62  1  0.08573000  0.47776000  0.37585000  1.0
  N  N63  1  0.58573000  0.02226000  0.87582000  1.0
  N  N64  1  0.99941000  0.55451000  0.88650000  1.0
  N  N65  1  0.49941000  0.94547000  0.38648000  1.0
  N  N66  1  0.00061000  0.44544000  0.11353000  1.0
  N  N67  1  0.50059000  0.05453000  0.61352000  1.0
  Cl  Cl68  1  0.49778000  0.67300000  0.82908000  1.0
  Cl  Cl69  1  0.99777000  0.82700000  0.32908000  1.0
  Cl  Cl70  1  0.50223000  0.32700000  0.17093000  1.0
  Cl  Cl71  1  0.00221000  0.17299000  0.67092000  1.0
  Cl  Cl72  1  0.00481000  0.83352000  0.73726000  1.0
  Cl  Cl73  1  0.50480000  0.66647000  0.23726000  1.0
  Cl  Cl74  1  0.99519000  0.16647000  0.26275000  1.0
  Cl  Cl75  1  0.49519000  0.33353000  0.76274000  1.0
