# generated using pymatgen
data_Zn4H29C48Br5(NO4)4
_symmetry_space_group_name_H-M   'P 1'
_cell_length_a   9.63867000
_cell_length_b   11.04780000
_cell_length_c   21.98200000
_cell_angle_alpha   89.50760000
_cell_angle_beta   88.95040000
_cell_angle_gamma   89.75180000
_symmetry_Int_Tables_number   1
_chemical_formula_structural   Zn4H29C48Br5(NO4)4
_chemical_formula_sum   'Zn4 H29 C48 Br5 N4 O16'
_cell_volume   2340.27783594
_cell_formula_units_Z   1
loop_
 _symmetry_equiv_pos_site_id
 _symmetry_equiv_pos_as_xyz
  1  'x, y, z'
loop_
 _atom_site_type_symbol
 _atom_site_label
 _atom_site_symmetry_multiplicity
 _atom_site_fract_x
 _atom_site_fract_y
 _atom_site_fract_z
 _atom_site_occupancy
  Zn  Zn0  1  0.35767000  0.49521000  0.50166000  1.0
  Zn  Zn1  1  0.64056000  0.50139000  0.50186000  1.0
  Zn  Zn2  1  0.64354000  0.49584000  0.99986000  1.0
  Zn  Zn3  1  0.36027000  0.50588000  0.00493000  1.0
  H  H4  1  0.87933000  0.64311000  0.43933000  1.0
  H  H5  1  0.84988000  0.35264000  0.56017000  1.0
  H  H6  1  0.14467000  0.62908000  0.44232000  1.0
  H  H7  1  0.27424000  0.89780000  0.50208000  1.0
  H  H8  1  0.71859000  0.87294000  0.49433000  1.0
  H  H9  1  0.29272000  0.12412000  0.49866000  1.0
  H  H10  1  0.33109000  0.33939000  0.13983000  1.0
  H  H11  1  0.32871000  0.33411000  0.36561000  1.0
  H  H12  1  0.71539000  0.48556000  0.80689000  1.0
  H  H13  1  0.27305000  0.53375000  0.81216000  1.0
  H  H14  1  0.71076000  0.48819000  0.69274000  1.0
  H  H15  1  0.11584000  0.62763000  0.07484000  1.0
  H  H16  1  0.15735000  0.38295000  0.93310000  1.0
  H  H17  1  0.85115000  0.61322000  0.06842000  1.0
  H  H18  1  0.72685000  0.89863000  0.01024000  1.0
  H  H19  1  0.28433000  0.87515000  0.99650000  1.0
  H  H20  1  0.70681000  0.12513000  0.01077000  1.0
  H  H21  1  0.65568000  0.76940000  0.30098000  1.0
  H  H22  1  0.65521000  0.67542000  0.36676000  1.0
  H  H23  1  0.78610000  0.65838000  0.30957000  1.0
  H  H24  1  0.78914000  0.66040000  0.19361000  1.0
  H  H25  1  0.66057000  0.68040000  0.13733000  1.0
  H  H26  1  0.65852000  0.77111000  0.20347000  1.0
  H  H27  1  0.04278000  0.19118000  0.19674000  1.0
  H  H28  1  0.16940000  0.18531000  0.13684000  1.0
  H  H29  1  0.17420000  0.07968000  0.19827000  1.0
  H  H30  1  0.17333000  0.07694000  0.30808000  1.0
  H  H31  1  0.16798000  0.17988000  0.36988000  1.0
  H  H32  1  0.04169000  0.18826000  0.31185000  1.0
  C  C33  1  0.49078000  0.73579000  0.49956000  1.0
  C  C34  1  0.49929000  0.50291000  0.38411000  1.0
  C  C35  1  0.51134000  0.26307000  0.49916000  1.0
  C  C36  1  0.50029000  0.50656000  0.61971000  1.0
  C  C37  1  0.51205000  0.73753000  0.00131000  1.0
  C  C38  1  0.50569000  0.50820000  0.12044000  1.0
  C  C39  1  0.48758000  0.26467000  0.00596000  1.0
  C  C40  1  0.49427000  0.50167000  0.88435000  1.0
  C  C41  1  0.06123000  0.40723000  0.53555000  1.0
  C  C42  1  0.93339000  0.57618000  0.46691000  1.0
  C  C43  1  0.91613000  0.41498000  0.53446000  1.0
  C  C44  1  0.07707000  0.56856000  0.46858000  1.0
  C  C45  1  0.51437000  0.12709000  0.49714000  1.0
  C  C46  1  0.49592000  0.87161000  0.49851000  1.0
  C  C47  1  0.63460000  0.05428000  0.49548000  1.0
  C  C48  1  0.37498000  0.94213000  0.49989000  1.0
  C  C49  1  0.62521000  0.92853000  0.49583000  1.0
  C  C50  1  0.38542000  0.06740000  0.49844000  1.0
  C  C51  1  0.50531000  0.50742000  0.18860000  1.0
  C  C52  1  0.41628000  0.42357000  0.21990000  1.0
  C  C53  1  0.58848000  0.58786000  0.21959000  1.0
  C  C54  1  0.33044000  0.34007000  0.18943000  1.0
  C  C55  1  0.24473000  0.25975000  0.22051000  1.0
  C  C56  1  0.50178000  0.50504000  0.31593000  1.0
  C  C57  1  0.58671000  0.58674000  0.28467000  1.0
  C  C58  1  0.41491000  0.42230000  0.28492000  1.0
  C  C59  1  0.32857000  0.33721000  0.31601000  1.0
  C  C60  1  0.24399000  0.25820000  0.28560000  1.0
  C  C61  1  0.49096000  0.51199000  0.68791000  1.0
  C  C62  1  0.49389000  0.50651000  0.81626000  1.0
  C  C63  1  0.36765000  0.52742000  0.72247000  1.0
  C  C64  1  0.61825000  0.49576000  0.78279000  1.0
  C  C65  1  0.36901000  0.52295000  0.78587000  1.0
  C  C66  1  0.61548000  0.49766000  0.71971000  1.0
  C  C67  1  0.94373000  0.42545000  0.96050000  1.0
  C  C68  1  0.06450000  0.57062000  0.04198000  1.0
  C  C69  1  0.08841000  0.43381000  0.96331000  1.0
  C  C70  1  0.92118000  0.56244000  0.03860000  1.0
  C  C71  1  0.48559000  0.12856000  0.00579000  1.0
  C  C72  1  0.50614000  0.87324000  0.00357000  1.0
  C  C73  1  0.36625000  0.05615000  0.00215000  1.0
  C  C74  1  0.62608000  0.94332000  0.00799000  1.0
  C  C75  1  0.37673000  0.93047000  0.00057000  1.0
  C  C76  1  0.61476000  0.06860000  0.00851000  1.0
  C  C77  1  0.67477000  0.67672000  0.31756000  1.0
  C  C78  1  0.67823000  0.67926000  0.18638000  1.0
  C  C79  1  0.15348000  0.17492000  0.18617000  1.0
  C  C80  1  0.15229000  0.17156000  0.32076000  1.0
  Br  Br81  1  0.13956000  0.28402000  0.58319000  1.0
  Br  Br82  1  0.81988000  0.11560000  0.48985000  1.0
  Br  Br83  1  0.19106000  0.56303000  0.68823000  1.0
  Br  Br84  1  0.86986000  0.31978000  0.90315000  1.0
  Br  Br85  1  0.18087000  0.11783000  0.99633000  1.0
  N  N86  1  0.14058000  0.48429000  0.50331000  1.0
  N  N87  1  0.85483000  0.49934000  0.50037000  1.0
  N  N88  1  0.86121000  0.48975000  0.99767000  1.0
  N  N89  1  0.14612000  0.50618000  0.00389000  1.0
  O  O90  1  0.37483000  0.68522000  0.51089000  1.0
  O  O91  1  0.60594000  0.68159000  0.48878000  1.0
  O  O92  1  0.61153000  0.47489000  0.41061000  1.0
  O  O93  1  0.38439000  0.52892000  0.41085000  1.0
  O  O94  1  0.61847000  0.31802000  0.51728000  1.0
  O  O95  1  0.39820000  0.31399000  0.48383000  1.0
  O  O96  1  0.39112000  0.47749000  0.59170000  1.0
  O  O97  1  0.61805000  0.52798000  0.59487000  1.0
  O  O98  1  0.62787000  0.68531000  0.01091000  1.0
  O  O99  1  0.39830000  0.68484000  0.98973000  1.0
  O  O100  1  0.39147000  0.53445000  0.09498000  1.0
  O  O101  1  0.61904000  0.48177000  0.09261000  1.0
  O  O102  1  0.37580000  0.32146000  0.01851000  1.0
  O  O103  1  0.60414000  0.31353000  0.99341000  1.0
  O  O104  1  0.61008000  0.52078000  0.90953000  1.0
  O  O105  1  0.37994000  0.47875000  0.91200000  1.0
