# generated using pymatgen
data_CdH6C6(NO)4
_symmetry_space_group_name_H-M   'P 1'
_cell_length_a   6.76126000
_cell_length_b   7.94407000
_cell_length_c   9.37877000
_cell_angle_alpha   98.83380000
_cell_angle_beta   96.65660000
_cell_angle_gamma   108.93900000
_symmetry_Int_Tables_number   1
_chemical_formula_structural   CdH6C6(NO)4
_chemical_formula_sum   'Cd2 H12 C12 N8 O8'
_cell_volume   463.36515409
_cell_formula_units_Z   2
loop_
 _symmetry_equiv_pos_site_id
 _symmetry_equiv_pos_as_xyz
  1  'x, y, z'
loop_
 _atom_site_type_symbol
 _atom_site_label
 _atom_site_symmetry_multiplicity
 _atom_site_fract_x
 _atom_site_fract_y
 _atom_site_fract_z
 _atom_site_occupancy
  Cd  Cd0  1  0.00000000  0.50000000  0.50000000  1.0
  Cd  Cd1  1  0.00000000  0.00000000  0.50000000  1.0
  H  H2  1  0.46369000  0.25709000  0.52791000  1.0
  H  H3  1  0.53631000  0.74291000  0.47209000  1.0
  H  H4  1  0.39892000  0.09496000  0.38847000  1.0
  H  H5  1  0.60109000  0.90504000  0.61153000  1.0
  H  H6  1  0.37232000  0.77500000  0.21987000  1.0
  H  H7  1  0.62768000  0.22500000  0.78013000  1.0
  H  H8  1  0.30210000  0.68456000  0.94428000  1.0
  H  H9  1  0.69790000  0.31544000  0.05572000  1.0
  H  H10  1  0.13764000  0.12613000  0.98847000  1.0
  H  H11  1  0.86236000  0.87387000  0.01153000  1.0
  H  H12  1  0.21882000  0.23881000  0.26508000  1.0
  H  H13  1  0.78118000  0.76119000  0.73492000  1.0
  C  C14  1  0.31919000  0.63416000  0.16189000  1.0
  C  C15  1  0.68080000  0.36583000  0.83811000  1.0
  C  C16  1  0.27853000  0.58110000  0.01085000  1.0
  C  C17  1  0.72147000  0.41890000  0.98915000  1.0
  C  C18  1  0.20542000  0.39647000  0.94503000  1.0
  C  C19  1  0.79459000  0.60353000  0.05497000  1.0
  C  C20  1  0.18651000  0.27025000  0.03619000  1.0
  C  C21  1  0.81349000  0.72975000  0.96380000  1.0
  C  C22  1  0.23052000  0.32731000  0.18673000  1.0
  C  C23  1  0.76947000  0.67269000  0.81327000  1.0
  C  C24  1  0.14232000  0.33460000  0.78089000  1.0
  C  C25  1  0.85768000  0.66540000  0.21911000  1.0
  N  N26  1  0.11409000  0.79827000  0.61855000  1.0
  N  N27  1  0.88592000  0.20173000  0.38145000  1.0
  N  N28  1  0.28465000  0.86332000  0.69758000  1.0
  N  N29  1  0.71536000  0.13668000  0.30242000  1.0
  N  N30  1  0.45143000  0.92774000  0.77341000  1.0
  N  N31  1  0.54857000  0.07226000  0.22659000  1.0
  N  N32  1  0.29033000  0.50738000  0.24754000  1.0
  N  N33  1  0.70967000  0.49262000  0.75246000  1.0
  O  O34  1  0.18193000  0.45844000  0.70634000  1.0
  O  O35  1  0.81808000  0.54156000  0.29366000  1.0
  O  O36  1  0.05315000  0.16418000  0.73330000  1.0
  O  O37  1  0.94686000  0.83582000  0.26670000  1.0
  O  O38  1  0.31984000  0.55875000  0.39206000  1.0
  O  O39  1  0.68016000  0.44125000  0.60794000  1.0
  O  O40  1  0.35012000  0.13991000  0.47651000  1.0
  O  O41  1  0.64988000  0.86009000  0.52348000  1.0
