# generated using pymatgen
data_AgH3C5(NO)2
_symmetry_space_group_name_H-M   'P 1'
_cell_length_a   5.51497000
_cell_length_b   6.82929000
_cell_length_c   7.81307000
_cell_angle_alpha   105.02500000
_cell_angle_beta   92.88330000
_cell_angle_gamma   98.96540000
_symmetry_Int_Tables_number   1
_chemical_formula_structural   AgH3C5(NO)2
_chemical_formula_sum   'Ag2 H6 C10 N4 O4'
_cell_volume   279.46218844
_cell_formula_units_Z   2
loop_
 _symmetry_equiv_pos_site_id
 _symmetry_equiv_pos_as_xyz
  1  'x, y, z'
loop_
 _atom_site_type_symbol
 _atom_site_label
 _atom_site_symmetry_multiplicity
 _atom_site_fract_x
 _atom_site_fract_y
 _atom_site_fract_z
 _atom_site_occupancy
  Ag  Ag0  1  0.98758000  0.21521000  0.39360000  1.0
  Ag  Ag1  1  0.01242000  0.78483000  0.60644000  1.0
  H  H2  1  0.71987000  0.86755000  0.02673000  1.0
  H  H3  1  0.28017000  0.13246000  0.97329000  1.0
  H  H4  1  0.31657000  0.63493000  0.92243000  1.0
  H  H5  1  0.68348000  0.36504000  0.07756000  1.0
  H  H6  1  0.01155000  0.61119000  0.16114000  1.0
  H  H7  1  0.98842000  0.38877000  0.83880000  1.0
  C  C8  1  0.47049000  0.94062000  0.40465000  1.0
  C  C9  1  0.52951000  0.05936000  0.59533000  1.0
  C  C10  1  0.58297000  0.85234000  0.12065000  1.0
  C  C11  1  0.41699000  0.14769000  0.87936000  1.0
  C  C12  1  0.35694000  0.72170000  0.06253000  1.0
  C  C13  1  0.64308000  0.27827000  0.93746000  1.0
  C  C14  1  0.19281000  0.70916000  0.19012000  1.0
  C  C15  1  0.80721000  0.29082000  0.80989000  1.0
  C  C16  1  0.52029000  0.45299000  0.39992000  1.0
  C  C17  1  0.47972000  0.54703000  0.60008000  1.0
  N  N18  1  0.64075000  0.96336000  0.29063000  1.0
  N  N19  1  0.35919000  0.03664000  0.70937000  1.0
  N  N20  1  0.25005000  0.81824000  0.36053000  1.0
  N  N21  1  0.74992000  0.18178000  0.63949000  1.0
  O  O22  1  0.34594000  0.32274000  0.29995000  1.0
  O  O23  1  0.65406000  0.67729000  0.70004000  1.0
  O  O24  1  0.72619000  0.51140000  0.34810000  1.0
  O  O25  1  0.27383000  0.48860000  0.65188000  1.0
