# generated using pymatgen
data_CdH27C22N2O5
_symmetry_space_group_name_H-M   'P 1'
_cell_length_a   8.33090000
_cell_length_b   10.23830000
_cell_length_c   14.08700000
_cell_angle_alpha   90.65660000
_cell_angle_beta   105.63600000
_cell_angle_gamma   100.26800000
_symmetry_Int_Tables_number   1
_chemical_formula_structural   CdH27C22N2O5
_chemical_formula_sum   'Cd2 H54 C44 N4 O10'
_cell_volume   1136.29738128
_cell_formula_units_Z   2
loop_
 _symmetry_equiv_pos_site_id
 _symmetry_equiv_pos_as_xyz
  1  'x, y, z'
loop_
 _atom_site_type_symbol
 _atom_site_label
 _atom_site_symmetry_multiplicity
 _atom_site_fract_x
 _atom_site_fract_y
 _atom_site_fract_z
 _atom_site_occupancy
  Cd  Cd0  1  0.29157000  0.38236000  0.00901000  1.0
  Cd  Cd1  1  0.70843000  0.61763000  0.99098000  1.0
  H  H2  1  0.01387000  0.20148000  0.95042000  1.0
  H  H3  1  0.98612000  0.79852000  0.04958000  1.0
  H  H4  1  0.92202000  0.32119000  0.96493000  1.0
  H  H5  1  0.07798000  0.67881000  0.03507000  1.0
  H  H6  1  0.25810000  0.87081000  0.00358000  1.0
  H  H7  1  0.74189000  0.12919000  0.99642000  1.0
  H  H8  1  0.38008000  0.68419000  0.76416000  1.0
  H  H9  1  0.61992000  0.31580000  0.23584000  1.0
  H  H10  1  0.34606000  0.10067000  0.76527000  1.0
  H  H11  1  0.65394000  0.89932000  0.23473000  1.0
  H  H12  1  0.49348000  0.79870000  0.54697000  1.0
  H  H13  1  0.50652000  0.20130000  0.45303000  1.0
  H  H14  1  0.37657000  0.69033000  0.61211000  1.0
  H  H15  1  0.62343000  0.30966000  0.38789000  1.0
  H  H16  1  0.58607000  0.77591000  0.67355000  1.0
  H  H17  1  0.41393000  0.22408000  0.32645000  1.0
  H  H18  1  0.16575000  0.98766000  0.58682000  1.0
  H  H19  1  0.83426000  0.01234000  0.41318000  1.0
  H  H20  1  0.13246000  0.81157000  0.56756000  1.0
  H  H21  1  0.86754000  0.18842000  0.43244000  1.0
  H  H22  1  0.23983000  0.91546000  0.49498000  1.0
  H  H23  1  0.76017000  0.08453000  0.50502000  1.0
  H  H24  1  0.63865000  0.03741000  0.70441000  1.0
  H  H25  1  0.36135000  0.96259000  0.29559000  1.0
  H  H26  1  0.46782000  0.12038000  0.65330000  1.0
  H  H27  1  0.53217000  0.87962000  0.34670000  1.0
  H  H28  1  0.55253000  0.03501000  0.57404000  1.0
  H  H29  1  0.44747000  0.96499000  0.42596000  1.0
  H  H30  1  0.09148000  0.19701000  0.15363000  1.0
  H  H31  1  0.90853000  0.80299000  0.84637000  1.0
  H  H32  1  0.02837000  0.30609000  0.31940000  1.0
  H  H33  1  0.97163000  0.69391000  0.68060000  1.0
  H  H34  1  0.47049000  0.61922000  0.16293000  1.0
  H  H35  1  0.52952000  0.38078000  0.83707000  1.0
  H  H36  1  0.47391000  0.66854000  0.28484000  1.0
  H  H37  1  0.52610000  0.33146000  0.71516000  1.0
  H  H38  1  0.31153000  0.70204000  0.18276000  1.0
  H  H39  1  0.68848000  0.29796000  0.81724000  1.0
  H  H40  1  0.18436000  0.66608000  0.33526000  1.0
  H  H41  1  0.81564000  0.33392000  0.66474000  1.0
  H  H42  1  0.34524000  0.59760000  0.41489000  1.0
  H  H43  1  0.65476000  0.40241000  0.58511000  1.0
  H  H44  1  0.35967000  0.40153000  0.46379000  1.0
  H  H45  1  0.64033000  0.59848000  0.53621000  1.0
  H  H46  1  0.29658000  0.29643000  0.55060000  1.0
  H  H47  1  0.70343000  0.70358000  0.44941000  1.0
  H  H48  1  0.41714000  0.45738000  0.59056000  1.0
  H  H49  1  0.58286000  0.54263000  0.40944000  1.0
  H  H50  1  0.74058000  0.61969000  0.29726000  1.0
  H  H51  1  0.25941000  0.38031000  0.70274000  1.0
  H  H52  1  0.93315000  0.63365000  0.26736000  1.0
  H  H53  1  0.06685000  0.36636000  0.73264000  1.0
  H  H54  1  0.90352000  0.75843000  0.34574000  1.0
  H  H55  1  0.09648000  0.24157000  0.65426000  1.0
  C  C56  1  0.28302000  0.11965000  0.94052000  1.0
  C  C57  1  0.71699000  0.88035000  0.05947000  1.0
  C  C58  1  0.30182000  0.99702000  0.88866000  1.0
  C  C59  1  0.69817000  0.00298000  0.11134000  1.0
  C  C60  1  0.28641000  0.87554000  0.93247000  1.0
  C  C61  1  0.71357000  0.12446000  0.06752000  1.0
  C  C62  1  0.31490000  0.76404000  0.88634000  1.0
  C  C63  1  0.68509000  0.23595000  0.11366000  1.0
  C  C64  1  0.30182000  0.63349000  0.93154000  1.0
  C  C65  1  0.69818000  0.36651000  0.06845000  1.0
  C  C66  1  0.35543000  0.77334000  0.79601000  1.0
  C  C67  1  0.64457000  0.22665000  0.20398000  1.0
  C  C68  1  0.36266000  0.89248000  0.74855000  1.0
  C  C69  1  0.63734000  0.10752000  0.25145000  1.0
  C  C70  1  0.33732000  0.00411000  0.79712000  1.0
  C  C71  1  0.66268000  0.99588000  0.20288000  1.0
  C  C72  1  0.39405000  0.90265000  0.64653000  1.0
  C  C73  1  0.60595000  0.09734000  0.35347000  1.0
  C  C74  1  0.46689000  0.78460000  0.61886000  1.0
  C  C75  1  0.53312000  0.21540000  0.38113000  1.0
  C  C76  1  0.22292000  0.90473000  0.56951000  1.0
  C  C77  1  0.77709000  0.09527000  0.43048000  1.0
  C  C78  1  0.52065000  0.03154000  0.64478000  1.0
  C  C79  1  0.47935000  0.96846000  0.35522000  1.0
  C  C80  1  0.13934000  0.29462000  0.19163000  1.0
  C  C81  1  0.86067000  0.70539000  0.80837000  1.0
  C  C82  1  0.10797000  0.34682000  0.27349000  1.0
  C  C83  1  0.89202000  0.65318000  0.72651000  1.0
  C  C84  1  0.28433000  0.49893000  0.21932000  1.0
  C  C85  1  0.71568000  0.50107000  0.78068000  1.0
  C  C86  1  0.39091000  0.62856000  0.21201000  1.0
  C  C87  1  0.60910000  0.37145000  0.78800000  1.0
  C  C88  1  0.21272000  0.57421000  0.36958000  1.0
  C  C89  1  0.78728000  0.42579000  0.63042000  1.0
  C  C90  1  0.09842000  0.53044000  0.43441000  1.0
  C  C91  1  0.90158000  0.46957000  0.56559000  1.0
  C  C92  1  0.15352000  0.45376000  0.51502000  1.0
  C  C93  1  0.84648000  0.54624000  0.48498000  1.0
  C  C94  1  0.31496000  0.40017000  0.53008000  1.0
  C  C95  1  0.68504000  0.59984000  0.46992000  1.0
  C  C96  1  0.94321000  0.57473000  0.41720000  1.0
  C  C97  1  0.05679000  0.42527000  0.58280000  1.0
  C  C98  1  0.87823000  0.65015000  0.32788000  1.0
  C  C99  1  0.12177000  0.34985000  0.67211000  1.0
  N  N100  1  0.24863000  0.38965000  0.15898000  1.0
  N  N101  1  0.75138000  0.61035000  0.84102000  1.0
  N  N102  1  0.20057000  0.47552000  0.29028000  1.0
  N  N103  1  0.79943000  0.52449000  0.70972000  1.0
  O  O104  1  0.34764000  0.23154000  0.91253000  1.0
  O  O105  1  0.65235000  0.76846000  0.08746000  1.0
  O  O106  1  0.20700000  0.10894000  0.00734000  1.0
  O  O107  1  0.79301000  0.89106000  0.99267000  1.0
  O  O108  1  0.20438000  0.60421000  0.98681000  1.0
  O  O109  1  0.79562000  0.39579000  0.01319000  1.0
  O  O110  1  0.38985000  0.55042000  0.91223000  1.0
  O  O111  1  0.61014000  0.44958000  0.08777000  1.0
  O  O112  1  0.99498000  0.28915000  0.92717000  1.0
  O  O113  1  0.00502000  0.71085000  0.07284000  1.0
