# generated using pymatgen
data_Co2H28C52SN4(O2F3)4
_symmetry_space_group_name_H-M   'P 1'
_cell_length_a   7.27645000
_cell_length_b   16.25830000
_cell_length_c   22.31200000
_cell_angle_alpha   103.20700000
_cell_angle_beta   89.99990000
_cell_angle_gamma   89.99980000
_symmetry_Int_Tables_number   1
_chemical_formula_structural   Co2H28C52SN4(O2F3)4
_chemical_formula_sum   'Co4 H56 C104 S2 N8 O16 F24'
_cell_volume   2569.75600526
_cell_formula_units_Z   2
loop_
 _symmetry_equiv_pos_site_id
 _symmetry_equiv_pos_as_xyz
  1  'x, y, z'
loop_
 _atom_site_type_symbol
 _atom_site_label
 _atom_site_symmetry_multiplicity
 _atom_site_fract_x
 _atom_site_fract_y
 _atom_site_fract_z
 _atom_site_occupancy
  Co  Co0  1  0.62487000  0.96255000  0.51270000  1.0
  Co  Co1  1  0.62492000  0.53745000  0.98730000  1.0
  Co  Co2  1  0.37521000  0.03740000  0.48731000  1.0
  Co  Co3  1  0.37525000  0.46260000  0.01269000  1.0
  H  H4  1  0.03780000  0.08813000  0.65786000  1.0
  H  H5  1  0.03778000  0.41186000  0.84214000  1.0
  H  H6  1  0.96217000  0.91187000  0.34213000  1.0
  H  H7  1  0.96216000  0.58813000  0.15787000  1.0
  H  H8  1  0.91363000  0.09821000  0.76217000  1.0
  H  H9  1  0.91364000  0.40177000  0.73783000  1.0
  H  H10  1  0.08635000  0.90180000  0.23783000  1.0
  H  H11  1  0.08634000  0.59820000  0.26217000  1.0
  H  H12  1  0.40634000  0.97963000  0.81051000  1.0
  H  H13  1  0.40636000  0.52035000  0.68950000  1.0
  H  H14  1  0.59364000  0.02039000  0.18949000  1.0
  H  H15  1  0.59363000  0.47962000  0.31051000  1.0
  H  H16  1  0.53122000  0.97455000  0.70743000  1.0
  H  H17  1  0.53121000  0.52543000  0.79257000  1.0
  H  H18  1  0.46875000  0.02546000  0.29257000  1.0
  H  H19  1  0.46873000  0.47456000  0.20743000  1.0
  H  H20  1  0.71803000  0.07452000  0.91798000  1.0
  H  H21  1  0.71805000  0.42548000  0.58203000  1.0
  H  H22  1  0.28194000  0.92549000  0.08204000  1.0
  H  H23  1  0.28195000  0.57451000  0.41796000  1.0
  H  H24  1  0.57741000  0.21232000  0.95884000  1.0
  H  H25  1  0.57740000  0.28769000  0.54116000  1.0
  H  H26  1  0.42259000  0.78771000  0.04119000  1.0
  H  H27  1  0.42260000  0.71230000  0.45882000  1.0
  H  H28  1  0.04783000  0.33722000  0.90447000  1.0
  H  H29  1  0.04779000  0.16277000  0.59553000  1.0
  H  H30  1  0.95221000  0.66277000  0.09554000  1.0
  H  H31  1  0.95218000  0.83723000  0.40447000  1.0
  H  H32  1  0.18535000  0.19814000  0.85728000  1.0
  H  H33  1  0.18533000  0.30184000  0.64273000  1.0
  H  H34  1  0.81465000  0.80185000  0.14272000  1.0
  H  H35  1  0.81463000  0.69814000  0.35728000  1.0
  H  H36  1  0.67212000  0.75385000  0.49067000  1.0
  H  H37  1  0.67213000  0.74616000  0.00932000  1.0
  H  H38  1  0.32787000  0.24615000  0.50932000  1.0
  H  H39  1  0.32789000  0.25386000  0.99068000  1.0
  H  H40  1  0.92639000  0.68045000  0.55642000  1.0
  H  H41  1  0.92640000  0.81955000  0.94357000  1.0
  H  H42  1  0.07360000  0.31956000  0.44358000  1.0
  H  H43  1  0.07362000  0.18045000  0.05642000  1.0
  H  H44  1  0.99888000  0.94613000  0.59737000  1.0
  H  H45  1  0.99891000  0.55387000  0.90263000  1.0
  H  H46  1  0.00111000  0.05387000  0.40263000  1.0
  H  H47  1  0.00112000  0.44615000  0.09736000  1.0
  H  H48  1  0.35844000  0.82643000  0.56534000  1.0
  H  H49  1  0.35845000  0.67357000  0.93466000  1.0
  H  H50  1  0.64153000  0.17356000  0.43466000  1.0
  H  H51  1  0.64150000  0.32644000  0.06534000  1.0
  H  H52  1  0.62132000  0.80250000  0.62914000  1.0
  H  H53  1  0.62133000  0.69750000  0.87086000  1.0
  H  H54  1  0.37866000  0.19748000  0.37086000  1.0
  H  H55  1  0.37866000  0.30252000  0.12914000  1.0
  H  H56  1  0.97663000  0.77217000  0.69902000  1.0
  H  H57  1  0.97663000  0.72783000  0.80098000  1.0
  H  H58  1  0.02335000  0.22784000  0.30098000  1.0
  H  H59  1  0.02335000  0.27216000  0.19902000  1.0
  C  C60  1  0.36740000  0.02158000  0.61212000  1.0
  C  C61  1  0.36745000  0.47843000  0.88788000  1.0
  C  C62  1  0.63262000  0.97839000  0.38788000  1.0
  C  C63  1  0.63265000  0.52165000  0.11212000  1.0
  C  C64  1  0.29375000  0.03093000  0.67585000  1.0
  C  C65  1  0.29374000  0.46907000  0.82416000  1.0
  C  C66  1  0.70624000  0.96906000  0.32415000  1.0
  C  C67  1  0.70622000  0.53096000  0.17585000  1.0
  C  C68  1  0.11945000  0.06577000  0.69185000  1.0
  C  C69  1  0.11945000  0.43422000  0.80815000  1.0
  C  C70  1  0.88052000  0.93423000  0.30814000  1.0
  C  C71  1  0.88052000  0.56578000  0.19187000  1.0
  C  C72  1  0.04907000  0.07065000  0.75052000  1.0
  C  C73  1  0.04907000  0.42933000  0.74949000  1.0
  C  C74  1  0.95090000  0.92936000  0.24947000  1.0
  C  C75  1  0.95089000  0.57064000  0.25053000  1.0
  C  C76  1  0.14996000  0.03982000  0.79438000  1.0
  C  C77  1  0.14996000  0.46016000  0.70563000  1.0
  C  C78  1  0.85001000  0.96019000  0.20562000  1.0
  C  C79  1  0.84998000  0.53982000  0.29439000  1.0
  C  C80  1  0.32434000  0.00514000  0.77830000  1.0
  C  C81  1  0.32434000  0.49484000  0.72170000  1.0
  C  C82  1  0.67563000  0.99488000  0.22170000  1.0
  C  C83  1  0.67560000  0.50514000  0.27830000  1.0
  C  C84  1  0.39591000  0.00164000  0.71989000  1.0
  C  C85  1  0.39589000  0.49835000  0.78012000  1.0
  C  C86  1  0.60408000  0.99837000  0.28012000  1.0
  C  C87  1  0.60405000  0.50165000  0.21989000  1.0
  C  C88  1  0.05651000  0.04076000  0.85648000  1.0
  C  C89  1  0.05651000  0.45922000  0.64352000  1.0
  C  C90  1  0.94347000  0.95923000  0.14351000  1.0
  C  C91  1  0.94345000  0.54077000  0.35649000  1.0
  C  C92  1  0.91707000  0.96556000  0.84324000  1.0
  C  C93  1  0.91707000  0.53443000  0.65676000  1.0
  C  C94  1  0.08293000  0.03442000  0.15675000  1.0
  C  C95  1  0.08289000  0.46557000  0.34325000  1.0
  C  C96  1  0.19497000  0.02635000  0.90655000  1.0
  C  C97  1  0.19501000  0.47362000  0.59346000  1.0
  C  C98  1  0.80498000  0.97361000  0.09344000  1.0
  C  C99  1  0.80501000  0.52638000  0.40657000  1.0
  C  C100  1  0.96118000  0.12576000  0.88294000  1.0
  C  C101  1  0.96120000  0.37423000  0.61706000  1.0
  C  C102  1  0.03877000  0.87422000  0.11707000  1.0
  C  C103  1  0.03878000  0.62577000  0.38294000  1.0
  C  C104  1  0.79107000  0.13082000  0.91294000  1.0
  C  C105  1  0.79109000  0.36918000  0.58707000  1.0
  C  C106  1  0.20888000  0.86920000  0.08708000  1.0
  C  C107  1  0.20890000  0.63080000  0.41292000  1.0
  C  C108  1  0.71096000  0.20896000  0.93663000  1.0
  C  C109  1  0.71095000  0.29105000  0.56338000  1.0
  C  C110  1  0.28904000  0.79106000  0.06339000  1.0
  C  C111  1  0.28904000  0.70894000  0.43661000  1.0
  C  C112  1  0.79947000  0.28387000  0.93250000  1.0
  C  C113  1  0.79945000  0.21613000  0.56751000  1.0
  C  C114  1  0.20057000  0.71615000  0.06751000  1.0
  C  C115  1  0.20055000  0.78386000  0.43249000  1.0
  C  C116  1  0.97293000  0.27929000  0.90482000  1.0
  C  C117  1  0.97291000  0.22070000  0.59519000  1.0
  C  C118  1  0.02711000  0.72070000  0.09519000  1.0
  C  C119  1  0.02708000  0.77930000  0.40481000  1.0
  C  C120  1  0.05143000  0.20083000  0.87954000  1.0
  C  C121  1  0.05142000  0.29915000  0.62047000  1.0
  C  C122  1  0.94857000  0.79914000  0.12047000  1.0
  C  C123  1  0.94856000  0.70085000  0.37954000  1.0
  C  C124  1  0.70563000  0.36611000  0.95761000  1.0
  C  C125  1  0.70555000  0.13391000  0.54239000  1.0
  C  C126  1  0.29452000  0.63394000  0.04238000  1.0
  C  C127  1  0.29448000  0.86608000  0.45761000  1.0
  C  C128  1  0.77706000  0.78263000  0.52296000  1.0
  C  C129  1  0.77707000  0.71738000  0.97704000  1.0
  C  C130  1  0.22295000  0.21737000  0.47705000  1.0
  C  C131  1  0.22296000  0.28264000  0.02296000  1.0
  C  C132  1  0.90015000  0.74555000  0.55522000  1.0
  C  C133  1  0.90017000  0.75446000  0.94478000  1.0
  C  C134  1  0.09985000  0.25447000  0.44479000  1.0
  C  C135  1  0.09986000  0.24555000  0.05521000  1.0
  C  C136  1  0.94164000  0.88455000  0.57712000  1.0
  C  C137  1  0.94166000  0.61545000  0.92287000  1.0
  C  C138  1  0.05836000  0.11546000  0.42288000  1.0
  C  C139  1  0.05837000  0.38456000  0.07711000  1.0
  C  C140  1  0.15390000  0.80017000  0.62898000  1.0
  C  C141  1  0.15391000  0.69983000  0.87101000  1.0
  C  C142  1  0.84608000  0.19983000  0.37102000  1.0
  C  C143  1  0.84608000  0.30017000  0.12897000  1.0
  C  C144  1  0.33383000  0.80892000  0.60887000  1.0
  C  C145  1  0.33383000  0.69109000  0.89113000  1.0
  C  C146  1  0.66615000  0.19108000  0.39113000  1.0
  C  C147  1  0.66614000  0.30893000  0.10886000  1.0
  C  C148  1  0.48179000  0.79523000  0.64461000  1.0
  C  C149  1  0.48180000  0.70477000  0.85539000  1.0
  C  C150  1  0.51818000  0.20476000  0.35538000  1.0
  C  C151  1  0.51818000  0.29524000  0.14462000  1.0
  C  C152  1  0.44716000  0.77148000  0.69975000  1.0
  C  C153  1  0.44716000  0.72852000  0.80025000  1.0
  C  C154  1  0.55283000  0.22851000  0.30024000  1.0
  C  C155  1  0.55281000  0.27148000  0.19975000  1.0
  C  C156  1  0.26575000  0.76252000  0.72081000  1.0
  C  C157  1  0.26575000  0.73749000  0.77919000  1.0
  C  C158  1  0.73423000  0.23748000  0.27918000  1.0
  C  C159  1  0.73422000  0.26251000  0.22080000  1.0
  C  C160  1  0.11796000  0.77797000  0.68450000  1.0
  C  C161  1  0.11797000  0.72203000  0.81550000  1.0
  C  C162  1  0.88201000  0.22203000  0.31550000  1.0
  C  C163  1  0.88201000  0.27796000  0.18449000  1.0
  S  S164  1  0.61402000  0.75001000  0.75000000  1.0
  S  S165  1  0.38597000  0.25000000  0.25000000  1.0
  N  N166  1  0.80318000  0.86894000  0.53722000  1.0
  N  N167  1  0.80320000  0.63106000  0.96278000  1.0
  N  N168  1  0.19684000  0.13105000  0.46278000  1.0
  N  N169  1  0.19685000  0.36896000  0.03721000  1.0
  N  N170  1  0.00395000  0.81103000  0.58976000  1.0
  N  N171  1  0.00396000  0.68897000  0.91024000  1.0
  N  N172  1  0.99604000  0.18897000  0.41024000  1.0
  N  N173  1  0.99604000  0.31104000  0.08975000  1.0
  O  O174  1  0.51959000  0.98279000  0.59912000  1.0
  O  O175  1  0.51963000  0.51723000  0.90087000  1.0
  O  O176  1  0.48042000  0.01717000  0.40089000  1.0
  O  O177  1  0.48045000  0.48287000  0.09910000  1.0
  O  O178  1  0.27243000  0.05083000  0.57345000  1.0
  O  O179  1  0.27248000  0.44918000  0.92655000  1.0
  O  O180  1  0.72761000  0.94914000  0.42654000  1.0
  O  O181  1  0.72767000  0.55090000  0.07346000  1.0
  O  O182  1  0.54556000  0.36211000  0.98065000  1.0
  O  O183  1  0.54549000  0.13791000  0.51935000  1.0
  O  O184  1  0.45459000  0.63797000  0.01935000  1.0
  O  O185  1  0.45455000  0.86206000  0.48064000  1.0
  O  O186  1  0.78546000  0.43503000  0.95528000  1.0
  O  O187  1  0.78536000  0.06498000  0.54470000  1.0
  O  O188  1  0.21474000  0.56499000  0.04466000  1.0
  O  O189  1  0.21467000  0.93501000  0.45531000  1.0
  F  F190  1  0.99520000  0.89439000  0.80908000  1.0
  F  F191  1  0.99521000  0.60560000  0.69092000  1.0
  F  F192  1  0.00485000  0.10561000  0.19090000  1.0
  F  F193  1  0.00476000  0.39439000  0.30910000  1.0
  F  F194  1  0.76930000  0.98318000  0.81078000  1.0
  F  F195  1  0.76932000  0.51680000  0.68922000  1.0
  F  F196  1  0.23069000  0.01679000  0.18920000  1.0
  F  F197  1  0.23065000  0.48319000  0.31078000  1.0
  F  F198  1  0.85012000  0.94499000  0.89522000  1.0
  F  F199  1  0.85012000  0.55499000  0.60478000  1.0
  F  F200  1  0.14989000  0.05497000  0.10476000  1.0
  F  F201  1  0.14987000  0.44501000  0.39523000  1.0
  F  F202  1  0.26580000  0.94653000  0.89491000  1.0
  F  F203  1  0.26588000  0.55343000  0.60510000  1.0
  F  F204  1  0.73416000  0.05343000  0.10504000  1.0
  F  F205  1  0.73418000  0.44656000  0.39496000  1.0
  F  F206  1  0.33978000  0.08091000  0.91134000  1.0
  F  F207  1  0.33977000  0.41904000  0.58867000  1.0
  F  F208  1  0.66018000  0.91906000  0.08867000  1.0
  F  F209  1  0.66020000  0.58094000  0.41136000  1.0
  F  F210  1  0.11624000  0.04023000  0.96322000  1.0
  F  F211  1  0.11627000  0.45976000  0.53678000  1.0
  F  F212  1  0.88372000  0.95969000  0.03676000  1.0
  F  F213  1  0.88377000  0.54029000  0.46324000  1.0
