# generated using pymatgen
data_GdPH6(CO4)2
_symmetry_space_group_name_H-M   'P 1'
_cell_length_a   7.55322000
_cell_length_b   8.52740000
_cell_length_c   12.23910000
_cell_angle_alpha   93.72430000
_cell_angle_beta   89.99980000
_cell_angle_gamma   89.99980000
_symmetry_Int_Tables_number   1
_chemical_formula_structural   GdPH6(CO4)2
_chemical_formula_sum   'Gd4 P4 H24 C8 O32'
_cell_volume   786.64741938
_cell_formula_units_Z   4
loop_
 _symmetry_equiv_pos_site_id
 _symmetry_equiv_pos_as_xyz
  1  'x, y, z'
loop_
 _atom_site_type_symbol
 _atom_site_label
 _atom_site_symmetry_multiplicity
 _atom_site_fract_x
 _atom_site_fract_y
 _atom_site_fract_z
 _atom_site_occupancy
  Gd  Gd0  1  0.78341000  0.74943000  0.41759000  1.0
  Gd  Gd1  1  0.28340000  0.75057000  0.08240000  1.0
  Gd  Gd2  1  0.21659000  0.25058000  0.58241000  1.0
  Gd  Gd3  1  0.71659000  0.24943000  0.91759000  1.0
  P  P4  1  0.97143000  0.12410000  0.34473000  1.0
  P  P5  1  0.47142000  0.37590000  0.15527000  1.0
  P  P6  1  0.02858000  0.87590000  0.65527000  1.0
  P  P7  1  0.52857000  0.62410000  0.84473000  1.0
  H  H8  1  0.82046000  0.76404000  0.17495000  1.0
  H  H9  1  0.32046000  0.73596000  0.32505000  1.0
  H  H10  1  0.17954000  0.23596000  0.82505000  1.0
  H  H11  1  0.67955000  0.26404000  0.67495000  1.0
  H  H12  1  0.64706000  0.65221000  0.18925000  1.0
  H  H13  1  0.14707000  0.84779000  0.31075000  1.0
  H  H14  1  0.35294000  0.34779000  0.81075000  1.0
  H  H15  1  0.85294000  0.15221000  0.68925000  1.0
  H  H16  1  0.01737000  0.54376000  0.27261000  1.0
  H  H17  1  0.51736000  0.95624000  0.22739000  1.0
  H  H18  1  0.98264000  0.45624000  0.72739000  1.0
  H  H19  1  0.48263000  0.04375000  0.77261000  1.0
  H  H20  1  0.09254000  0.52398000  0.39327000  1.0
  H  H21  1  0.59253000  0.97602000  0.10673000  1.0
  H  H22  1  0.90747000  0.47603000  0.60673000  1.0
  H  H23  1  0.40747000  0.02397000  0.89327000  1.0
  H  H24  1  0.81400000  0.17405000  0.29508000  1.0
  H  H25  1  0.31399000  0.32595000  0.20492000  1.0
  H  H26  1  0.18601000  0.82595000  0.70492000  1.0
  H  H27  1  0.68600000  0.67405000  0.79507000  1.0
  H  H28  1  0.10681000  0.15600000  0.26926000  1.0
  H  H29  1  0.60680000  0.34400000  0.23073000  1.0
  H  H30  1  0.89320000  0.84401000  0.73074000  1.0
  H  H31  1  0.39319000  0.65599000  0.76926000  1.0
  C  C32  1  0.57169000  0.46761000  0.53773000  1.0
  C  C33  1  0.07169000  0.03239000  0.96228000  1.0
  C  C34  1  0.42833000  0.53239000  0.46227000  1.0
  C  C35  1  0.92832000  0.96761000  0.03773000  1.0
  C  C36  1  0.48562000  0.02554000  0.44084000  1.0
  C  C37  1  0.98560000  0.47445000  0.05917000  1.0
  C  C38  1  0.51440000  0.97444000  0.55916000  1.0
  C  C39  1  0.01438000  0.52555000  0.94084000  1.0
  O  O40  1  0.72354000  0.52927000  0.53371000  1.0
  O  O41  1  0.22354000  0.97073000  0.96630000  1.0
  O  O42  1  0.27646000  0.47073000  0.46629000  1.0
  O  O43  1  0.77645000  0.02927000  0.03370000  1.0
  O  O44  1  0.58587000  0.96134000  0.36764000  1.0
  O  O45  1  0.08587000  0.53866000  0.13236000  1.0
  O  O46  1  0.41412000  0.03867000  0.63237000  1.0
  O  O47  1  0.91411000  0.46132000  0.86764000  1.0
  O  O48  1  0.96491000  0.94503000  0.35077000  1.0
  O  O49  1  0.46490000  0.55497000  0.14923000  1.0
  O  O50  1  0.03511000  0.05497000  0.64924000  1.0
  O  O51  1  0.53510000  0.44503000  0.85076000  1.0
  O  O52  1  0.74865000  0.70678000  0.22734000  1.0
  O  O53  1  0.24865000  0.79322000  0.27265000  1.0
  O  O54  1  0.25135000  0.29322000  0.77266000  1.0
  O  O55  1  0.75135000  0.20678000  0.72734000  1.0
  O  O56  1  0.98661000  0.55455000  0.35157000  1.0
  O  O57  1  0.48660000  0.94545000  0.14843000  1.0
  O  O58  1  0.01340000  0.44545000  0.64843000  1.0
  O  O59  1  0.51340000  0.05455000  0.85157000  1.0
  O  O60  1  0.47635000  0.64129000  0.40291000  1.0
  O  O61  1  0.97635000  0.85871000  0.09709000  1.0
  O  O62  1  0.52365000  0.35870000  0.59709000  1.0
  O  O63  1  0.02364000  0.14130000  0.90291000  1.0
  O  O64  1  0.63371000  0.87431000  0.57330000  1.0
  O  O65  1  0.13371000  0.62568000  0.92670000  1.0
  O  O66  1  0.36629000  0.12570000  0.42670000  1.0
  O  O67  1  0.86629000  0.37430000  0.07330000  1.0
  O  O68  1  0.00221000  0.77876000  0.54839000  1.0
  O  O69  1  0.50220000  0.72125000  0.95161000  1.0
  O  O70  1  0.99780000  0.22125000  0.45162000  1.0
  O  O71  1  0.49779000  0.27875000  0.04838000  1.0
