# generated using pymatgen
data_NiH9C4NO6
_symmetry_space_group_name_H-M   'P 1'
_cell_length_a   7.35033000
_cell_length_b   9.02582000
_cell_length_c   12.20740000
_cell_angle_alpha   90.00020000
_cell_angle_beta   89.99940000
_cell_angle_gamma   90.00000000
_symmetry_Int_Tables_number   1
_chemical_formula_structural   NiH9C4NO6
_chemical_formula_sum   'Ni4 H36 C16 N4 O24'
_cell_volume   809.87255369
_cell_formula_units_Z   4
loop_
 _symmetry_equiv_pos_site_id
 _symmetry_equiv_pos_as_xyz
  1  'x, y, z'
loop_
 _atom_site_type_symbol
 _atom_site_label
 _atom_site_symmetry_multiplicity
 _atom_site_fract_x
 _atom_site_fract_y
 _atom_site_fract_z
 _atom_site_occupancy
  Ni  Ni0  1  0.90340000  0.94532000  0.92829000  1.0
  Ni  Ni1  1  0.09660000  0.55468000  0.42829000  1.0
  Ni  Ni2  1  0.59660000  0.44532000  0.07170000  1.0
  Ni  Ni3  1  0.40340000  0.05468000  0.57171000  1.0
  H  H4  1  0.09384000  0.71683000  0.69103000  1.0
  H  H5  1  0.90617000  0.78318000  0.19104000  1.0
  H  H6  1  0.40617000  0.21682000  0.30897000  1.0
  H  H7  1  0.59384000  0.28318000  0.80897000  1.0
  H  H8  1  0.21729000  0.83094000  0.86411000  1.0
  H  H9  1  0.78271000  0.66905000  0.36412000  1.0
  H  H10  1  0.28272000  0.33094000  0.13588000  1.0
  H  H11  1  0.71729000  0.16906000  0.63588000  1.0
  H  H12  1  0.14050000  0.95013000  0.77335000  1.0
  H  H13  1  0.85951000  0.54987000  0.27334000  1.0
  H  H14  1  0.35951000  0.45013000  0.22666000  1.0
  H  H15  1  0.64050000  0.04988000  0.72665000  1.0
  H  H16  1  0.97503000  0.50542000  0.78912000  1.0
  H  H17  1  0.02494000  0.99459000  0.28914000  1.0
  H  H18  1  0.52495000  0.00541000  0.21086000  1.0
  H  H19  1  0.47504000  0.49458000  0.71087000  1.0
  H  H20  1  0.14892000  0.58255000  0.87059000  1.0
  H  H21  1  0.85105000  0.91744000  0.37061000  1.0
  H  H22  1  0.35106000  0.08256000  0.12940000  1.0
  H  H23  1  0.64894000  0.41745000  0.62940000  1.0
  H  H24  1  0.03016000  0.21098000  0.86787000  1.0
  H  H25  1  0.96984000  0.28902000  0.36787000  1.0
  H  H26  1  0.46985000  0.71098000  0.13213000  1.0
  H  H27  1  0.53017000  0.78902000  0.63212000  1.0
  H  H28  1  0.82719000  0.21841000  0.92012000  1.0
  H  H29  1  0.17281000  0.28159000  0.42012000  1.0
  H  H30  1  0.67281000  0.71840000  0.07989000  1.0
  H  H31  1  0.32719000  0.78159000  0.57988000  1.0
  H  H32  1  0.14070000  0.91157000  0.09435000  1.0
  H  H33  1  0.85930000  0.58843000  0.59435000  1.0
  H  H34  1  0.35930000  0.41158000  0.90565000  1.0
  H  H35  1  0.64069000  0.08843000  0.40565000  1.0
  H  H36  1  0.99718000  0.04122000  0.11292000  1.0
  H  H37  1  0.00282000  0.45878000  0.61292000  1.0
  H  H38  1  0.50282000  0.54122000  0.88709000  1.0
  H  H39  1  0.49717000  0.95877000  0.38708000  1.0
  C  C40  1  0.82285000  0.78614000  0.73322000  1.0
  C  C41  1  0.17715000  0.71387000  0.23323000  1.0
  C  C42  1  0.67715000  0.28614000  0.26678000  1.0
  C  C43  1  0.32285000  0.21386000  0.76678000  1.0
  C  C44  1  0.01722000  0.74256000  0.76601000  1.0
  C  C45  1  0.98278000  0.75743000  0.26602000  1.0
  C  C46  1  0.48278000  0.24257000  0.23399000  1.0
  C  C47  1  0.51722000  0.25744000  0.73398000  1.0
  C  C48  1  0.01142000  0.60299000  0.83799000  1.0
  C  C49  1  0.98857000  0.89700000  0.33801000  1.0
  C  C50  1  0.48858000  0.10299000  0.16200000  1.0
  C  C51  1  0.51143000  0.39701000  0.66200000  1.0
  C  C52  1  0.88310000  0.60842000  0.93563000  1.0
  C  C53  1  0.11689000  0.89160000  0.43565000  1.0
  C  C54  1  0.61689000  0.10840000  0.06436000  1.0
  C  C55  1  0.38311000  0.39158000  0.56436000  1.0
  N  N56  1  0.10135000  0.86646000  0.82601000  1.0
  N  N57  1  0.89866000  0.63354000  0.32601000  1.0
  N  N58  1  0.39866000  0.36646000  0.17399000  1.0
  N  N59  1  0.60136000  0.13354000  0.67399000  1.0
  O  O60  1  0.74174000  0.88188000  0.79255000  1.0
  O  O61  1  0.25828000  0.61812000  0.29257000  1.0
  O  O62  1  0.75828000  0.38187000  0.20744000  1.0
  O  O63  1  0.24175000  0.11812000  0.70745000  1.0
  O  O64  1  0.74964000  0.72181000  0.65171000  1.0
  O  O65  1  0.25039000  0.77823000  0.15173000  1.0
  O  O66  1  0.75038000  0.22178000  0.34828000  1.0
  O  O67  1  0.24962000  0.27822000  0.84828000  1.0
  O  O68  1  0.86338000  0.72813000  0.99015000  1.0
  O  O69  1  0.13661000  0.77186000  0.49016000  1.0
  O  O70  1  0.63662000  0.22813000  0.00984000  1.0
  O  O71  1  0.36339000  0.27187000  0.50985000  1.0
  O  O72  1  0.80207000  0.48790000  0.95865000  1.0
  O  O73  1  0.19790000  0.01210000  0.45868000  1.0
  O  O74  1  0.69791000  0.98790000  0.04133000  1.0
  O  O75  1  0.30208000  0.51211000  0.54134000  1.0
  O  O76  1  0.90731000  0.16386000  0.86850000  1.0
  O  O77  1  0.09270000  0.33613000  0.36851000  1.0
  O  O78  1  0.59270000  0.66387000  0.13150000  1.0
  O  O79  1  0.40731000  0.83614000  0.63150000  1.0
  O  O80  1  0.08488000  0.00385000  0.05983000  1.0
  O  O81  1  0.91511000  0.49615000  0.55984000  1.0
  O  O82  1  0.41510000  0.50385000  0.94016000  1.0
  O  O83  1  0.58488000  0.99614000  0.44016000  1.0
