# generated using pymatgen
data_TbH4C12(O4F3)2
_symmetry_space_group_name_H-M   'P 1'
_cell_length_a   8.74397000
_cell_length_b   8.74914000
_cell_length_c   11.50189914
_cell_angle_alpha   112.02055528
_cell_angle_beta   105.38889955
_cell_angle_gamma   99.08290000
_symmetry_Int_Tables_number   1
_chemical_formula_structural   TbH4C12(O4F3)2
_chemical_formula_sum   'Tb2 H8 C24 O16 F12'
_cell_volume   753.17565008
_cell_formula_units_Z   2
loop_
 _symmetry_equiv_pos_site_id
 _symmetry_equiv_pos_as_xyz
  1  'x, y, z'
loop_
 _atom_site_type_symbol
 _atom_site_label
 _atom_site_symmetry_multiplicity
 _atom_site_fract_x
 _atom_site_fract_y
 _atom_site_fract_z
 _atom_site_occupancy
  Tb  Tb0  1  0.83962000  0.64569000  0.48543000  1.0
  Tb  Tb1  1  0.16039000  0.35431000  0.51457000  1.0
  H  H2  1  0.46951000  0.58984000  0.44346000  1.0
  H  H3  1  0.14650000  0.02640000  0.55649000  1.0
  H  H4  1  0.53049000  0.41016000  0.55654000  1.0
  H  H5  1  0.85351000  0.97359000  0.44351000  1.0
  H  H6  1  0.47794000  0.46078000  0.31094000  1.0
  H  H7  1  0.15045000  0.16740000  0.68918000  1.0
  H  H8  1  0.52206000  0.53923000  0.68906000  1.0
  H  H9  1  0.84956000  0.83261000  0.31082000  1.0
  C  C10  1  0.86302000  0.38326000  0.24606000  1.0
  C  C11  1  0.13698000  0.61674000  0.75395000  1.0
  C  C12  1  0.86222000  0.25274000  0.11460000  1.0
  C  C13  1  0.13778000  0.74726000  0.88540000  1.0
  C  C14  1  0.96561000  0.29495000  0.05103000  1.0
  C  C15  1  0.24355000  0.91414000  0.94888000  1.0
  C  C16  1  0.03438000  0.70505000  0.94897000  1.0
  C  C17  1  0.75645000  0.08586000  0.05112000  1.0
  C  C18  1  0.96106000  0.17726000  0.92752000  1.0
  C  C19  1  0.24924000  0.03314000  0.07231000  1.0
  C  C20  1  0.03893000  0.82275000  0.07248000  1.0
  C  C21  1  0.75074000  0.96685000  0.92768000  1.0
  C  C22  1  0.85136000  0.00959000  0.86058000  1.0
  C  C23  1  0.14865000  0.99041000  0.13942000  1.0
  C  C24  1  0.83865000  0.88599000  0.72438000  1.0
  C  C25  1  0.16135000  0.11401000  0.27562000  1.0
  C  C26  1  0.75627000  0.25629000  0.50002000  1.0
  C  C27  1  0.24373000  0.74372000  0.49998000  1.0
  C  C28  1  0.62375000  0.12377000  0.50008000  1.0
  C  C29  1  0.37625000  0.87623000  0.49992000  1.0
  C  C30  1  0.51150000  0.99119000  0.38042000  1.0
  C  C31  1  0.61070000  0.13106000  0.61965000  1.0
  C  C32  1  0.48851000  0.00881000  0.61958000  1.0
  C  C33  1  0.38931000  0.86894000  0.38035000  1.0
  O  O34  1  0.93082000  0.93108000  0.66633000  1.0
  O  O35  1  0.26457000  0.26412000  0.33351000  1.0
  O  O36  1  0.06918000  0.06893000  0.33367000  1.0
  O  O37  1  0.73544000  0.73588000  0.66649000  1.0
  O  O38  1  0.76717000  0.47637000  0.24371000  1.0
  O  O39  1  0.23281000  0.52362000  0.75629000  1.0
  O  O40  1  0.96058000  0.39548000  0.35560000  1.0
  O  O41  1  0.03941000  0.60452000  0.64440000  1.0
  O  O42  1  0.71539000  0.38454000  0.49003000  1.0
  O  O43  1  0.89461000  0.22546000  0.50993000  1.0
  O  O44  1  0.28461000  0.61545000  0.50996000  1.0
  O  O45  1  0.10540000  0.77454000  0.49008000  1.0
  O  O46  1  0.53810000  0.57327000  0.38657000  1.0
  O  O47  1  0.18707000  0.15179000  0.61340000  1.0
  O  O48  1  0.46191000  0.42674000  0.61344000  1.0
  O  O49  1  0.81294000  0.84821000  0.38660000  1.0
  F  F50  1  0.06746000  0.23280000  0.87587000  1.0
  F  F51  1  0.35625000  0.19127000  0.12376000  1.0
  F  F52  1  0.93253000  0.76720000  0.12413000  1.0
  F  F53  1  0.64375000  0.80873000  0.87623000  1.0
  F  F54  1  0.07384000  0.45330000  0.11013000  1.0
  F  F55  1  0.34279000  0.96304000  0.88970000  1.0
  F  F56  1  0.92615000  0.54670000  0.88987000  1.0
  F  F57  1  0.65719000  0.03694000  0.11028000  1.0
  F  F58  1  0.52231000  0.97876000  0.26256000  1.0
  F  F59  1  0.71589000  0.25973000  0.73760000  1.0
  F  F60  1  0.47770000  0.02124000  0.73744000  1.0
  F  F61  1  0.28412000  0.74026000  0.26240000  1.0
