# generated using pymatgen
data_CsH3C2(NO)4
_symmetry_space_group_name_H-M   'P 1'
_cell_length_a   6.54962000
_cell_length_b   8.41126000
_cell_length_c   13.25790000
_cell_angle_alpha   89.99990000
_cell_angle_beta   95.63570000
_cell_angle_gamma   89.99910000
_symmetry_Int_Tables_number   1
_chemical_formula_structural   CsH3C2(NO)4
_chemical_formula_sum   'Cs4 H12 C8 N16 O16'
_cell_volume   726.85470584
_cell_formula_units_Z   4
loop_
 _symmetry_equiv_pos_site_id
 _symmetry_equiv_pos_as_xyz
  1  'x, y, z'
loop_
 _atom_site_type_symbol
 _atom_site_label
 _atom_site_symmetry_multiplicity
 _atom_site_fract_x
 _atom_site_fract_y
 _atom_site_fract_z
 _atom_site_occupancy
  Cs  Cs0  1  0.74882000  0.45731000  0.87600000  1.0
  Cs  Cs1  1  0.75120000  0.95731000  0.62400000  1.0
  Cs  Cs2  1  0.25118000  0.54269000  0.12400000  1.0
  Cs  Cs3  1  0.24880000  0.04269000  0.37600000  1.0
  H  H4  1  0.23116000  0.81852000  0.69659000  1.0
  H  H5  1  0.26885000  0.31851000  0.80341000  1.0
  H  H6  1  0.76884000  0.18148000  0.30341000  1.0
  H  H7  1  0.73115000  0.68149000  0.19659000  1.0
  H  H8  1  0.82722000  0.22532000  0.08353000  1.0
  H  H9  1  0.67278000  0.72532000  0.41647000  1.0
  H  H10  1  0.17278000  0.77468000  0.91647000  1.0
  H  H11  1  0.32722000  0.27468000  0.58353000  1.0
  H  H12  1  0.78628000  0.38371000  0.14356000  1.0
  H  H13  1  0.71372000  0.88371000  0.35643000  1.0
  H  H14  1  0.21372000  0.61629000  0.85643000  1.0
  H  H15  1  0.28628000  0.11629000  0.64357000  1.0
  C  C16  1  0.28020000  0.56257000  0.66993000  1.0
  C  C17  1  0.21981000  0.06256000  0.83007000  1.0
  C  C18  1  0.71980000  0.43743000  0.33007000  1.0
  C  C19  1  0.78019000  0.93744000  0.16993000  1.0
  C  C20  1  0.23061000  0.59962000  0.51125000  1.0
  C  C21  1  0.26939000  0.09961000  0.98875000  1.0
  C  C22  1  0.76939000  0.40038000  0.48875000  1.0
  C  C23  1  0.73061000  0.90039000  0.01125000  1.0
  N  N24  1  0.24281000  0.72245000  0.64737000  1.0
  N  N25  1  0.25719000  0.22245000  0.85264000  1.0
  N  N26  1  0.75719000  0.27756000  0.35263000  1.0
  N  N27  1  0.74281000  0.77755000  0.14736000  1.0
  N  N28  1  0.20909000  0.74638000  0.54653000  1.0
  N  N29  1  0.29091000  0.24638000  0.95347000  1.0
  N  N30  1  0.79091000  0.25363000  0.45346000  1.0
  N  N31  1  0.70909000  0.75362000  0.04653000  1.0
  N  N32  1  0.27352000  0.48352000  0.58033000  1.0
  N  N33  1  0.22648000  0.98351000  0.91968000  1.0
  N  N34  1  0.72648000  0.51648000  0.41967000  1.0
  N  N35  1  0.77351000  0.01648000  0.08032000  1.0
  N  N36  1  0.20567000  0.56968000  0.40438000  1.0
  N  N37  1  0.29434000  0.06969000  0.09564000  1.0
  N  N38  1  0.79433000  0.43032000  0.59562000  1.0
  N  N39  1  0.70566000  0.93031000  0.90436000  1.0
  O  O40  1  0.31345000  0.50688000  0.75908000  1.0
  O  O41  1  0.18657000  0.00688000  0.74094000  1.0
  O  O42  1  0.68655000  0.49312000  0.24092000  1.0
  O  O43  1  0.81343000  0.99312000  0.25907000  1.0
  O  O44  1  0.15837000  0.68239000  0.34542000  1.0
  O  O45  1  0.34163000  0.18239000  0.15458000  1.0
  O  O46  1  0.84163000  0.31762000  0.65457000  1.0
  O  O47  1  0.65837000  0.81761000  0.84542000  1.0
  O  O48  1  0.23162000  0.43062000  0.37536000  1.0
  O  O49  1  0.26841000  0.93062000  0.12465000  1.0
  O  O50  1  0.76839000  0.56937000  0.62464000  1.0
  O  O51  1  0.73159000  0.06938000  0.87535000  1.0
  O  O52  1  0.86228000  0.34044000  0.08877000  1.0
  O  O53  1  0.63773000  0.84044000  0.41123000  1.0
  O  O54  1  0.13773000  0.65956000  0.91123000  1.0
  O  O55  1  0.36227000  0.15956000  0.58877000  1.0
