# generated using pymatgen
data_AgH5C3(NO)2
_symmetry_space_group_name_H-M   'P 1'
_cell_length_a   4.76551000
_cell_length_b   9.02108000
_cell_length_c   11.52450000
_cell_angle_alpha   90.00000000
_cell_angle_beta   90.00000000
_cell_angle_gamma   89.99990000
_symmetry_Int_Tables_number   1
_chemical_formula_structural   AgH5C3(NO)2
_chemical_formula_sum   'Ag4 H20 C12 N8 O8'
_cell_volume   495.43879608
_cell_formula_units_Z   4
loop_
 _symmetry_equiv_pos_site_id
 _symmetry_equiv_pos_as_xyz
  1  'x, y, z'
loop_
 _atom_site_type_symbol
 _atom_site_label
 _atom_site_symmetry_multiplicity
 _atom_site_fract_x
 _atom_site_fract_y
 _atom_site_fract_z
 _atom_site_occupancy
  Ag  Ag0  1  0.47237000  0.34732000  0.45677000  1.0
  Ag  Ag1  1  0.47237000  0.65268000  0.54323000  1.0
  Ag  Ag2  1  0.52764000  0.15268000  0.95677000  1.0
  Ag  Ag3  1  0.52763000  0.84732000  0.04323000  1.0
  H  H4  1  0.90262000  0.28271000  0.29074000  1.0
  H  H5  1  0.90261000  0.71729000  0.70926000  1.0
  H  H6  1  0.09738000  0.21729000  0.79074000  1.0
  H  H7  1  0.09738000  0.78271000  0.20926000  1.0
  H  H8  1  0.73303000  0.44483000  0.13615000  1.0
  H  H9  1  0.73303000  0.55516000  0.86385000  1.0
  H  H10  1  0.26698000  0.05516000  0.63615000  1.0
  H  H11  1  0.26697000  0.94484000  0.36384000  1.0
  H  H12  1  0.07790000  0.52040000  0.11493000  1.0
  H  H13  1  0.07791000  0.47960000  0.88507000  1.0
  H  H14  1  0.92210000  0.97959000  0.61493000  1.0
  H  H15  1  0.92209000  0.02041000  0.38507000  1.0
  H  H16  1  0.30101000  0.53558000  0.29503000  1.0
  H  H17  1  0.30101000  0.46442000  0.70497000  1.0
  H  H18  1  0.69898000  0.96442000  0.79503000  1.0
  H  H19  1  0.69898000  0.03558000  0.20497000  1.0
  H  H20  1  0.02610000  0.50262000  0.37898000  1.0
  H  H21  1  0.02610000  0.49738000  0.62102000  1.0
  H  H22  1  0.97389000  0.99738000  0.87897000  1.0
  H  H23  1  0.97389000  0.00262000  0.12102000  1.0
  C  C24  1  0.06619000  0.34978000  0.24825000  1.0
  C  C25  1  0.06619000  0.65022000  0.75175000  1.0
  C  C26  1  0.93380000  0.15022000  0.74824000  1.0
  C  C27  1  0.93380000  0.84978000  0.25176000  1.0
  C  C28  1  0.95776000  0.41964000  0.13685000  1.0
  C  C29  1  0.95777000  0.58036000  0.86315000  1.0
  C  C30  1  0.04224000  0.08036000  0.63685000  1.0
  C  C31  1  0.04225000  0.91964000  0.36315000  1.0
  C  C32  1  0.28801000  0.24330000  0.19966000  1.0
  C  C33  1  0.28801000  0.75670000  0.80034000  1.0
  C  C34  1  0.71199000  0.25670000  0.69966000  1.0
  C  C35  1  0.71199000  0.74330000  0.30034000  1.0
  N  N36  1  0.18482000  0.45150000  0.33416000  1.0
  N  N37  1  0.18482000  0.54850000  0.66585000  1.0
  N  N38  1  0.81518000  0.04850000  0.83415000  1.0
  N  N39  1  0.81518000  0.95150000  0.16585000  1.0
  N  N40  1  0.25048000  0.22351000  0.08654000  1.0
  N  N41  1  0.25048000  0.77649000  0.91347000  1.0
  N  N42  1  0.74952000  0.27649000  0.58652000  1.0
  N  N43  1  0.74952000  0.72351000  0.41347000  1.0
  O  O44  1  0.47610000  0.18307000  0.26160000  1.0
  O  O45  1  0.47609000  0.81694000  0.73840000  1.0
  O  O46  1  0.52390000  0.31693000  0.76160000  1.0
  O  O47  1  0.52390000  0.68307000  0.23841000  1.0
  O  O48  1  0.00648000  0.30741000  0.04870000  1.0
  O  O49  1  0.00648000  0.69259000  0.95131000  1.0
  O  O50  1  0.99353000  0.19258000  0.54869000  1.0
  O  O51  1  0.99353000  0.80742000  0.45131000  1.0
