# generated using pymatgen
data_CuH12C7(SN2)2
_symmetry_space_group_name_H-M   'P 1'
_cell_length_a   8.32621000
_cell_length_b   9.62945000
_cell_length_c   13.48610000
_cell_angle_alpha   90.00030000
_cell_angle_beta   90.00010000
_cell_angle_gamma   89.99970000
_symmetry_Int_Tables_number   1
_chemical_formula_structural   CuH12C7(SN2)2
_chemical_formula_sum   'Cu4 H48 C28 S8 N16'
_cell_volume   1081.27265107
_cell_formula_units_Z   4
loop_
 _symmetry_equiv_pos_site_id
 _symmetry_equiv_pos_as_xyz
  1  'x, y, z'
loop_
 _atom_site_type_symbol
 _atom_site_label
 _atom_site_symmetry_multiplicity
 _atom_site_fract_x
 _atom_site_fract_y
 _atom_site_fract_z
 _atom_site_occupancy
  Cu  Cu0  1  0.17362000  0.90820000  0.98413000  1.0
  Cu  Cu1  1  0.32638000  0.09180000  0.48413000  1.0
  Cu  Cu2  1  0.82638000  0.40820000  0.51587000  1.0
  Cu  Cu3  1  0.67363000  0.59180000  0.01588000  1.0
  H  H4  1  0.22980000  0.24069000  0.83692000  1.0
  H  H5  1  0.27020000  0.75930000  0.33692000  1.0
  H  H6  1  0.77020000  0.74070000  0.66308000  1.0
  H  H7  1  0.72980000  0.25931000  0.16308000  1.0
  H  H8  1  0.23926000  0.18249000  0.96114000  1.0
  H  H9  1  0.26075000  0.81750000  0.46115000  1.0
  H  H10  1  0.76074000  0.68250000  0.53885000  1.0
  H  H11  1  0.73926000  0.31750000  0.03886000  1.0
  H  H12  1  0.86458000  0.88666000  0.97713000  1.0
  H  H13  1  0.63542000  0.11334000  0.47714000  1.0
  H  H14  1  0.13541000  0.38665000  0.52286000  1.0
  H  H15  1  0.36459000  0.61334000  0.02287000  1.0
  H  H16  1  0.15242000  0.88431000  0.74594000  1.0
  H  H17  1  0.34758000  0.11568000  0.24594000  1.0
  H  H18  1  0.84758000  0.38432000  0.75406000  1.0
  H  H19  1  0.65241000  0.61568000  0.25407000  1.0
  H  H20  1  0.07216000  0.05204000  0.72537000  1.0
  H  H21  1  0.42785000  0.94795000  0.22537000  1.0
  H  H22  1  0.92785000  0.55205000  0.77463000  1.0
  H  H23  1  0.57215000  0.44795000  0.27463000  1.0
  H  H24  1  0.32032000  0.00786000  0.83610000  1.0
  H  H25  1  0.17968000  0.99213000  0.33610000  1.0
  H  H26  1  0.67967000  0.50787000  0.66390000  1.0
  H  H27  1  0.82032000  0.49213000  0.16391000  1.0
  H  H28  1  0.93081000  0.10887000  0.04502000  1.0
  H  H29  1  0.56919000  0.89113000  0.54502000  1.0
  H  H30  1  0.06918000  0.60886000  0.45497000  1.0
  H  H31  1  0.43082000  0.39114000  0.95497000  1.0
  H  H32  1  0.77393000  0.11366000  0.95564000  1.0
  H  H33  1  0.72607000  0.88635000  0.45565000  1.0
  H  H34  1  0.22607000  0.61365000  0.54435000  1.0
  H  H35  1  0.27393000  0.38635000  0.04435000  1.0
  H  H36  1  0.94098000  0.20347000  0.82764000  1.0
  H  H37  1  0.55903000  0.79653000  0.32764000  1.0
  H  H38  1  0.05903000  0.70347000  0.67235000  1.0
  H  H39  1  0.44098000  0.29652000  0.17235000  1.0
  H  H40  1  0.98266000  0.30420000  0.93320000  1.0
  H  H41  1  0.51736000  0.69580000  0.43320000  1.0
  H  H42  1  0.01735000  0.80419000  0.56679000  1.0
  H  H43  1  0.48266000  0.19580000  0.06679000  1.0
  H  H44  1  0.82890000  0.97829000  0.79782000  1.0
  H  H45  1  0.67110000  0.02171000  0.29783000  1.0
  H  H46  1  0.17110000  0.47829000  0.70217000  1.0
  H  H47  1  0.32890000  0.52171000  0.20218000  1.0
  H  H48  1  0.91578000  0.81317000  0.82039000  1.0
  H  H49  1  0.58421000  0.18683000  0.32039000  1.0
  H  H50  1  0.08421000  0.31317000  0.67961000  1.0
  H  H51  1  0.41578000  0.68683000  0.17961000  1.0
  C  C52  1  0.17517000  0.16842000  0.89059000  1.0
  C  C53  1  0.32484000  0.83157000  0.39060000  1.0
  C  C54  1  0.82483000  0.66843000  0.60940000  1.0
  C  C55  1  0.67517000  0.33157000  0.10941000  1.0
  C  C56  1  0.09224000  0.97194000  0.78197000  1.0
  C  C57  1  0.40776000  0.02806000  0.28197000  1.0
  C  C58  1  0.90776000  0.47194000  0.71803000  1.0
  C  C59  1  0.59224000  0.52806000  0.21803000  1.0
  C  C60  1  0.90399000  0.09612000  0.96571000  1.0
  C  C61  1  0.59602000  0.90388000  0.46571000  1.0
  C  C62  1  0.09601000  0.59611000  0.53429000  1.0
  C  C63  1  0.40399000  0.40388000  0.03429000  1.0
  C  C64  1  0.99650000  0.19964000  0.90161000  1.0
  C  C65  1  0.50350000  0.80036000  0.40161000  1.0
  C  C66  1  0.00350000  0.69964000  0.59838000  1.0
  C  C67  1  0.49651000  0.30036000  0.09838000  1.0
  C  C68  1  0.93333000  0.92498000  0.83057000  1.0
  C  C69  1  0.56667000  0.07502000  0.33058000  1.0
  C  C70  1  0.06666000  0.42498000  0.66942000  1.0
  C  C71  1  0.43333000  0.57502000  0.16943000  1.0
  C  C72  1  0.02353000  0.60401000  0.94583000  1.0
  C  C73  1  0.47646000  0.39599000  0.44583000  1.0
  C  C74  1  0.97647000  0.10402000  0.55417000  1.0
  C  C75  1  0.52352000  0.89599000  0.05417000  1.0
  C  C76  1  0.06019000  0.76152000  0.17411000  1.0
  C  C77  1  0.43978000  0.23850000  0.67411000  1.0
  C  C78  1  0.93978000  0.26150000  0.32589000  1.0
  C  C79  1  0.56023000  0.73850000  0.82590000  1.0
  S  S80  1  0.18736000  0.65461000  0.89135000  1.0
  S  S81  1  0.31264000  0.34539000  0.39135000  1.0
  S  S82  1  0.81264000  0.15461000  0.60865000  1.0
  S  S83  1  0.68735000  0.84539000  0.10865000  1.0
  S  S84  1  0.99209000  0.66001000  0.26004000  1.0
  S  S85  1  0.50786000  0.34005000  0.76003000  1.0
  S  S86  1  0.00786000  0.15995000  0.23998000  1.0
  S  S87  1  0.49214000  0.84004000  0.73998000  1.0
  N  N88  1  0.90269000  0.56594000  0.98373000  1.0
  N  N89  1  0.59731000  0.43406000  0.48372000  1.0
  N  N90  1  0.09732000  0.06594000  0.51628000  1.0
  N  N91  1  0.40268000  0.93407000  0.01628000  1.0
  N  N92  1  0.11273000  0.83721000  0.11255000  1.0
  N  N93  1  0.38727000  0.16280000  0.61255000  1.0
  N  N94  1  0.88726000  0.33721000  0.38745000  1.0
  N  N95  1  0.61274000  0.66280000  0.88746000  1.0
  N  N96  1  0.94156000  0.95071000  0.93848000  1.0
  N  N97  1  0.55844000  0.04929000  0.43849000  1.0
  N  N98  1  0.05843000  0.45071000  0.56151000  1.0
  N  N99  1  0.44157000  0.54929000  0.06152000  1.0
  N  N100  1  0.20354000  0.02304000  0.85877000  1.0
  N  N101  1  0.29647000  0.97695000  0.35877000  1.0
  N  N102  1  0.79646000  0.52304000  0.64123000  1.0
  N  N103  1  0.70354000  0.47696000  0.14123000  1.0
