# generated using pymatgen
data_MoH3C4N4O3
_symmetry_space_group_name_H-M   'P 1'
_cell_length_a   7.27496000
_cell_length_b   8.78018000
_cell_length_c   11.57630000
_cell_angle_alpha   87.17440000
_cell_angle_beta   74.71700000
_cell_angle_gamma   71.92230000
_symmetry_Int_Tables_number   1
_chemical_formula_structural   MoH3C4N4O3
_chemical_formula_sum   'Mo4 H12 C16 N16 O12'
_cell_volume   677.65519717
_cell_formula_units_Z   4
loop_
 _symmetry_equiv_pos_site_id
 _symmetry_equiv_pos_as_xyz
  1  'x, y, z'
loop_
 _atom_site_type_symbol
 _atom_site_label
 _atom_site_symmetry_multiplicity
 _atom_site_fract_x
 _atom_site_fract_y
 _atom_site_fract_z
 _atom_site_occupancy
  Mo  Mo0  1  0.46018000  0.33386000  0.94295000  1.0
  Mo  Mo1  1  0.53981000  0.66614000  0.05705000  1.0
  Mo  Mo2  1  0.03733000  0.63533000  0.08878000  1.0
  Mo  Mo3  1  0.96267000  0.36467000  0.91122000  1.0
  H  H4  1  0.85548000  0.51871000  0.36562000  1.0
  H  H5  1  0.14452000  0.48129000  0.63438000  1.0
  H  H6  1  0.35742000  0.07573000  0.24240000  1.0
  H  H7  1  0.64258000  0.92427000  0.75760000  1.0
  H  H8  1  0.02013000  0.91925000  0.84723000  1.0
  H  H9  1  0.97987000  0.08075000  0.15277000  1.0
  H  H10  1  0.00880000  0.14750000  0.66723000  1.0
  H  H11  1  0.99120000  0.85250000  0.33277000  1.0
  H  H12  1  0.28850000  0.85979000  0.64231000  1.0
  H  H13  1  0.71150000  0.14021000  0.35769000  1.0
  H  H14  1  0.46490000  0.86839000  0.39159000  1.0
  H  H15  1  0.53510000  0.13161000  0.60841000  1.0
  C  C16  1  0.02055000  0.23909000  0.48818000  1.0
  C  C17  1  0.97945000  0.76091000  0.51182000  1.0
  C  C18  1  0.84528000  0.37944000  0.52659000  1.0
  C  C19  1  0.15472000  0.62056000  0.47341000  1.0
  C  C20  1  0.27710000  0.09099000  0.33722000  1.0
  C  C21  1  0.72290000  0.90901000  0.66278000  1.0
  C  C22  1  0.14208000  0.80874000  0.82101000  1.0
  C  C23  1  0.85792000  0.19126000  0.17899000  1.0
  C  C24  1  0.58656000  0.55216000  0.62609000  1.0
  C  C25  1  0.41344000  0.44784000  0.37391000  1.0
  C  C26  1  0.08561000  0.12887000  0.57196000  1.0
  C  C27  1  0.91439000  0.87113000  0.42804000  1.0
  C  C28  1  0.41378000  0.63144000  0.72174000  1.0
  C  C29  1  0.58622000  0.36856000  0.27826000  1.0
  C  C30  1  0.33955000  0.97745000  0.41948000  1.0
  C  C31  1  0.66045000  0.02255000  0.58052000  1.0
  N  N32  1  0.78689000  0.50253000  0.45506000  1.0
  N  N33  1  0.21311000  0.49747000  0.54494000  1.0
  N  N34  1  0.11688000  0.22069000  0.37087000  1.0
  N  N35  1  0.88312000  0.77931000  0.62913000  1.0
  N  N36  1  0.72050000  0.40825000  0.63628000  1.0
  N  N37  1  0.27950000  0.59175000  0.36372000  1.0
  N  N38  1  0.62200000  0.61492000  0.51691000  1.0
  N  N39  1  0.37801000  0.38508000  0.48309000  1.0
  N  N40  1  0.34996000  0.57072000  0.82668000  1.0
  N  N41  1  0.65004000  0.42928000  0.17332000  1.0
  N  N42  1  0.24370000  0.99785000  0.53663000  1.0
  N  N43  1  0.75630000  0.00215000  0.46337000  1.0
  N  N44  1  0.28552000  0.78106000  0.71594000  1.0
  N  N45  1  0.71448000  0.21894000  0.28406000  1.0
  N  N46  1  0.17939000  0.68307000  0.88834000  1.0
  N  N47  1  0.82061000  0.31693000  0.11166000  1.0
  O  O48  1  0.16591000  0.39046000  0.98572000  1.0
  O  O49  1  0.83409000  0.60954000  0.01428000  1.0
  O  O50  1  0.32458000  0.56858000  0.07431000  1.0
  O  O51  1  0.67542000  0.43142000  0.92569000  1.0
  O  O52  1  0.50579000  0.20556000  0.05529000  1.0
  O  O53  1  0.49421000  0.79445000  0.94471000  1.0
  O  O54  1  0.95630000  0.56090000  0.22712000  1.0
  O  O55  1  0.04370000  0.43910000  0.77288000  1.0
  O  O56  1  0.96770000  0.83744000  0.11510000  1.0
  O  O57  1  0.03230000  0.16257000  0.88490000  1.0
  O  O58  1  0.52701000  0.21208000  0.81944000  1.0
  O  O59  1  0.47298000  0.78792000  0.18056000  1.0
