# generated using pymatgen
data_Zn3H40C42(NO3)4
_symmetry_space_group_name_H-M   'P 1'
_cell_length_a   8.91304000
_cell_length_b   9.04606000
_cell_length_c   13.26190000
_cell_angle_alpha   100.18800000
_cell_angle_beta   98.64920000
_cell_angle_gamma   105.16900000
_symmetry_Int_Tables_number   1
_chemical_formula_structural   Zn3H40C42(NO3)4
_chemical_formula_sum   'Zn3 H40 C42 N4 O12'
_cell_volume   993.74422805
_cell_formula_units_Z   1
loop_
 _symmetry_equiv_pos_site_id
 _symmetry_equiv_pos_as_xyz
  1  'x, y, z'
loop_
 _atom_site_type_symbol
 _atom_site_label
 _atom_site_symmetry_multiplicity
 _atom_site_fract_x
 _atom_site_fract_y
 _atom_site_fract_z
 _atom_site_occupancy
  Zn  Zn0  1  0.00000000  0.00000000  0.00000000  1.0
  Zn  Zn1  1  0.15343000  0.99924000  0.24983000  1.0
  Zn  Zn2  1  0.84657000  0.00076000  0.75017000  1.0
  H  H3  1  0.81335000  0.61710000  0.29415000  1.0
  H  H4  1  0.18665000  0.38290000  0.70585000  1.0
  H  H5  1  0.64066000  0.46064000  0.23122000  1.0
  H  H6  1  0.35934000  0.53936000  0.76878000  1.0
  H  H7  1  0.96166000  0.51780000  0.16275000  1.0
  H  H8  1  0.03834000  0.48220000  0.83725000  1.0
  H  H9  1  0.79148000  0.36097000  0.10134000  1.0
  H  H10  1  0.20852000  0.63903000  0.89866000  1.0
  H  H11  1  0.52008000  0.10380000  0.92007000  1.0
  H  H12  1  0.47993000  0.89620000  0.07993000  1.0
  H  H13  1  0.33600000  0.98374000  0.93456000  1.0
  H  H14  1  0.66400000  0.01626000  0.06544000  1.0
  H  H15  1  0.65321000  0.56257000  0.06319000  1.0
  H  H16  1  0.34679000  0.43743000  0.93680000  1.0
  H  H17  1  0.61643000  0.69083000  0.16688000  1.0
  H  H18  1  0.38357000  0.30917000  0.83312000  1.0
  H  H19  1  0.56760000  0.25853000  0.10386000  1.0
  H  H20  1  0.43240000  0.74148000  0.89613000  1.0
  H  H21  1  0.38618000  0.26128000  0.02739000  1.0
  H  H22  1  0.61381000  0.73871000  0.97261000  1.0
  H  H23  1  0.97469000  0.41747000  0.32700000  1.0
  H  H24  1  0.02531000  0.58253000  0.67300000  1.0
  H  H25  1  0.79019000  0.27390000  0.27293000  1.0
  H  H26  1  0.20981000  0.72610000  0.72707000  1.0
  H  H27  1  0.19250000  0.71948000  0.07073000  1.0
  H  H28  1  0.80750000  0.28052000  0.92928000  1.0
  H  H29  1  0.25024000  0.46022000  0.07265000  1.0
  H  H30  1  0.74975000  0.53978000  0.92735000  1.0
  H  H31  1  0.18476000  0.19472000  0.47535000  1.0
  H  H32  1  0.81524000  0.80529000  0.52466000  1.0
  H  H33  1  0.26503000  0.16293000  0.65906000  1.0
  H  H34  1  0.73497000  0.83707000  0.34094000  1.0
  H  H35  1  0.36924000  0.93629000  0.68460000  1.0
  H  H36  1  0.63077000  0.06370000  0.31540000  1.0
  H  H37  1  0.34161000  0.40226000  0.24561000  1.0
  H  H38  1  0.65839000  0.59774000  0.75439000  1.0
  H  H39  1  0.41311000  0.68329000  0.60322000  1.0
  H  H40  1  0.58690000  0.31671000  0.39678000  1.0
  H  H41  1  0.39492000  0.48308000  0.44134000  1.0
  H  H42  1  0.60508000  0.51693000  0.55865000  1.0
  C  C43  1  0.84984000  0.77145000  0.13807000  1.0
  C  C44  1  0.15017000  0.22855000  0.86193000  1.0
  C  C45  1  0.74996000  0.53838000  0.21786000  1.0
  C  C46  1  0.25004000  0.46162000  0.78214000  1.0
  C  C47  1  0.35806000  0.12662000  0.14109000  1.0
  C  C48  1  0.64194000  0.87338000  0.85891000  1.0
  C  C49  1  0.85370000  0.44035000  0.17754000  1.0
  C  C50  1  0.14630000  0.55965000  0.82246000  1.0
  C  C51  1  0.98064000  0.22300000  0.21061000  1.0
  C  C52  1  0.01936000  0.77699000  0.78939000  1.0
  C  C53  1  0.28187000  0.75801000  0.32518000  1.0
  C  C54  1  0.71813000  0.24200000  0.67482000  1.0
  C  C55  1  0.28239000  0.86857000  0.41817000  1.0
  C  C56  1  0.71761000  0.13143000  0.58183000  1.0
  C  C57  1  0.45690000  0.05302000  0.97704000  1.0
  C  C58  1  0.54311000  0.94698000  0.02296000  1.0
  C  C59  1  0.70665000  0.63739000  0.14195000  1.0
  C  C60  1  0.29335000  0.36261000  0.85805000  1.0
  C  C61  1  0.33089000  0.84055000  0.51814000  1.0
  C  C62  1  0.66911000  0.15945000  0.48186000  1.0
  C  C63  1  0.44829000  0.18655000  0.06207000  1.0
  C  C64  1  0.55171000  0.81345000  0.93793000  1.0
  C  C65  1  0.89908000  0.34243000  0.25282000  1.0
  C  C66  1  0.10092000  0.65757000  0.74718000  1.0
  C  C67  1  0.32304000  0.61920000  0.33463000  1.0
  C  C68  1  0.67696000  0.38080000  0.66537000  1.0
  C  C69  1  0.23139000  0.68817000  0.14405000  1.0
  C  C70  1  0.76860000  0.31184000  0.85595000  1.0
  C  C71  1  0.26699000  0.54569000  0.14562000  1.0
  C  C72  1  0.73301000  0.45431000  0.85438000  1.0
  C  C73  1  0.22891000  0.09733000  0.49052000  1.0
  C  C74  1  0.77109000  0.90268000  0.50949000  1.0
  C  C75  1  0.27597000  0.07973000  0.59260000  1.0
  C  C76  1  0.72404000  0.92027000  0.40740000  1.0
  C  C77  1  0.32898000  0.95259000  0.60661000  1.0
  C  C78  1  0.67102000  0.04741000  0.39339000  1.0
  C  C79  1  0.31441000  0.51190000  0.24102000  1.0
  C  C80  1  0.68559000  0.48810000  0.75897000  1.0
  C  C81  1  0.37461000  0.70026000  0.52514000  1.0
  C  C82  1  0.62539000  0.29974000  0.47486000  1.0
  C  C83  1  0.36782000  0.59273000  0.43663000  1.0
  C  C84  1  0.63218000  0.40727000  0.56337000  1.0
  N  N85  1  0.23358000  0.99557000  0.40603000  1.0
  N  N86  1  0.76643000  0.00444000  0.59397000  1.0
  N  N87  1  0.23853000  0.79070000  0.23141000  1.0
  N  N88  1  0.76147000  0.20931000  0.76859000  1.0
  O  O89  1  0.21510000  0.02976000  0.10736000  1.0
  O  O90  1  0.78490000  0.97024000  0.89264000  1.0
  O  O91  1  0.92859000  0.85525000  0.22752000  1.0
  O  O92  1  0.07141000  0.14475000  0.77248000  1.0
  O  O93  1  0.08351000  0.19744000  0.27838000  1.0
  O  O94  1  0.91649000  0.80256000  0.72162000  1.0
  O  O95  1  0.41861000  0.16682000  0.23753000  1.0
  O  O96  1  0.58139000  0.83318000  0.76247000  1.0
  O  O97  1  0.88127000  0.79085000  0.05015000  1.0
  O  O98  1  0.11873000  0.20914000  0.94985000  1.0
  O  O99  1  0.93781000  0.15619000  0.11394000  1.0
  O  O100  1  0.06218000  0.84380000  0.88606000  1.0
