# generated using pymatgen
data_ZnH21C17(NO2)2
_symmetry_space_group_name_H-M   'P 1'
_cell_length_a   8.99109000
_cell_length_b   9.37786000
_cell_length_c   11.27330000
_cell_angle_alpha   101.93800000
_cell_angle_beta   112.56000000
_cell_angle_gamma   100.02600000
_symmetry_Int_Tables_number   1
_chemical_formula_structural   ZnH21C17(NO2)2
_chemical_formula_sum   'Zn2 H42 C34 N4 O8'
_cell_volume   824.32781428
_cell_formula_units_Z   2
loop_
 _symmetry_equiv_pos_site_id
 _symmetry_equiv_pos_as_xyz
  1  'x, y, z'
loop_
 _atom_site_type_symbol
 _atom_site_label
 _atom_site_symmetry_multiplicity
 _atom_site_fract_x
 _atom_site_fract_y
 _atom_site_fract_z
 _atom_site_occupancy
  Zn  Zn0  1  0.55147000  0.02517000  0.39421000  1.0
  Zn  Zn1  1  0.44852000  0.97483000  0.60579000  1.0
  H  H2  1  0.56957000  0.34852000  0.34314000  1.0
  H  H3  1  0.43043000  0.65148000  0.65687000  1.0
  H  H4  1  0.57727000  0.54091000  0.21957000  1.0
  H  H5  1  0.42273000  0.45909000  0.78043000  1.0
  H  H6  1  0.65032000  0.49485000  0.02683000  1.0
  H  H7  1  0.34968000  0.50515000  0.97318000  1.0
  H  H8  1  0.71915000  0.25677000  0.95038000  1.0
  H  H9  1  0.28085000  0.74323000  0.04962000  1.0
  H  H10  1  0.67722000  0.74465000  0.10697000  1.0
  H  H11  1  0.32278000  0.25535000  0.89303000  1.0
  H  H12  1  0.63631000  0.78568000  0.24988000  1.0
  H  H13  1  0.36369000  0.21432000  0.75012000  1.0
  H  H14  1  0.90956000  0.72687000  0.31194000  1.0
  H  H15  1  0.09044000  0.27313000  0.68806000  1.0
  H  H16  1  0.94030000  0.91778000  0.39881000  1.0
  H  H17  1  0.05970000  0.08222000  0.60119000  1.0
  H  H18  1  0.98853000  0.87623000  0.25891000  1.0
  H  H19  1  0.01148000  0.12377000  0.74109000  1.0
  H  H20  1  0.70968000  0.98461000  0.90142000  1.0
  H  H21  1  0.29032000  0.01539000  0.09858000  1.0
  H  H22  1  0.75081000  0.84414000  0.98189000  1.0
  H  H23  1  0.24920000  0.15586000  0.01812000  1.0
  H  H24  1  0.99322000  0.15976000  0.06166000  1.0
  H  H25  1  0.00678000  0.84024000  0.93835000  1.0
  H  H26  1  0.03788000  0.02495000  0.14872000  1.0
  H  H27  1  0.96212000  0.97505000  0.85128000  1.0
  H  H28  1  0.93884000  0.78722000  0.65467000  1.0
  H  H29  1  0.06116000  0.21278000  0.34533000  1.0
  H  H30  1  0.80362000  0.66271000  0.49385000  1.0
  H  H31  1  0.19638000  0.33729000  0.50615000  1.0
  H  H32  1  0.74126000  0.66209000  0.74357000  1.0
  H  H33  1  0.25874000  0.33791000  0.25643000  1.0
  H  H34  1  0.63556000  0.52190000  0.58568000  1.0
  H  H35  1  0.36444000  0.47810000  0.41432000  1.0
  H  H36  1  0.01117000  0.60012000  0.77210000  1.0
  H  H37  1  0.98883000  0.39988000  0.22790000  1.0
  H  H38  1  0.90582000  0.45624000  0.61579000  1.0
  H  H39  1  0.09418000  0.54376000  0.38421000  1.0
  H  H40  1  0.95823000  0.37534000  0.83280000  1.0
  H  H41  1  0.04177000  0.62466000  0.16720000  1.0
  H  H42  1  0.79828000  0.45405000  0.84322000  1.0
  H  H43  1  0.20171000  0.54594000  0.15678000  1.0
  C  C44  1  0.68879000  0.17426000  0.10940000  1.0
  C  C45  1  0.31121000  0.82574000  0.89060000  1.0
  C  C46  1  0.64406000  0.19739000  0.21776000  1.0
  C  C47  1  0.35594000  0.80261000  0.78224000  1.0
  C  C48  1  0.60477000  0.33087000  0.26021000  1.0
  C  C49  1  0.39523000  0.66913000  0.73979000  1.0
  C  C50  1  0.60929000  0.43654000  0.19008000  1.0
  C  C51  1  0.39071000  0.56346000  0.80993000  1.0
  C  C52  1  0.65169000  0.41079000  0.08085000  1.0
  C  C53  1  0.34831000  0.58921000  0.91915000  1.0
  C  C54  1  0.69236000  0.27889000  0.03796000  1.0
  C  C55  1  0.30764000  0.72111000  0.96204000  1.0
  C  C56  1  0.69294000  0.97451000  0.18791000  1.0
  C  C57  1  0.30706000  0.02549000  0.81210000  1.0
  C  C58  1  0.71865000  0.82689000  0.20608000  1.0
  C  C59  1  0.28135000  0.17311000  0.79392000  1.0
  C  C60  1  0.90026000  0.83833000  0.29904000  1.0
  C  C61  1  0.09974000  0.16167000  0.70096000  1.0
  C  C62  1  0.78050000  0.96728000  0.99856000  1.0
  C  C63  1  0.21950000  0.03272000  0.00144000  1.0
  C  C64  1  0.96840000  0.03695000  0.04881000  1.0
  C  C65  1  0.03160000  0.96306000  0.95119000  1.0
  C  C66  1  0.70201000  0.83023000  0.57007000  1.0
  C  C67  1  0.29800000  0.16977000  0.42992000  1.0
  C  C68  1  0.80726000  0.71863000  0.59117000  1.0
  C  C69  1  0.19274000  0.28137000  0.40883000  1.0
  C  C70  1  0.75852000  0.60286000  0.65673000  1.0
  C  C71  1  0.24148000  0.39714000  0.34327000  1.0
  C  C72  1  0.88957000  0.51733000  0.70245000  1.0
  C  C73  1  0.11043000  0.48267000  0.29755000  1.0
  C  C74  1  0.84523000  0.40445000  0.77200000  1.0
  C  C75  1  0.15477000  0.59555000  0.22800000  1.0
  C  C76  1  0.71714000  0.25398000  0.67700000  1.0
  C  C77  1  0.28286000  0.74602000  0.32299000  1.0
  N  N78  1  0.71961000  0.03305000  0.09370000  1.0
  N  N79  1  0.28039000  0.96695000  0.90630000  1.0
  N  N80  1  0.64550000  0.06995000  0.26292000  1.0
  N  N81  1  0.35450000  0.93005000  0.73708000  1.0
  O  O82  1  0.69279000  0.88789000  0.47557000  1.0
  O  O83  1  0.30721000  0.11211000  0.52443000  1.0
  O  O84  1  0.63324000  0.85997000  0.64852000  1.0
  O  O85  1  0.36675000  0.14002000  0.35147000  1.0
  O  O86  1  0.69864000  0.21636000  0.55634000  1.0
  O  O87  1  0.30136000  0.78364000  0.44367000  1.0
  O  O88  1  0.64054000  0.17552000  0.72717000  1.0
  O  O89  1  0.35946000  0.82448000  0.27282000  1.0
