# generated using pymatgen
data_ZnH12C19(NO)4
_symmetry_space_group_name_H-M   'P 1'
_cell_length_a   9.87340000
_cell_length_b   10.99450000
_cell_length_c   11.01260000
_cell_angle_alpha   85.58560000
_cell_angle_beta   89.99880000
_cell_angle_gamma   89.99930000
_symmetry_Int_Tables_number   1
_chemical_formula_structural   ZnH12C19(NO)4
_chemical_formula_sum   'Zn2 H24 C38 N8 O8'
_cell_volume   1191.90544738
_cell_formula_units_Z   2
loop_
 _symmetry_equiv_pos_site_id
 _symmetry_equiv_pos_as_xyz
  1  'x, y, z'
loop_
 _atom_site_type_symbol
 _atom_site_label
 _atom_site_symmetry_multiplicity
 _atom_site_fract_x
 _atom_site_fract_y
 _atom_site_fract_z
 _atom_site_occupancy
  Zn  Zn0  1  0.36580000  0.50000000  0.50000000  1.0
  Zn  Zn1  1  0.65046000  0.50000000  0.50000000  1.0
  H  H2  1  0.02157000  0.91031000  0.57769000  1.0
  H  H3  1  0.02157000  0.08969000  0.42230000  1.0
  H  H4  1  0.14363000  0.36270000  0.64104000  1.0
  H  H5  1  0.14363000  0.63729000  0.35895000  1.0
  H  H6  1  0.86245000  0.93272000  0.27506000  1.0
  H  H7  1  0.68663000  0.94226000  0.24471000  1.0
  H  H8  1  0.76778000  0.06030000  0.31841000  1.0
  H  H9  1  0.82037000  0.89993000  0.49756000  1.0
  H  H10  1  0.72663000  0.79375000  0.42202000  1.0
  H  H11  1  0.86244000  0.06728000  0.72494000  1.0
  H  H12  1  0.68663000  0.05774000  0.75529000  1.0
  H  H13  1  0.76778000  0.93970000  0.68159000  1.0
  H  H14  1  0.82036000  0.10008000  0.50245000  1.0
  H  H15  1  0.72661000  0.20626000  0.57800000  1.0
  H  H16  1  0.42404000  0.81094000  0.75798000  1.0
  H  H17  1  0.28627000  0.89444000  0.81327000  1.0
  H  H18  1  0.29929000  0.73532000  0.85309000  1.0
  H  H19  1  0.12464000  0.76698000  0.69443000  1.0
  H  H20  1  0.26523000  0.69443000  0.63367000  1.0
  H  H21  1  0.42403000  0.18903000  0.24199000  1.0
  H  H22  1  0.28625000  0.10553000  0.18672000  1.0
  H  H23  1  0.29928000  0.26465000  0.14688000  1.0
  H  H24  1  0.12464000  0.23302000  0.30556000  1.0
  H  H25  1  0.26525000  0.30557000  0.36631000  1.0
  C  C26  1  0.51669000  0.50007000  0.26572000  1.0
  C  C27  1  0.51669000  0.49992000  0.73427000  1.0
  C  C28  1  0.39428000  0.49622000  0.93592000  1.0
  C  C29  1  0.39428000  0.50376000  0.06408000  1.0
  C  C30  1  0.94450000  0.42920000  0.58244000  1.0
  C  C31  1  0.94450000  0.57080000  0.41756000  1.0
  C  C32  1  0.08668000  0.42514000  0.57884000  1.0
  C  C33  1  0.08667000  0.57487000  0.42113000  1.0
  C  C34  1  0.48832000  0.73501000  0.49721000  1.0
  C  C35  1  0.48832000  0.26499000  0.50279000  1.0
  C  C36  1  0.23601000  0.88523000  0.56969000  1.0
  C  C37  1  0.23601000  0.11477000  0.43030000  1.0
  C  C38  1  0.11661000  0.94690000  0.53971000  1.0
  C  C39  1  0.11661000  0.05311000  0.46028000  1.0
  C  C40  1  0.36032000  0.06354000  0.47897000  1.0
  C  C41  1  0.36033000  0.93647000  0.52102000  1.0
  C  C42  1  0.48654000  0.87073000  0.50738000  1.0
  C  C43  1  0.48653000  0.12928000  0.49262000  1.0
  C  C44  1  0.60598000  0.93650000  0.48873000  1.0
  C  C45  1  0.60598000  0.06350000  0.51127000  1.0
  C  C46  1  0.63965000  0.49143000  0.06454000  1.0
  C  C47  1  0.63965000  0.50858000  0.93546000  1.0
  C  C48  1  0.51699000  0.50275000  0.87088000  1.0
  C  C49  1  0.51699000  0.49725000  0.12913000  1.0
  C  C50  1  0.73510000  0.89056000  0.43482000  1.0
  C  C51  1  0.76504000  0.96118000  0.31154000  1.0
  C  C52  1  0.73508000  0.10944000  0.56519000  1.0
  C  C53  1  0.76504000  0.03882000  0.68846000  1.0
  C  C54  1  0.23108000  0.78049000  0.66688000  1.0
  C  C55  1  0.31530000  0.80677000  0.77919000  1.0
  C  C56  1  0.23108000  0.21951000  0.33311000  1.0
  C  C57  1  0.31529000  0.19321000  0.22079000  1.0
  C  C58  1  0.76389000  0.45842000  0.12472000  1.0
  C  C59  1  0.76389000  0.54158000  0.87528000  1.0
  C  C60  1  0.26715000  0.47838000  0.87799000  1.0
  C  C61  1  0.26714000  0.52158000  0.12201000  1.0
  C  C62  1  0.88320000  0.35541000  0.67959000  1.0
  C  C63  1  0.88320000  0.64459000  0.32039000  1.0
  N  N64  1  0.15561000  0.50000000  0.50000000  1.0
  N  N65  1  0.87158000  0.50001000  0.49999000  1.0
  N  N66  1  0.86382000  0.41647000  0.16638000  1.0
  N  N67  1  0.86384000  0.58351000  0.83361000  1.0
  N  N68  1  0.15941000  0.45517000  0.84263000  1.0
  N  N69  1  0.15941000  0.54478000  0.15737000  1.0
  N  N70  1  0.85016000  0.29373000  0.76533000  1.0
  N  N71  1  0.85015000  0.70627000  0.23466000  1.0
  O  O72  1  0.40507000  0.47529000  0.31833000  1.0
  O  O73  1  0.40508000  0.52470000  0.68168000  1.0
  O  O74  1  0.62719000  0.52892000  0.31420000  1.0
  O  O75  1  0.62721000  0.47109000  0.68579000  1.0
  O  O76  1  0.38277000  0.68364000  0.45738000  1.0
  O  O77  1  0.38276000  0.31637000  0.54261000  1.0
  O  O78  1  0.59666000  0.67672000  0.52880000  1.0
  O  O79  1  0.59666000  0.32329000  0.47120000  1.0
