# generated using pymatgen
data_ZnH6C31(N5O11)2
_symmetry_space_group_name_H-M   'P 1'
_cell_length_a   14.76310000
_cell_length_b   16.01710000
_cell_length_c   28.03570000
_cell_angle_alpha   90.06590000
_cell_angle_beta   89.98480000
_cell_angle_gamma   89.89270000
_symmetry_Int_Tables_number   1
_chemical_formula_structural   ZnH6C31(N5O11)2
_chemical_formula_sum   'Zn2 H12 C62 N20 O44'
_cell_volume   6629.36282026
_cell_formula_units_Z   2
loop_
 _symmetry_equiv_pos_site_id
 _symmetry_equiv_pos_as_xyz
  1  'x, y, z'
loop_
 _atom_site_type_symbol
 _atom_site_label
 _atom_site_symmetry_multiplicity
 _atom_site_fract_x
 _atom_site_fract_y
 _atom_site_fract_z
 _atom_site_occupancy
  Zn  Zn0  1  0.59252000  0.50011000  0.50001000  1.0
  Zn  Zn1  1  0.40452000  0.50132000  0.49958000  1.0
  H  H2  1  0.94124000  0.43018000  0.57280000  1.0
  H  H3  1  0.05404000  0.56999000  0.42943000  1.0
  H  H4  1  0.57478000  0.05291000  0.57224000  1.0
  H  H5  1  0.42629000  0.94825000  0.42805000  1.0
  H  H6  1  0.34314000  0.05044000  0.49947000  1.0
  H  H7  1  0.65762000  0.95093000  0.50073000  1.0
  H  H8  1  0.35664000  0.52574000  0.64825000  1.0
  H  H9  1  0.36481000  0.45646000  0.35188000  1.0
  H  H10  1  0.34856000  0.52430000  0.73760000  1.0
  H  H11  1  0.35572000  0.45580000  0.26259000  1.0
  H  H12  1  0.41991000  0.70248000  0.96600000  1.0
  H  H13  1  0.44929000  0.28942000  0.03369000  1.0
  C  C14  1  0.49751000  0.66029000  0.49756000  1.0
  C  C15  1  0.49469000  0.34115000  0.50182000  1.0
  C  C16  1  0.50248000  0.49751000  0.40747000  1.0
  C  C17  1  0.49899000  0.50349000  0.59210000  1.0
  C  C18  1  0.49522000  0.57587000  0.18008000  1.0
  C  C19  1  0.50612000  0.42371000  0.81964000  1.0
  C  C20  1  0.47068000  0.42108000  0.17982000  1.0
  C  C21  1  0.45911000  0.57415000  0.81989000  1.0
  C  C22  1  0.41783000  0.47380000  0.28078000  1.0
  C  C23  1  0.41265000  0.51448000  0.71918000  1.0
  C  C24  1  0.42280000  0.47433000  0.33021000  1.0
  C  C25  1  0.41702000  0.51501000  0.66971000  1.0
  C  C26  1  0.57726000  0.52127000  0.32646000  1.0
  C  C27  1  0.57720000  0.48759000  0.67283000  1.0
  C  C28  1  0.57347000  0.51988000  0.27664000  1.0
  C  C29  1  0.57394000  0.48883000  0.72267000  1.0
  C  C30  1  0.49284000  0.49677000  0.25376000  1.0
  C  C31  1  0.49080000  0.50145000  0.74589000  1.0
  C  C32  1  0.47980000  0.49941000  0.10180000  1.0
  C  C33  1  0.47973000  0.49772000  0.89792000  1.0
  C  C34  1  0.48978000  0.57544000  0.12737000  1.0
  C  C35  1  0.50059000  0.42351000  0.87236000  1.0
  C  C36  1  0.49916000  0.64920000  0.10181000  1.0
  C  C37  1  0.52058000  0.35153000  0.89794000  1.0
  C  C38  1  0.46720000  0.42371000  0.12722000  1.0
  C  C39  1  0.45630000  0.57123000  0.87249000  1.0
  C  C40  1  0.50205000  0.49838000  0.35376000  1.0
  C  C41  1  0.49887000  0.50130000  0.64581000  1.0
  C  C42  1  0.46740000  0.57468000  0.97392000  1.0
  C  C43  1  0.47835000  0.42171000  0.02582000  1.0
  C  C44  1  0.49441000  0.42188000  0.97436000  1.0
  C  C45  1  0.48340000  0.57638000  0.02537000  1.0
  C  C46  1  0.48022000  0.49775000  0.94888000  1.0
  C  C47  1  0.48021000  0.49948000  0.05085000  1.0
  C  C48  1  0.43861000  0.64443000  0.94835000  1.0
  C  C49  1  0.45975000  0.34913000  0.05137000  1.0
  C  C50  1  0.43130000  0.64122000  0.89872000  1.0
  C  C51  1  0.45226000  0.35140000  0.10101000  1.0
  C  C52  1  0.49898000  0.64919000  0.05177000  1.0
  C  C53  1  0.52036000  0.35153000  0.94797000  1.0
  C  C54  1  0.54259000  0.02953000  0.53983000  1.0
  C  C55  1  0.45821000  0.97189000  0.46047000  1.0
  C  C56  1  0.45660000  0.97293000  0.53885000  1.0
  C  C57  1  0.54410000  0.02854000  0.46146000  1.0
  C  C58  1  0.49929000  0.75017000  0.49770000  1.0
  C  C59  1  0.49580000  0.25125000  0.50181000  1.0
  C  C60  1  0.58763000  0.97307000  0.50099000  1.0
  C  C61  1  0.41309000  0.02825000  0.49928000  1.0
  C  C62  1  0.50164000  0.91403000  0.50026000  1.0
  C  C63  1  0.49897000  0.08734000  0.50011000  1.0
  C  C64  1  0.50095000  0.82595000  0.49927000  1.0
  C  C65  1  0.49792000  0.17545000  0.50057000  1.0
  C  C66  1  0.96728000  0.57929000  0.50024000  1.0
  C  C67  1  0.02826000  0.42081000  0.50177000  1.0
  C  C68  1  0.02808000  0.54050000  0.53995000  1.0
  C  C69  1  0.96746000  0.45977000  0.46201000  1.0
  C  C70  1  0.02918000  0.53866000  0.46142000  1.0
  C  C71  1  0.96620000  0.46122000  0.54069000  1.0
  C  C72  1  0.09183000  0.49957000  0.50140000  1.0
  C  C73  1  0.90366000  0.50033000  0.50076000  1.0
  C  C74  1  0.18781000  0.50002000  0.50110000  1.0
  C  C75  1  0.80774000  0.50001000  0.50084000  1.0
  N  N76  1  0.48428000  0.49832000  0.20280000  1.0
  N  N77  1  0.48330000  0.49906000  0.79690000  1.0
  N  N78  1  0.26609000  0.50216000  0.49922000  1.0
  N  N79  1  0.72947000  0.49881000  0.50153000  1.0
  N  N80  1  0.66225000  0.54754000  0.35065000  1.0
  N  N81  1  0.66526000  0.47165000  0.64852000  1.0
  N  N82  1  0.05657000  0.58335000  0.58427000  1.0
  N  N83  1  0.94140000  0.41301000  0.41850000  1.0
  N  N84  1  0.94088000  0.66850000  0.49902000  1.0
  N  N85  1  0.05599000  0.33201000  0.50272000  1.0
  N  N86  1  0.65350000  0.54449000  0.24836000  1.0
  N  N87  1  0.65748000  0.47586000  0.75071000  1.0
  N  N88  1  0.50983000  0.73132000  0.12617000  1.0
  N  N89  1  0.54316000  0.27139000  0.87363000  1.0
  N  N90  1  0.39433000  0.71757000  0.87598000  1.0
  N  N91  1  0.42673000  0.27133000  0.12381000  1.0
  N  N92  1  0.52141000  0.72893000  0.02753000  1.0
  N  N93  1  0.55407000  0.27515000  0.97224000  1.0
  N  N94  1  0.40829000  0.94891000  0.58265000  1.0
  N  N95  1  0.59220000  0.05304000  0.41766000  1.0
  O  O96  1  0.57173000  0.62346000  0.48787000  1.0
  O  O97  1  0.41978000  0.37611000  0.49103000  1.0
  O  O98  1  0.42169000  0.62621000  0.50735000  1.0
  O  O99  1  0.56877000  0.37726000  0.51250000  1.0
  O  O100  1  0.57634000  0.47867000  0.42777000  1.0
  O  O101  1  0.42398000  0.48647000  0.57223000  1.0
  O  O102  1  0.42709000  0.51473000  0.42698000  1.0
  O  O103  1  0.57278000  0.52299000  0.57197000  1.0
  O  O104  1  0.51022000  0.63912000  0.20339000  1.0
  O  O105  1  0.53077000  0.36299000  0.79636000  1.0
  O  O106  1  0.44310000  0.63760000  0.79705000  1.0
  O  O107  1  0.46373000  0.35625000  0.20263000  1.0
  O  O108  1  0.72808000  0.50044000  0.34630000  1.0
  O  O109  1  0.65921000  0.61365000  0.37296000  1.0
  O  O110  1  0.72228000  0.52783000  0.65079000  1.0
  O  O111  1  0.67365000  0.40372000  0.62844000  1.0
  O  O112  1  0.99846000  0.62857000  0.60253000  1.0
  O  O113  1  0.13335000  0.56739000  0.59898000  1.0
  O  O114  1  0.00717000  0.39124000  0.39400000  1.0
  O  O115  1  0.86069000  0.40030000  0.41138000  1.0
  O  O116  1  0.00616000  0.71673000  0.50015000  1.0
  O  O117  1  0.85989000  0.68544000  0.49659000  1.0
  O  O118  1  0.99353000  0.28243000  0.49538000  1.0
  O  O119  1  0.13601000  0.31659000  0.51133000  1.0
  O  O120  1  0.69701000  0.60533000  0.26240000  1.0
  O  O121  1  0.67046000  0.50194000  0.21246000  1.0
  O  O122  1  0.71086000  0.42195000  0.73655000  1.0
  O  O123  1  0.66741000  0.52044000  0.78650000  1.0
  O  O124  1  0.44000000  0.76450000  0.14061000  1.0
  O  O125  1  0.58749000  0.75934000  0.12694000  1.0
  O  O126  1  0.47885000  0.23019000  0.85906000  1.0
  O  O127  1  0.62423000  0.25285000  0.87302000  1.0
  O  O128  1  0.31309000  0.71511000  0.86576000  1.0
  O  O129  1  0.44580000  0.77761000  0.87275000  1.0
  O  O130  1  0.34587000  0.26408000  0.13412000  1.0
  O  O131  1  0.48649000  0.21802000  0.12704000  1.0
  O  O132  1  0.46720000  0.78726000  0.03247000  1.0
  O  O133  1  0.59268000  0.72960000  0.00470000  1.0
  O  O134  1  0.50880000  0.21085000  0.96727000  1.0
  O  O135  1  0.62477000  0.28298000  0.99511000  1.0
  O  O136  1  0.37488000  0.00792000  0.60542000  1.0
  O  O137  1  0.40504000  0.87424000  0.59353000  1.0
  O  O138  1  0.62539000  0.99427000  0.39465000  1.0
  O  O139  1  0.59541000  0.12785000  0.40710000  1.0
