# generated using pymatgen
data_Co3H35C49(NO3)4
_symmetry_space_group_name_H-M   'P 1'
_cell_length_a   11.61320000
_cell_length_b   14.91880000
_cell_length_c   19.44900000
_cell_angle_alpha   75.32070000
_cell_angle_beta   75.30060000
_cell_angle_gamma   87.53530000
_symmetry_Int_Tables_number   1
_chemical_formula_structural   Co3H35C49(NO3)4
_chemical_formula_sum   'Co6 H70 C98 N8 O24'
_cell_volume   3152.14572454
_cell_formula_units_Z   2
loop_
 _symmetry_equiv_pos_site_id
 _symmetry_equiv_pos_as_xyz
  1  'x, y, z'
loop_
 _atom_site_type_symbol
 _atom_site_label
 _atom_site_symmetry_multiplicity
 _atom_site_fract_x
 _atom_site_fract_y
 _atom_site_fract_z
 _atom_site_occupancy
  Co  Co0  1  0.50000000  0.50000000  0.00000000  1.0
  Co  Co1  1  0.58460000  0.29502000  0.06323000  1.0
  Co  Co2  1  0.41541000  0.70498000  0.93677000  1.0
  Co  Co3  1  0.76754000  0.49831000  0.42446000  1.0
  Co  Co4  1  0.23245000  0.50170000  0.57554000  1.0
  Co  Co5  1  0.50000000  0.50000000  0.50000000  1.0
  H  H6  1  0.79545000  0.68877000  0.31100000  1.0
  H  H7  1  0.20456000  0.31122000  0.68900000  1.0
  H  H8  1  0.94994000  0.81314000  0.24944000  1.0
  H  H9  1  0.05005000  0.18687000  0.75056000  1.0
  H  H10  1  0.16927000  0.66093000  0.38801000  1.0
  H  H11  1  0.83072000  0.33906000  0.61199000  1.0
  H  H12  1  0.00703000  0.54490000  0.44243000  1.0
  H  H13  1  0.99296000  0.45509000  0.55757000  1.0
  H  H14  1  0.12032000  0.85023000  0.17020000  1.0
  H  H15  1  0.87968000  0.14977000  0.82980000  1.0
  H  H16  1  0.28072000  0.96701000  0.10525000  1.0
  H  H17  1  0.71928000  0.03299000  0.89475000  1.0
  H  H18  1  0.41995000  0.90958000  0.29663000  1.0
  H  H19  1  0.58006000  0.09041000  0.70336000  1.0
  H  H20  1  0.25585000  0.79611000  0.36411000  1.0
  H  H21  1  0.74417000  0.20388000  0.63588000  1.0
  H  H22  1  0.48896000  0.87715000  0.05130000  1.0
  H  H23  1  0.51103000  0.12286000  0.94870000  1.0
  H  H24  1  0.63054000  0.82677000  0.03300000  1.0
  H  H25  1  0.36945000  0.17323000  0.96700000  1.0
  H  H26  1  0.61330000  0.94497000  0.98960000  1.0
  H  H27  1  0.38669000  0.05504000  0.01040000  1.0
  H  H28  1  0.57916000  0.86569000  0.15626000  1.0
  H  H29  1  0.42083000  0.13431000  0.84374000  1.0
  H  H30  1  0.71089000  0.92438000  0.09686000  1.0
  H  H31  1  0.28911000  0.07561000  0.90314000  1.0
  H  H32  1  0.70423000  0.10295000  0.04304000  1.0
  H  H33  1  0.29579000  0.89704000  0.95697000  1.0
  H  H34  1  0.33831000  0.27452000  0.08637000  1.0
  H  H35  1  0.66170000  0.72549000  0.91364000  1.0
  H  H36  1  0.18083000  0.36039000  0.15041000  1.0
  H  H37  1  0.81918000  0.63963000  0.84960000  1.0
  H  H38  1  0.15732000  0.15118000  0.35310000  1.0
  H  H39  1  0.84268000  0.84882000  0.64690000  1.0
  H  H40  1  0.32036000  0.06820000  0.28962000  1.0
  H  H41  1  0.67963000  0.93180000  0.71038000  1.0
  H  H42  1  0.99606000  0.38528000  0.20276000  1.0
  H  H43  1  0.00391000  0.61471000  0.79724000  1.0
  H  H44  1  0.84852000  0.47489000  0.27410000  1.0
  H  H45  1  0.15146000  0.52510000  0.72591000  1.0
  H  H46  1  0.94781000  0.35478000  0.46594000  1.0
  H  H47  1  0.05218000  0.64524000  0.53407000  1.0
  H  H48  1  0.10718000  0.26642000  0.40230000  1.0
  H  H49  1  0.89282000  0.73359000  0.59772000  1.0
  H  H50  1  0.64963000  0.27533000  0.81048000  1.0
  H  H51  1  0.35036000  0.72467000  0.18953000  1.0
  H  H52  1  0.59096000  0.32519000  0.69095000  1.0
  H  H53  1  0.40905000  0.67480000  0.30906000  1.0
  H  H54  1  0.28600000  0.45964000  0.79482000  1.0
  H  H55  1  0.71402000  0.54036000  0.20518000  1.0
  H  H56  1  0.35017000  0.41739000  0.91213000  1.0
  H  H57  1  0.64983000  0.58260000  0.08787000  1.0
  H  H58  1  0.95861000  0.33011000  0.03626000  1.0
  H  H59  1  0.04137000  0.66990000  0.96373000  1.0
  H  H60  1  0.83595000  0.60804000  0.97934000  1.0
  H  H61  1  0.16402000  0.39197000  0.02066000  1.0
  H  H62  1  0.72983000  0.49916000  0.78901000  1.0
  H  H63  1  0.27017000  0.50083000  0.21099000  1.0
  H  H64  1  0.80928000  0.48233000  0.66068000  1.0
  H  H65  1  0.19072000  0.51766000  0.33931000  1.0
  H  H66  1  0.53169000  0.65486000  0.59290000  1.0
  H  H67  1  0.46831000  0.34513000  0.40709000  1.0
  H  H68  1  0.45924000  0.67833000  0.71996000  1.0
  H  H69  1  0.54075000  0.32167000  0.28004000  1.0
  H  H70  1  0.54237000  0.20832000  0.50911000  1.0
  H  H71  1  0.45764000  0.79168000  0.49088000  1.0
  H  H72  1  0.45153000  0.29277000  0.54623000  1.0
  H  H73  1  0.54848000  0.70725000  0.45376000  1.0
  H  H74  1  0.53489000  0.21304000  0.60038000  1.0
  H  H75  1  0.46513000  0.78698000  0.39962000  1.0
  C  C76  1  0.87981000  0.68581000  0.32618000  1.0
  C  C77  1  0.12019000  0.31419000  0.67382000  1.0
  C  C78  1  0.96750000  0.75426000  0.29150000  1.0
  C  C79  1  0.03250000  0.24575000  0.70850000  1.0
  C  C80  1  0.07659000  0.74751000  0.31113000  1.0
  C  C81  1  0.92342000  0.25249000  0.68887000  1.0
  C  C82  1  0.08886000  0.67118000  0.36806000  1.0
  C  C83  1  0.91114000  0.32881000  0.63194000  1.0
  C  C84  1  0.99689000  0.60553000  0.39966000  1.0
  C  C85  1  0.00310000  0.39447000  0.60034000  1.0
  C  C86  1  0.17447000  0.81585000  0.27235000  1.0
  C  C87  1  0.82554000  0.18414000  0.72765000  1.0
  C  C88  1  0.18388000  0.86451000  0.19901000  1.0
  C  C89  1  0.81613000  0.13548000  0.80099000  1.0
  C  C90  1  0.27556000  0.92907000  0.16180000  1.0
  C  C91  1  0.72443000  0.07093000  0.83820000  1.0
  C  C92  1  0.36174000  0.94639000  0.19628000  1.0
  C  C93  1  0.63827000  0.05361000  0.80372000  1.0
  C  C94  1  0.35394000  0.89641000  0.26895000  1.0
  C  C95  1  0.64606000  0.10358000  0.73105000  1.0
  C  C96  1  0.26136000  0.83243000  0.30689000  1.0
  C  C97  1  0.73865000  0.16756000  0.69311000  1.0
  C  C98  1  0.45206000  0.02055000  0.15700000  1.0
  C  C99  1  0.54795000  0.97945000  0.84300000  1.0
  C  C100  1  0.58471000  0.89071000  0.04078000  1.0
  C  C101  1  0.41529000  0.10930000  0.95922000  1.0
  C  C102  1  0.61422000  0.91816000  0.10471000  1.0
  C  C103  1  0.38578000  0.08184000  0.89530000  1.0
  C  C104  1  0.61642000  0.09199000  0.08056000  1.0
  C  C105  1  0.38360000  0.90800000  0.91945000  1.0
  C  C106  1  0.44161000  0.11561000  0.14785000  1.0
  C  C107  1  0.55839000  0.88439000  0.85216000  1.0
  C  C108  1  0.34168000  0.16499000  0.18341000  1.0
  C  C109  1  0.65834000  0.83502000  0.81660000  1.0
  C  C110  1  0.29859000  0.24667000  0.14487000  1.0
  C  C111  1  0.70142000  0.75334000  0.85514000  1.0
  C  C112  1  0.20805000  0.29480000  0.18117000  1.0
  C  C113  1  0.79196000  0.70521000  0.81884000  1.0
  C  C114  1  0.15649000  0.26258000  0.25692000  1.0
  C  C115  1  0.84352000  0.73743000  0.74309000  1.0
  C  C116  1  0.19718000  0.17909000  0.29468000  1.0
  C  C117  1  0.80283000  0.82091000  0.70532000  1.0
  C  C118  1  0.28827000  0.13142000  0.25873000  1.0
  C  C119  1  0.71174000  0.86859000  0.74127000  1.0
  C  C120  1  0.06519000  0.31578000  0.29637000  1.0
  C  C121  1  0.93481000  0.68423000  0.70365000  1.0
  C  C122  1  0.99060000  0.37685000  0.26085000  1.0
  C  C123  1  0.00939000  0.62315000  0.73916000  1.0
  C  C124  1  0.90722000  0.42666000  0.30009000  1.0
  C  C125  1  0.09277000  0.57334000  0.69993000  1.0
  C  C126  1  0.96305000  0.36038000  0.40740000  1.0
  C  C127  1  0.03694000  0.63962000  0.59261000  1.0
  C  C128  1  0.04974000  0.30942000  0.37153000  1.0
  C  C129  1  0.95026000  0.69058000  0.62848000  1.0
  C  C130  1  0.54751000  0.32075000  0.93528000  1.0
  C  C131  1  0.45250000  0.67925000  0.06471000  1.0
  C  C132  1  0.50398000  0.34400000  0.86780000  1.0
  C  C133  1  0.49602000  0.65599000  0.13220000  1.0
  C  C134  1  0.57019000  0.31564000  0.80620000  1.0
  C  C135  1  0.42981000  0.68435000  0.19379000  1.0
  C  C136  1  0.53721000  0.34256000  0.74028000  1.0
  C  C137  1  0.46279000  0.65744000  0.25972000  1.0
  C  C138  1  0.43535000  0.39534000  0.73584000  1.0
  C  C139  1  0.56466000  0.60466000  0.26416000  1.0
  C  C140  1  0.36538000  0.41903000  0.79868000  1.0
  C  C141  1  0.63462000  0.58096000  0.20131000  1.0
  C  C142  1  0.40024000  0.39481000  0.86420000  1.0
  C  C143  1  0.59977000  0.60518000  0.13580000  1.0
  C  C144  1  0.40601000  0.42954000  0.66328000  1.0
  C  C145  1  0.59400000  0.57046000  0.33671000  1.0
  C  C146  1  0.76215000  0.42864000  0.01851000  1.0
  C  C147  1  0.23785000  0.57136000  0.98148000  1.0
  C  C148  1  0.88504000  0.46546000  0.00859000  1.0
  C  C149  1  0.11495000  0.53456000  0.99140000  1.0
  C  C150  1  0.97765000  0.40444000  0.02039000  1.0
  C  C151  1  0.02233000  0.59557000  0.97960000  1.0
  C  C152  1  0.90857000  0.56132000  0.98814000  1.0
  C  C153  1  0.09142000  0.43870000  0.01186000  1.0
  C  C154  1  0.54053000  0.59732000  0.83858000  1.0
  C  C155  1  0.45948000  0.40267000  0.16142000  1.0
  C  C156  1  0.58978000  0.58924000  0.76180000  1.0
  C  C157  1  0.41022000  0.41074000  0.23820000  1.0
  C  C158  1  0.68895000  0.53456000  0.74519000  1.0
  C  C159  1  0.31104000  0.46543000  0.25481000  1.0
  C  C160  1  0.73272000  0.52512000  0.67399000  1.0
  C  C161  1  0.26727000  0.47487000  0.32601000  1.0
  C  C162  1  0.67536000  0.56762000  0.61915000  1.0
  C  C163  1  0.32463000  0.43236000  0.38085000  1.0
  C  C164  1  0.57696000  0.62363000  0.63554000  1.0
  C  C165  1  0.42303000  0.37636000  0.36446000  1.0
  C  C166  1  0.53570000  0.63548000  0.70614000  1.0
  C  C167  1  0.46428000  0.36451000  0.29386000  1.0
  C  C168  1  0.71214000  0.54789000  0.54591000  1.0
  C  C169  1  0.28785000  0.45211000  0.45409000  1.0
  C  C170  1  0.64290000  0.32047000  0.51626000  1.0
  C  C171  1  0.35711000  0.67954000  0.48373000  1.0
  C  C172  1  0.53489000  0.25545000  0.54533000  1.0
  C  C173  1  0.46512000  0.74456000  0.45466000  1.0
  N  N174  1  0.56398000  0.00726000  0.11452000  1.0
  N  N175  1  0.43602000  0.99274000  0.88549000  1.0
  N  N176  1  0.54527000  0.15888000  0.09947000  1.0
  N  N177  1  0.45475000  0.84112000  0.90054000  1.0
  N  N178  1  0.89194000  0.41864000  0.37260000  1.0
  N  N179  1  0.10804000  0.58137000  0.62742000  1.0
  N  N180  1  0.89392000  0.61112000  0.37905000  1.0
  N  N181  1  0.10607000  0.38888000  0.62096000  1.0
  O  O182  1  0.49600000  0.35871000  0.98959000  1.0
  O  O183  1  0.50403000  0.64129000  0.01040000  1.0
  O  O184  1  0.62892000  0.26432000  0.94345000  1.0
  O  O185  1  0.37109000  0.73567000  0.05654000  1.0
  O  O186  1  0.29846000  0.45364000  0.66422000  1.0
  O  O187  1  0.70156000  0.54635000  0.33577000  1.0
  O  O188  1  0.48952000  0.43205000  0.60632000  1.0
  O  O189  1  0.51049000  0.56796000  0.39368000  1.0
  O  O190  1  0.57241000  0.53860000  0.88999000  1.0
  O  O191  1  0.42761000  0.46140000  0.11001000  1.0
  O  O192  1  0.46972000  0.66419000  0.84664000  1.0
  O  O193  1  0.53027000  0.33580000  0.15336000  1.0
  O  O194  1  0.64639000  0.57587000  0.49990000  1.0
  O  O195  1  0.35360000  0.42416000  0.50010000  1.0
  O  O196  1  0.80516000  0.50286000  0.52719000  1.0
  O  O197  1  0.19482000  0.49713000  0.47281000  1.0
  O  O198  1  0.67973000  0.48604000  0.00998000  1.0
  O  O199  1  0.32025000  0.51395000  0.99004000  1.0
  O  O200  1  0.74920000  0.33996000  0.03613000  1.0
  O  O201  1  0.25082000  0.66004000  0.96384000  1.0
  O  O202  1  0.62859000  0.40159000  0.47320000  1.0
  O  O203  1  0.37141000  0.59842000  0.52679000  1.0
  O  O204  1  0.73950000  0.29557000  0.53058000  1.0
  O  O205  1  0.26051000  0.70442000  0.46938000  1.0
