# generated using pymatgen
data_Zr3H18C30Br5O16
_symmetry_space_group_name_H-M   'P 1'
_cell_length_a   14.64405004
_cell_length_b   14.84910065
_cell_length_c   14.85850000
_cell_angle_alpha   88.84054322
_cell_angle_beta   60.66613652
_cell_angle_gamma   119.09533800
_symmetry_Int_Tables_number   1
_chemical_formula_structural   Zr3H18C30Br5O16
_chemical_formula_sum   'Zr6 H36 C60 Br10 O32'
_cell_volume   2315.28942299
_cell_formula_units_Z   2
loop_
 _symmetry_equiv_pos_site_id
 _symmetry_equiv_pos_as_xyz
  1  'x, y, z'
loop_
 _atom_site_type_symbol
 _atom_site_label
 _atom_site_symmetry_multiplicity
 _atom_site_fract_x
 _atom_site_fract_y
 _atom_site_fract_z
 _atom_site_occupancy
  Zr  Zr0  1  0.26480000  0.87963000  0.11900000  1.0
  Zr  Zr1  1  0.74162000  0.11875000  0.87547000  1.0
  Zr  Zr2  1  0.49648000  0.11809000  0.88054000  1.0
  Zr  Zr3  1  0.51169000  0.88462000  0.11283000  1.0
  Zr  Zr4  1  0.49893000  0.88156000  0.87939000  1.0
  Zr  Zr5  1  0.50332000  0.11931000  0.11363000  1.0
  H  H6  1  0.30602000  0.90505000  0.91136000  1.0
  H  H7  1  0.69661000  0.91058000  0.89886000  1.0
  H  H8  1  0.68888000  0.28137000  0.89873000  1.0
  H  H9  1  0.32294000  0.90661000  0.27693000  1.0
  H  H10  1  0.26025000  0.50175000  0.92600000  1.0
  H  H11  1  0.30348000  0.57842000  0.80191000  1.0
  H  H12  1  0.14127000  0.40568000  0.79959000  1.0
  H  H13  1  0.09314000  0.33117000  0.92702000  1.0
  H  H14  1  0.30092000  0.22375000  0.39866000  1.0
  H  H15  1  0.27181000  0.11405000  0.48375000  1.0
  H  H16  1  0.10188000  0.11669000  0.64960000  1.0
  H  H17  1  0.13121000  0.22729000  0.56484000  1.0
  H  H18  1  0.28411000  0.47838000  0.24470000  1.0
  H  H19  1  0.42535000  0.54256000  0.24102000  1.0
  H  H20  1  0.41981000  0.37097000  0.24224000  1.0
  H  H21  1  0.27834000  0.30529000  0.24563000  1.0
  H  H22  1  0.60235000  0.85206000  0.39357000  1.0
  H  H23  1  0.44554000  0.77755000  0.42467000  1.0
  H  H24  1  0.35196000  0.75058000  0.62433000  1.0
  H  H25  1  0.49855000  0.79013000  0.60141000  1.0
  H  H26  1  0.89707000  0.88015000  0.92780000  1.0
  H  H27  1  0.02228000  0.01539000  0.83383000  1.0
  H  H28  1  0.15877000  0.98687000  0.84786000  1.0
  H  H29  1  0.02870000  0.86277000  0.95997000  1.0
  H  H30  1  0.21779000  0.16541000  0.88047000  1.0
  H  H31  1  0.16462000  0.17293000  0.01318000  1.0
  H  H32  1  0.05576000  0.17751000  0.89925000  1.0
  H  H33  1  0.98449000  0.15599000  0.04111000  1.0
  H  H34  1  0.78904000  0.85004000  0.13096000  1.0
  H  H35  1  0.80284000  0.95926000  0.18040000  1.0
  H  H36  1  0.97876000  0.99412000  0.17705000  1.0
  H  H37  1  0.94055000  0.86766000  0.15852000  1.0
  H  H38  1  0.93001000  0.50609000  0.30639000  1.0
  H  H39  1  0.88763000  0.58201000  0.38958000  1.0
  H  H40  1  0.70939000  0.40640000  0.55187000  1.0
  H  H41  1  0.75744000  0.33202000  0.47038000  1.0
  C  C42  1  0.19415000  0.69598000  0.00480000  1.0
  C  C43  1  0.80228000  0.00764000  0.68687000  1.0
  C  C44  1  0.80756000  0.30379000  0.99214000  1.0
  C  C45  1  0.19937000  0.99866000  0.29919000  1.0
  C  C46  1  0.19355000  0.00437000  0.00770000  1.0
  C  C47  1  0.21204000  0.69214000  0.29248000  1.0
  C  C48  1  0.81361000  0.00669000  0.99690000  1.0
  C  C49  1  0.79850000  0.29624000  0.68989000  1.0
  C  C50  1  0.48612000  0.99982000  0.70218000  1.0
  C  C51  1  0.50021000  0.30187000  0.99519000  1.0
  C  C52  1  0.52784000  0.01731000  0.28684000  1.0
  C  C53  1  0.51102000  0.70264000  0.99277000  1.0
  C  C54  1  0.09199000  0.60167000  0.00086000  1.0
  C  C55  1  0.90411000  0.40988000  0.98982000  1.0
  C  C56  1  0.11863000  0.53340000  0.94648000  1.0
  C  C57  1  0.87773000  0.48371000  0.03771000  1.0
  C  C58  1  0.02841000  0.44059000  0.94286000  1.0
  C  C59  1  0.96699000  0.57432000  0.04657000  1.0
  C  C60  1  0.22262000  0.51489000  0.88257000  1.0
  C  C61  1  0.11977000  0.40817000  0.88105000  1.0
  C  C62  1  0.09397000  0.99629000  0.39699000  1.0
  C  C63  1  0.89982000  0.00777000  0.58319000  1.0
  C  C64  1  0.12041000  0.06480000  0.45646000  1.0
  C  C65  1  0.87281000  0.94357000  0.51887000  1.0
  C  C66  1  0.02704000  0.06753000  0.54770000  1.0
  C  C67  1  0.96375000  0.93073000  0.43455000  1.0
  C  C68  1  0.22582000  0.14593000  0.46728000  1.0
  C  C69  1  0.11983000  0.14817000  0.57108000  1.0
  C  C70  1  0.52300000  0.60807000  0.98665000  1.0
  C  C71  1  0.51719000  0.41012000  0.98771000  1.0
  C  C72  1  0.45822000  0.52476000  0.08292000  1.0
  C  C73  1  0.59318000  0.49818000  0.88865000  1.0
  C  C74  1  0.45520000  0.42949000  0.08342000  1.0
  C  C75  1  0.59566000  0.59435000  0.88815000  1.0
  C  C76  1  0.37661000  0.48990000  0.20703000  1.0
  C  C77  1  0.37296000  0.38172000  0.20775000  1.0
  C  C78  1  0.52981000  0.02585000  0.38634000  1.0
  C  C79  1  0.48374000  0.00512000  0.60275000  1.0
  C  C80  1  0.51254000  0.93980000  0.44734000  1.0
  C  C81  1  0.49662000  0.09252000  0.54397000  1.0
  C  C82  1  0.48558000  0.92728000  0.55248000  1.0
  C  C83  1  0.52682000  0.10641000  0.43627000  1.0
  C  C84  1  0.50720000  0.83590000  0.44561000  1.0
  C  C85  1  0.45557000  0.81262000  0.57065000  1.0
  C  C86  1  0.97345000  0.96056000  0.91625000  1.0
  C  C87  1  0.06736000  0.94952000  0.92818000  1.0
  C  C88  1  0.09071000  0.00719000  0.00803000  1.0
  C  C89  1  0.13393000  0.12579000  0.96589000  1.0
  C  C90  1  0.02314000  0.12474000  0.97579000  1.0
  C  C91  1  0.91492000  0.00740000  0.00264000  1.0
  C  C92  1  0.85760000  0.93566000  0.11651000  1.0
  C  C93  1  0.96493000  0.94778000  0.12282000  1.0
  C  C94  1  0.11323000  0.58903000  0.39072000  1.0
  C  C95  1  0.90475000  0.39895000  0.59182000  1.0
  C  C96  1  0.98741000  0.52700000  0.42209000  1.0
  C  C97  1  0.03034000  0.46505000  0.56528000  1.0
  C  C98  1  0.88889000  0.43327000  0.51553000  1.0
  C  C99  1  0.13280000  0.55027000  0.46345000  1.0
  C  C100  1  0.90236000  0.51609000  0.38683000  1.0
  C  C101  1  0.79223000  0.40761000  0.48995000  1.0
  Br  Br102  1  0.72387000  0.46814000  0.08074000  1.0
  Br  Br103  1  0.91793000  0.66343000  0.11767000  1.0
  Br  Br104  1  0.71483000  0.88103000  0.53726000  1.0
  Br  Br105  1  0.90192000  0.81892000  0.37806000  1.0
  Br  Br106  1  0.70385000  0.49056000  0.75532000  1.0
  Br  Br107  1  0.70730000  0.71248000  0.75367000  1.0
  Br  Br108  1  0.45641000  0.18604000  0.61474000  1.0
  Br  Br109  1  0.57529000  0.24105000  0.35572000  1.0
  Br  Br110  1  0.06203000  0.44909000  0.67229000  1.0
  Br  Br111  1  0.29879000  0.60736000  0.42597000  1.0
  O  O112  1  0.16125000  0.73273000  0.08325000  1.0
  O  O113  1  0.84538000  0.07967000  0.72682000  1.0
  O  O114  1  0.84881000  0.26504000  0.91752000  1.0
  O  O115  1  0.16861000  0.92227000  0.25980000  1.0
  O  O116  1  0.30897000  0.07857000  0.92923000  1.0
  O  O117  1  0.32966000  0.73643000  0.25183000  1.0
  O  O118  1  0.69763000  0.92924000  0.07075000  1.0
  O  O119  1  0.68425000  0.26148000  0.72627000  1.0
  O  O120  1  0.48590000  0.92070000  0.73804000  1.0
  O  O121  1  0.49184000  0.25826000  0.07629000  1.0
  O  O122  1  0.51453000  0.08413000  0.24844000  1.0
  O  O123  1  0.49821000  0.73714000  0.92328000  1.0
  O  O124  1  0.49242000  0.26015000  0.92329000  1.0
  O  O125  1  0.52951000  0.93960000  0.25274000  1.0
  O  O126  1  0.51106000  0.73878000  0.06984000  1.0
  O  O127  1  0.49491000  0.07705000  0.74092000  1.0
  O  O128  1  0.15954000  0.92735000  0.08197000  1.0
  O  O129  1  0.83157000  0.24972000  0.72861000  1.0
  O  O130  1  0.84945000  0.08070000  0.91828000  1.0
  O  O131  1  0.16864000  0.72997000  0.25835000  1.0
  O  O132  1  0.31334000  0.07773000  0.26160000  1.0
  O  O133  1  0.30876000  0.73233000  0.92750000  1.0
  O  O134  1  0.68493000  0.93337000  0.73097000  1.0
  O  O135  1  0.69133000  0.25873000  0.07022000  1.0
  O  O136  1  0.37475000  0.93291000  0.19736000  1.0
  O  O137  1  0.63605000  0.20184000  0.92687000  1.0
  O  O138  1  0.64056000  0.93509000  0.92695000  1.0
  O  O139  1  0.36201000  0.93107000  0.93566000  1.0
  O  O140  1  0.59650000  0.04809000  0.85110000  1.0
  O  O141  1  0.40772000  0.85355000  0.04638000  1.0
  O  O142  1  0.60551000  0.05107000  0.04273000  1.0
  O  O143  1  0.40165000  0.04804000  0.04803000  1.0
