# generated using pymatgen
data_CuPH16C13(NO)3
_symmetry_space_group_name_H-M   'P 1'
_cell_length_a   9.07078000
_cell_length_b   11.58010000
_cell_length_c   14.48960000
_cell_angle_alpha   84.81010000
_cell_angle_beta   89.99340000
_cell_angle_gamma   89.99370000
_symmetry_Int_Tables_number   1
_chemical_formula_structural   CuPH16C13(NO)3
_chemical_formula_sum   'Cu4 P4 H64 C52 N12 O12'
_cell_volume   1515.75574951
_cell_formula_units_Z   4
loop_
 _symmetry_equiv_pos_site_id
 _symmetry_equiv_pos_as_xyz
  1  'x, y, z'
loop_
 _atom_site_type_symbol
 _atom_site_label
 _atom_site_symmetry_multiplicity
 _atom_site_fract_x
 _atom_site_fract_y
 _atom_site_fract_z
 _atom_site_occupancy
  Cu  Cu0  1  0.00288000  0.10105000  0.28927000  1.0
  Cu  Cu1  1  0.50287000  0.39895000  0.21070000  1.0
  Cu  Cu2  1  0.99722000  0.89891000  0.71044000  1.0
  Cu  Cu3  1  0.49722000  0.60109000  0.78958000  1.0
  P  P4  1  0.77756000  0.23188000  0.17033000  1.0
  P  P5  1  0.27756000  0.26812000  0.32965000  1.0
  P  P6  1  0.22223000  0.76839000  0.83001000  1.0
  P  P7  1  0.72225000  0.73161000  0.67000000  1.0
  H  H8  1  0.95756000  0.90937000  0.20034000  1.0
  H  H9  1  0.45753000  0.59060000  0.29962000  1.0
  H  H10  1  0.04236000  0.09061000  0.79962000  1.0
  H  H11  1  0.54240000  0.40942000  0.70041000  1.0
  H  H12  1  0.86106000  0.00951000  0.12194000  1.0
  H  H13  1  0.36102000  0.49049000  0.37804000  1.0
  H  H14  1  0.13891000  0.99041000  0.87792000  1.0
  H  H15  1  0.63895000  0.50961000  0.62210000  1.0
  H  H16  1  0.78715000  0.80302000  0.11019000  1.0
  H  H17  1  0.28714000  0.69698000  0.38979000  1.0
  H  H18  1  0.21277000  0.19693000  0.88977000  1.0
  H  H19  1  0.71280000  0.30306000  0.61024000  1.0
  H  H20  1  0.63478000  0.88619000  0.14062000  1.0
  H  H21  1  0.13475000  0.61385000  0.35939000  1.0
  H  H22  1  0.36516000  0.11376000  0.85937000  1.0
  H  H23  1  0.86520000  0.38621000  0.64061000  1.0
  H  H24  1  0.64096000  0.70020000  0.24209000  1.0
  H  H25  1  0.14094000  0.79983000  0.25791000  1.0
  H  H26  1  0.35902000  0.29981000  0.75795000  1.0
  H  H27  1  0.85906000  0.20017000  0.74204000  1.0
  H  H28  1  0.82351000  0.72766000  0.27547000  1.0
  H  H29  1  0.32350000  0.77233000  0.22450000  1.0
  H  H30  1  0.17650000  0.27233000  0.72450000  1.0
  H  H31  1  0.67652000  0.22769000  0.77552000  1.0
  H  H32  1  0.64734000  0.78583000  0.39720000  1.0
  H  H33  1  0.14732000  0.71418000  0.10281000  1.0
  H  H34  1  0.35282000  0.21430000  0.60280000  1.0
  H  H35  1  0.85285000  0.28569000  0.89719000  1.0
  H  H36  1  0.55188000  0.87595000  0.31258000  1.0
  H  H37  1  0.05184000  0.62409000  0.18744000  1.0
  H  H38  1  0.44822000  0.12411000  0.68739000  1.0
  H  H39  1  0.94826000  0.37585000  0.81259000  1.0
  H  H40  1  0.70856000  0.99881000  0.39323000  1.0
  H  H41  1  0.20855000  0.50119000  0.10677000  1.0
  H  H42  1  0.29157000  0.00127000  0.60666000  1.0
  H  H43  1  0.79158000  0.49873000  0.89334000  1.0
  H  H44  1  0.10682000  0.68500000  0.59973000  1.0
  H  H45  1  0.60683000  0.81500000  0.90027000  1.0
  H  H46  1  0.89310000  0.31500000  0.40020000  1.0
  H  H47  1  0.39311000  0.18500000  0.09981000  1.0
  H  H48  1  0.37791000  0.72385000  0.60586000  1.0
  H  H49  1  0.87793000  0.77616000  0.89414000  1.0
  H  H50  1  0.62200000  0.27615000  0.39416000  1.0
  H  H51  1  0.12200000  0.22384000  0.10585000  1.0
  H  H52  1  0.49353000  0.87544000  0.50267000  1.0
  H  H53  1  0.99356000  0.62457000  0.99733000  1.0
  H  H54  1  0.50649000  0.12446000  0.49736000  1.0
  H  H55  1  0.00647000  0.37552000  0.00265000  1.0
  H  H56  1  0.34208000  0.00274000  0.38649000  1.0
  H  H57  1  0.84211000  0.49727000  0.11351000  1.0
  H  H58  1  0.65807000  0.99725000  0.61353000  1.0
  H  H59  1  0.15805000  0.50274000  0.88648000  1.0
  H  H60  1  0.63559000  0.13164000  0.29466000  1.0
  H  H61  1  0.13557000  0.36837000  0.20534000  1.0
  H  H62  1  0.36417000  0.86808000  0.70557000  1.0
  H  H63  1  0.86417000  0.63191000  0.79444000  1.0
  H  H64  1  0.60431000  0.06749000  0.18983000  1.0
  H  H65  1  0.10429000  0.43253000  0.31017000  1.0
  H  H66  1  0.39558000  0.93264000  0.81023000  1.0
  H  H67  1  0.89561000  0.56734000  0.68977000  1.0
  H  H68  1  0.84098000  0.77308000  0.50497000  1.0
  H  H69  1  0.34097000  0.72692000  0.99503000  1.0
  H  H70  1  0.15894000  0.22705000  0.49506000  1.0
  H  H71  1  0.65897000  0.27295000  0.00494000  1.0
  C  C72  1  0.84863000  0.94732000  0.18335000  1.0
  C  C73  1  0.34860000  0.55266000  0.31663000  1.0
  C  C74  1  0.15131000  0.05268000  0.81656000  1.0
  C  C75  1  0.65135000  0.44734000  0.68346000  1.0
  C  C76  1  0.74138000  0.85025000  0.16595000  1.0
  C  C77  1  0.24136000  0.64975000  0.33404000  1.0
  C  C78  1  0.25858000  0.14971000  0.83402000  1.0
  C  C79  1  0.75860000  0.35029000  0.66598000  1.0
  C  C80  1  0.71833000  0.77015000  0.25439000  1.0
  C  C81  1  0.21831000  0.72985000  0.24561000  1.0
  C  C82  1  0.28169000  0.22985000  0.74560000  1.0
  C  C83  1  0.78172000  0.27015000  0.75440000  1.0
  C  C84  1  0.66127000  0.83991000  0.33141000  1.0
  C  C85  1  0.16125000  0.66010000  0.16860000  1.0
  C  C86  1  0.33883000  0.16016000  0.66855000  1.0
  C  C87  1  0.83886000  0.33984000  0.83145000  1.0
  C  C88  1  0.76455000  0.94109000  0.34798000  1.0
  C  C89  1  0.26453000  0.55890000  0.15202000  1.0
  C  C90  1  0.23559000  0.05899000  0.65191000  1.0
  C  C91  1  0.73561000  0.44102000  0.84809000  1.0
  C  C92  1  0.90668000  0.90475000  0.39469000  1.0
  C  C93  1  0.40666000  0.59524000  0.10530000  1.0
  C  C94  1  0.09347000  0.09533000  0.60520000  1.0
  C  C95  1  0.59348000  0.40469000  0.89481000  1.0
  C  C96  1  0.07518000  0.82168000  0.48754000  1.0
  C  C97  1  0.57518000  0.67831000  0.01245000  1.0
  C  C98  1  0.92480000  0.17846000  0.51244000  1.0
  C  C99  1  0.42481000  0.32155000  0.98756000  1.0
  C  C100  1  0.15724000  0.75312000  0.55334000  1.0
  C  C101  1  0.65726000  0.74689000  0.94665000  1.0
  C  C102  1  0.84266000  0.24699000  0.44668000  1.0
  C  C103  1  0.34267000  0.25300000  0.05333000  1.0
  C  C104  1  0.30836000  0.77464000  0.55617000  1.0
  C  C105  1  0.80838000  0.72536000  0.94383000  1.0
  C  C106  1  0.69156000  0.22537000  0.44387000  1.0
  C  C107  1  0.19156000  0.27462000  0.05614000  1.0
  C  C108  1  0.37492000  0.86295000  0.49679000  1.0
  C  C109  1  0.87494000  0.63705000  0.00320000  1.0
  C  C110  1  0.62508000  0.13703000  0.50326000  1.0
  C  C111  1  0.12507000  0.36296000  0.99676000  1.0
  C  C112  1  0.29334000  0.93323000  0.43225000  1.0
  C  C113  1  0.79335000  0.56676000  0.06774000  1.0
  C  C114  1  0.70676000  0.06679000  0.56777000  1.0
  C  C115  1  0.20675000  0.43321000  0.93224000  1.0
  C  C116  1  0.14176000  0.91151000  0.42838000  1.0
  C  C117  1  0.64176000  0.58848000  0.07161000  1.0
  C  C118  1  0.85832000  0.08856000  0.57160000  1.0
  C  C119  1  0.35833000  0.41144000  0.92842000  1.0
  C  C120  1  0.68972000  0.10315000  0.23312000  1.0
  C  C121  1  0.18969000  0.39685000  0.26687000  1.0
  C  C122  1  0.31013000  0.89697000  0.76699000  1.0
  C  C123  1  0.81015000  0.60302000  0.73302000  1.0
  N  N124  1  0.80400000  0.01584000  0.26159000  1.0
  N  N125  1  0.30395000  0.48416000  0.23841000  1.0
  N  N126  1  0.19610000  0.98428000  0.73830000  1.0
  N  N127  1  0.69615000  0.51573000  0.76171000  1.0
  N  N128  1  0.03162000  0.96201000  0.37161000  1.0
  N  N129  1  0.53161000  0.53797000  0.12836000  1.0
  N  N130  1  0.96855000  0.03801000  0.62828000  1.0
  N  N131  1  0.46855000  0.46200000  0.87174000  1.0
  N  N132  1  0.92709000  0.81980000  0.46354000  1.0
  N  N133  1  0.42708000  0.68020000  0.03645000  1.0
  N  N134  1  0.07296000  0.18034000  0.53639000  1.0
  N  N135  1  0.57298000  0.31967000  0.96362000  1.0
  O  O136  1  0.93693000  0.23049000  0.20990000  1.0
  O  O137  1  0.43691000  0.26950000  0.29007000  1.0
  O  O138  1  0.06209000  0.77060000  0.79184000  1.0
  O  O139  1  0.56212000  0.72943000  0.70819000  1.0
  O  O140  1  0.77407000  0.21728000  0.06668000  1.0
  O  O141  1  0.27406000  0.28272000  0.43330000  1.0
  O  O142  1  0.22667000  0.78242000  0.93374000  1.0
  O  O143  1  0.72669000  0.71756000  0.56628000  1.0
  O  O144  1  0.70118000  0.34180000  0.19862000  1.0
  O  O145  1  0.20120000  0.15819000  0.30138000  1.0
  O  O146  1  0.29884000  0.65909000  0.80083000  1.0
  O  O147  1  0.79885000  0.84091000  0.69917000  1.0
