# generated using pymatgen
data_UH18C32(N2O3)2
_symmetry_space_group_name_H-M   'P 1'
_cell_length_a   9.03066000
_cell_length_b   9.49872000
_cell_length_c   17.35860000
_cell_angle_alpha   104.55100000
_cell_angle_beta   91.59010000
_cell_angle_gamma   107.80100000
_symmetry_Int_Tables_number   1
_chemical_formula_structural   UH18C32(N2O3)2
_chemical_formula_sum   'U2 H36 C64 N8 O12'
_cell_volume   1363.39303582
_cell_formula_units_Z   2
loop_
 _symmetry_equiv_pos_site_id
 _symmetry_equiv_pos_as_xyz
  1  'x, y, z'
loop_
 _atom_site_type_symbol
 _atom_site_label
 _atom_site_symmetry_multiplicity
 _atom_site_fract_x
 _atom_site_fract_y
 _atom_site_fract_z
 _atom_site_occupancy
  U  U0  1  0.50582000  0.15908000  0.25950000  1.0
  U  U1  1  0.49418000  0.84092000  0.74050000  1.0
  H  H2  1  0.85744000  0.53106000  0.56218000  1.0
  H  H3  1  0.14255000  0.46894000  0.43782000  1.0
  H  H4  1  0.22591000  0.52670000  0.14424000  1.0
  H  H5  1  0.77409000  0.47329000  0.85575000  1.0
  H  H6  1  0.02147000  0.10758000  0.13878000  1.0
  H  H7  1  0.97853000  0.89242000  0.86122000  1.0
  H  H8  1  0.23078000  0.68201000  0.07318000  1.0
  H  H9  1  0.76922000  0.31799000  0.92682000  1.0
  H  H10  1  0.29472000  0.75831000  0.26544000  1.0
  H  H11  1  0.70527000  0.24168000  0.73455000  1.0
  H  H12  1  0.75989000  0.75753000  0.57773000  1.0
  H  H13  1  0.24011000  0.24247000  0.42227000  1.0
  H  H14  1  0.59741000  0.88212000  0.52000000  1.0
  H  H15  1  0.40259000  0.11788000  0.47999000  1.0
  H  H16  1  0.76319000  0.12731000  0.10183000  1.0
  H  H17  1  0.23681000  0.87269000  0.89817000  1.0
  H  H18  1  0.91305000  0.41425000  0.21252000  1.0
  H  H19  1  0.08695000  0.58576000  0.78749000  1.0
  H  H20  1  0.88184000  0.14166000  0.44340000  1.0
  H  H21  1  0.11816000  0.85834000  0.55660000  1.0
  H  H22  1  0.42617000  0.88352000  0.40430000  1.0
  H  H23  1  0.57382000  0.11648000  0.59569000  1.0
  H  H24  1  0.76538000  0.31370000  0.43772000  1.0
  H  H25  1  0.23462000  0.68630000  0.56228000  1.0
  H  H26  1  0.03398000  0.57514000  0.35018000  1.0
  H  H27  1  0.96602000  0.42486000  0.64982000  1.0
  H  H28  1  0.30662000  0.30386000  0.15137000  1.0
  H  H29  1  0.69338000  0.69614000  0.84862000  1.0
  H  H30  1  0.59614000  0.64570000  0.97489000  1.0
  H  H31  1  0.40386000  0.35430000  0.02511000  1.0
  H  H32  1  0.54847000  0.89748000  0.02314000  1.0
  H  H33  1  0.45153000  0.10252000  0.97686000  1.0
  H  H34  1  0.74522000  0.50269000  0.13247000  1.0
  H  H35  1  0.25477000  0.49731000  0.86753000  1.0
  H  H36  1  0.70193000  0.75244000  0.18647000  1.0
  H  H37  1  0.29807000  0.24757000  0.81354000  1.0
  C  C38  1  0.95953000  0.86628000  0.07638000  1.0
  C  C39  1  0.04047000  0.13372000  0.92362000  1.0
  C  C40  1  0.77625000  0.53558000  0.51597000  1.0
  C  C41  1  0.22375000  0.46442000  0.48403000  1.0
  C  C42  1  0.29185000  0.53234000  0.19900000  1.0
  C  C43  1  0.70815000  0.46766000  0.80099000  1.0
  C  C44  1  0.92943000  0.00782000  0.10201000  1.0
  C  C45  1  0.07057000  0.99218000  0.89799000  1.0
  C  C46  1  0.12000000  0.70026000  0.06197000  1.0
  C  C47  1  0.88001000  0.29974000  0.93803000  1.0
  C  C48  1  0.99213000  0.57742000  0.01548000  1.0
  C  C49  1  0.00787000  0.42257000  0.98452000  1.0
  C  C50  1  0.33014000  0.65841000  0.26514000  1.0
  C  C51  1  0.66986000  0.34158000  0.73486000  1.0
  C  C52  1  0.72334000  0.65987000  0.52445000  1.0
  C  C53  1  0.27665000  0.34013000  0.47555000  1.0
  C  C54  1  0.10400000  0.84260000  0.09417000  1.0
  C  C55  1  0.89600000  0.15740000  0.90583000  1.0
  C  C56  1  0.42065000  0.65909000  0.33288000  1.0
  C  C57  1  0.57935000  0.34091000  0.66712000  1.0
  C  C58  1  0.56186000  0.78642000  0.46590000  1.0
  C  C59  1  0.43814000  0.21357000  0.53410000  1.0
  C  C60  1  0.78531000  0.01827000  0.08133000  1.0
  C  C61  1  0.21469000  0.98173000  0.91867000  1.0
  C  C62  1  0.83678000  0.73432000  0.02761000  1.0
  C  C63  1  0.16322000  0.26567000  0.97239000  1.0
  C  C64  1  0.89550000  0.52458000  0.23725000  1.0
  C  C65  1  0.10450000  0.47543000  0.76275000  1.0
  C  C66  1  0.97217000  0.96244000  0.45696000  1.0
  C  C67  1  0.02784000  0.03757000  0.54305000  1.0
  C  C68  1  0.89374000  0.03121000  0.41341000  1.0
  C  C69  1  0.10627000  0.96879000  0.58659000  1.0
  C  C70  1  0.46702000  0.78628000  0.40323000  1.0
  C  C71  1  0.53297000  0.21372000  0.59677000  1.0
  C  C72  1  0.72433000  0.41236000  0.44633000  1.0
  C  C73  1  0.27566000  0.58764000  0.55367000  1.0
  C  C74  1  0.93662000  0.75426000  0.34684000  1.0
  C  C75  1  0.06338000  0.24574000  0.65316000  1.0
  C  C76  1  0.96232000  0.61242000  0.31321000  1.0
  C  C77  1  0.03768000  0.38758000  0.68679000  1.0
  C  C78  1  0.33905000  0.40609000  0.20197000  1.0
  C  C79  1  0.66095000  0.59390000  0.79803000  1.0
  C  C80  1  0.61933000  0.66045000  0.46241000  1.0
  C  C81  1  0.38066000  0.33955000  0.53759000  1.0
  C  C82  1  0.46883000  0.52859000  0.32935000  1.0
  C  C83  1  0.53117000  0.47141000  0.67064000  1.0
  C  C84  1  0.24123000  0.95968000  0.14869000  1.0
  C  C85  1  0.75878000  0.04032000  0.85131000  1.0
  C  C86  1  0.68845000  0.74851000  0.00947000  1.0
  C  C87  1  0.31156000  0.25149000  0.99053000  1.0
  C  C88  1  0.66319000  0.88776000  0.03594000  1.0
  C  C89  1  0.33681000  0.11224000  0.96406000  1.0
  C  C90  1  0.80039000  0.57521000  0.19173000  1.0
  C  C91  1  0.19961000  0.42479000  0.80827000  1.0
  C  C92  1  0.73100000  0.02610000  0.29727000  1.0
  C  C93  1  0.26900000  0.97390000  0.70274000  1.0
  C  C94  1  0.84361000  0.80810000  0.29946000  1.0
  C  C95  1  0.15639000  0.19190000  0.70054000  1.0
  C  C96  1  0.82773000  0.95474000  0.33571000  1.0
  C  C97  1  0.17227000  0.04527000  0.66429000  1.0
  C  C98  1  0.77572000  0.71431000  0.22161000  1.0
  C  C99  1  0.22428000  0.28569000  0.77839000  1.0
  C  C100  1  0.57290000  0.53066000  0.39406000  1.0
  C  C101  1  0.42710000  0.46934000  0.60593000  1.0
  N  N102  1  0.99724000  0.83056000  0.42411000  1.0
  N  N103  1  0.00276000  0.16944000  0.57589000  1.0
  N  N104  1  0.85452000  0.59390000  0.99897000  1.0
  N  N105  1  0.14548000  0.40610000  0.00102000  1.0
  N  N106  1  0.42290000  0.40198000  0.26541000  1.0
  N  N107  1  0.57710000  0.59802000  0.73458000  1.0
  N  N108  1  0.62587000  0.40864000  0.38649000  1.0
  N  N109  1  0.37413000  0.59136000  0.61350000  1.0
  O  O110  1  0.61206000  0.94418000  0.24680000  1.0
  O  O111  1  0.38794000  0.05581000  0.75321000  1.0
  O  O112  1  0.36686000  0.92584000  0.15566000  1.0
  O  O113  1  0.63315000  0.07416000  0.84434000  1.0
  O  O114  1  0.76036000  0.17250000  0.32003000  1.0
  O  O115  1  0.23963000  0.82750000  0.67997000  1.0
  O  O116  1  0.23700000  0.08963000  0.19086000  1.0
  O  O117  1  0.76300000  0.91037000  0.80914000  1.0
  O  O118  1  0.60437000  0.22715000  0.18024000  1.0
  O  O119  1  0.39563000  0.77285000  0.81976000  1.0
  O  O120  1  0.40225000  0.09041000  0.33797000  1.0
  O  O121  1  0.59774000  0.90960000  0.66203000  1.0
