# generated using pymatgen
data_CuH4(C2O)4
_symmetry_space_group_name_H-M   'P 1'
_cell_length_a   9.13138000
_cell_length_b   9.13234000
_cell_length_c   16.02010000
_cell_angle_alpha   89.99100000
_cell_angle_beta   89.99270000
_cell_angle_gamma   119.98600000
_symmetry_Int_Tables_number   1
_chemical_formula_structural   CuH4(C2O)4
_chemical_formula_sum   'Cu6 H24 C48 O24'
_cell_volume   1157.11247305
_cell_formula_units_Z   6
loop_
 _symmetry_equiv_pos_site_id
 _symmetry_equiv_pos_as_xyz
  1  'x, y, z'
loop_
 _atom_site_type_symbol
 _atom_site_label
 _atom_site_symmetry_multiplicity
 _atom_site_fract_x
 _atom_site_fract_y
 _atom_site_fract_z
 _atom_site_occupancy
  Cu  Cu0  1  0.50000000  0.50000000  0.00000000  1.0
  Cu  Cu1  1  0.50000000  0.00000000  0.00000000  1.0
  Cu  Cu2  1  0.00000000  0.50000000  0.00000000  1.0
  Cu  Cu3  1  0.50000000  0.00000000  0.50000000  1.0
  Cu  Cu4  1  0.00000000  0.50000000  0.50000000  1.0
  Cu  Cu5  1  0.50000000  0.50000000  0.50000000  1.0
  H  H6  1  0.13072000  0.75845000  0.11550000  1.0
  H  H7  1  0.24137000  0.37220000  0.11554000  1.0
  H  H8  1  0.62790000  0.86929000  0.11553000  1.0
  H  H9  1  0.75858000  0.62784000  0.61550000  1.0
  H  H10  1  0.37228000  0.13075000  0.61553000  1.0
  H  H11  1  0.86922000  0.24137000  0.61554000  1.0
  H  H12  1  0.86928000  0.24155000  0.88450000  1.0
  H  H13  1  0.75864000  0.62781000  0.88446000  1.0
  H  H14  1  0.37211000  0.13071000  0.88447000  1.0
  H  H15  1  0.24143000  0.37216000  0.38450000  1.0
  H  H16  1  0.62773000  0.86926000  0.38447000  1.0
  H  H17  1  0.13078000  0.75863000  0.38446000  1.0
  H  H18  1  0.28575000  0.82881000  0.24995000  1.0
  H  H19  1  0.17107000  0.45684000  0.25005000  1.0
  H  H20  1  0.54310000  0.71433000  0.25000000  1.0
  H  H21  1  0.82893000  0.54316000  0.74995000  1.0
  H  H22  1  0.45690000  0.28567000  0.75000000  1.0
  H  H23  1  0.71425000  0.17119000  0.75005000  1.0
  H  H24  1  0.65921000  0.54235000  0.25004000  1.0
  H  H25  1  0.45766000  0.11684000  0.24998000  1.0
  H  H26  1  0.88305000  0.34076000  0.24998000  1.0
  H  H27  1  0.54234000  0.88317000  0.75002000  1.0
  H  H28  1  0.11696000  0.65925000  0.75002000  1.0
  H  H29  1  0.34079000  0.45766000  0.74996000  1.0
  C  C30  1  0.78330000  0.59752000  0.09586000  1.0
  C  C31  1  0.40295000  0.18612000  0.09589000  1.0
  C  C32  1  0.81394000  0.21691000  0.09587000  1.0
  C  C33  1  0.59708000  0.81400000  0.59589000  1.0
  C  C34  1  0.18584000  0.78336000  0.59584000  1.0
  C  C35  1  0.21685000  0.40299000  0.59588000  1.0
  C  C36  1  0.21670000  0.40247000  0.90414000  1.0
  C  C37  1  0.59705000  0.81388000  0.90411000  1.0
  C  C38  1  0.18605000  0.78309000  0.90413000  1.0
  C  C39  1  0.40293000  0.18600000  0.40411000  1.0
  C  C40  1  0.81416000  0.21665000  0.40416000  1.0
  C  C41  1  0.78315000  0.59701000  0.40412000  1.0
  C  C42  1  0.88391000  0.64392000  0.17424000  1.0
  C  C43  1  0.35617000  0.24011000  0.17424000  1.0
  C  C44  1  0.75988000  0.11613000  0.17422000  1.0
  C  C45  1  0.64386000  0.76000000  0.67423000  1.0
  C  C46  1  0.24005000  0.88393000  0.67424000  1.0
  C  C47  1  0.11607000  0.35627000  0.67423000  1.0
  C  C48  1  0.11609000  0.35607000  0.82576000  1.0
  C  C49  1  0.64381000  0.75987000  0.82577000  1.0
  C  C50  1  0.24012000  0.88387000  0.82578000  1.0
  C  C51  1  0.35614000  0.24000000  0.32578000  1.0
  C  C52  1  0.75995000  0.11606000  0.32576000  1.0
  C  C53  1  0.88391000  0.64373000  0.32577000  1.0
  C  C54  1  0.06092000  0.72421000  0.17427000  1.0
  C  C55  1  0.27571000  0.33672000  0.17430000  1.0
  C  C56  1  0.66330000  0.93912000  0.17428000  1.0
  C  C57  1  0.72427000  0.66335000  0.67427000  1.0
  C  C58  1  0.33674000  0.06094000  0.67430000  1.0
  C  C59  1  0.93904000  0.27580000  0.67430000  1.0
  C  C60  1  0.93907000  0.27579000  0.82573000  1.0
  C  C61  1  0.72429000  0.66328000  0.82570000  1.0
  C  C62  1  0.33670000  0.06087000  0.82572000  1.0
  C  C63  1  0.27574000  0.33664000  0.32573000  1.0
  C  C64  1  0.66327000  0.93907000  0.32570000  1.0
  C  C65  1  0.06097000  0.72420000  0.32570000  1.0
  C  C66  1  0.14823000  0.76440000  0.24998000  1.0
  C  C67  1  0.23547000  0.38371000  0.25003000  1.0
  C  C68  1  0.61620000  0.85184000  0.24999000  1.0
  C  C69  1  0.76452000  0.61628000  0.74997000  1.0
  C  C70  1  0.38380000  0.14816000  0.75000000  1.0
  C  C71  1  0.85177000  0.23560000  0.75002000  1.0
  C  C72  1  0.79651000  0.60553000  0.25002000  1.0
  C  C73  1  0.39445000  0.19093000  0.24999000  1.0
  C  C74  1  0.80898000  0.20349000  0.24999000  1.0
  C  C75  1  0.60554000  0.80906000  0.75000000  1.0
  C  C76  1  0.19103000  0.79652000  0.75001000  1.0
  C  C77  1  0.20349000  0.39448000  0.74998000  1.0
  O  O78  1  0.63596000  0.58114000  0.10117000  1.0
  O  O79  1  0.41903000  0.05506000  0.10106000  1.0
  O  O80  1  0.94470000  0.36416000  0.10110000  1.0
  O  O81  1  0.58053000  0.94480000  0.60113000  1.0
  O  O82  1  0.05490000  0.63608000  0.60114000  1.0
  O  O83  1  0.36403000  0.41911000  0.60108000  1.0
  O  O84  1  0.36405000  0.41890000  0.89883000  1.0
  O  O85  1  0.58096000  0.94493000  0.89893000  1.0
  O  O86  1  0.05530000  0.63586000  0.89890000  1.0
  O  O87  1  0.41944000  0.05521000  0.39887000  1.0
  O  O88  1  0.94511000  0.36391000  0.39886000  1.0
  O  O89  1  0.63597000  0.58087000  0.39893000  1.0
  O  O90  1  0.83757000  0.57477000  0.02629000  1.0
  O  O91  1  0.42652000  0.26354000  0.02635000  1.0
  O  O92  1  0.73675000  0.16280000  0.02630000  1.0
  O  O93  1  0.57390000  0.73674000  0.52636000  1.0
  O  O94  1  0.26289000  0.83761000  0.52628000  1.0
  O  O95  1  0.16301000  0.42648000  0.52633000  1.0
  O  O96  1  0.16241000  0.42524000  0.97370000  1.0
  O  O97  1  0.57351000  0.73648000  0.97365000  1.0
  O  O98  1  0.26325000  0.83719000  0.97370000  1.0
  O  O99  1  0.42605000  0.26323000  0.47365000  1.0
  O  O100  1  0.73712000  0.16235000  0.47372000  1.0
  O  O101  1  0.83702000  0.57354000  0.47367000  1.0
