# generated using pymatgen
data_InH12(C3O)8
_symmetry_space_group_name_H-M   'P 1'
_cell_length_a   14.58460000
_cell_length_b   14.65350000
_cell_length_c   19.47310000
_cell_angle_alpha   112.01800000
_cell_angle_beta   111.96900000
_cell_angle_gamma   90.04120000
_symmetry_Int_Tables_number   1
_chemical_formula_structural   InH12(C3O)8
_chemical_formula_sum   'In4 H48 C96 O32'
_cell_volume   3529.59178177
_cell_formula_units_Z   4
loop_
 _symmetry_equiv_pos_site_id
 _symmetry_equiv_pos_as_xyz
  1  'x, y, z'
loop_
 _atom_site_type_symbol
 _atom_site_label
 _atom_site_symmetry_multiplicity
 _atom_site_fract_x
 _atom_site_fract_y
 _atom_site_fract_z
 _atom_site_occupancy
  In  In0  1  0.61233000  0.36246000  0.72464000  1.0
  In  In1  1  0.86206000  0.11172000  0.22386000  1.0
  In  In2  1  0.38766000  0.63755000  0.27534000  1.0
  In  In3  1  0.13788000  0.88828000  0.77614000  1.0
  H  H4  1  0.64297000  0.62476000  0.96004000  1.0
  H  H5  1  0.12459000  0.31651000  0.45963000  1.0
  H  H6  1  0.81740000  0.33513000  0.96009000  1.0
  H  H7  1  0.83491000  0.14321000  0.45948000  1.0
  H  H8  1  0.35707000  0.37523000  0.04001000  1.0
  H  H9  1  0.87543000  0.68351000  0.54033000  1.0
  H  H10  1  0.18261000  0.66483000  0.03986000  1.0
  H  H11  1  0.16521000  0.85687000  0.54055000  1.0
  H  H12  1  0.71298000  0.78937000  0.07823000  1.0
  H  H13  1  0.28930000  0.36443000  0.57851000  1.0
  H  H14  1  0.86536000  0.28870000  0.07843000  1.0
  H  H15  1  0.78888000  0.21374000  0.57825000  1.0
  H  H16  1  0.28701000  0.21067000  0.92177000  1.0
  H  H17  1  0.71065000  0.63555000  0.42151000  1.0
  H  H18  1  0.13466000  0.71133000  0.92154000  1.0
  H  H19  1  0.21111000  0.78621000  0.42172000  1.0
  H  H20  1  0.96969000  0.93812000  0.03487000  1.0
  H  H21  1  0.43857000  0.06537000  0.53549000  1.0
  H  H22  1  0.56520000  0.09681000  0.03508000  1.0
  H  H23  1  0.59692000  0.47004000  0.53524000  1.0
  H  H24  1  0.03024000  0.06191000  0.96506000  1.0
  H  H25  1  0.56138000  0.93460000  0.46457000  1.0
  H  H26  1  0.43482000  0.90321000  0.96494000  1.0
  H  H27  1  0.40307000  0.52992000  0.46476000  1.0
  H  H28  1  0.03168000  0.88708000  0.92506000  1.0
  H  H29  1  0.38730000  0.89447000  0.42541000  1.0
  H  H30  1  0.39353000  0.03811000  0.92506000  1.0
  H  H31  1  0.53826000  0.53126000  0.42525000  1.0
  H  H32  1  0.96824000  0.11290000  0.07486000  1.0
  H  H33  1  0.61267000  0.10551000  0.57464000  1.0
  H  H34  1  0.60649000  0.96189000  0.07496000  1.0
  H  H35  1  0.46172000  0.46872000  0.57477000  1.0
  H  H36  1  0.95899000  0.72535000  0.80690000  1.0
  H  H37  1  0.22529000  0.84939000  0.30711000  1.0
  H  H38  1  0.34832000  0.08178000  0.80681000  1.0
  H  H39  1  0.58198000  0.45832000  0.30689000  1.0
  H  H40  1  0.04094000  0.27461000  0.19305000  1.0
  H  H41  1  0.77469000  0.15058000  0.69293000  1.0
  H  H42  1  0.65170000  0.91821000  0.19319000  1.0
  H  H43  1  0.41800000  0.54169000  0.69313000  1.0
  H  H44  1  0.82686000  0.60998000  0.79977000  1.0
  H  H45  1  0.10986000  0.97403000  0.29979000  1.0
  H  H46  1  0.47344000  0.18991000  0.79967000  1.0
  H  H47  1  0.69000000  0.32620000  0.29956000  1.0
  H  H48  1  0.17311000  0.38998000  0.20023000  1.0
  H  H49  1  0.89014000  0.02596000  0.70021000  1.0
  H  H50  1  0.52658000  0.81006000  0.20032000  1.0
  H  H51  1  0.31005000  0.67385000  0.70047000  1.0
  C  C52  1  0.81841000  0.83275000  0.03940000  1.0
  C  C53  1  0.33286000  0.22086000  0.53986000  1.0
  C  C54  1  0.72108000  0.20661000  0.03956000  1.0
  C  C55  1  0.70682000  0.31888000  0.53961000  1.0
  C  C56  1  0.18156000  0.16728000  0.96057000  1.0
  C  C57  1  0.66710000  0.77912000  0.46018000  1.0
  C  C58  1  0.27894000  0.79340000  0.96044000  1.0
  C  C59  1  0.29317000  0.68108000  0.46038000  1.0
  C  C60  1  0.85958000  0.80526000  0.97960000  1.0
  C  C61  1  0.30556000  0.12031000  0.48000000  1.0
  C  C62  1  0.62019000  0.17428000  0.97969000  1.0
  C  C63  1  0.67449000  0.35980000  0.47979000  1.0
  C  C64  1  0.14038000  0.19475000  0.02038000  1.0
  C  C65  1  0.69441000  0.87967000  0.52003000  1.0
  C  C66  1  0.37983000  0.82571000  0.02031000  1.0
  C  C67  1  0.32551000  0.64019000  0.52021000  1.0
  C  C68  1  0.81984000  0.70985000  0.91186000  1.0
  C  C69  1  0.21008000  0.09252000  0.41198000  1.0
  C  C70  1  0.59236000  0.20190000  0.91184000  1.0
  C  C71  1  0.70200000  0.31975000  0.41178000  1.0
  C  C72  1  0.18013000  0.29014000  0.08814000  1.0
  C  C73  1  0.78991000  0.90747000  0.58802000  1.0
  C  C74  1  0.40766000  0.79808000  0.08814000  1.0
  C  C75  1  0.29804000  0.68029000  0.58824000  1.0
  C  C76  1  0.74153000  0.64574000  0.90623000  1.0
  C  C77  1  0.14594000  0.16492000  0.40603000  1.0
  C  C78  1  0.66510000  0.26029000  0.90620000  1.0
  C  C79  1  0.76012000  0.24135000  0.40585000  1.0
  C  C80  1  0.25847000  0.35424000  0.09379000  1.0
  C  C81  1  0.85407000  0.83508000  0.59394000  1.0
  C  C82  1  0.33492000  0.73966000  0.09376000  1.0
  C  C83  1  0.23996000  0.75872000  0.59419000  1.0
  C  C84  1  0.70364000  0.67439000  0.96583000  1.0
  C  C85  1  0.17437000  0.26194000  0.46568000  1.0
  C  C86  1  0.76252000  0.29125000  0.96586000  1.0
  C  C87  1  0.79119000  0.20382000  0.46550000  1.0
  C  C88  1  0.29638000  0.32560000  0.03419000  1.0
  C  C89  1  0.82563000  0.73806000  0.53430000  1.0
  C  C90  1  0.23749000  0.70871000  0.03410000  1.0
  C  C91  1  0.20888000  0.79623000  0.53452000  1.0
  C  C92  1  0.74255000  0.76628000  0.03171000  1.0
  C  C93  1  0.26623000  0.28870000  0.53192000  1.0
  C  C94  1  0.78934000  0.26531000  0.03185000  1.0
  C  C95  1  0.76546000  0.24307000  0.53170000  1.0
  C  C96  1  0.25743000  0.23374000  0.96828000  1.0
  C  C97  1  0.73374000  0.71128000  0.46810000  1.0
  C  C98  1  0.21068000  0.73469000  0.96813000  1.0
  C  C99  1  0.23456000  0.75691000  0.46830000  1.0
  C  C100  1  0.93785000  0.86700000  0.98301000  1.0
  C  C101  1  0.36735000  0.04569000  0.48349000  1.0
  C  C102  1  0.54530000  0.11603000  0.98313000  1.0
  C  C103  1  0.61624000  0.43794000  0.48329000  1.0
  C  C104  1  0.06209000  0.13301000  0.01693000  1.0
  C  C105  1  0.63262000  0.95430000  0.51655000  1.0
  C  C106  1  0.45472000  0.88397000  0.01688000  1.0
  C  C107  1  0.38376000  0.56204000  0.51673000  1.0
  C  C108  1  0.97258000  0.83805000  0.92180000  1.0
  C  C109  1  0.33830000  0.95021000  0.42216000  1.0
  C  C110  1  0.44944000  0.08381000  0.92181000  1.0
  C  C111  1  0.58404000  0.47230000  0.42197000  1.0
  C  C112  1  0.02736000  0.16194000  0.07815000  1.0
  C  C113  1  0.66167000  0.04977000  0.57788000  1.0
  C  C114  1  0.55057000  0.91619000  0.07820000  1.0
  C  C115  1  0.41596000  0.52769000  0.57805000  1.0
  C  C116  1  0.93172000  0.74604000  0.85483000  1.0
  C  C117  1  0.24612000  0.92428000  0.35505000  1.0
  C  C118  1  0.42348000  0.10888000  0.85477000  1.0
  C  C119  1  0.60912000  0.43128000  0.35486000  1.0
  C  C120  1  0.06822000  0.25393000  0.14513000  1.0
  C  C121  1  0.75386000  0.07570000  0.64498000  1.0
  C  C122  1  0.57654000  0.89111000  0.14524000  1.0
  C  C123  1  0.39089000  0.56873000  0.64516000  1.0
  C  C124  1  0.85732000  0.68250000  0.85061000  1.0
  C  C125  1  0.18256000  0.99423000  0.35070000  1.0
  C  C126  1  0.49371000  0.16812000  0.85052000  1.0
  C  C127  1  0.66827000  0.35693000  0.35050000  1.0
  C  C128  1  0.14264000  0.31748000  0.14938000  1.0
  C  C129  1  0.81743000  0.00575000  0.64931000  1.0
  C  C130  1  0.50630000  0.83186000  0.14947000  1.0
  C  C131  1  0.33176000  0.64311000  0.64952000  1.0
  C  C132  1  0.84591000  0.93238000  0.10946000  1.0
  C  C133  1  0.43265000  0.26340000  0.61015000  1.0
  C  C134  1  0.76359000  0.17690000  0.10960000  1.0
  C  C135  1  0.67720000  0.34651000  0.60986000  1.0
  C  C136  1  0.15404000  0.06764000  0.89051000  1.0
  C  C137  1  0.56731000  0.73659000  0.38990000  1.0
  C  C138  1  0.23643000  0.82315000  0.89042000  1.0
  C  C139  1  0.32277000  0.65342000  0.39011000  1.0
  C  C140  1  0.69666000  0.54648000  0.83718000  1.0
  C  C141  1  0.04671000  0.14070000  0.33658000  1.0
  C  C142  1  0.64093000  0.29055000  0.83710000  1.0
  C  C143  1  0.79013000  0.19616000  0.33651000  1.0
  C  C144  1  0.30336000  0.45349000  0.16284000  1.0
  C  C145  1  0.95332000  0.85932000  0.66336000  1.0
  C  C146  1  0.35908000  0.70941000  0.16286000  1.0
  C  C147  1  0.20998000  0.80398000  0.66355000  1.0
  O  O148  1  0.75096000  0.47850000  0.82700000  1.0
  O  O149  1  0.97819000  0.07651000  0.32627000  1.0
  O  O150  1  0.57652000  0.34849000  0.82702000  1.0
  O  O151  1  0.84840000  0.24992000  0.32617000  1.0
  O  O152  1  0.24907000  0.52149000  0.17301000  1.0
  O  O153  1  0.02183000  0.92348000  0.67362000  1.0
  O  O154  1  0.42351000  0.65150000  0.17298000  1.0
  O  O155  1  0.15172000  0.75022000  0.67391000  1.0
  O  O156  1  0.90481000  0.00473000  0.11883000  1.0
  O  O157  1  0.50526000  0.21422000  0.61988000  1.0
  O  O158  1  0.71411000  0.11386000  0.11898000  1.0
  O  O159  1  0.61428000  0.40539000  0.61949000  1.0
  O  O160  1  0.09512000  0.99531000  0.88113000  1.0
  O  O161  1  0.49469000  0.78576000  0.38019000  1.0
  O  O162  1  0.28590000  0.88619000  0.88104000  1.0
  O  O163  1  0.38571000  0.59457000  0.38050000  1.0
  O  O164  1  0.80420000  0.94494000  0.15906000  1.0
  O  O165  1  0.44510000  0.35446000  0.65950000  1.0
  O  O166  1  0.85490000  0.21380000  0.15914000  1.0
  O  O167  1  0.71414000  0.30485000  0.65933000  1.0
  O  O168  1  0.19577000  0.05507000  0.84093000  1.0
  O  O169  1  0.55488000  0.64556000  0.34050000  1.0
  O  O170  1  0.14511000  0.78626000  0.84089000  1.0
  O  O171  1  0.28581000  0.69505000  0.34062000  1.0
  O  O172  1  0.60399000  0.53107000  0.79199000  1.0
  O  O173  1  0.03174000  0.18764000  0.29125000  1.0
  O  O174  1  0.68830000  0.26080000  0.79184000  1.0
  O  O175  1  0.75997000  0.10390000  0.29138000  1.0
  O  O176  1  0.39603000  0.46891000  0.20803000  1.0
  O  O177  1  0.96830000  0.81244000  0.70874000  1.0
  O  O178  1  0.31170000  0.73916000  0.20811000  1.0
  O  O179  1  0.24012000  0.89623000  0.70865000  1.0
