# generated using pymatgen
data_Tb2H18(C3O8)3
_symmetry_space_group_name_H-M   'P 1'
_cell_length_a   8.79261000
_cell_length_b   8.79261000
_cell_length_c   8.79260000
_cell_angle_alpha   66.24960000
_cell_angle_beta   66.24950000
_cell_angle_gamma   66.24960000
_symmetry_Int_Tables_number   1
_chemical_formula_structural   Tb2H18(C3O8)3
_chemical_formula_sum   'Tb2 H18 C9 O24'
_cell_volume   545.51422992
_cell_formula_units_Z   1
loop_
 _symmetry_equiv_pos_site_id
 _symmetry_equiv_pos_as_xyz
  1  'x, y, z'
loop_
 _atom_site_type_symbol
 _atom_site_label
 _atom_site_symmetry_multiplicity
 _atom_site_fract_x
 _atom_site_fract_y
 _atom_site_fract_z
 _atom_site_occupancy
  Tb  Tb0  1  0.73215000  0.73215000  0.73215000  1.0
  Tb  Tb1  1  0.26785000  0.26785000  0.26785000  1.0
  H  H2  1  0.82492000  0.69042000  0.05016000  1.0
  H  H3  1  0.69041000  0.05016000  0.82492000  1.0
  H  H4  1  0.05016000  0.82492000  0.69041000  1.0
  H  H5  1  0.17509000  0.94984000  0.30958000  1.0
  H  H6  1  0.30958000  0.17508000  0.94984000  1.0
  H  H7  1  0.94984000  0.30958000  0.17509000  1.0
  H  H8  1  0.78397000  0.72649000  0.36188000  1.0
  H  H9  1  0.72650000  0.36188000  0.78397000  1.0
  H  H10  1  0.36188000  0.78397000  0.72650000  1.0
  H  H11  1  0.21603000  0.63812000  0.27350000  1.0
  H  H12  1  0.27350000  0.21603000  0.63812000  1.0
  H  H13  1  0.63812000  0.27351000  0.21603000  1.0
  H  H14  1  0.87420000  0.54269000  0.47516000  1.0
  H  H15  1  0.54269000  0.47516000  0.87420000  1.0
  H  H16  1  0.47516000  0.87420000  0.54269000  1.0
  H  H17  1  0.12580000  0.52484000  0.45731000  1.0
  H  H18  1  0.45731000  0.12580000  0.52484000  1.0
  H  H19  1  0.52484000  0.45731000  0.12580000  1.0
  C  C20  1  0.03592000  0.50000000  0.96408000  1.0
  C  C21  1  0.50000000  0.96408000  0.03592000  1.0
  C  C22  1  0.96408000  0.03592000  0.50000000  1.0
  C  C23  1  0.08480000  0.41790000  0.81638000  1.0
  C  C24  1  0.41790000  0.81638000  0.08480000  1.0
  C  C25  1  0.81638000  0.08480000  0.41790000  1.0
  C  C26  1  0.91521000  0.18362000  0.58210000  1.0
  C  C27  1  0.58210000  0.91521000  0.18362000  1.0
  C  C28  1  0.18362000  0.58210000  0.91521000  1.0
  O  O29  1  0.87306000  0.62183000  0.96237000  1.0
  O  O30  1  0.62182000  0.96237000  0.87306000  1.0
  O  O31  1  0.96236000  0.87306000  0.62183000  1.0
  O  O32  1  0.12694000  0.03763000  0.37818000  1.0
  O  O33  1  0.37817000  0.12694000  0.03764000  1.0
  O  O34  1  0.03763000  0.37818000  0.12694000  1.0
  O  O35  1  0.81932000  0.66586000  0.47103000  1.0
  O  O36  1  0.66586000  0.47103000  0.81932000  1.0
  O  O37  1  0.47103000  0.81932000  0.66586000  1.0
  O  O38  1  0.18068000  0.52897000  0.33414000  1.0
  O  O39  1  0.33414000  0.18068000  0.52897000  1.0
  O  O40  1  0.52897000  0.33414000  0.18068000  1.0
  O  O41  1  0.00978000  0.50727000  0.69866000  1.0
  O  O42  1  0.50727000  0.69865000  0.00978000  1.0
  O  O43  1  0.69866000  0.00978000  0.50727000  1.0
  O  O44  1  0.99022000  0.30134000  0.49273000  1.0
  O  O45  1  0.49273000  0.99022000  0.30134000  1.0
  O  O46  1  0.30134000  0.49273000  0.99022000  1.0
  O  O47  1  0.20022000  0.27343000  0.81920000  1.0
  O  O48  1  0.27343000  0.81920000  0.20022000  1.0
  O  O49  1  0.81920000  0.20022000  0.27343000  1.0
  O  O50  1  0.79978000  0.18080000  0.72657000  1.0
  O  O51  1  0.72657000  0.79978000  0.18081000  1.0
  O  O52  1  0.18081000  0.72657000  0.79978000  1.0
