# generated using pymatgen
data_NdMn2H15C21O13
_symmetry_space_group_name_H-M   'P 1'
_cell_length_a   6.90709000
_cell_length_b   11.67790000
_cell_length_c   15.00700000
_cell_angle_alpha   89.97000000
_cell_angle_beta   89.14640000
_cell_angle_gamma   85.14190000
_symmetry_Int_Tables_number   1
_chemical_formula_structural   NdMn2H15C21O13
_chemical_formula_sum   'Nd2 Mn4 H30 C42 O26'
_cell_volume   1205.98641931
_cell_formula_units_Z   2
loop_
 _symmetry_equiv_pos_site_id
 _symmetry_equiv_pos_as_xyz
  1  'x, y, z'
loop_
 _atom_site_type_symbol
 _atom_site_label
 _atom_site_symmetry_multiplicity
 _atom_site_fract_x
 _atom_site_fract_y
 _atom_site_fract_z
 _atom_site_occupancy
  Nd  Nd0  1  0.25596000  0.06018000  0.43556000  1.0
  Nd  Nd1  1  0.74406000  0.93982000  0.56444000  1.0
  Mn  Mn2  1  0.10413000  0.24148000  0.07938000  1.0
  Mn  Mn3  1  0.89587000  0.75852000  0.92062000  1.0
  Mn  Mn4  1  0.50788000  0.36629000  0.74032000  1.0
  Mn  Mn5  1  0.49211000  0.63370000  0.25968000  1.0
  H  H6  1  0.88643000  0.19786000  0.49564000  1.0
  H  H7  1  0.11358000  0.80214000  0.50436000  1.0
  H  H8  1  0.24901000  0.00158000  0.08735000  1.0
  H  H9  1  0.75099000  0.99843000  0.91266000  1.0
  H  H10  1  0.32940000  0.11953000  0.93828000  1.0
  H  H11  1  0.67059000  0.88047000  0.06172000  1.0
  H  H12  1  0.43798000  0.32832000  0.99017000  1.0
  H  H13  1  0.56201000  0.67169000  0.00983000  1.0
  H  H14  1  0.42356000  0.33612000  0.16894000  1.0
  H  H15  1  0.57645000  0.66389000  0.83106000  1.0
  H  H16  1  0.87944000  0.29729000  0.66149000  1.0
  H  H17  1  0.12056000  0.70271000  0.33851000  1.0
  H  H18  1  0.82699000  0.51238000  0.72920000  1.0
  H  H19  1  0.17301000  0.48762000  0.27081000  1.0
  H  H20  1  0.47297000  0.60506000  0.67902000  1.0
  H  H21  1  0.52703000  0.39494000  0.32098000  1.0
  H  H22  1  0.30735000  0.44558000  0.58011000  1.0
  H  H23  1  0.69266000  0.55442000  0.41988000  1.0
  H  H24  1  0.66348000  0.00288000  0.23810000  1.0
  H  H25  1  0.33653000  0.99713000  0.76191000  1.0
  H  H26  1  0.75149000  0.13493000  0.26901000  1.0
  H  H27  1  0.24851000  0.86508000  0.73100000  1.0
  H  H28  1  0.92158000  0.01398000  0.24698000  1.0
  H  H29  1  0.07842000  0.98604000  0.75302000  1.0
  H  H30  1  0.02475000  0.37568000  0.51458000  1.0
  H  H31  1  0.97526000  0.62432000  0.48542000  1.0
  H  H32  1  0.87256000  0.37930000  0.41819000  1.0
  H  H33  1  0.12745000  0.62069000  0.58181000  1.0
  H  H34  1  0.13003000  0.35283000  0.40567000  1.0
  H  H35  1  0.86998000  0.64716000  0.59433000  1.0
  C  C36  1  0.29974000  0.12707000  0.25478000  1.0
  C  C37  1  0.70027000  0.87293000  0.74522000  1.0
  C  C38  1  0.32625000  0.15816000  0.16001000  1.0
  C  C39  1  0.67376000  0.84184000  0.83999000  1.0
  C  C40  1  0.29603000  0.08776000  0.08432000  1.0
  C  C41  1  0.70399000  0.91224000  0.91568000  1.0
  C  C42  1  0.33924000  0.15030000  0.00609000  1.0
  C  C43  1  0.66076000  0.84970000  0.99391000  1.0
  C  C44  1  0.39656000  0.25990000  0.03335000  1.0
  C  C45  1  0.60343000  0.74011000  0.96665000  1.0
  C  C46  1  0.38855000  0.26506000  0.12763000  1.0
  C  C47  1  0.61145000  0.73495000  0.87237000  1.0
  C  C48  1  0.55594000  0.22759000  0.55522000  1.0
  C  C49  1  0.44407000  0.77241000  0.44477000  1.0
  C  C50  1  0.58427000  0.33588000  0.60331000  1.0
  C  C51  1  0.41574000  0.66412000  0.39669000  1.0
  C  C52  1  0.75361000  0.35809000  0.65240000  1.0
  C  C53  1  0.24639000  0.64191000  0.34761000  1.0
  C  C54  1  0.72486000  0.47103000  0.68839000  1.0
  C  C55  1  0.27514000  0.52897000  0.31162000  1.0
  C  C56  1  0.53633000  0.51941000  0.66207000  1.0
  C  C57  1  0.46368000  0.48059000  0.33792000  1.0
  C  C58  1  0.44955000  0.43654000  0.61027000  1.0
  C  C59  1  0.55046000  0.56346000  0.38973000  1.0
  C  C60  1  0.90884000  0.15372000  0.07049000  1.0
  C  C61  1  0.09116000  0.84628000  0.92952000  1.0
  C  C62  1  0.00986000  0.33527000  0.99364000  1.0
  C  C63  1  0.99012000  0.66473000  0.00636000  1.0
  C  C64  1  0.98592000  0.32469000  0.16600000  1.0
  C  C65  1  0.01407000  0.67531000  0.83400000  1.0
  C  C66  1  0.63297000  0.26046000  0.80873000  1.0
  C  C67  1  0.36703000  0.73955000  0.19126000  1.0
  C  C68  1  0.43528000  0.44817000  0.83636000  1.0
  C  C69  1  0.56470000  0.55182000  0.16363000  1.0
  C  C70  1  0.29325000  0.29306000  0.74383000  1.0
  C  C71  1  0.70675000  0.70694000  0.25617000  1.0
  C  C72  1  0.76614000  0.00986000  0.37114000  1.0
  C  C73  1  0.23387000  0.99014000  0.62885000  1.0
  C  C74  1  0.77785000  0.04101000  0.27484000  1.0
  C  C75  1  0.22216000  0.95900000  0.72516000  1.0
  C  C76  1  0.00497000  0.33835000  0.44841000  1.0
  C  C77  1  0.99503000  0.66165000  0.55159000  1.0
  O  O78  1  0.33022000  0.20045000  0.31534000  1.0
  O  O79  1  0.66979000  0.79956000  0.68466000  1.0
  O  O80  1  0.25037000  0.02656000  0.27394000  1.0
  O  O81  1  0.74962000  0.97345000  0.72605000  1.0
  O  O82  1  0.39650000  0.21776000  0.51720000  1.0
  O  O83  1  0.60350000  0.78223000  0.48280000  1.0
  O  O84  1  0.70250000  0.15142000  0.55500000  1.0
  O  O85  1  0.29751000  0.84858000  0.44500000  1.0
  O  O86  1  0.78446000  0.09210000  0.06527000  1.0
  O  O87  1  0.21555000  0.90790000  0.93473000  1.0
  O  O88  1  0.95173000  0.39508000  0.93589000  1.0
  O  O89  1  0.04822000  0.60491000  0.06411000  1.0
  O  O90  1  0.91168000  0.37614000  0.22626000  1.0
  O  O91  1  0.08830000  0.62386000  0.77374000  1.0
  O  O92  1  0.71555000  0.19290000  0.85474000  1.0
  O  O93  1  0.28444000  0.80710000  0.14527000  1.0
  O  O94  1  0.39063000  0.50178000  0.90036000  1.0
  O  O95  1  0.60934000  0.49822000  0.09964000  1.0
  O  O96  1  0.15344000  0.24298000  0.74505000  1.0
  O  O97  1  0.84655000  0.75701000  0.25494000  1.0
  O  O98  1  0.60050000  0.00566000  0.40989000  1.0
  O  O99  1  0.39951000  0.99434000  0.59011000  1.0
  O  O100  1  0.92004000  0.98701000  0.41672000  1.0
  O  O101  1  0.07996000  0.01299000  0.58328000  1.0
  O  O102  1  0.99392000  0.21667000  0.45411000  1.0
  O  O103  1  0.00609000  0.78333000  0.54589000  1.0
