# generated using pymatgen
data_Zn4H37C60N16Cl3O4
_symmetry_space_group_name_H-M   'P 1'
_cell_length_a   13.61230000
_cell_length_b   15.14370000
_cell_length_c   16.89330000
_cell_angle_alpha   109.74500000
_cell_angle_beta   102.78900000
_cell_angle_gamma   108.76900000
_symmetry_Int_Tables_number   1
_chemical_formula_structural   Zn4H37C60N16Cl3O4
_chemical_formula_sum   'Zn4 H37 C60 N16 Cl3 O4'
_cell_volume   2882.65310352
_cell_formula_units_Z   1
loop_
 _symmetry_equiv_pos_site_id
 _symmetry_equiv_pos_as_xyz
  1  'x, y, z'
loop_
 _atom_site_type_symbol
 _atom_site_label
 _atom_site_symmetry_multiplicity
 _atom_site_fract_x
 _atom_site_fract_y
 _atom_site_fract_z
 _atom_site_occupancy
  Zn  Zn0  1  0.39229000  0.02302000  0.90285000  1.0
  Zn  Zn1  1  0.62486000  0.99636000  0.11084000  1.0
  Zn  Zn2  1  0.35133000  0.89331000  0.01794000  1.0
  Zn  Zn3  1  0.66948000  0.13701000  0.99953000  1.0
  H  H4  1  0.25841000  0.15104000  0.95381000  1.0
  H  H5  1  0.78090000  0.71969000  0.02523000  1.0
  H  H6  1  0.58495000  0.13864000  0.27276000  1.0
  H  H7  1  0.99933000  0.72350000  0.58197000  1.0
  H  H8  1  0.98606000  0.54110000  0.73153000  1.0
  H  H9  1  0.87376000  0.63999000  0.42100000  1.0
  H  H10  1  0.84003000  0.38748000  0.59800000  1.0
  H  H11  1  0.74172000  0.48177000  0.28342000  1.0
  H  H12  1  0.63495000  0.88273000  0.39201000  1.0
  H  H13  1  0.29008000  0.81122000  0.16846000  1.0
  H  H14  1  0.73181000  0.90316000  0.54406000  1.0
  H  H15  1  0.67533000  0.82286000  0.98855000  1.0
  H  H16  1  0.26698000  0.72013000  0.41257000  1.0
  H  H17  1  0.72495000  0.92174000  0.69059000  1.0
  H  H18  1  0.36391000  0.78060000  0.57755000  1.0
  H  H19  1  0.02698000  0.96240000  0.07433000  1.0
  H  H20  1  0.81490000  0.83829000  0.97640000  1.0
  H  H21  1  0.98681000  0.84331000  0.74296000  1.0
  H  H22  1  0.13090000  0.02310000  0.82633000  1.0
  H  H23  1  0.71435000  0.36156000  0.97596000  1.0
  H  H24  1  0.03038000  0.06972000  0.79258000  1.0
  H  H25  1  0.64810000  0.91539000  0.27336000  1.0
  H  H26  1  0.10018000  0.68568000  0.86135000  1.0
  H  H27  1  0.35346000  0.20344000  0.85548000  1.0
  H  H28  1  0.71170000  0.34905000  0.15972000  1.0
  H  H29  1  0.18802000  0.96107000  0.09502000  1.0
  H  H30  1  0.36008000  0.83511000  0.72353000  1.0
  H  H31  1  0.77424000  0.96686000  0.82772000  1.0
  H  H32  1  0.65346000  0.73020000  0.13687000  1.0
  H  H33  1  0.19338000  0.69488000  0.27124000  1.0
  H  H34  1  0.82444000  0.82030000  0.63848000  1.0
  H  H35  1  0.91095000  0.13852000  0.99180000  1.0
  H  H36  1  0.84310000  0.95528000  0.13872000  1.0
  H  H37  1  0.17661000  0.85659000  0.70586000  1.0
  H  H38  1  0.31424000  0.66732000  0.88782000  1.0
  H  H39  1  0.36417000  0.33840000  0.80356000  1.0
  H  H40  1  0.34642000  0.49410000  0.80642000  1.0
  C  C41  1  0.25691000  0.10163000  0.98787000  1.0
  C  C42  1  0.17222000  0.82796000  0.75655000  1.0
  C  C43  1  0.63173000  0.97048000  0.82015000  1.0
  C  C44  1  0.61177000  0.17736000  0.23289000  1.0
  C  C45  1  0.40221000  0.72098000  0.91682000  1.0
  C  C46  1  0.54147000  0.89397000  0.73852000  1.0
  C  C47  1  0.49708000  0.70076000  0.92482000  1.0
  C  C48  1  0.09779000  0.73248000  0.74748000  1.0
  C  C49  1  0.91366000  0.03169000  0.05700000  1.0
  C  C50  1  0.61141000  0.51713000  0.96632000  1.0
  C  C51  1  0.52774000  0.41610000  0.90936000  1.0
  C  C52  1  0.66807000  0.28413000  0.25675000  1.0
  C  C53  1  0.43329000  0.41383000  0.85137000  1.0
  C  C54  1  0.42305000  0.50326000  0.85271000  1.0
  C  C55  1  0.50745000  0.60466000  0.91177000  1.0
  C  C56  1  0.37900000  0.84207000  0.18279000  1.0
  C  C57  1  0.60232000  0.60630000  0.96671000  1.0
  C  C58  1  0.71341000  0.68144000  0.04471000  1.0
  C  C59  1  0.71916000  0.57811000  0.04767000  1.0
  C  C60  1  0.00634000  0.64449000  0.66685000  1.0
  C  C61  1  0.72727000  0.37591000  0.34500000  1.0
  C  C62  1  0.84292000  0.56547000  0.42380000  1.0
  C  C63  1  0.46396000  0.84493000  0.25011000  1.0
  C  C64  1  0.76893000  0.47652000  0.34673000  1.0
  C  C65  1  0.75906000  0.37355000  0.42856000  1.0
  C  C66  1  0.83649000  0.46368000  0.51013000  1.0
  C  C67  1  0.88216000  0.56169000  0.50731000  1.0
  C  C68  1  0.62650000  0.30789000  0.94793000  1.0
  C  C69  1  0.96576000  0.65005000  0.58632000  1.0
  C  C70  1  0.95697000  0.54747000  0.66906000  1.0
  C  C71  1  0.87485000  0.46062000  0.59398000  1.0
  C  C72  1  0.45721000  0.81596000  0.32367000  1.0
  C  C73  1  0.54307000  0.85680000  0.64701000  1.0
  C  C74  1  0.53246000  0.32301000  0.91292000  1.0
  C  C75  1  0.65084000  0.87570000  0.55075000  1.0
  C  C76  1  0.64660000  0.88581000  0.63375000  1.0
  C  C77  1  0.44500000  0.80597000  0.57074000  1.0
  C  C78  1  0.44677000  0.79576000  0.48474000  1.0
  C  C79  1  0.55194000  0.83632000  0.47511000  1.0
  C  C80  1  0.56148000  0.89467000  0.23656000  1.0
  C  C81  1  0.55355000  0.84494000  0.39483000  1.0
  C  C82  1  0.35300000  0.76497000  0.33067000  1.0
  C  C83  1  0.34834000  0.75549000  0.40836000  1.0
  C  C84  1  0.00357000  0.00839000  0.89159000  1.0
  C  C85  1  0.44807000  0.88502000  0.76384000  1.0
  C  C86  1  0.05355000  0.02441000  0.97962000  1.0
  C  C87  1  0.97915000  0.97455000  0.02068000  1.0
  C  C88  1  0.87171000  0.87008000  0.94642000  1.0
  C  C89  1  0.84643000  0.84549000  0.85878000  1.0
  C  C90  1  0.90813000  0.90972000  0.83028000  1.0
  C  C91  1  0.95263000  0.90139000  0.75367000  1.0
  C  C92  1  0.44250000  0.22708000  0.88551000  1.0
  C  C93  1  0.04498000  0.01380000  0.81570000  1.0
  C  C94  1  0.67499000  0.28411000  0.17433000  1.0
  C  C95  1  0.22216000  0.00750000  0.06234000  1.0
  C  C96  1  0.58650000  0.80036000  0.96874000  1.0
  C  C97  1  0.17240000  0.05301000  0.01526000  1.0
  C  C98  1  0.13400000  0.74068000  0.83568000  1.0
  C  C99  1  0.88170000  0.10047000  0.03160000  1.0
  C  C100  1  0.84746000  0.00704000  0.10656000  1.0
  N  N101  1  0.34498000  0.08006000  0.01076000  1.0
  N  N102  1  0.42257000  0.88642000  0.13416000  1.0
  N  N103  1  0.59479000  0.21122000  0.94120000  1.0
  N  N104  1  0.53610000  0.91897000  0.16747000  1.0
  N  N105  1  0.47995000  0.16101000  0.90288000  1.0
  N  N106  1  0.63065000  0.18615000  0.10939000  1.0
  N  N107  1  0.32274000  0.02127000  0.05678000  1.0
  N  N108  1  0.48028000  0.95218000  0.85119000  1.0
  N  N109  1  0.54840000  0.87348000  0.98775000  1.0
  N  N110  1  0.22181000  0.83283000  0.89186000  1.0
  N  N111  1  0.80148000  0.11411000  0.06165000  1.0
  N  N112  1  0.77998000  0.05566000  0.10870000  1.0
  N  N113  1  0.24553000  0.88730000  0.84267000  1.0
  N  N114  1  0.59374000  0.00453000  0.88598000  1.0
  N  N115  1  0.43485000  0.82460000  0.95568000  1.0
  N  N116  1  0.59153000  0.11998000  0.14512000  1.0
  Cl  Cl117  1  0.84112000  0.56374000  0.03337000  1.0
  Cl  Cl118  1  0.70799000  0.56690000  0.14773000  1.0
  Cl  Cl119  1  0.71058000  0.25695000  0.43666000  1.0
  O  O120  1  0.74293000  0.01801000  0.83853000  1.0
  O  O121  1  0.71857000  0.75889000  0.12243000  1.0
  O  O122  1  0.25700000  0.72814000  0.25732000  1.0
  O  O123  1  0.88571000  0.89003000  0.67011000  1.0
