# generated using pymatgen
data_MnH7C11O5
_symmetry_space_group_name_H-M   'P 1'
_cell_length_a   9.80292000
_cell_length_b   10.06720000
_cell_length_c   12.02160000
_cell_angle_alpha   110.02400000
_cell_angle_beta   100.78600000
_cell_angle_gamma   91.80610000
_symmetry_Int_Tables_number   1
_chemical_formula_structural   MnH7C11O5
_chemical_formula_sum   'Mn4 H28 C44 O20'
_cell_volume   1089.08685833
_cell_formula_units_Z   4
loop_
 _symmetry_equiv_pos_site_id
 _symmetry_equiv_pos_as_xyz
  1  'x, y, z'
loop_
 _atom_site_type_symbol
 _atom_site_label
 _atom_site_symmetry_multiplicity
 _atom_site_fract_x
 _atom_site_fract_y
 _atom_site_fract_z
 _atom_site_occupancy
  Mn  Mn0  1  0.63331000  0.39182000  0.46068000  1.0
  Mn  Mn1  1  0.36668000  0.60819000  0.53932000  1.0
  Mn  Mn2  1  0.54587000  0.09506000  0.22710000  1.0
  Mn  Mn3  1  0.45414000  0.90495000  0.77290000  1.0
  H  H4  1  0.33929000  0.08645000  0.03360000  1.0
  H  H5  1  0.66070000  0.91354000  0.96640000  1.0
  H  H6  1  0.26316000  0.02565000  0.11587000  1.0
  H  H7  1  0.73684000  0.97437000  0.88413000  1.0
  H  H8  1  0.60017000  0.22093000  0.58945000  1.0
  H  H9  1  0.39985000  0.77906000  0.41055000  1.0
  H  H10  1  0.68611000  0.35686000  0.68944000  1.0
  H  H11  1  0.31389000  0.64314000  0.31056000  1.0
  H  H12  1  0.31194000  0.98101000  0.31811000  1.0
  H  H13  1  0.68806000  0.01899000  0.68189000  1.0
  H  H14  1  0.87054000  0.93327000  0.31202000  1.0
  H  H15  1  0.12945000  0.06674000  0.68798000  1.0
  H  H16  1  0.08820000  0.34985000  0.42466000  1.0
  H  H17  1  0.91179000  0.65015000  0.57534000  1.0
  H  H18  1  0.23660000  0.78415000  0.14868000  1.0
  H  H19  1  0.76339000  0.21586000  0.85132000  1.0
  H  H20  1  0.08766000  0.36714000  0.12756000  1.0
  H  H21  1  0.91235000  0.63286000  0.87244000  1.0
  H  H22  1  0.95281000  0.47789000  0.28442000  1.0
  H  H23  1  0.04720000  0.52210000  0.71559000  1.0
  H  H24  1  0.94753000  0.73831000  0.36498000  1.0
  H  H25  1  0.05247000  0.26169000  0.63502000  1.0
  H  H26  1  0.25189000  0.69653000  0.97872000  1.0
  H  H27  1  0.74813000  0.30347000  0.02128000  1.0
  H  H28  1  0.44484000  0.35657000  0.76173000  1.0
  H  H29  1  0.55515000  0.64342000  0.23827000  1.0
  H  H30  1  0.26672000  0.30141000  0.04628000  1.0
  H  H31  1  0.73328000  0.69860000  0.95372000  1.0
  C  C32  1  0.34261000  0.26864000  0.39391000  1.0
  C  C33  1  0.65738000  0.73137000  0.60610000  1.0
  C  C34  1  0.21284000  0.17418000  0.37118000  1.0
  C  C35  1  0.78715000  0.82583000  0.62882000  1.0
  C  C36  1  0.21365000  0.02594000  0.33075000  1.0
  C  C37  1  0.78635000  0.97406000  0.66924000  1.0
  C  C38  1  0.09105000  0.93634000  0.30819000  1.0
  C  C39  1  0.90894000  0.06366000  0.69181000  1.0
  C  C40  1  0.96823000  0.99895000  0.32981000  1.0
  C  C41  1  0.03175000  0.00105000  0.67018000  1.0
  C  C42  1  0.96720000  0.14687000  0.37201000  1.0
  C  C43  1  0.03279000  0.85314000  0.62800000  1.0
  C  C44  1  0.08938000  0.23484000  0.39222000  1.0
  C  C45  1  0.91061000  0.76516000  0.60778000  1.0
  C  C46  1  0.83491000  0.21021000  0.39410000  1.0
  C  C47  1  0.16508000  0.78979000  0.60591000  1.0
  C  C48  1  0.08977000  0.77960000  0.26000000  1.0
  C  C49  1  0.91022000  0.22040000  0.74000000  1.0
  C  C50  1  0.17035000  0.71608000  0.17484000  1.0
  C  C51  1  0.82965000  0.28392000  0.82515000  1.0
  C  C52  1  0.16986000  0.56755000  0.12334000  1.0
  C  C53  1  0.83014000  0.43246000  0.87667000  1.0
  C  C54  1  0.09052000  0.48254000  0.16493000  1.0
  C  C55  1  0.90949000  0.51746000  0.83506000  1.0
  C  C56  1  0.01247000  0.54461000  0.25179000  1.0
  C  C57  1  0.98753000  0.45539000  0.74821000  1.0
  C  C58  1  0.00925000  0.69157000  0.29738000  1.0
  C  C59  1  0.99076000  0.30843000  0.70262000  1.0
  C  C60  1  0.24783000  0.50657000  0.02608000  1.0
  C  C61  1  0.75217000  0.49344000  0.97392000  1.0
  C  C62  1  0.28192000  0.58923000  0.96005000  1.0
  C  C63  1  0.71809000  0.41078000  0.03996000  1.0
  C  C64  1  0.35212000  0.53636000  0.86592000  1.0
  C  C65  1  0.64789000  0.46363000  0.13407000  1.0
  C  C66  1  0.39086000  0.39846000  0.83580000  1.0
  C  C67  1  0.60914000  0.60154000  0.16420000  1.0
  C  C68  1  0.36018000  0.31455000  0.90127000  1.0
  C  C69  1  0.63982000  0.68545000  0.09873000  1.0
  C  C70  1  0.28813000  0.36795000  0.99536000  1.0
  C  C71  1  0.71186000  0.63205000  0.00464000  1.0
  C  C72  1  0.40461000  0.16826000  0.86605000  1.0
  C  C73  1  0.59539000  0.83174000  0.13395000  1.0
  C  C74  1  0.38402000  0.62625000  0.79615000  1.0
  C  C75  1  0.61599000  0.37374000  0.20385000  1.0
  O  O76  1  0.33665000  0.40143000  0.42370000  1.0
  O  O77  1  0.66334000  0.59857000  0.57630000  1.0
  O  O78  1  0.45845000  0.21284000  0.38399000  1.0
  O  O79  1  0.54154000  0.78715000  0.61601000  1.0
  O  O80  1  0.33796000  0.09392000  0.11996000  1.0
  O  O81  1  0.66204000  0.90609000  0.88004000  1.0
  O  O82  1  0.61739000  0.32351000  0.61258000  1.0
  O  O83  1  0.38261000  0.67648000  0.38742000  1.0
  O  O84  1  0.83752000  0.34536000  0.43890000  1.0
  O  O85  1  0.16248000  0.65464000  0.56113000  1.0
  O  O86  1  0.72330000  0.12642000  0.36805000  1.0
  O  O87  1  0.27669000  0.87359000  0.63195000  1.0
  O  O88  1  0.35633000  0.07599000  0.90493000  1.0
  O  O89  1  0.64367000  0.92401000  0.09506000  1.0
  O  O90  1  0.48650000  0.13162000  0.79215000  1.0
  O  O91  1  0.51352000  0.86838000  0.20786000  1.0
  O  O92  1  0.41640000  0.56289000  0.69462000  1.0
  O  O93  1  0.58361000  0.43709000  0.30538000  1.0
  O  O94  1  0.37707000  0.75999000  0.84180000  1.0
  O  O95  1  0.62295000  0.23999000  0.15820000  1.0
