# generated using pymatgen
data_BaH24(C17O6)2
_symmetry_space_group_name_H-M   'P 1'
_cell_length_a   8.95623000
_cell_length_b   12.53300000
_cell_length_c   17.39352226
_cell_angle_alpha   68.87969262
_cell_angle_beta   82.30823110
_cell_angle_gamma   90.00200000
_symmetry_Int_Tables_number   1
_chemical_formula_structural   BaH24(C17O6)2
_chemical_formula_sum   'Ba2 H48 C68 O24'
_cell_volume   1802.39698095
_cell_formula_units_Z   2
loop_
 _symmetry_equiv_pos_site_id
 _symmetry_equiv_pos_as_xyz
  1  'x, y, z'
loop_
 _atom_site_type_symbol
 _atom_site_label
 _atom_site_symmetry_multiplicity
 _atom_site_fract_x
 _atom_site_fract_y
 _atom_site_fract_z
 _atom_site_occupancy
  Ba  Ba0  1  0.25001000  0.42387000  0.00002000  1.0
  Ba  Ba1  1  0.74999000  0.57613000  0.99998000  1.0
  H  H2  1  0.21834000  0.23954000  0.21463000  1.0
  H  H3  1  0.28168000  0.45397000  0.78538000  1.0
  H  H4  1  0.78166000  0.76047000  0.78536000  1.0
  H  H5  1  0.71833000  0.54603000  0.21462000  1.0
  H  H6  1  0.80215000  0.30666000  0.10106000  1.0
  H  H7  1  0.69790000  0.40781000  0.89892000  1.0
  H  H8  1  0.19785000  0.69334000  0.89894000  1.0
  H  H9  1  0.30210000  0.59219000  0.10108000  1.0
  H  H10  1  0.87343000  0.10960000  0.35217000  1.0
  H  H11  1  0.62662000  0.46193000  0.64780000  1.0
  H  H12  1  0.12657000  0.89041000  0.64782000  1.0
  H  H13  1  0.37338000  0.53807000  0.35220000  1.0
  H  H14  1  0.42400000  0.19412000  0.29706000  1.0
  H  H15  1  0.07608000  0.49112000  0.70295000  1.0
  H  H16  1  0.57599000  0.80589000  0.70293000  1.0
  H  H17  1  0.92392000  0.50888000  0.29705000  1.0
  H  H18  1  0.61876000  0.96334000  0.31132000  1.0
  H  H19  1  0.88129000  0.27466000  0.68870000  1.0
  H  H20  1  0.38125000  0.03666000  0.68868000  1.0
  H  H21  1  0.11871000  0.72534000  0.31130000  1.0
  H  H22  1  0.64470000  0.28580000  0.41039000  1.0
  H  H23  1  0.85542000  0.69616000  0.58962000  1.0
  H  H24  1  0.35530000  0.71420000  0.58961000  1.0
  H  H25  1  0.14458000  0.30384000  0.41038000  1.0
  H  H26  1  0.69227000  0.53942000  0.45290000  1.0
  H  H27  1  0.80804000  0.99227000  0.54717000  1.0
  H  H28  1  0.30773000  0.46058000  0.54710000  1.0
  H  H29  1  0.19196000  0.00773000  0.45283000  1.0
  H  H30  1  0.60087000  0.46854000  0.39775000  1.0
  H  H31  1  0.89950000  0.86623000  0.60222000  1.0
  H  H32  1  0.39913000  0.53145000  0.60226000  1.0
  H  H33  1  0.10050000  0.13377000  0.39778000  1.0
  H  H34  1  0.77846000  0.42139000  0.43231000  1.0
  H  H35  1  0.72176000  0.85366000  0.56779000  1.0
  H  H36  1  0.22154000  0.57861000  0.56769000  1.0
  H  H37  1  0.27824000  0.14634000  0.43221000  1.0
  H  H38  1  0.74745000  0.84198000  0.26224000  1.0
  H  H39  1  0.75259000  0.10417000  0.73777000  1.0
  H  H40  1  0.25255000  0.15802000  0.73776000  1.0
  H  H41  1  0.24741000  0.89583000  0.26223000  1.0
  H  H42  1  0.57871000  0.88816000  0.21685000  1.0
  H  H43  1  0.92131000  0.10493000  0.78319000  1.0
  H  H44  1  0.42129000  0.11184000  0.78315000  1.0
  H  H45  1  0.07870000  0.89507000  0.21681000  1.0
  H  H46  1  0.65776000  0.75701000  0.21582000  1.0
  H  H47  1  0.84227000  0.97277000  0.78418000  1.0
  H  H48  1  0.34224000  0.24299000  0.78418000  1.0
  H  H49  1  0.15773000  0.02723000  0.21582000  1.0
  C  C50  1  0.01741000  0.22754000  0.19060000  1.0
  C  C51  1  0.48266000  0.41819000  0.80941000  1.0
  C  C52  1  0.98259000  0.77246000  0.80940000  1.0
  C  C53  1  0.51734000  0.58180000  0.19060000  1.0
  C  C54  1  0.60149000  0.26027000  0.19283000  1.0
  C  C55  1  0.89858000  0.45319000  0.80715000  1.0
  C  C56  1  0.39850000  0.73973000  0.80717000  1.0
  C  C57  1  0.10142000  0.54681000  0.19285000  1.0
  C  C58  1  0.85430000  0.21340000  0.22401000  1.0
  C  C59  1  0.64577000  0.43750000  0.77598000  1.0
  C  C60  1  0.14570000  0.78660000  0.77599000  1.0
  C  C61  1  0.35424000  0.56250000  0.22402000  1.0
  C  C62  1  0.75623000  0.26444000  0.16656000  1.0
  C  C63  1  0.74384000  0.43111000  0.83342000  1.0
  C  C64  1  0.24376000  0.73556000  0.83344000  1.0
  C  C65  1  0.25616000  0.56889000  0.16658000  1.0
  C  C66  1  0.79756000  0.15355000  0.30810000  1.0
  C  C67  1  0.70250000  0.46175000  0.69189000  1.0
  C  C68  1  0.20244000  0.84645000  0.69190000  1.0
  C  C69  1  0.29750000  0.53825000  0.30811000  1.0
  C  C70  1  0.54522000  0.19977000  0.27660000  1.0
  C  C71  1  0.95485000  0.47639000  0.72340000  1.0
  C  C72  1  0.45478000  0.80023000  0.72340000  1.0
  C  C73  1  0.04515000  0.52361000  0.27660000  1.0
  C  C74  1  0.64154000  0.14446000  0.33445000  1.0
  C  C75  1  0.85853000  0.47893000  0.66555000  1.0
  C  C76  1  0.35846000  0.85554000  0.66555000  1.0
  C  C77  1  0.14147000  0.52107000  0.33445000  1.0
  C  C78  1  0.49920000  0.32018000  0.13097000  1.0
  C  C79  1  0.00087000  0.45129000  0.86900000  1.0
  C  C80  1  0.50079000  0.67982000  0.86903000  1.0
  C  C81  1  0.99913000  0.54871000  0.13100000  1.0
  C  C82  1  0.57347000  0.07107000  0.42040000  1.0
  C  C83  1  0.92657000  0.49147000  0.57961000  1.0
  C  C84  1  0.42652000  0.92893000  0.57960000  1.0
  C  C85  1  0.07343000  0.50853000  0.42039000  1.0
  C  C86  1  0.54577000  0.11587000  0.48425000  1.0
  C  C87  1  0.95428000  0.60012000  0.51574000  1.0
  C  C88  1  0.45422000  0.88413000  0.51575000  1.0
  C  C89  1  0.04572000  0.39988000  0.48426000  1.0
  C  C90  1  0.52936000  0.95658000  0.43503000  1.0
  C  C91  1  0.97062000  0.39162000  0.56498000  1.0
  C  C92  1  0.47064000  0.04342000  0.56497000  1.0
  C  C93  1  0.02938000  0.60838000  0.43502000  1.0
  C  C94  1  0.55789000  0.27502000  0.53385000  1.0
  C  C95  1  0.94217000  0.80887000  0.46614000  1.0
  C  C96  1  0.44212000  0.72498000  0.46615000  1.0
  C  C97  1  0.05783000  0.19113000  0.53386000  1.0
  C  C98  1  0.55972000  0.90911000  0.37164000  1.0
  C  C99  1  0.94027000  0.28074000  0.62837000  1.0
  C  C100  1  0.44028000  0.09089000  0.62836000  1.0
  C  C101  1  0.05973000  0.71926000  0.37163000  1.0
  C  C102  1  0.58804000  0.23147000  0.47141000  1.0
  C  C103  1  0.91206000  0.70288000  0.52860000  1.0
  C  C104  1  0.41195000  0.76853000  0.52859000  1.0
  C  C105  1  0.08794000  0.29712000  0.47140000  1.0
  C  C106  1  0.51965000  0.79710000  0.38588000  1.0
  C  C107  1  0.98036000  0.18297000  0.61414000  1.0
  C  C108  1  0.48035000  0.20290000  0.61412000  1.0
  C  C109  1  0.01964000  0.81703000  0.38586000  1.0
  C  C110  1  0.67098000  0.45711000  0.44701000  1.0
  C  C111  1  0.82927000  0.90408000  0.55302000  1.0
  C  C112  1  0.32902000  0.54289000  0.55299000  1.0
  C  C113  1  0.17073000  0.09592000  0.44698000  1.0
  C  C114  1  0.63853000  0.81301000  0.25158000  1.0
  C  C115  1  0.86151000  0.06453000  0.74844000  1.0
  C  C116  1  0.36147000  0.18699000  0.74842000  1.0
  C  C117  1  0.13849000  0.93546000  0.25157000  1.0
  O  O118  1  0.06144000  0.25213000  0.11506000  1.0
  O  O119  1  0.43870000  0.36750000  0.88499000  1.0
  O  O120  1  0.93855000  0.74787000  0.88494000  1.0
  O  O121  1  0.56130000  0.63249000  0.11502000  1.0
  O  O122  1  0.35623000  0.30182000  0.15110000  1.0
  O  O123  1  0.14385000  0.45310000  0.84888000  1.0
  O  O124  1  0.64377000  0.69818000  0.84890000  1.0
  O  O125  1  0.85616000  0.54690000  0.15112000  1.0
  O  O126  1  0.55714000  0.38882000  0.05924000  1.0
  O  O127  1  0.94294000  0.44825000  0.94071000  1.0
  O  O128  1  0.44286000  0.61118000  0.94076000  1.0
  O  O129  1  0.05707000  0.55175000  0.05929000  1.0
  O  O130  1  0.11075000  0.21565000  0.24613000  1.0
  O  O131  1  0.38923000  0.46147000  0.75386000  1.0
  O  O132  1  0.88924000  0.78435000  0.75387000  1.0
  O  O133  1  0.61078000  0.53853000  0.24614000  1.0
  O  O134  1  0.59409000  0.38378000  0.52644000  1.0
  O  O135  1  0.90598000  0.91021000  0.47355000  1.0
  O  O136  1  0.40591000  0.61622000  0.47356000  1.0
  O  O137  1  0.09402000  0.08980000  0.52645000  1.0
  O  O138  1  0.54970000  0.74571000  0.32873000  1.0
  O  O139  1  0.95035000  0.07442000  0.67129000  1.0
  O  O140  1  0.45030000  0.25429000  0.67127000  1.0
  O  O141  1  0.04965000  0.92558000  0.32871000  1.0
