# generated using pymatgen
data_CoPH19C22N4O3
_symmetry_space_group_name_H-M   'P 1'
_cell_length_a   9.76997000
_cell_length_b   10.34460000
_cell_length_c   11.04040000
_cell_angle_alpha   69.53760000
_cell_angle_beta   78.27710000
_cell_angle_gamma   81.60110000
_symmetry_Int_Tables_number   1
_chemical_formula_structural   CoPH19C22N4O3
_chemical_formula_sum   'Co2 P2 H38 C44 N8 O6'
_cell_volume   1020.17273813
_cell_formula_units_Z   2
loop_
 _symmetry_equiv_pos_site_id
 _symmetry_equiv_pos_as_xyz
  1  'x, y, z'
loop_
 _atom_site_type_symbol
 _atom_site_label
 _atom_site_symmetry_multiplicity
 _atom_site_fract_x
 _atom_site_fract_y
 _atom_site_fract_z
 _atom_site_occupancy
  Co  Co0  1  0.59840000  0.89201000  0.37634000  1.0
  Co  Co1  1  0.40159000  0.10799000  0.62367000  1.0
  P  P2  1  0.68533000  0.91057000  0.63251000  1.0
  P  P3  1  0.31467000  0.08943000  0.36749000  1.0
  H  H4  1  0.69341000  0.80318000  0.75404000  1.0
  H  H5  1  0.30659000  0.19682000  0.24596000  1.0
  H  H6  1  0.37098000  0.70839000  0.04444000  1.0
  H  H7  1  0.62900000  0.29162000  0.95555000  1.0
  H  H8  1  0.53314000  0.28142000  0.18387000  1.0
  H  H9  1  0.46685000  0.71859000  0.81612000  1.0
  H  H10  1  0.28884000  0.55064000  0.27541000  1.0
  H  H11  1  0.71117000  0.44937000  0.72458000  1.0
  H  H12  1  0.37792000  0.38351000  0.33488000  1.0
  H  H13  1  0.62207000  0.61650000  0.66510000  1.0
  H  H14  1  0.39169000  0.75888000  0.27876000  1.0
  H  H15  1  0.60831000  0.24111000  0.72124000  1.0
  H  H16  1  0.85272000  0.64435000  0.43547000  1.0
  H  H17  1  0.14729000  0.35563000  0.56453000  1.0
  H  H18  1  0.96164000  0.39892000  0.49043000  1.0
  H  H19  1  0.03836000  0.60107000  0.50957000  1.0
  H  H20  1  0.84114000  0.21371000  0.47226000  1.0
  H  H21  1  0.15884000  0.78628000  0.52776000  1.0
  H  H22  1  0.61462000  0.26744000  0.38654000  1.0
  H  H23  1  0.38536000  0.73255000  0.61348000  1.0
  H  H24  1  0.23790000  0.37761000  0.97863000  1.0
  H  H25  1  0.76214000  0.62238000  0.02138000  1.0
  H  H26  1  0.80090000  0.37638000  0.15232000  1.0
  H  H27  1  0.19915000  0.62362000  0.84768000  1.0
  H  H28  1  0.14295000  0.16386000  0.11105000  1.0
  H  H29  1  0.85706000  0.83611000  0.88896000  1.0
  H  H30  1  0.05711000  0.19426000  0.25661000  1.0
  H  H31  1  0.94290000  0.80572000  0.74340000  1.0
  H  H32  1  0.87213000  0.03811000  0.37519000  1.0
  H  H33  1  0.12786000  0.96189000  0.62481000  1.0
  H  H34  1  0.60294000  0.93829000  0.08009000  1.0
  H  H35  1  0.39705000  0.06173000  0.91990000  1.0
  H  H36  1  0.67593000  0.03269000  0.83691000  1.0
  H  H37  1  0.32406000  0.96733000  0.16308000  1.0
  H  H38  1  0.87388000  0.18001000  0.73938000  1.0
  H  H39  1  0.12612000  0.82000000  0.26061000  1.0
  H  H40  1  0.00624000  0.24258000  0.88018000  1.0
  H  H41  1  0.99376000  0.75742000  0.11982000  1.0
  C  C42  1  0.42783000  0.61683000  0.02521000  1.0
  C  C43  1  0.57217000  0.38317000  0.97478000  1.0
  C  C44  1  0.44552000  0.49421000  0.12947000  1.0
  C  C45  1  0.55448000  0.50580000  0.87052000  1.0
  C  C46  1  0.51838000  0.37736000  0.10334000  1.0
  C  C47  1  0.48161000  0.62265000  0.89665000  1.0
  C  C48  1  0.39054000  0.49022000  0.26866000  1.0
  C  C49  1  0.60946000  0.50979000  0.73132000  1.0
  C  C50  1  0.47958000  0.68525000  0.30826000  1.0
  C  C51  1  0.52042000  0.31475000  0.69174000  1.0
  C  C52  1  0.67607000  0.59183000  0.37704000  1.0
  C  C53  1  0.32393000  0.40816000  0.62297000  1.0
  C  C54  1  0.80403000  0.56251000  0.42287000  1.0
  C  C55  1  0.19597000  0.43748000  0.57714000  1.0
  C  C56  1  0.86218000  0.42594000  0.45408000  1.0
  C  C57  1  0.13782000  0.57404000  0.54593000  1.0
  C  C58  1  0.79507000  0.32052000  0.44151000  1.0
  C  C59  1  0.20493000  0.67947000  0.55850000  1.0
  C  C60  1  0.66834000  0.34908000  0.39373000  1.0
  C  C61  1  0.33164000  0.65091000  0.60628000  1.0
  C  C62  1  0.61104000  0.48639000  0.36081000  1.0
  C  C63  1  0.38896000  0.51361000  0.63920000  1.0
  C  C64  1  0.13317000  0.43086000  0.98862000  1.0
  C  C65  1  0.86686000  0.56913000  0.01138000  1.0
  C  C66  1  0.02173000  0.35999000  0.07532000  1.0
  C  C67  1  0.97830000  0.64000000  0.92468000  1.0
  C  C68  1  0.88861000  0.43035000  0.08555000  1.0
  C  C69  1  0.11142000  0.56965000  0.91444000  1.0
  C  C70  1  0.04570000  0.20964000  0.15522000  1.0
  C  C71  1  0.95431000  0.79034000  0.84478000  1.0
  C  C72  1  0.85322000  0.05352000  0.27635000  1.0
  C  C73  1  0.14677000  0.94648000  0.72365000  1.0
  C  C74  1  0.76596000  0.03591000  0.11578000  1.0
  C  C75  1  0.23403000  0.96411000  0.88422000  1.0
  C  C76  1  0.69016000  0.00364000  0.03693000  1.0
  C  C77  1  0.30982000  0.99639000  0.96307000  1.0
  C  C78  1  0.73143000  0.05722000  0.90160000  1.0
  C  C79  1  0.26856000  0.94281000  0.09839000  1.0
  C  C80  1  0.84430000  0.14202000  0.84582000  1.0
  C  C81  1  0.15570000  0.85800000  0.15418000  1.0
  C  C82  1  0.91959000  0.17660000  0.92324000  1.0
  C  C83  1  0.08040000  0.82340000  0.07676000  1.0
  C  C84  1  0.87875000  0.12139000  0.05892000  1.0
  C  C85  1  0.12125000  0.87862000  0.94107000  1.0
  N  N86  1  0.48678000  0.55060000  0.31613000  1.0
  N  N87  1  0.51322000  0.44939000  0.68388000  1.0
  N  N88  1  0.59020000  0.71464000  0.34447000  1.0
  N  N89  1  0.40980000  0.28536000  0.65553000  1.0
  N  N90  1  0.93045000  0.13028000  0.16373000  1.0
  N  N91  1  0.06954000  0.86972000  0.83627000  1.0
  N  N92  1  0.75263000  0.99592000  0.25187000  1.0
  N  N93  1  0.24736000  0.00408000  0.74813000  1.0
  O  O94  1  0.61676000  0.84083000  0.55729000  1.0
  O  O95  1  0.38323000  0.15917000  0.44272000  1.0
  O  O96  1  0.82977000  0.95693000  0.57072000  1.0
  O  O97  1  0.17022000  0.04307000  0.42928000  1.0
  O  O98  1  0.57995000  0.02401000  0.67054000  1.0
  O  O99  1  0.42005000  0.97599000  0.32946000  1.0
