# generated using pymatgen
data_KH2(C2O)2
_symmetry_space_group_name_H-M   'P 1'
_cell_length_a   3.87069000
_cell_length_b   10.59160000
_cell_length_c   11.63570000
_cell_angle_alpha   68.21000000
_cell_angle_beta   90.00070000
_cell_angle_gamma   90.00010000
_symmetry_Int_Tables_number   1
_chemical_formula_structural   KH2(C2O)2
_chemical_formula_sum   'K4 H8 C16 O8'
_cell_volume   442.94322683
_cell_formula_units_Z   4
loop_
 _symmetry_equiv_pos_site_id
 _symmetry_equiv_pos_as_xyz
  1  'x, y, z'
loop_
 _atom_site_type_symbol
 _atom_site_label
 _atom_site_symmetry_multiplicity
 _atom_site_fract_x
 _atom_site_fract_y
 _atom_site_fract_z
 _atom_site_occupancy
  K  K0  1  0.20821000  0.39312000  0.15885000  1.0
  K  K1  1  0.29179000  0.39312000  0.65885000  1.0
  K  K2  1  0.79178000  0.60688000  0.84115000  1.0
  K  K3  1  0.70820000  0.60688000  0.34115000  1.0
  H  H4  1  0.74899000  0.13713000  0.79519000  1.0
  H  H5  1  0.75102000  0.13714000  0.29519000  1.0
  H  H6  1  0.25105000  0.86286000  0.20481000  1.0
  H  H7  1  0.24895000  0.86286000  0.70482000  1.0
  H  H8  1  0.42961000  0.10246000  0.15895000  1.0
  H  H9  1  0.07041000  0.10246000  0.65895000  1.0
  H  H10  1  0.57046000  0.89753000  0.84106000  1.0
  H  H11  1  0.92955000  0.89753000  0.34106000  1.0
  C  C12  1  0.71194000  0.28167000  0.94386000  1.0
  C  C13  1  0.78805000  0.28167000  0.44386000  1.0
  C  C14  1  0.28807000  0.71834000  0.05614000  1.0
  C  C15  1  0.21192000  0.71833000  0.55614000  1.0
  C  C16  1  0.60193000  0.13587000  0.97377000  1.0
  C  C17  1  0.89807000  0.13586000  0.47377000  1.0
  C  C18  1  0.39808000  0.86413000  0.02623000  1.0
  C  C19  1  0.10191000  0.86412000  0.52623000  1.0
  C  C20  1  0.63861000  0.07646000  0.88493000  1.0
  C  C21  1  0.86140000  0.07646000  0.38493000  1.0
  C  C22  1  0.36143000  0.92354000  0.11507000  1.0
  C  C23  1  0.13857000  0.92354000  0.61507000  1.0
  C  C24  1  0.53879000  0.94252000  0.91072000  1.0
  C  C25  1  0.96123000  0.94252000  0.41072000  1.0
  C  C26  1  0.46128000  0.05749000  0.08928000  1.0
  C  C27  1  0.03874000  0.05749000  0.58928000  1.0
  O  O28  1  0.80462000  0.35020000  0.83292000  1.0
  O  O29  1  0.69537000  0.35020000  0.33292000  1.0
  O  O30  1  0.19537000  0.64981000  0.16707000  1.0
  O  O31  1  0.30461000  0.64980000  0.66707000  1.0
  O  O32  1  0.70319000  0.32892000  0.02988000  1.0
  O  O33  1  0.79681000  0.32892000  0.52988000  1.0
  O  O34  1  0.29682000  0.67109000  0.97012000  1.0
  O  O35  1  0.20316000  0.67109000  0.47012000  1.0
