# generated using pymatgen
data_CuH2C4(SN)2
_symmetry_space_group_name_H-M   'P 1'
_cell_length_a   6.76657000
_cell_length_b   7.24702000
_cell_length_c   15.28470000
_cell_angle_alpha   84.45030000
_cell_angle_beta   89.99950000
_cell_angle_gamma   89.99780000
_symmetry_Int_Tables_number   1
_chemical_formula_structural   CuH2C4(SN)2
_chemical_formula_sum   'Cu4 H8 C16 S8 N8'
_cell_volume   746.00973774
_cell_formula_units_Z   4
loop_
 _symmetry_equiv_pos_site_id
 _symmetry_equiv_pos_as_xyz
  1  'x, y, z'
loop_
 _atom_site_type_symbol
 _atom_site_label
 _atom_site_symmetry_multiplicity
 _atom_site_fract_x
 _atom_site_fract_y
 _atom_site_fract_z
 _atom_site_occupancy
  Cu  Cu0  1  0.50000000  0.00021000  0.00005000  1.0
  Cu  Cu1  1  0.00000000  0.49967000  0.49996000  1.0
  Cu  Cu2  1  0.50000000  0.51082000  0.77268000  1.0
  Cu  Cu3  1  0.50001000  0.48922000  0.22732000  1.0
  H  H4  1  0.49999000  0.16796000  0.58098000  1.0
  H  H5  1  0.49999000  0.81461000  0.59942000  1.0
  H  H6  1  0.49999000  0.83160000  0.41904000  1.0
  H  H7  1  0.50001000  0.18493000  0.40079000  1.0
  H  H8  1  0.81289000  0.48859000  0.91003000  1.0
  H  H9  1  0.18711000  0.48860000  0.91003000  1.0
  H  H10  1  0.18711000  0.51234000  0.08985000  1.0
  H  H11  1  0.81290000  0.51234000  0.08985000  1.0
  C  C12  1  0.50000000  0.09621000  0.79564000  1.0
  C  C13  1  0.50000000  0.89869000  0.80674000  1.0
  C  C14  1  0.49999000  0.90379000  0.20440000  1.0
  C  C15  1  0.50000000  0.10131000  0.19340000  1.0
  C  C16  1  0.89432000  0.49868000  0.69763000  1.0
  C  C17  1  0.10568000  0.49868000  0.69763000  1.0
  C  C18  1  0.10568000  0.50111000  0.30228000  1.0
  C  C19  1  0.89433000  0.50110000  0.30228000  1.0
  C  C20  1  0.49999000  0.08931000  0.64555000  1.0
  C  C21  1  0.49999000  0.89722000  0.65519000  1.0
  C  C22  1  0.49999000  0.91039000  0.35451000  1.0
  C  C23  1  0.50000000  0.10250000  0.34496000  1.0
  C  C24  1  0.89824000  0.49190000  0.84962000  1.0
  C  C25  1  0.10175000  0.49190000  0.84962000  1.0
  C  C26  1  0.10176000  0.50853000  0.15028000  1.0
  C  C27  1  0.89825000  0.50853000  0.15028000  1.0
  S  S28  1  0.50000000  0.22423000  0.88595000  1.0
  S  S29  1  0.49999000  0.77832000  0.91018000  1.0
  S  S30  1  0.49999000  0.77600000  0.11403000  1.0
  S  S31  1  0.50002000  0.22193000  0.09001000  1.0
  S  S32  1  0.76603000  0.50458000  0.60007000  1.0
  S  S33  1  0.23397000  0.50460000  0.60007000  1.0
  S  S34  1  0.23399000  0.49484000  0.39985000  1.0
  S  S35  1  0.76602000  0.49483000  0.39985000  1.0
  N  N36  1  0.50000000  0.18799000  0.71563000  1.0
  N  N37  1  0.49999000  0.80288000  0.73587000  1.0
  N  N38  1  0.49999000  0.81186000  0.28438000  1.0
  N  N39  1  0.50001000  0.19699000  0.26431000  1.0
  N  N40  1  0.79417000  0.49519000  0.77369000  1.0
  N  N41  1  0.20582000  0.49519000  0.77369000  1.0
  N  N42  1  0.20584000  0.50491000  0.22622000  1.0
  N  N43  1  0.79417000  0.50491000  0.22622000  1.0
