# generated using pymatgen
data_ZnH7C11N6ClO2
_symmetry_space_group_name_H-M   'P 1'
_cell_length_a   5.91392000
_cell_length_b   13.97070000
_cell_length_c   15.70300000
_cell_angle_alpha   90.00050000
_cell_angle_beta   90.00030000
_cell_angle_gamma   100.98900000
_symmetry_Int_Tables_number   1
_chemical_formula_structural   ZnH7C11N6ClO2
_chemical_formula_sum   'Zn4 H28 C44 N24 Cl4 O8'
_cell_volume   1273.61750129
_cell_formula_units_Z   4
loop_
 _symmetry_equiv_pos_site_id
 _symmetry_equiv_pos_as_xyz
  1  'x, y, z'
loop_
 _atom_site_type_symbol
 _atom_site_label
 _atom_site_symmetry_multiplicity
 _atom_site_fract_x
 _atom_site_fract_y
 _atom_site_fract_z
 _atom_site_occupancy
  Zn  Zn0  1  0.73472000  0.20869000  0.51944000  1.0
  Zn  Zn1  1  0.26528000  0.29131000  0.01943000  1.0
  Zn  Zn2  1  0.26525000  0.79132000  0.48057000  1.0
  Zn  Zn3  1  0.73469000  0.70868000  0.98057000  1.0
  H  H4  1  0.95643000  0.31584000  0.77915000  1.0
  H  H5  1  0.04354000  0.18416000  0.27916000  1.0
  H  H6  1  0.04357000  0.68416000  0.22085000  1.0
  H  H7  1  0.95644000  0.81584000  0.72081000  1.0
  H  H8  1  0.73458000  0.31187000  0.89504000  1.0
  H  H9  1  0.26546000  0.18814000  0.39503000  1.0
  H  H10  1  0.26546000  0.68815000  0.10498000  1.0
  H  H11  1  0.73450000  0.81185000  0.60495000  1.0
  H  H12  1  0.74107000  0.58820000  0.72019000  1.0
  H  H13  1  0.25896000  0.91182000  0.22017000  1.0
  H  H14  1  0.25906000  0.41184000  0.27986000  1.0
  H  H15  1  0.74102000  0.08816000  0.77983000  1.0
  H  H16  1  0.23010000  0.48754000  0.91831000  1.0
  H  H17  1  0.76989000  0.01246000  0.41831000  1.0
  H  H18  1  0.76986000  0.51243000  0.08170000  1.0
  H  H19  1  0.23009000  0.98755000  0.58171000  1.0
  H  H20  1  0.29402000  0.50552000  0.58063000  1.0
  H  H21  1  0.70599000  0.99450000  0.08063000  1.0
  H  H22  1  0.70602000  0.49449000  0.41937000  1.0
  H  H23  1  0.29404000  0.00550000  0.91934000  1.0
  H  H24  1  0.40515000  0.36498000  0.53382000  1.0
  H  H25  1  0.59483000  0.13501000  0.03382000  1.0
  H  H26  1  0.59485000  0.63500000  0.46619000  1.0
  H  H27  1  0.40509000  0.86498000  0.96617000  1.0
  H  H28  1  0.51656000  0.15918000  0.71585000  1.0
  H  H29  1  0.48347000  0.34084000  0.21584000  1.0
  H  H30  1  0.48339000  0.84081000  0.28416000  1.0
  H  H31  1  0.51662000  0.65919000  0.78414000  1.0
  C  C32  1  0.96965000  0.38264000  0.74199000  1.0
  C  C33  1  0.03033000  0.11737000  0.24199000  1.0
  C  C34  1  0.03035000  0.61737000  0.25802000  1.0
  C  C35  1  0.96967000  0.88262000  0.75799000  1.0
  C  C36  1  0.13531000  0.40324000  0.67779000  1.0
  C  C37  1  0.86468000  0.09677000  0.17779000  1.0
  C  C38  1  0.86469000  0.59677000  0.32222000  1.0
  C  C39  1  0.13532000  0.90323000  0.82219000  1.0
  C  C40  1  0.82930000  0.45076000  0.75692000  1.0
  C  C41  1  0.17069000  0.04924000  0.25691000  1.0
  C  C42  1  0.17074000  0.54925000  0.24310000  1.0
  C  C43  1  0.82930000  0.95076000  0.74308000  1.0
  C  C44  1  0.62947000  0.36706000  0.88482000  1.0
  C  C45  1  0.37055000  0.13296000  0.38482000  1.0
  C  C46  1  0.37055000  0.63295000  0.11519000  1.0
  C  C47  1  0.62944000  0.86704000  0.61517000  1.0
  C  C48  1  0.84962000  0.53532000  0.70815000  1.0
  C  C49  1  0.15037000  0.96470000  0.20815000  1.0
  C  C50  1  0.15043000  0.46470000  0.29187000  1.0
  C  C51  1  0.84961000  0.03530000  0.79185000  1.0
  C  C52  1  0.01452000  0.55368000  0.64385000  1.0
  C  C53  1  0.98544000  0.94632000  0.14386000  1.0
  C  C54  1  0.98549000  0.44632000  0.35616000  1.0
  C  C55  1  0.01457000  0.05367000  0.85613000  1.0
  C  C56  1  0.37508000  0.45768000  0.89474000  1.0
  C  C57  1  0.62490000  0.04231000  0.39474000  1.0
  C  C58  1  0.62489000  0.54230000  0.10526000  1.0
  C  C59  1  0.37510000  0.95769000  0.60526000  1.0
  C  C60  1  0.16063000  0.48792000  0.62887000  1.0
  C  C61  1  0.83934000  0.01207000  0.12887000  1.0
  C  C62  1  0.83936000  0.51208000  0.37112000  1.0
  C  C63  1  0.16066000  0.98792000  0.87111000  1.0
  C  C64  1  0.40606000  0.32466000  0.59267000  1.0
  C  C65  1  0.59393000  0.17534000  0.09266000  1.0
  C  C66  1  0.59393000  0.67533000  0.40734000  1.0
  C  C67  1  0.40604000  0.82465000  0.90732000  1.0
  C  C68  1  0.45929000  0.22084000  0.68698000  1.0
  C  C69  1  0.54071000  0.27916000  0.18697000  1.0
  C  C70  1  0.54068000  0.77915000  0.31303000  1.0
  C  C71  1  0.45933000  0.72085000  0.81301000  1.0
  C  C72  1  0.03513000  0.64686000  0.59353000  1.0
  C  C73  1  0.96486000  0.85314000  0.09352000  1.0
  C  C74  1  0.96490000  0.35315000  0.40648000  1.0
  C  C75  1  0.03511000  0.14685000  0.90647000  1.0
  N  N76  1  0.28393000  0.33613000  0.66326000  1.0
  N  N77  1  0.71606000  0.16388000  0.16326000  1.0
  N  N78  1  0.71608000  0.66387000  0.33675000  1.0
  N  N79  1  0.28394000  0.83613000  0.83672000  1.0
  N  N80  1  0.66142000  0.43494000  0.82256000  1.0
  N  N81  1  0.33859000  0.06507000  0.32255000  1.0
  N  N82  1  0.33861000  0.56507000  0.17746000  1.0
  N  N83  1  0.66141000  0.93493000  0.67743000  1.0
  N  N84  1  0.52076000  0.25271000  0.60630000  1.0
  N  N85  1  0.47924000  0.24728000  0.10630000  1.0
  N  N86  1  0.47921000  0.74728000  0.39370000  1.0
  N  N87  1  0.52076000  0.75271000  0.89370000  1.0
  N  N88  1  0.44824000  0.37979000  0.93118000  1.0
  N  N89  1  0.55178000  0.12020000  0.43117000  1.0
  N  N90  1  0.55176000  0.62019000  0.06882000  1.0
  N  N91  1  0.44819000  0.87980000  0.56882000  1.0
  N  N92  1  0.50046000  0.49320000  0.82840000  1.0
  N  N93  1  0.49954000  0.00679000  0.32840000  1.0
  N  N94  1  0.49954000  0.50679000  0.17161000  1.0
  N  N95  1  0.50048000  0.99321000  0.67160000  1.0
  N  N96  1  0.31629000  0.26997000  0.72407000  1.0
  N  N97  1  0.68373000  0.23004000  0.22407000  1.0
  N  N98  1  0.68370000  0.73003000  0.27593000  1.0
  N  N99  1  0.31632000  0.76997000  0.77591000  1.0
  Cl  Cl100  1  0.98457000  0.12596000  0.57271000  1.0
  Cl  Cl101  1  0.01544000  0.37405000  0.07270000  1.0
  Cl  Cl102  1  0.01539000  0.87404000  0.42728000  1.0
  Cl  Cl103  1  0.98456000  0.62597000  0.92729000  1.0
  O  O104  1  0.19910000  0.66181000  0.53776000  1.0
  O  O105  1  0.80084000  0.83819000  0.03776000  1.0
  O  O106  1  0.80091000  0.33821000  0.46225000  1.0
  O  O107  1  0.19915000  0.16180000  0.96223000  1.0
  O  O108  1  0.89643000  0.70235000  0.60778000  1.0
  O  O109  1  0.10356000  0.79766000  0.10776000  1.0
  O  O110  1  0.10362000  0.29766000  0.39226000  1.0
  O  O111  1  0.89636000  0.20233000  0.89225000  1.0
