# generated using pymatgen
data_ZnPH7C6NO3
_symmetry_space_group_name_H-M   'P 1'
_cell_length_a   5.12548000
_cell_length_b   8.84745000
_cell_length_c   11.27850000
_cell_angle_alpha   84.07760000
_cell_angle_beta   79.23590000
_cell_angle_gamma   74.09360000
_symmetry_Int_Tables_number   1
_chemical_formula_structural   ZnPH7C6NO3
_chemical_formula_sum   'Zn2 P2 H14 C12 N2 O6'
_cell_volume   482.48088258
_cell_formula_units_Z   2
loop_
 _symmetry_equiv_pos_site_id
 _symmetry_equiv_pos_as_xyz
  1  'x, y, z'
loop_
 _atom_site_type_symbol
 _atom_site_label
 _atom_site_symmetry_multiplicity
 _atom_site_fract_x
 _atom_site_fract_y
 _atom_site_fract_z
 _atom_site_occupancy
  Zn  Zn0  1  0.15073000  0.15950000  0.92001000  1.0
  Zn  Zn1  1  0.84927000  0.84050000  0.07999000  1.0
  P  P2  1  0.57095000  0.20801000  0.06373000  1.0
  P  P3  1  0.42905000  0.79199000  0.93627000  1.0
  H  H4  1  0.81367000  0.34400000  0.15577000  1.0
  H  H5  1  0.18632000  0.65600000  0.84423000  1.0
  H  H6  1  0.48609000  0.34622000  0.24584000  1.0
  H  H7  1  0.51391000  0.65378000  0.75416000  1.0
  H  H8  1  0.50970000  0.47695000  0.11324000  1.0
  H  H9  1  0.49030000  0.52305000  0.88676000  1.0
  H  H10  1  0.89857000  0.44818000  0.77506000  1.0
  H  H11  1  0.10142000  0.55182000  0.22494000  1.0
  H  H12  1  0.03707000  0.60860000  0.59375000  1.0
  H  H13  1  0.96293000  0.39140000  0.40625000  1.0
  H  H14  1  0.83369000  0.26755000  0.55118000  1.0
  H  H15  1  0.16631000  0.73245000  0.44882000  1.0
  H  H16  1  0.65773000  0.12375000  0.73601000  1.0
  H  H17  1  0.34226000  0.87625000  0.26398000  1.0
  C  C18  1  0.59479000  0.35937000  0.15339000  1.0
  C  C19  1  0.40521000  0.64062000  0.84661000  1.0
  C  C20  1  0.10327000  0.41272000  0.72153000  1.0
  C  C21  1  0.89673000  0.58728000  0.27847000  1.0
  C  C22  1  0.18394000  0.50127000  0.61928000  1.0
  C  C23  1  0.81606000  0.49873000  0.38072000  1.0
  C  C24  1  0.45144000  0.45333000  0.55377000  1.0
  C  C25  1  0.54855000  0.54668000  0.44623000  1.0
  C  C26  1  0.62326000  0.31320000  0.59624000  1.0
  C  C27  1  0.37674000  0.68680000  0.40375000  1.0
  C  C28  1  0.52792000  0.23087000  0.69935000  1.0
  C  C29  1  0.47208000  0.76913000  0.30065000  1.0
  N  N30  1  0.27156000  0.28009000  0.76112000  1.0
  N  N31  1  0.72844000  0.71991000  0.23887000  1.0
  O  O32  1  0.26610000  0.23785000  0.05101000  1.0
  O  O33  1  0.73391000  0.76214000  0.94898000  1.0
  O  O34  1  0.67997000  0.05127000  0.13408000  1.0
  O  O35  1  0.32004000  0.94873000  0.86592000  1.0
  O  O36  1  0.74948000  0.22210000  0.93774000  1.0
  O  O37  1  0.25053000  0.77790000  0.06226000  1.0
