# generated using pymatgen
data_Co3H50C76(N5O4)2
_symmetry_space_group_name_H-M   'P 1'
_cell_length_a   11.45440000
_cell_length_b   11.59940000
_cell_length_c   19.52460000
_cell_angle_alpha   79.70260000
_cell_angle_beta   74.74610000
_cell_angle_gamma   62.84470000
_symmetry_Int_Tables_number   1
_chemical_formula_structural   Co3H50C76(N5O4)2
_chemical_formula_sum   'Co3 H50 C76 N10 O8'
_cell_volume   2221.64978305
_cell_formula_units_Z   1
loop_
 _symmetry_equiv_pos_site_id
 _symmetry_equiv_pos_as_xyz
  1  'x, y, z'
loop_
 _atom_site_type_symbol
 _atom_site_label
 _atom_site_symmetry_multiplicity
 _atom_site_fract_x
 _atom_site_fract_y
 _atom_site_fract_z
 _atom_site_occupancy
  Co  Co0  1  0.50000000  0.50000000  0.00000000  1.0
  Co  Co1  1  0.00000000  0.50000000  0.00000000  1.0
  Co  Co2  1  0.00000000  0.00000000  0.00000000  1.0
  H  H3  1  0.31305000  0.82365000  0.03603000  1.0
  H  H4  1  0.41845000  0.60569000  0.13787000  1.0
  H  H5  1  0.38585000  0.52263000  0.26379000  1.0
  H  H6  1  0.47609000  0.15564000  0.18866000  1.0
  H  H7  1  0.49379000  0.25790000  0.06676000  1.0
  H  H8  1  0.45262000  0.41296000  0.35545000  1.0
  H  H9  1  0.41276000  0.33307000  0.47889000  1.0
  H  H10  1  0.34674000  0.03323000  0.41496000  1.0
  H  H11  1  0.38117000  0.11635000  0.29208000  1.0
  H  H12  1  0.43342000  0.22905000  0.57370000  1.0
  H  H13  1  0.36406000  0.17273000  0.69863000  1.0
  H  H14  1  0.18088000  0.96060000  0.64104000  1.0
  H  H15  1  0.24927000  0.01782000  0.51606000  1.0
  H  H16  1  0.35710000  0.05308000  0.80100000  1.0
  H  H17  1  0.24626000  0.02706000  0.92625000  1.0
  H  H18  1  0.03278000  0.03148000  0.73801000  1.0
  H  H19  1  0.93695000  0.00527000  0.86584000  1.0
  H  H20  1  0.18474000  0.33720000  0.08934000  1.0
  H  H21  1  0.20334000  0.33203000  0.21408000  1.0
  H  H22  1  0.85780000  0.70349000  0.23197000  1.0
  H  H23  1  0.85062000  0.69146000  0.10705000  1.0
  H  H24  1  0.09158000  0.30536000  0.32792000  1.0
  H  H25  1  0.07563000  0.29546000  0.45542000  1.0
  H  H26  1  0.95069000  0.70965000  0.44199000  1.0
  H  H27  1  0.96949000  0.71773000  0.31453000  1.0
  H  H28  1  0.68695000  0.17635000  0.96397000  1.0
  H  H29  1  0.58155000  0.39431000  0.86213000  1.0
  H  H30  1  0.61414000  0.47737000  0.73621000  1.0
  H  H31  1  0.52391000  0.84436000  0.81134000  1.0
  H  H32  1  0.50621000  0.74210000  0.93324000  1.0
  H  H33  1  0.54738000  0.58704000  0.64455000  1.0
  H  H34  1  0.58723000  0.66693000  0.52111000  1.0
  H  H35  1  0.65326000  0.96677000  0.58504000  1.0
  H  H36  1  0.61883000  0.88365000  0.70792000  1.0
  H  H37  1  0.56658000  0.77095000  0.42630000  1.0
  H  H38  1  0.63594000  0.82727000  0.30137000  1.0
  H  H39  1  0.81912000  0.03939000  0.35896000  1.0
  H  H40  1  0.75073000  0.98218000  0.48394000  1.0
  H  H41  1  0.64290000  0.94692000  0.19900000  1.0
  H  H42  1  0.75374000  0.97295000  0.07375000  1.0
  H  H43  1  0.96722000  0.96852000  0.26199000  1.0
  H  H44  1  0.06305000  0.99473000  0.13416000  1.0
  H  H45  1  0.81526000  0.66280000  0.91066000  1.0
  H  H46  1  0.79666000  0.66797000  0.78592000  1.0
  H  H47  1  0.14220000  0.29651000  0.76803000  1.0
  H  H48  1  0.14938000  0.30854000  0.89295000  1.0
  H  H49  1  0.90841000  0.69464000  0.67208000  1.0
  H  H50  1  0.92437000  0.70454000  0.54458000  1.0
  H  H51  1  0.04931000  0.29035000  0.55800000  1.0
  H  H52  1  0.03051000  0.28227000  0.68547000  1.0
  C  C53  1  0.28537000  0.48223000  0.97240000  1.0
  C  C54  1  0.23435000  0.61504000  0.99292000  1.0
  C  C55  1  0.11677000  0.72967000  0.99314000  1.0
  C  C56  1  0.26612000  0.77170000  0.02109000  1.0
  C  C57  1  0.98350000  0.76743000  0.97873000  1.0
  C  C58  1  0.42957000  0.50669000  0.15213000  1.0
  C  C59  1  0.41453000  0.45779000  0.22221000  1.0
  C  C60  1  0.43239000  0.32795000  0.23946000  1.0
  C  C61  1  0.46118000  0.25623000  0.18102000  1.0
  C  C62  1  0.47334000  0.31143000  0.11221000  1.0
  C  C63  1  0.41765000  0.27362000  0.31292000  1.0
  C  C64  1  0.42746000  0.33050000  0.36812000  1.0
  C  C65  1  0.40681000  0.28344000  0.43841000  1.0
  C  C66  1  0.37427000  0.17661000  0.45860000  1.0
  C  C67  1  0.36784000  0.11802000  0.40297000  1.0
  C  C68  1  0.38928000  0.16450000  0.33261000  1.0
  C  C69  1  0.34404000  0.13241000  0.53337000  1.0
  C  C70  1  0.37679000  0.17100000  0.58769000  1.0
  C  C71  1  0.33839000  0.13766000  0.65901000  1.0
  C  C72  1  0.26223000  0.06524000  0.68110000  1.0
  C  C73  1  0.23448000  0.02153000  0.62677000  1.0
  C  C74  1  0.27478000  0.05318000  0.55554000  1.0
  C  C75  1  0.20700000  0.04320000  0.75600000  1.0
  C  C76  1  0.26419000  0.04208000  0.81212000  1.0
  C  C77  1  0.20380000  0.02692000  0.88248000  1.0
  C  C78  1  0.08638000  0.02842000  0.77737000  1.0
  C  C79  1  0.03025000  0.01574000  0.84862000  1.0
  C  C80  1  0.11471000  0.41600000  0.12320000  1.0
  C  C81  1  0.12286000  0.41388000  0.19297000  1.0
  C  C82  1  0.03005000  0.51676000  0.23527000  1.0
  C  C83  1  0.93318000  0.62050000  0.20236000  1.0
  C  C84  1  0.92855000  0.61537000  0.13268000  1.0
  C  C85  1  0.02949000  0.51250000  0.31118000  1.0
  C  C86  1  0.06109000  0.39445000  0.35288000  1.0
  C  C87  1  0.05033000  0.38956000  0.42577000  1.0
  C  C88  1  0.00803000  0.50227000  0.46092000  1.0
  C  C89  1  0.98182000  0.61940000  0.41826000  1.0
  C  C90  1  0.99175000  0.62475000  0.34532000  1.0
  C  C91  1  0.71462000  0.51777000  0.02760000  1.0
  C  C92  1  0.76565000  0.38496000  0.00708000  1.0
  C  C93  1  0.88323000  0.27033000  0.00686000  1.0
  C  C94  1  0.73388000  0.22830000  0.97890000  1.0
  C  C95  1  0.01650000  0.23257000  0.02127000  1.0
  C  C96  1  0.57043000  0.49331000  0.84788000  1.0
  C  C97  1  0.58547000  0.54221000  0.77779000  1.0
  C  C98  1  0.56761000  0.67205000  0.76054000  1.0
  C  C99  1  0.53882000  0.74377000  0.81898000  1.0
  C  C100  1  0.52666000  0.68857000  0.88779000  1.0
  C  C101  1  0.58235000  0.72638000  0.68708000  1.0
  C  C102  1  0.57254000  0.66950000  0.63188000  1.0
  C  C103  1  0.59319000  0.71656000  0.56159000  1.0
  C  C104  1  0.62573000  0.82339000  0.54140000  1.0
  C  C105  1  0.63216000  0.88198000  0.59703000  1.0
  C  C106  1  0.61072000  0.83550000  0.66739000  1.0
  C  C107  1  0.65597000  0.86759000  0.46663000  1.0
  C  C108  1  0.62321000  0.82899000  0.41231000  1.0
  C  C109  1  0.66161000  0.86234000  0.34099000  1.0
  C  C110  1  0.73777000  0.93476000  0.31890000  1.0
  C  C111  1  0.76552000  0.97847000  0.37323000  1.0
  C  C112  1  0.72522000  0.94682000  0.44446000  1.0
  C  C113  1  0.79300000  0.95681000  0.24400000  1.0
  C  C114  1  0.73581000  0.95792000  0.18788000  1.0
  C  C115  1  0.79620000  0.97308000  0.11752000  1.0
  C  C116  1  0.91362000  0.97158000  0.22263000  1.0
  C  C117  1  0.96975000  0.98426000  0.15138000  1.0
  C  C118  1  0.88529000  0.58400000  0.87680000  1.0
  C  C119  1  0.87714000  0.58613000  0.80703000  1.0
  C  C120  1  0.96995000  0.48324000  0.76473000  1.0
  C  C121  1  0.06682000  0.37950000  0.79764000  1.0
  C  C122  1  0.07145000  0.38463000  0.86732000  1.0
  C  C123  1  0.97051000  0.48750000  0.68882000  1.0
  C  C124  1  0.93891000  0.60555000  0.64712000  1.0
  C  C125  1  0.94967000  0.61044000  0.57423000  1.0
  C  C126  1  0.99197000  0.49773000  0.53908000  1.0
  C  C127  1  0.01818000  0.38060000  0.58174000  1.0
  C  C128  1  0.00824000  0.37525000  0.65468000  1.0
  N  N129  1  0.32599000  0.64374000  0.01075000  1.0
  N  N130  1  0.13978000  0.82673000  0.01013000  1.0
  N  N131  1  0.46039000  0.43457000  0.09711000  1.0
  N  N132  1  0.08708000  0.01472000  0.90167000  1.0
  N  N133  1  0.01714000  0.51400000  0.09326000  1.0
  N  N134  1  0.67401000  0.35626000  0.98925000  1.0
  N  N135  1  0.86022000  0.17327000  0.98987000  1.0
  N  N136  1  0.53961000  0.56543000  0.90289000  1.0
  N  N137  1  0.91292000  0.98528000  0.09833000  1.0
  N  N138  1  0.98286000  0.48600000  0.90674000  1.0
  O  O139  1  0.41369000  0.41218000  0.97118000  1.0
  O  O140  1  0.21535000  0.43782000  0.95661000  1.0
  O  O141  1  0.94174000  0.68405000  0.97528000  1.0
  O  O142  1  0.91010000  0.88917000  0.97133000  1.0
  O  O143  1  0.58631000  0.58782000  0.02882000  1.0
  O  O144  1  0.78465000  0.56218000  0.04339000  1.0
  O  O145  1  0.05826000  0.31594000  0.02472000  1.0
  O  O146  1  0.08990000  0.11083000  0.02867000  1.0
