# generated using pymatgen
data_AlH6C16Cl3O5
_symmetry_space_group_name_H-M   'P 1'
_cell_length_a   6.68775000
_cell_length_b   23.76340000
_cell_length_c   26.03090000
_cell_angle_alpha   78.52500000
_cell_angle_beta   89.99990000
_cell_angle_gamma   89.99920000
_symmetry_Int_Tables_number   1
_chemical_formula_structural   AlH6C16Cl3O5
_chemical_formula_sum   'Al4 H24 C64 Cl12 O20'
_cell_volume   4054.23584744
_cell_formula_units_Z   4
loop_
 _symmetry_equiv_pos_site_id
 _symmetry_equiv_pos_as_xyz
  1  'x, y, z'
loop_
 _atom_site_type_symbol
 _atom_site_label
 _atom_site_symmetry_multiplicity
 _atom_site_fract_x
 _atom_site_fract_y
 _atom_site_fract_z
 _atom_site_occupancy
  Al  Al0  1  0.78817000  0.25017000  0.74987000  1.0
  Al  Al1  1  0.21183000  0.74983000  0.25013000  1.0
  Al  Al2  1  0.28817000  0.24983000  0.75013000  1.0
  Al  Al3  1  0.71183000  0.75017000  0.24987000  1.0
  H  H4  1  0.05755000  0.64973000  0.01894000  1.0
  H  H5  1  0.94245000  0.35027000  0.98106000  1.0
  H  H6  1  0.55755000  0.85027000  0.48106000  1.0
  H  H7  1  0.44245000  0.14973000  0.51894000  1.0
  H  H8  1  0.87596000  0.50888000  0.14233000  1.0
  H  H9  1  0.12403000  0.49112000  0.85767000  1.0
  H  H10  1  0.37597000  0.99112000  0.35767000  1.0
  H  H11  1  0.62403000  0.00888000  0.64233000  1.0
  H  H12  1  0.73075000  0.43222000  0.98911000  1.0
  H  H13  1  0.26925000  0.56778000  0.01089000  1.0
  H  H14  1  0.23075000  0.06778000  0.51089000  1.0
  H  H15  1  0.76925000  0.93222000  0.48911000  1.0
  H  H16  1  0.30684000  0.54522000  0.45586000  1.0
  H  H17  1  0.69315000  0.45478000  0.54414000  1.0
  H  H18  1  0.80685000  0.95484000  0.04420000  1.0
  H  H19  1  0.19315000  0.04516000  0.95580000  1.0
  H  H20  1  0.33506000  0.46506000  0.53384000  1.0
  H  H21  1  0.66493000  0.53494000  0.46616000  1.0
  H  H22  1  0.83506000  0.03501000  0.96622000  1.0
  H  H23  1  0.16495000  0.96499000  0.03378000  1.0
  H  H24  1  0.53734000  0.32538000  0.74271000  1.0
  H  H25  1  0.46266000  0.67462000  0.25729000  1.0
  H  H26  1  0.03734000  0.17462000  0.75729000  1.0
  H  H27  1  0.96266000  0.82538000  0.24271000  1.0
  C  C28  1  0.53888000  0.17359000  0.82671000  1.0
  C  C29  1  0.46113000  0.82641000  0.17329000  1.0
  C  C30  1  0.03887000  0.32641000  0.67329000  1.0
  C  C31  1  0.96112000  0.67359000  0.32671000  1.0
  C  C32  1  0.53847000  0.18827000  0.68685000  1.0
  C  C33  1  0.46153000  0.81174000  0.31315000  1.0
  C  C34  1  0.03848000  0.31173000  0.81315000  1.0
  C  C35  1  0.96152000  0.68827000  0.18685000  1.0
  C  C36  1  0.01631000  0.66909000  0.09547000  1.0
  C  C37  1  0.98369000  0.33090000  0.90453000  1.0
  C  C38  1  0.51630000  0.83091000  0.40453000  1.0
  C  C39  1  0.48370000  0.16909000  0.59547000  1.0
  C  C40  1  0.01805000  0.63260000  0.05964000  1.0
  C  C41  1  0.98195000  0.36740000  0.94036000  1.0
  C  C42  1  0.51805000  0.86740000  0.44036000  1.0
  C  C43  1  0.48195000  0.13260000  0.55964000  1.0
  C  C44  1  0.96668000  0.57454000  0.07589000  1.0
  C  C45  1  0.03333000  0.42546000  0.92411000  1.0
  C  C46  1  0.46667000  0.92546000  0.42411000  1.0
  C  C47  1  0.53332000  0.07454000  0.57589000  1.0
  C  C48  1  0.91314000  0.55388000  0.12835000  1.0
  C  C49  1  0.08686000  0.44612000  0.87165000  1.0
  C  C50  1  0.41314000  0.94612000  0.37165000  1.0
  C  C51  1  0.58686000  0.05388000  0.62835000  1.0
  C  C52  1  0.91058000  0.59114000  0.16340000  1.0
  C  C53  1  0.08942000  0.40886000  0.83661000  1.0
  C  C54  1  0.41057000  0.90886000  0.33660000  1.0
  C  C55  1  0.58943000  0.09114000  0.66340000  1.0
  C  C56  1  0.96206000  0.64924000  0.14794000  1.0
  C  C57  1  0.03795000  0.35076000  0.85206000  1.0
  C  C58  1  0.46205000  0.85076000  0.35206000  1.0
  C  C59  1  0.53795000  0.14924000  0.64794000  1.0
  C  C60  1  0.82975000  0.49593000  0.03121000  1.0
  C  C61  1  0.17025000  0.50407000  0.96879000  1.0
  C  C62  1  0.32975000  0.00407000  0.46879000  1.0
  C  C63  1  0.67025000  0.99593000  0.53121000  1.0
  C  C64  1  0.85177000  0.46127000  0.99428000  1.0
  C  C65  1  0.14823000  0.53873000  0.00572000  1.0
  C  C66  1  0.35177000  0.03873000  0.50572000  1.0
  C  C67  1  0.64823000  0.96127000  0.49428000  1.0
  C  C68  1  0.02153000  0.46414000  0.96213000  1.0
  C  C69  1  0.97847000  0.53586000  0.03787000  1.0
  C  C70  1  0.52153000  0.03586000  0.53787000  1.0
  C  C71  1  0.47847000  0.96414000  0.46213000  1.0
  C  C72  1  0.18913000  0.48065000  0.51875000  1.0
  C  C73  1  0.81086000  0.51935000  0.48125000  1.0
  C  C74  1  0.68913000  0.01939000  0.98128000  1.0
  C  C75  1  0.31087000  0.98061000  0.01872000  1.0
  C  C76  1  0.01582000  0.45479000  0.54400000  1.0
  C  C77  1  0.98417000  0.54521000  0.45600000  1.0
  C  C78  1  0.51583000  0.04521000  0.95600000  1.0
  C  C79  1  0.48417000  0.95478000  0.04400000  1.0
  C  C80  1  0.82640000  0.47490000  0.52450000  1.0
  C  C81  1  0.17359000  0.52510000  0.47550000  1.0
  C  C82  1  0.32640000  0.02507000  0.97547000  1.0
  C  C83  1  0.67360000  0.97493000  0.02453000  1.0
  C  C84  1  0.02989000  0.40963000  0.58835000  1.0
  C  C85  1  0.97010000  0.59037000  0.41165000  1.0
  C  C86  1  0.52989000  0.09037000  0.91165000  1.0
  C  C87  1  0.47010000  0.90963000  0.08835000  1.0
  C  C88  1  0.96269000  0.62900000  0.37315000  1.0
  C  C89  1  0.03731000  0.37100000  0.62686000  1.0
  C  C90  1  0.46268000  0.87100000  0.12686000  1.0
  C  C91  1  0.53732000  0.12900000  0.87314000  1.0
  Cl  Cl92  1  0.07900000  0.74054000  0.07427000  1.0
  Cl  Cl93  1  0.92100000  0.25945000  0.92574000  1.0
  Cl  Cl94  1  0.57899000  0.75945000  0.42574000  1.0
  Cl  Cl95  1  0.42101000  0.24055000  0.57426000  1.0
  Cl  Cl96  1  0.84767000  0.56419000  0.22823000  1.0
  Cl  Cl97  1  0.15233000  0.43581000  0.77177000  1.0
  Cl  Cl98  1  0.34767000  0.93581000  0.27177000  1.0
  Cl  Cl99  1  0.65234000  0.06419000  0.72823000  1.0
  Cl  Cl100  1  0.60803000  0.49005000  0.06647000  1.0
  Cl  Cl101  1  0.39198000  0.50995000  0.93353000  1.0
  Cl  Cl102  1  0.10802000  0.00995000  0.43353000  1.0
  Cl  Cl103  1  0.89198000  0.99005000  0.56647000  1.0
  O  O104  1  0.36850000  0.20162000  0.70231000  1.0
  O  O105  1  0.63150000  0.79838000  0.29769000  1.0
  O  O106  1  0.86849000  0.29838000  0.79769000  1.0
  O  O107  1  0.13152000  0.70162000  0.20231000  1.0
  O  O108  1  0.70929000  0.19090000  0.80814000  1.0
  O  O109  1  0.29071000  0.80910000  0.19186000  1.0
  O  O110  1  0.20928000  0.30910000  0.69186000  1.0
  O  O111  1  0.79073000  0.69090000  0.30814000  1.0
  O  O112  1  0.70833000  0.20309000  0.70107000  1.0
  O  O113  1  0.29167000  0.79691000  0.29893000  1.0
  O  O114  1  0.20832000  0.29691000  0.79893000  1.0
  O  O115  1  0.79169000  0.70309000  0.20107000  1.0
  O  O116  1  0.86818000  0.30917000  0.69172000  1.0
  O  O117  1  0.13182000  0.69083000  0.30828000  1.0
  O  O118  1  0.36820000  0.19083000  0.80828000  1.0
  O  O119  1  0.63180000  0.80917000  0.19171000  1.0
  O  O120  1  0.53793000  0.28396000  0.74699000  1.0
  O  O121  1  0.46207000  0.71604000  0.25301000  1.0
  O  O122  1  0.03793000  0.21604000  0.75301000  1.0
  O  O123  1  0.96207000  0.78396000  0.24699000  1.0
