# generated using pymatgen
data_UH16C12O7
_symmetry_space_group_name_H-M   'P 1'
_cell_length_a   6.61175000
_cell_length_b   12.14320000
_cell_length_c   18.62900000
_cell_angle_alpha   77.88560000
_cell_angle_beta   80.32790000
_cell_angle_gamma   74.29760000
_symmetry_Int_Tables_number   1
_chemical_formula_structural   UH16C12O7
_chemical_formula_sum   'U4 H64 C48 O28'
_cell_volume   1397.93702128
_cell_formula_units_Z   4
loop_
 _symmetry_equiv_pos_site_id
 _symmetry_equiv_pos_as_xyz
  1  'x, y, z'
loop_
 _atom_site_type_symbol
 _atom_site_label
 _atom_site_symmetry_multiplicity
 _atom_site_fract_x
 _atom_site_fract_y
 _atom_site_fract_z
 _atom_site_occupancy
  U  U0  1  0.67362000  0.26788000  0.54632000  1.0
  U  U1  1  0.48613000  0.23217000  0.95300000  1.0
  U  U2  1  0.32641000  0.73213000  0.45368000  1.0
  U  U3  1  0.51387000  0.76781000  0.04700000  1.0
  H  H4  1  0.65424000  0.05032000  0.48038000  1.0
  H  H5  1  0.18492000  0.44849000  0.01974000  1.0
  H  H6  1  0.34572000  0.94968000  0.51963000  1.0
  H  H7  1  0.81510000  0.55150000  0.98025000  1.0
  H  H8  1  0.49020000  0.16214000  0.44756000  1.0
  H  H9  1  0.10060000  0.33620000  0.05000000  1.0
  H  H10  1  0.50981000  0.83786000  0.55244000  1.0
  H  H11  1  0.89940000  0.66380000  0.95000000  1.0
  H  H12  1  0.72647000  0.98951000  0.77268000  1.0
  H  H13  1  0.48951000  0.51064000  0.72677000  1.0
  H  H14  1  0.27352000  0.01048000  0.22732000  1.0
  H  H15  1  0.51048000  0.48937000  0.27324000  1.0
  H  H16  1  0.76893000  0.11670000  0.79497000  1.0
  H  H17  1  0.67956000  0.38282000  0.70565000  1.0
  H  H18  1  0.23105000  0.88329000  0.20503000  1.0
  H  H19  1  0.32043000  0.61718000  0.29434000  1.0
  H  H20  1  0.04293000  0.09858000  0.88002000  1.0
  H  H21  1  0.02025000  0.39961000  0.62225000  1.0
  H  H22  1  0.95709000  0.90141000  0.11999000  1.0
  H  H23  1  0.97975000  0.60040000  0.37776000  1.0
  H  H24  1  0.18721000  0.95922000  0.91964000  1.0
  H  H25  1  0.06650000  0.53864000  0.58363000  1.0
  H  H26  1  0.81280000  0.04077000  0.08036000  1.0
  H  H27  1  0.93350000  0.46136000  0.41637000  1.0
  H  H28  1  0.40426000  0.05291000  0.81545000  1.0
  H  H29  1  0.27145000  0.44304000  0.68942000  1.0
  H  H30  1  0.59574000  0.94709000  0.18456000  1.0
  H  H31  1  0.72856000  0.55697000  0.31058000  1.0
  H  H32  1  0.31055000  0.09100000  0.68673000  1.0
  H  H33  1  0.08668000  0.40650000  0.81699000  1.0
  H  H34  1  0.68943000  0.90901000  0.31327000  1.0
  H  H35  1  0.91332000  0.59351000  0.18301000  1.0
  H  H36  1  0.11673000  0.17512000  0.74370000  1.0
  H  H37  1  0.03188000  0.32275000  0.75947000  1.0
  H  H38  1  0.88324000  0.82487000  0.25630000  1.0
  H  H39  1  0.96813000  0.67726000  0.24053000  1.0
  H  H40  1  0.00350000  0.87099000  0.68866000  1.0
  H  H41  1  0.56609000  0.62914000  0.81200000  1.0
  H  H42  1  0.99649000  0.12900000  0.31135000  1.0
  H  H43  1  0.43392000  0.37087000  0.18801000  1.0
  H  H44  1  0.24425000  0.91161000  0.65496000  1.0
  H  H45  1  0.81343000  0.58703000  0.84729000  1.0
  H  H46  1  0.75573000  0.08838000  0.34504000  1.0
  H  H47  1  0.18660000  0.41297000  0.15271000  1.0
  H  H48  1  0.29480000  0.74692000  0.76116000  1.0
  H  H49  1  0.80755000  0.75134000  0.74101000  1.0
  H  H50  1  0.70520000  0.25308000  0.23885000  1.0
  H  H51  1  0.19244000  0.24867000  0.25899000  1.0
  H  H52  1  0.93210000  0.79063000  0.82834000  1.0
  H  H53  1  0.55443000  0.70850000  0.67237000  1.0
  H  H54  1  0.06792000  0.20936000  0.17167000  1.0
  H  H55  1  0.44555000  0.29150000  0.32764000  1.0
  H  H56  1  0.12787000  0.77748000  0.88733000  1.0
  H  H57  1  0.79499000  0.72097000  0.61443000  1.0
  H  H58  1  0.87215000  0.22252000  0.11267000  1.0
  H  H59  1  0.20498000  0.27904000  0.38557000  1.0
  H  H60  1  0.46825000  0.83485000  0.83611000  1.0
  H  H61  1  0.14189000  0.66136000  0.66796000  1.0
  H  H62  1  0.53176000  0.16515000  0.16388000  1.0
  H  H63  1  0.85809000  0.33865000  0.33203000  1.0
  H  H64  1  0.51474000  0.89201000  0.74038000  1.0
  H  H65  1  0.14915000  0.60461000  0.76399000  1.0
  H  H66  1  0.48525000  0.10799000  0.25961000  1.0
  H  H67  1  0.85085000  0.39541000  0.23601000  1.0
  C  C68  1  0.90596000  0.11007000  0.65398000  1.0
  C  C69  1  0.66848000  0.38984000  0.84695000  1.0
  C  C70  1  0.09404000  0.88993000  0.34602000  1.0
  C  C71  1  0.33152000  0.61016000  0.15306000  1.0
  C  C72  1  0.77518000  0.95422000  0.91972000  1.0
  C  C73  1  0.64976000  0.54506000  0.58083000  1.0
  C  C74  1  0.22481000  0.04578000  0.08028000  1.0
  C  C75  1  0.35024000  0.45495000  0.41917000  1.0
  C  C76  1  0.01914000  0.03298000  0.71755000  1.0
  C  C77  1  0.76920000  0.46627000  0.78409000  1.0
  C  C78  1  0.98086000  0.96702000  0.28245000  1.0
  C  C79  1  0.23079000  0.53374000  0.21591000  1.0
  C  C80  1  0.84620000  0.02819000  0.78503000  1.0
  C  C81  1  0.65950000  0.47131000  0.71563000  1.0
  C  C82  1  0.15380000  0.97180000  0.21498000  1.0
  C  C83  1  0.34050000  0.52869000  0.28438000  1.0
  C  C84  1  0.94754000  0.95411000  0.85430000  1.0
  C  C85  1  0.75717000  0.54463000  0.64701000  1.0
  C  C86  1  0.05246000  0.04588000  0.14570000  1.0
  C  C87  1  0.24282000  0.45537000  0.35300000  1.0
  C  C88  1  0.11654000  0.00990000  0.86988000  1.0
  C  C89  1  0.99627000  0.48800000  0.63282000  1.0
  C  C90  1  0.88346000  0.99009000  0.13013000  1.0
  C  C91  1  0.00373000  0.51200000  0.36718000  1.0
  C  C92  1  0.28736000  0.01234000  0.80320000  1.0
  C  C93  1  0.10260000  0.48459000  0.70053000  1.0
  C  C94  1  0.71265000  0.98765000  0.19681000  1.0
  C  C95  1  0.89740000  0.51542000  0.29946000  1.0
  C  C96  1  0.18861000  0.08601000  0.73463000  1.0
  C  C97  1  0.00753000  0.41183000  0.76848000  1.0
  C  C98  1  0.81138000  0.91399000  0.26537000  1.0
  C  C99  1  0.99247000  0.58818000  0.23151000  1.0
  C  C100  1  0.12143000  0.90902000  0.70292000  1.0
  C  C101  1  0.73538000  0.59016000  0.79876000  1.0
  C  C102  1  0.87857000  0.09098000  0.29708000  1.0
  C  C103  1  0.26462000  0.40984000  0.20124000  1.0
  C  C104  1  0.22241000  0.83571000  0.77160000  1.0
  C  C105  1  0.83276000  0.66254000  0.73064000  1.0
  C  C106  1  0.77760000  0.16429000  0.22840000  1.0
  C  C107  1  0.16723000  0.33747000  0.26936000  1.0
  C  C108  1  0.05279000  0.83059000  0.83884000  1.0
  C  C109  1  0.72493000  0.66808000  0.66261000  1.0
  C  C110  1  0.94722000  0.16941000  0.16116000  1.0
  C  C111  1  0.27506000  0.33192000  0.33739000  1.0
  C  C112  1  0.39164000  0.88900000  0.78819000  1.0
  C  C113  1  0.07081000  0.60787000  0.71554000  1.0
  C  C114  1  0.60836000  0.11100000  0.21180000  1.0
  C  C115  1  0.92919000  0.39214000  0.28445000  1.0
  O  O116  1  0.88422000  0.22052000  0.64476000  1.0
  O  O117  1  0.74630000  0.27924000  0.85604000  1.0
  O  O118  1  0.11577000  0.77948000  0.35525000  1.0
  O  O119  1  0.25370000  0.72076000  0.14395000  1.0
  O  O120  1  0.82277000  0.06999000  0.61079000  1.0
  O  O121  1  0.50321000  0.43020000  0.88954000  1.0
  O  O122  1  0.17725000  0.93001000  0.38920000  1.0
  O  O123  1  0.49680000  0.56980000  0.11048000  1.0
  O  O124  1  0.72304000  0.85994000  0.94937000  1.0
  O  O125  1  0.52908000  0.63910000  0.55217000  1.0
  O  O126  1  0.27694000  0.14006000  0.05062000  1.0
  O  O127  1  0.47096000  0.36091000  0.44782000  1.0
  O  O128  1  0.68721000  0.04954000  0.94320000  1.0
  O  O129  1  0.68366000  0.45064000  0.55589000  1.0
  O  O130  1  0.31280000  0.95046000  0.05679000  1.0
  O  O131  1  0.31636000  0.54936000  0.44412000  1.0
  O  O132  1  0.54907000  0.11922000  0.49301000  1.0
  O  O133  1  0.16093000  0.38069000  0.00543000  1.0
  O  O134  1  0.45096000  0.88080000  0.50699000  1.0
  O  O135  1  0.83908000  0.61932000  0.99456000  1.0
  O  O136  1  0.90823000  0.25121000  0.47966000  1.0
  O  O137  1  0.63793000  0.24831000  0.02078000  1.0
  O  O138  1  0.09180000  0.74880000  0.52035000  1.0
  O  O139  1  0.36205000  0.75166000  0.97922000  1.0
  O  O140  1  0.43741000  0.27934000  0.61151000  1.0
  O  O141  1  0.32566000  0.22169000  0.88670000  1.0
  O  O142  1  0.56260000  0.72068000  0.38848000  1.0
  O  O143  1  0.67434000  0.77831000  0.11329000  1.0
