# generated using pymatgen
data_AgH11C8IN
_symmetry_space_group_name_H-M   'P 1'
_cell_length_a   4.48408000
_cell_length_b   13.44810000
_cell_length_c   15.90610000
_cell_angle_alpha   90.00030000
_cell_angle_beta   90.00040000
_cell_angle_gamma   88.50750000
_symmetry_Int_Tables_number   1
_chemical_formula_structural   AgH11C8IN
_chemical_formula_sum   'Ag4 H44 C32 I4 N4'
_cell_volume   958.84990171
_cell_formula_units_Z   4
loop_
 _symmetry_equiv_pos_site_id
 _symmetry_equiv_pos_as_xyz
  1  'x, y, z'
loop_
 _atom_site_type_symbol
 _atom_site_label
 _atom_site_symmetry_multiplicity
 _atom_site_fract_x
 _atom_site_fract_y
 _atom_site_fract_z
 _atom_site_occupancy
  Ag  Ag0  1  0.17164000  0.57374000  0.44037000  1.0
  Ag  Ag1  1  0.82835000  0.92627000  0.94036000  1.0
  Ag  Ag2  1  0.82835000  0.42626000  0.55963000  1.0
  Ag  Ag3  1  0.17165000  0.07373000  0.05963000  1.0
  H  H4  1  0.83111000  0.66863000  0.54152000  1.0
  H  H5  1  0.16890000  0.83137000  0.04152000  1.0
  H  H6  1  0.16888000  0.33136000  0.45848000  1.0
  H  H7  1  0.83110000  0.16864000  0.95848000  1.0
  H  H8  1  0.83704000  0.78324000  0.59644000  1.0
  H  H9  1  0.16296000  0.71676000  0.09643000  1.0
  H  H10  1  0.16294000  0.21675000  0.40357000  1.0
  H  H11  1  0.83704000  0.28324000  0.90357000  1.0
  H  H12  1  0.51964000  0.75215000  0.53629000  1.0
  H  H13  1  0.48037000  0.74785000  0.03629000  1.0
  H  H14  1  0.48035000  0.24785000  0.46371000  1.0
  H  H15  1  0.51963000  0.25215000  0.96371000  1.0
  H  H16  1  0.66766000  0.93646000  0.48637000  1.0
  H  H17  1  0.33237000  0.56354000  0.98636000  1.0
  H  H18  1  0.33236000  0.06354000  0.51364000  1.0
  H  H19  1  0.66764000  0.43647000  0.01364000  1.0
  H  H20  1  0.72626000  0.08482000  0.40123000  1.0
  H  H21  1  0.27373000  0.41517000  0.90123000  1.0
  H  H22  1  0.27373000  0.91517000  0.59877000  1.0
  H  H23  1  0.72627000  0.58483000  0.09877000  1.0
  H  H24  1  0.68203000  0.04418000  0.29501000  1.0
  H  H25  1  0.31795000  0.45582000  0.79500000  1.0
  H  H26  1  0.31796000  0.95581000  0.70500000  1.0
  H  H27  1  0.68205000  0.54418000  0.20500000  1.0
  H  H28  1  0.02821000  0.08800000  0.32830000  1.0
  H  H29  1  0.97176000  0.41200000  0.82829000  1.0
  H  H30  1  0.97177000  0.91200000  0.67171000  1.0
  H  H31  1  0.02824000  0.58800000  0.17171000  1.0
  H  H32  1  0.21227000  0.91538000  0.26365000  1.0
  H  H33  1  0.78774000  0.58462000  0.76364000  1.0
  H  H34  1  0.78773000  0.08462000  0.73636000  1.0
  H  H35  1  0.21225000  0.41538000  0.23636000  1.0
  H  H36  1  0.59486000  0.69825000  0.32358000  1.0
  H  H37  1  0.40516000  0.80175000  0.82357000  1.0
  H  H38  1  0.40514000  0.30175000  0.67642000  1.0
  H  H39  1  0.59485000  0.19825000  0.17642000  1.0
  H  H40  1  0.28321000  0.65568000  0.26858000  1.0
  H  H41  1  0.71679000  0.84432000  0.76858000  1.0
  H  H42  1  0.71679000  0.34432000  0.73142000  1.0
  H  H43  1  0.28321000  0.15568000  0.23142000  1.0
  H  H44  1  0.46724000  0.76462000  0.23253000  1.0
  H  H45  1  0.53276000  0.73539000  0.73252000  1.0
  H  H46  1  0.53275000  0.23538000  0.76747000  1.0
  H  H47  1  0.46724000  0.26461000  0.26747000  1.0
  C  C48  1  0.89429000  0.79647000  0.46256000  1.0
  C  C49  1  0.10573000  0.70353000  0.96256000  1.0
  C  C50  1  0.10572000  0.20353000  0.53745000  1.0
  C  C51  1  0.89427000  0.29647000  0.03744000  1.0
  C  C52  1  0.76440000  0.74750000  0.53812000  1.0
  C  C53  1  0.23560000  0.75249000  0.03811000  1.0
  C  C54  1  0.23559000  0.25249000  0.46188000  1.0
  C  C55  1  0.76440000  0.24751000  0.96188000  1.0
  C  C56  1  0.81815000  0.89560000  0.44416000  1.0
  C  C57  1  0.18185000  0.60441000  0.94415000  1.0
  C  C58  1  0.18187000  0.10440000  0.55585000  1.0
  C  C59  1  0.81815000  0.39560000  0.05585000  1.0
  C  C60  1  0.92787000  0.94120000  0.37223000  1.0
  C  C61  1  0.07214000  0.55880000  0.87222000  1.0
  C  C62  1  0.07214000  0.05880000  0.62778000  1.0
  C  C63  1  0.92786000  0.44120000  0.12777000  1.0
  C  C64  1  0.83594000  0.04539000  0.34892000  1.0
  C  C65  1  0.16404000  0.45462000  0.84891000  1.0
  C  C66  1  0.16406000  0.95461000  0.65109000  1.0
  C  C67  1  0.83596000  0.54538000  0.15109000  1.0
  C  C68  1  0.12011000  0.88403000  0.32104000  1.0
  C  C69  1  0.87990000  0.61596000  0.82103000  1.0
  C  C70  1  0.87990000  0.11596000  0.67897000  1.0
  C  C71  1  0.12009000  0.38404000  0.17897000  1.0
  C  C72  1  0.19305000  0.78590000  0.34247000  1.0
  C  C73  1  0.80696000  0.71411000  0.84246000  1.0
  C  C74  1  0.80695000  0.21411000  0.65753000  1.0
  C  C75  1  0.19305000  0.28589000  0.15754000  1.0
  C  C76  1  0.39626000  0.72346000  0.28827000  1.0
  C  C77  1  0.60374000  0.77655000  0.78827000  1.0
  C  C78  1  0.60373000  0.27654000  0.71173000  1.0
  C  C79  1  0.39627000  0.22346000  0.21173000  1.0
  I  I80  1  0.68029000  0.46455000  0.38002000  1.0
  I  I81  1  0.31970000  0.03546000  0.88002000  1.0
  I  I82  1  0.31970000  0.53545000  0.61998000  1.0
  I  I83  1  0.68031000  0.96455000  0.11998000  1.0
  N  N84  1  0.08021000  0.74253000  0.41231000  1.0
  N  N85  1  0.91980000  0.75748000  0.91230000  1.0
  N  N86  1  0.91980000  0.25747000  0.58769000  1.0
  N  N87  1  0.08020000  0.24253000  0.08769000  1.0
