# generated using pymatgen
data_CuH10(C4O5)2
_symmetry_space_group_name_H-M   'P 1'
_cell_length_a   7.51300000
_cell_length_b   8.26537000
_cell_length_c   9.78272000
_cell_angle_alpha   89.99970000
_cell_angle_beta   89.99980000
_cell_angle_gamma   96.88590000
_symmetry_Int_Tables_number   1
_chemical_formula_structural   CuH10(C4O5)2
_chemical_formula_sum   'Cu2 H20 C16 O20'
_cell_volume   603.10279261
_cell_formula_units_Z   2
loop_
 _symmetry_equiv_pos_site_id
 _symmetry_equiv_pos_as_xyz
  1  'x, y, z'
loop_
 _atom_site_type_symbol
 _atom_site_label
 _atom_site_symmetry_multiplicity
 _atom_site_fract_x
 _atom_site_fract_y
 _atom_site_fract_z
 _atom_site_occupancy
  Cu  Cu0  1  0.76183000  0.22472000  0.74312000  1.0
  Cu  Cu1  1  0.23816000  0.77527000  0.24312000  1.0
  H  H2  1  0.55893000  0.41145000  0.78236000  1.0
  H  H3  1  0.44107000  0.58855000  0.28236000  1.0
  H  H4  1  0.07583000  0.32179000  0.10586000  1.0
  H  H5  1  0.92418000  0.67821000  0.60588000  1.0
  H  H6  1  0.02818000  0.36784000  0.61383000  1.0
  H  H7  1  0.97182000  0.63216000  0.11383000  1.0
  H  H8  1  0.44942000  0.06128000  0.36382000  1.0
  H  H9  1  0.55057000  0.93871000  0.86381000  1.0
  H  H10  1  0.59497000  0.50293000  0.99282000  1.0
  H  H11  1  0.40504000  0.49708000  0.49283000  1.0
  H  H12  1  0.47685000  0.14541000  0.05957000  1.0
  H  H13  1  0.52315000  0.85460000  0.55957000  1.0
  H  H14  1  0.57634000  0.28057000  0.18633000  1.0
  H  H15  1  0.42367000  0.71944000  0.68633000  1.0
  H  H16  1  0.93376000  0.32357000  0.40941000  1.0
  H  H17  1  0.06624000  0.67643000  0.90941000  1.0
  H  H18  1  0.99775000  0.97112000  0.47852000  1.0
  H  H19  1  0.00223000  0.02888000  0.97853000  1.0
  H  H20  1  0.95848000  0.04257000  0.31373000  1.0
  H  H21  1  0.04152000  0.95743000  0.81374000  1.0
  C  C22  1  0.81566000  0.36833000  0.99503000  1.0
  C  C23  1  0.18435000  0.63167000  0.49504000  1.0
  C  C24  1  0.61423000  0.37392000  0.98141000  1.0
  C  C25  1  0.38577000  0.62609000  0.48141000  1.0
  C  C26  1  0.50219000  0.27388000  0.08915000  1.0
  C  C27  1  0.49781000  0.72613000  0.58915000  1.0
  C  C28  1  0.33165000  0.34893000  0.11247000  1.0
  C  C29  1  0.66835000  0.65107000  0.61247000  1.0
  C  C30  1  0.71234000  0.15182000  0.47305000  1.0
  C  C31  1  0.28766000  0.84817000  0.97305000  1.0
  C  C32  1  0.91242000  0.21267000  0.47235000  1.0
  C  C33  1  0.08757000  0.78733000  0.97235000  1.0
  C  C34  1  0.01560000  0.08067000  0.41404000  1.0
  C  C35  1  0.98439000  0.91933000  0.91404000  1.0
  C  C36  1  0.21226000  0.13791000  0.39605000  1.0
  C  C37  1  0.78774000  0.86208000  0.89604000  1.0
  O  O38  1  0.90049000  0.31567000  0.89374000  1.0
  O  O39  1  0.09951000  0.68432000  0.39374000  1.0
  O  O40  1  0.89575000  0.41847000  0.10396000  1.0
  O  O41  1  0.10426000  0.58154000  0.60397000  1.0
  O  O42  1  0.55267000  0.31767000  0.84721000  1.0
  O  O43  1  0.44733000  0.68233000  0.34721000  1.0
  O  O44  1  0.33546000  0.49531000  0.14179000  1.0
  O  O45  1  0.66454000  0.50469000  0.64178000  1.0
  O  O46  1  0.17950000  0.25230000  0.09682000  1.0
  O  O47  1  0.82050000  0.74770000  0.59683000  1.0
  O  O48  1  0.62836000  0.13989000  0.58750000  1.0
  O  O49  1  0.37164000  0.86010000  0.08750000  1.0
  O  O50  1  0.64020000  0.11150000  0.36005000  1.0
  O  O51  1  0.35979000  0.88849000  0.86005000  1.0
  O  O52  1  0.97188000  0.25213000  0.61098000  1.0
  O  O53  1  0.02811000  0.74787000  0.11098000  1.0
  O  O54  1  0.27681000  0.28110000  0.40613000  1.0
  O  O55  1  0.72320000  0.71890000  0.90611000  1.0
  O  O56  1  0.30999000  0.01755000  0.36618000  1.0
  O  O57  1  0.69001000  0.98244000  0.86617000  1.0
