# generated using pymatgen
data_SnH16C13O4
_symmetry_space_group_name_H-M   'P 1'
_cell_length_a   10.63070000
_cell_length_b   11.54000000
_cell_length_c   11.91120000
_cell_angle_alpha   72.42500000
_cell_angle_beta   89.99980000
_cell_angle_gamma   89.99990000
_symmetry_Int_Tables_number   1
_chemical_formula_structural   SnH16C13O4
_chemical_formula_sum   'Sn4 H64 C52 O16'
_cell_volume   1393.03823364
_cell_formula_units_Z   4
loop_
 _symmetry_equiv_pos_site_id
 _symmetry_equiv_pos_as_xyz
  1  'x, y, z'
loop_
 _atom_site_type_symbol
 _atom_site_label
 _atom_site_symmetry_multiplicity
 _atom_site_fract_x
 _atom_site_fract_y
 _atom_site_fract_z
 _atom_site_occupancy
  Sn  Sn0  1  0.14070000  0.02764000  0.19771000  1.0
  Sn  Sn1  1  0.64069000  0.97236000  0.30228000  1.0
  Sn  Sn2  1  0.85932000  0.97236000  0.80228000  1.0
  Sn  Sn3  1  0.35931000  0.02764000  0.69772000  1.0
  H  H4  1  0.09418000  0.77022000  0.39432000  1.0
  H  H5  1  0.59418000  0.22978000  0.10568000  1.0
  H  H6  1  0.90581000  0.22978000  0.60568000  1.0
  H  H7  1  0.40582000  0.77022000  0.89432000  1.0
  H  H8  1  0.86971000  0.67222000  0.55826000  1.0
  H  H9  1  0.36971000  0.32778000  0.94174000  1.0
  H  H10  1  0.13029000  0.32778000  0.44174000  1.0
  H  H11  1  0.63029000  0.67222000  0.05826000  1.0
  H  H12  1  0.90556000  0.49517000  0.72308000  1.0
  H  H13  1  0.40556000  0.50483000  0.77691000  1.0
  H  H14  1  0.09444000  0.50483000  0.27692000  1.0
  H  H15  1  0.59444000  0.49517000  0.22308000  1.0
  H  H16  1  0.03548000  0.32109000  0.83519000  1.0
  H  H17  1  0.53548000  0.67890000  0.66481000  1.0
  H  H18  1  0.96453000  0.67891000  0.16481000  1.0
  H  H19  1  0.46452000  0.32109000  0.33519000  1.0
  H  H20  1  0.25622000  0.29505000  0.77123000  1.0
  H  H21  1  0.75622000  0.70495000  0.72877000  1.0
  H  H22  1  0.74378000  0.70495000  0.22877000  1.0
  H  H23  1  0.24378000  0.29505000  0.27123000  1.0
  H  H24  1  0.34240000  0.52433000  0.38621000  1.0
  H  H25  1  0.84240000  0.47567000  0.11379000  1.0
  H  H26  1  0.65761000  0.47568000  0.61378000  1.0
  H  H27  1  0.15761000  0.52433000  0.88622000  1.0
  H  H28  1  0.43240000  0.62062000  0.45293000  1.0
  H  H29  1  0.93240000  0.37937000  0.04707000  1.0
  H  H30  1  0.56760000  0.37938000  0.54707000  1.0
  H  H31  1  0.06760000  0.62063000  0.95293000  1.0
  H  H32  1  0.13567000  0.97489000  0.43451000  1.0
  H  H33  1  0.63567000  0.02511000  0.06549000  1.0
  H  H34  1  0.86433000  0.02511000  0.56549000  1.0
  H  H35  1  0.36433000  0.97489000  0.93451000  1.0
  H  H36  1  0.09117000  0.12965000  0.37240000  1.0
  H  H37  1  0.59117000  0.87035000  0.12760000  1.0
  H  H38  1  0.90883000  0.87035000  0.62760000  1.0
  H  H39  1  0.40883000  0.12965000  0.87240000  1.0
  H  H40  1  0.25423000  0.08677000  0.37817000  1.0
  H  H41  1  0.75423000  0.91322000  0.12183000  1.0
  H  H42  1  0.74577000  0.91322000  0.62183000  1.0
  H  H43  1  0.24577000  0.08678000  0.87817000  1.0
  H  H44  1  0.17298000  0.82848000  0.11957000  1.0
  H  H45  1  0.67299000  0.17152000  0.38043000  1.0
  H  H46  1  0.82702000  0.17152000  0.88043000  1.0
  H  H47  1  0.32702000  0.82848000  0.61956000  1.0
  H  H48  1  0.24064000  0.79934000  0.26284000  1.0
  H  H49  1  0.74064000  0.20066000  0.23716000  1.0
  H  H50  1  0.75936000  0.20066000  0.73716000  1.0
  H  H51  1  0.25936000  0.79934000  0.76284000  1.0
  H  H52  1  0.32184000  0.89364000  0.13700000  1.0
  H  H53  1  0.82184000  0.10636000  0.36300000  1.0
  H  H54  1  0.67815000  0.10636000  0.86300000  1.0
  H  H55  1  0.17815000  0.89364000  0.63700000  1.0
  H  H56  1  0.07126000  0.22439000  0.02121000  1.0
  H  H57  1  0.57126000  0.77561000  0.47879000  1.0
  H  H58  1  0.92874000  0.77561000  0.97879000  1.0
  H  H59  1  0.42874000  0.22439000  0.52120000  1.0
  H  H60  1  0.93478000  0.16135000  0.10935000  1.0
  H  H61  1  0.43478000  0.83865000  0.39064000  1.0
  H  H62  1  0.06521000  0.83865000  0.89064000  1.0
  H  H63  1  0.56521000  0.16135000  0.60935000  1.0
  H  H64  1  0.99151000  0.09465000  0.00232000  1.0
  H  H65  1  0.49151000  0.90535000  0.49768000  1.0
  H  H66  1  0.00849000  0.90535000  0.99768000  1.0
  H  H67  1  0.50849000  0.09465000  0.50232000  1.0
  C  C68  1  0.90809000  0.85307000  0.35930000  1.0
  C  C69  1  0.40810000  0.14693000  0.14070000  1.0
  C  C70  1  0.09190000  0.14692000  0.64071000  1.0
  C  C71  1  0.59190000  0.85307000  0.85930000  1.0
  C  C72  1  0.99917000  0.76384000  0.42919000  1.0
  C  C73  1  0.49917000  0.23616000  0.07082000  1.0
  C  C74  1  0.00083000  0.23616000  0.57082000  1.0
  C  C75  1  0.50083000  0.76384000  0.92918000  1.0
  C  C76  1  0.96672000  0.67413000  0.52739000  1.0
  C  C77  1  0.46672000  0.32587000  0.97261000  1.0
  C  C78  1  0.03329000  0.32587000  0.47262000  1.0
  C  C79  1  0.53329000  0.67413000  0.02739000  1.0
  C  C80  1  0.04728000  0.57637000  0.59400000  1.0
  C  C81  1  0.54728000  0.42363000  0.90600000  1.0
  C  C82  1  0.95272000  0.42363000  0.40600000  1.0
  C  C83  1  0.45272000  0.57637000  0.09400000  1.0
  C  C84  1  0.00193000  0.48641000  0.69567000  1.0
  C  C85  1  0.50192000  0.51359000  0.80433000  1.0
  C  C86  1  0.99808000  0.51359000  0.30433000  1.0
  C  C87  1  0.49808000  0.48641000  0.19567000  1.0
  C  C88  1  0.07519000  0.38866000  0.75877000  1.0
  C  C89  1  0.57519000  0.61134000  0.74123000  1.0
  C  C90  1  0.92481000  0.61134000  0.24122000  1.0
  C  C91  1  0.42480000  0.38866000  0.25877000  1.0
  C  C92  1  0.19928000  0.37284000  0.72420000  1.0
  C  C93  1  0.69928000  0.62716000  0.77580000  1.0
  C  C94  1  0.80073000  0.62717000  0.27579000  1.0
  C  C95  1  0.30072000  0.37284000  0.22421000  1.0
  C  C96  1  0.24254000  0.45826000  0.62336000  1.0
  C  C97  1  0.74254000  0.54174000  0.87663000  1.0
  C  C98  1  0.75746000  0.54174000  0.37663000  1.0
  C  C99  1  0.25745000  0.45827000  0.12337000  1.0
  C  C100  1  0.17016000  0.55768000  0.56132000  1.0
  C  C101  1  0.67016000  0.44232000  0.93868000  1.0
  C  C102  1  0.82984000  0.44232000  0.43867000  1.0
  C  C103  1  0.32984000  0.55769000  0.06133000  1.0
  C  C104  1  0.35019000  0.56144000  0.46103000  1.0
  C  C105  1  0.85019000  0.43856000  0.03897000  1.0
  C  C106  1  0.64981000  0.43856000  0.53897000  1.0
  C  C107  1  0.14981000  0.56144000  0.96103000  1.0
  C  C108  1  0.15787000  0.05962000  0.36556000  1.0
  C  C109  1  0.65787000  0.94038000  0.13444000  1.0
  C  C110  1  0.84214000  0.94038000  0.63444000  1.0
  C  C111  1  0.34213000  0.05962000  0.86556000  1.0
  C  C112  1  0.22905000  0.86731000  0.17652000  1.0
  C  C113  1  0.72905000  0.13268000  0.32348000  1.0
  C  C114  1  0.77095000  0.13268000  0.82348000  1.0
  C  C115  1  0.27095000  0.86731000  0.67652000  1.0
  C  C116  1  0.01929000  0.14136000  0.06592000  1.0
  C  C117  1  0.51929000  0.85864000  0.43408000  1.0
  C  C118  1  0.98071000  0.85864000  0.93408000  1.0
  C  C119  1  0.48071000  0.14136000  0.56592000  1.0
  O  O120  1  0.94440000  0.93290000  0.26532000  1.0
  O  O121  1  0.44441000  0.06710000  0.23468000  1.0
  O  O122  1  0.05559000  0.06710000  0.73468000  1.0
  O  O123  1  0.55559000  0.93290000  0.76532000  1.0
  O  O124  1  0.79316000  0.84497000  0.39462000  1.0
  O  O125  1  0.29317000  0.15502000  0.10538000  1.0
  O  O126  1  0.20684000  0.15503000  0.60538000  1.0
  O  O127  1  0.70683000  0.84498000  0.89462000  1.0
  O  O128  1  0.23771000  0.62922000  0.46755000  1.0
  O  O129  1  0.73771000  0.37077000  0.03245000  1.0
  O  O130  1  0.76229000  0.37077000  0.53245000  1.0
  O  O131  1  0.26229000  0.62924000  0.96755000  1.0
  O  O132  1  0.35814000  0.46253000  0.56967000  1.0
  O  O133  1  0.85814000  0.53747000  0.93033000  1.0
  O  O134  1  0.64186000  0.53747000  0.43032000  1.0
  O  O135  1  0.14186000  0.46254000  0.06968000  1.0
