# generated using pymatgen
data_ZnH13(C7N2)3
_symmetry_space_group_name_H-M   'P 1'
_cell_length_a   9.71643000
_cell_length_b   9.84419000
_cell_length_c   10.53030000
_cell_angle_alpha   98.93130000
_cell_angle_beta   99.25630000
_cell_angle_gamma   116.99800000
_symmetry_Int_Tables_number   1
_chemical_formula_structural   ZnH13(C7N2)3
_chemical_formula_sum   'Zn2 H26 C42 N12'
_cell_volume   855.41557444
_cell_formula_units_Z   2
loop_
 _symmetry_equiv_pos_site_id
 _symmetry_equiv_pos_as_xyz
  1  'x, y, z'
loop_
 _atom_site_type_symbol
 _atom_site_label
 _atom_site_symmetry_multiplicity
 _atom_site_fract_x
 _atom_site_fract_y
 _atom_site_fract_z
 _atom_site_occupancy
  Zn  Zn0  1  0.68793000  0.67202000  0.76747000  1.0
  Zn  Zn1  1  0.29406000  0.98232000  0.69900000  1.0
  H  H2  1  0.85280000  0.82484000  0.11767000  1.0
  H  H3  1  0.06860000  0.03019000  0.31445000  1.0
  H  H4  1  0.34179000  0.19420000  0.29697000  1.0
  H  H5  1  0.41410000  0.15878000  0.07962000  1.0
  H  H6  1  0.16279000  0.78101000  0.32014000  1.0
  H  H7  1  0.97468000  0.55248000  0.12361000  1.0
  H  H8  1  0.71922000  0.34389000  0.13868000  1.0
  H  H9  1  0.63942000  0.34833000  0.35419000  1.0
  H  H10  1  0.22675000  0.73198000  0.13099000  1.0
  H  H11  1  0.27363000  0.56937000  0.27510000  1.0
  H  H12  1  0.46764000  0.47689000  0.24994000  1.0
  H  H13  1  0.61821000  0.53590000  0.07710000  1.0
  H  H14  1  0.77452000  0.80704000  0.46513000  1.0
  H  H15  1  0.72890000  0.92441000  0.28033000  1.0
  H  H16  1  0.55940000  0.05028000  0.27762000  1.0
  H  H17  1  0.42237000  0.05876000  0.45711000  1.0
  H  H18  1  0.79428000  0.12343000  0.05604000  1.0
  H  H19  1  0.07588000  0.18793000  0.06849000  1.0
  H  H20  1  0.22467000  0.33771000  0.92417000  1.0
  H  H21  1  0.10291000  0.44273000  0.76603000  1.0
  H  H22  1  0.37458000  0.60126000  0.52894000  1.0
  H  H23  1  0.08140000  0.46486000  0.42537000  1.0
  H  H24  1  0.90278000  0.20016000  0.44784000  1.0
  H  H25  1  0.01120000  0.05486000  0.56626000  1.0
  H  H26  1  0.32190000  0.85028000  0.90538000  1.0
  H  H27  1  0.80094000  0.44968000  0.68447000  1.0
  C  C28  1  0.98069000  0.73230000  0.64753000  1.0
  C  C29  1  0.02377000  0.80867000  0.78627000  1.0
  C  C30  1  0.01277000  0.87810000  0.98809000  1.0
  C  C31  1  0.97359000  0.89701000  0.10921000  1.0
  C  C32  1  0.09517000  0.01110000  0.21878000  1.0
  C  C33  1  0.25204000  0.10431000  0.20881000  1.0
  C  C34  1  0.29363000  0.08605000  0.08896000  1.0
  C  C35  1  0.17230000  0.97181000  0.97846000  1.0
  C  C36  1  0.00549000  0.69188000  0.44759000  1.0
  C  C37  1  0.04941000  0.68830000  0.32729000  1.0
  C  C38  1  0.94380000  0.56123000  0.21850000  1.0
  C  C39  1  0.79709000  0.44014000  0.22732000  1.0
  C  C40  1  0.75148000  0.44217000  0.34585000  1.0
  C  C41  1  0.85637000  0.56864000  0.45649000  1.0
  C  C42  1  0.52829000  0.85051000  0.73942000  1.0
  C  C43  1  0.49812000  0.79607000  0.85678000  1.0
  C  C44  1  0.39663000  0.72314000  0.02435000  1.0
  C  C45  1  0.31115000  0.68971000  0.12015000  1.0
  C  C46  1  0.33861000  0.59929000  0.19945000  1.0
  C  C47  1  0.44870000  0.54575000  0.18443000  1.0
  C  C48  1  0.53440000  0.57901000  0.08886000  1.0
  C  C49  1  0.50721000  0.66911000  0.00771000  1.0
  C  C50  1  0.62772000  0.87222000  0.56826000  1.0
  C  C51  1  0.70179000  0.86479000  0.46552000  1.0
  C  C52  1  0.67506000  0.93018000  0.36274000  1.0
  C  C53  1  0.57721000  0.00115000  0.36063000  1.0
  C  C54  1  0.50011000  0.00632000  0.46020000  1.0
  C  C55  1  0.52462000  0.93945000  0.56393000  1.0
  C  C56  1  0.49985000  0.32169000  0.72029000  1.0
  C  C57  1  0.63686000  0.31380000  0.78807000  1.0
  C  C58  1  0.78980000  0.25009000  0.90502000  1.0
  C  C59  1  0.86006000  0.19226000  0.99312000  1.0
  C  C60  1  0.01681000  0.22738000  0.99840000  1.0
  C  C61  1  0.10256000  0.31498000  0.91666000  1.0
  C  C62  1  0.03665000  0.37535000  0.82939000  1.0
  C  C63  1  0.88018000  0.34289000  0.82607000  1.0
  C  C64  1  0.35790000  0.40508000  0.60945000  1.0
  C  C65  1  0.29682000  0.48464000  0.53970000  1.0
  C  C66  1  0.13266000  0.40705000  0.48131000  1.0
  C  C67  1  0.03084000  0.25489000  0.49234000  1.0
  C  C68  1  0.09013000  0.17280000  0.55826000  1.0
  C  C69  1  0.25516000  0.24867000  0.61555000  1.0
  N  N70  1  0.84397000  0.59748000  0.58559000  1.0
  N  N71  1  0.08303000  0.79654000  0.57269000  1.0
  N  N72  1  0.17632000  0.92357000  0.84814000  1.0
  N  N73  1  0.92042000  0.77661000  0.86284000  1.0
  N  N74  1  0.62885000  0.81815000  0.68134000  1.0
  N  N75  1  0.46137000  0.92208000  0.67321000  1.0
  N  N76  1  0.39534000  0.80338000  0.92754000  1.0
  N  N77  1  0.56918000  0.71804000  0.90338000  1.0
  N  N78  1  0.51267000  0.44912000  0.67855000  1.0
  N  N79  1  0.34895000  0.19795000  0.68498000  1.0
  N  N80  1  0.63786000  0.23404000  0.87912000  1.0
  N  N81  1  0.77891000  0.38203000  0.75340000  1.0
