# generated using pymatgen
data_Zn4H26(C10O3)5
_symmetry_space_group_name_H-M   'P 1'
_cell_length_a   15.91350000
_cell_length_b   17.99890000
_cell_length_c   18.01960000
_cell_angle_alpha   63.47380000
_cell_angle_beta   80.74640000
_cell_angle_gamma   76.29200000
_symmetry_Int_Tables_number   1
_chemical_formula_structural   Zn4H26(C10O3)5
_chemical_formula_sum   'Zn4 H26 C50 O15'
_cell_volume   4477.42942326
_cell_formula_units_Z   1
loop_
 _symmetry_equiv_pos_site_id
 _symmetry_equiv_pos_as_xyz
  1  'x, y, z'
loop_
 _atom_site_type_symbol
 _atom_site_label
 _atom_site_symmetry_multiplicity
 _atom_site_fract_x
 _atom_site_fract_y
 _atom_site_fract_z
 _atom_site_occupancy
  Zn  Zn0  1  0.42964000  0.41901000  0.58636000  1.0
  Zn  Zn1  1  0.58119000  0.43722000  0.44774000  1.0
  Zn  Zn2  1  0.54392000  0.55157000  0.55608000  1.0
  Zn  Zn3  1  0.42906000  0.59491000  0.41047000  1.0
  H  H4  1  0.44565000  0.40702000  0.16304000  1.0
  H  H5  1  0.44969000  0.17085000  0.39814000  1.0
  H  H6  1  0.55030000  0.82990000  0.60894000  1.0
  H  H7  1  0.60269000  0.99026000  0.73950000  1.0
  H  H8  1  0.38695000  0.32856000  0.10869000  1.0
  H  H9  1  0.49840000  0.46440000  0.20636000  1.0
  H  H10  1  0.59060000  0.68749000  0.15743000  1.0
  H  H11  1  0.60086000  0.68716000  0.88867000  1.0
  H  H12  1  0.35820000  0.30525000  0.99238000  1.0
  H  H13  1  0.37258000  0.34123000  0.84058000  1.0
  H  H14  1  0.51413000  0.53388000  0.79421000  1.0
  H  H15  1  0.55214000  0.60308000  0.83633000  1.0
  H  H16  1  0.02458000  0.63342000  0.37419000  1.0
  H  H17  1  0.60663000  0.81717000  0.06058000  1.0
  H  H18  1  0.70875000  0.74770000  0.07449000  1.0
  H  H19  1  0.69065000  0.84101000  0.98087000  1.0
  H  H20  1  0.68534000  0.71908000  0.95470000  1.0
  H  H21  1  0.58350000  0.78587000  0.94240000  1.0
  H  H22  1  0.38170000  0.19097000  0.28911000  1.0
  H  H23  1  0.50435000  0.20691000  0.46339000  1.0
  H  H24  1  0.58078000  0.14375000  0.70509000  1.0
  H  H25  1  0.59369000  0.87673000  0.70284000  1.0
  H  H26  1  0.36385000  0.01115000  0.28350000  1.0
  H  H27  1  0.37668000  0.85739000  0.32206000  1.0
  H  H28  1  0.51456000  0.79373000  0.53385000  1.0
  H  H29  1  0.01078000  0.40703000  0.56539000  1.0
  C  C30  1  0.53087000  0.55296000  0.27947000  1.0
  C  C31  1  0.47103000  0.46778000  0.92427000  1.0
  C  C32  1  0.42728000  0.40059000  0.98011000  1.0
  C  C33  1  0.45750000  0.45926000  0.71974000  1.0
  C  C34  1  0.50429000  0.51536000  0.95642000  1.0
  C  C35  1  0.49546000  0.49333000  0.04297000  1.0
  C  C36  1  0.45324000  0.42432000  0.09655000  1.0
  C  C37  1  0.42008000  0.38025000  0.06655000  1.0
  C  C38  1  0.54433000  0.58560000  0.90287000  1.0
  C  C39  1  0.57200000  0.63324000  0.93249000  1.0
  C  C40  1  0.56315000  0.61454000  0.01870000  1.0
  C  C41  1  0.11136000  0.51591000  0.47273000  1.0
  C  C42  1  0.52655000  0.54226000  0.07494000  1.0
  C  C43  1  0.58875000  0.66666667  0.04898000  1.0
  C  C44  1  0.57476000  0.64748000  0.13282000  1.0
  C  C45  1  0.53146000  0.27529000  0.55825000  1.0
  C  C46  1  0.52101000  0.52139000  0.16080000  1.0
  C  C47  1  0.44735000  0.81772000  0.43058000  1.0
  C  C48  1  0.54168000  0.18328000  0.58118000  1.0
  C  C49  1  0.39644000  0.96339000  0.33857000  1.0
  C  C50  1  0.40352000  0.87862000  0.35957000  1.0
  C  C51  1  0.48134000  0.84303000  0.48002000  1.0
  C  C52  1  0.88812000  0.46930000  0.51206000  1.0
  C  C53  1  0.47352000  0.92911000  0.46157000  1.0
  C  C54  1  0.43122000  0.99003000  0.38820000  1.0
  C  C55  1  0.50559000  0.95638000  0.51445000  1.0
  C  C56  1  0.49728000  0.04411000  0.49100000  1.0
  C  C57  1  0.45849000  0.72587000  0.45237000  1.0
  C  C58  1  0.45714000  0.10325000  0.41628000  1.0
  C  C59  1  0.42462000  0.07776000  0.36718000  1.0
  C  C60  1  0.54278000  0.89737000  0.59092000  1.0
  C  C61  1  0.56734000  0.92317000  0.64375000  1.0
  C  C62  1  0.55834000  0.01059000  0.62341000  1.0
  C  C63  1  0.18855000  0.51160000  0.47565000  1.0
  C  C64  1  0.52635000  0.07195000  0.54497000  1.0
  C  C65  1  0.57890000  0.03793000  0.67972000  1.0
  C  C66  1  0.56783000  0.12268000  0.66069000  1.0
  C  C67  1  0.52304000  0.15802000  0.52430000  1.0
  C  C68  1  0.71952000  0.48035000  0.50575000  1.0
  C  C69  1  0.27887000  0.50726000  0.48142000  1.0
  C  C70  1  0.81122000  0.47272000  0.50858000  1.0
  C  C71  1  0.97617000  0.46360000  0.51747000  1.0
  C  C72  1  0.02230000  0.52489000  0.46577000  1.0
  C  C73  1  0.62980000  0.74150000  0.98955000  1.0
  C  C74  1  0.44518000  0.43991000  0.80984000  1.0
  C  C75  1  0.66044000  0.78924000  0.02887000  1.0
  C  C76  1  0.54267000  0.57403000  0.18888000  1.0
  C  C77  1  0.39191000  0.35583000  0.94874000  1.0
  C  C78  1  0.39977000  0.37521000  0.86513000  1.0
  C  C79  1  0.47970000  0.48494000  0.83931000  1.0
  O  O80  1  0.49560000  0.50094000  0.50006000  1.0
  O  O81  1  0.69690000  0.44297000  0.46839000  1.0
  O  O82  1  0.31265000  0.56755000  0.42405000  1.0
  O  O83  1  0.67093000  0.52409000  0.54115000  1.0
  O  O84  1  0.31469000  0.44374000  0.54321000  1.0
  O  O85  1  0.98197000  0.59744000  0.40445000  1.0
  O  O86  1  0.38363000  0.13371000  0.29617000  1.0
  O  O87  1  0.49035000  0.30189000  0.61145000  1.0
  O  O88  1  0.41736000  0.70530000  0.41111000  1.0
  O  O89  1  0.56489000  0.47852000  0.32888000  1.0
  O  O90  1  0.50944000  0.50939000  0.67510000  1.0
  O  O91  1  0.48713000  0.61090000  0.30029000  1.0
  O  O92  1  0.41547000  0.42378000  0.69403000  1.0
  O  O93  1  0.56372000  0.32051000  0.48693000  1.0
  O  O94  1  0.50855000  0.67478000  0.51035000  1.0
