# generated using pymatgen
data_CoH15C21(NO2)2
_symmetry_space_group_name_H-M   'P 1'
_cell_length_a   14.65100000
_cell_length_b   15.17425838
_cell_length_c   15.33440000
_cell_angle_alpha   113.85769575
_cell_angle_beta   112.55900000
_cell_angle_gamma   100.93062663
_symmetry_Int_Tables_number   1
_chemical_formula_structural   CoH15C21(NO2)2
_chemical_formula_sum   'Co4 H60 C84 N8 O16'
_cell_volume   2628.40215661
_cell_formula_units_Z   4
loop_
 _symmetry_equiv_pos_site_id
 _symmetry_equiv_pos_as_xyz
  1  'x, y, z'
loop_
 _atom_site_type_symbol
 _atom_site_label
 _atom_site_symmetry_multiplicity
 _atom_site_fract_x
 _atom_site_fract_y
 _atom_site_fract_z
 _atom_site_occupancy
  Co  Co0  1  0.07875000  0.72986000  0.55705000  1.0
  Co  Co1  1  0.97821000  0.82710000  0.55709000  1.0
  Co  Co2  1  0.92125000  0.27012000  0.44294000  1.0
  Co  Co3  1  0.02176000  0.17290000  0.44289000  1.0
  H  H4  1  0.08137000  0.65414000  0.80917000  1.0
  H  H5  1  0.22782000  0.15503000  0.80922000  1.0
  H  H6  1  0.91862000  0.34586000  0.19082000  1.0
  H  H7  1  0.77216000  0.84498000  0.19079000  1.0
  H  H8  1  0.08969000  0.66413000  0.97665000  1.0
  H  H9  1  0.38701000  0.31247000  0.97679000  1.0
  H  H10  1  0.91031000  0.33587000  0.02335000  1.0
  H  H11  1  0.61301000  0.68753000  0.02322000  1.0
  H  H12  1  0.97453000  0.91200000  0.02648000  1.0
  H  H13  1  0.55178000  0.11420000  0.02620000  1.0
  H  H14  1  0.02548000  0.08799000  0.97354000  1.0
  H  H15  1  0.44822000  0.88581000  0.97380000  1.0
  H  H16  1  0.96116000  0.89648000  0.85456000  1.0
  H  H17  1  0.39321000  0.95784000  0.85418000  1.0
  H  H18  1  0.03882000  0.10352000  0.14544000  1.0
  H  H19  1  0.60677000  0.04215000  0.14582000  1.0
  H  H20  1  0.16376000  0.73435000  0.14798000  1.0
  H  H21  1  0.48417000  0.41354000  0.14803000  1.0
  H  H22  1  0.83622000  0.26564000  0.85200000  1.0
  H  H23  1  0.51583000  0.58645000  0.85195000  1.0
  H  H24  1  0.16453000  0.73252000  0.30893000  1.0
  H  H25  1  0.64431000  0.57629000  0.30909000  1.0
  H  H26  1  0.83549000  0.26749000  0.69106000  1.0
  H  H27  1  0.35569000  0.42371000  0.69090000  1.0
  H  H28  1  0.93410000  0.87244000  0.28401000  1.0
  H  H29  1  0.84969000  0.41128000  0.28400000  1.0
  H  H30  1  0.06588000  0.12754000  0.71596000  1.0
  H  H31  1  0.15029000  0.58869000  0.71598000  1.0
  H  H32  1  0.92361000  0.86524000  0.11705000  1.0
  H  H33  1  0.69325000  0.25156000  0.11700000  1.0
  H  H34  1  0.07635000  0.13468000  0.88288000  1.0
  H  H35  1  0.30673000  0.74843000  0.88300000  1.0
  H  H36  1  0.32317000  0.77982000  0.64964000  1.0
  H  H37  1  0.82661000  0.87008000  0.65008000  1.0
  H  H38  1  0.67683000  0.22018000  0.35033000  1.0
  H  H39  1  0.17342000  0.12991000  0.34992000  1.0
  H  H40  1  0.44217000  0.68604000  0.61736000  1.0
  H  H41  1  0.67535000  0.93158000  0.61779000  1.0
  H  H42  1  0.55782000  0.31396000  0.38261000  1.0
  H  H43  1  0.32468000  0.06843000  0.38225000  1.0
  H  H44  1  0.15394000  0.39576000  0.39628000  1.0
  H  H45  1  0.74256000  0.00050000  0.39661000  1.0
  H  H46  1  0.84607000  0.60424000  0.60373000  1.0
  H  H47  1  0.25744000  0.99952000  0.60341000  1.0
  H  H48  1  0.04830000  0.50058000  0.43504000  1.0
  H  H49  1  0.88686000  0.93438000  0.43533000  1.0
  H  H50  1  0.95171000  0.49942000  0.56498000  1.0
  H  H51  1  0.11314000  0.06563000  0.56467000  1.0
  H  H52  1  0.38528000  0.32365000  0.43317000  1.0
  H  H53  1  0.54814000  0.10953000  0.43327000  1.0
  H  H54  1  0.61475000  0.67636000  0.56684000  1.0
  H  H55  1  0.45188000  0.89049000  0.56676000  1.0
  H  H56  1  0.25941000  0.31683000  0.34279000  1.0
  H  H57  1  0.58371000  0.02588000  0.34299000  1.0
  H  H58  1  0.74059000  0.68318000  0.65719000  1.0
  H  H59  1  0.41631000  0.97414000  0.65705000  1.0
  H  H60  1  0.28512000  0.33556000  0.47263000  1.0
  H  H61  1  0.68776000  0.13705000  0.47284000  1.0
  H  H62  1  0.71490000  0.66445000  0.52739000  1.0
  H  H63  1  0.31226000  0.86296000  0.52719000  1.0
  C  C64  1  0.01753000  0.76926000  0.72061000  1.0
  C  C65  1  0.20299000  0.95127000  0.72045000  1.0
  C  C66  1  0.98245000  0.23074000  0.27939000  1.0
  C  C67  1  0.79702000  0.04876000  0.27958000  1.0
  C  C68  1  0.02148000  0.77509000  0.82137000  1.0
  C  C69  1  0.29981000  0.04616000  0.82120000  1.0
  C  C70  1  0.97850000  0.22490000  0.17862000  1.0
  C  C71  1  0.70018000  0.95386000  0.17882000  1.0
  C  C72  1  0.05815000  0.71052000  0.85729000  1.0
  C  C73  1  0.29908000  0.14667000  0.85724000  1.0
  C  C74  1  0.94184000  0.28947000  0.14271000  1.0
  C  C75  1  0.70092000  0.85334000  0.14277000  1.0
  C  C76  1  0.06368000  0.71738000  0.95242000  1.0
  C  C77  1  0.38867000  0.23493000  0.95240000  1.0
  C  C78  1  0.93631000  0.28260000  0.04756000  1.0
  C  C79  1  0.61132000  0.76507000  0.04760000  1.0
  C  C80  1  0.03443000  0.79012000  0.01610000  1.0
  C  C81  1  0.48157000  0.22588000  0.01602000  1.0
  C  C82  1  0.96556000  0.20986000  0.98388000  1.0
  C  C83  1  0.51842000  0.77412000  0.98398000  1.0
  C  C84  1  0.99715000  0.85431000  0.97884000  1.0
  C  C85  1  0.48159000  0.12438000  0.97869000  1.0
  C  C86  1  0.00283000  0.14567000  0.02115000  1.0
  C  C87  1  0.51840000  0.87561000  0.02130000  1.0
  C  C88  1  0.98999000  0.84646000  0.88271000  1.0
  C  C89  1  0.39261000  0.03609000  0.88250000  1.0
  C  C90  1  0.00998000  0.15353000  0.11728000  1.0
  C  C91  1  0.60738000  0.96391000  0.11750000  1.0
  C  C92  1  0.04123000  0.79692000  0.11747000  1.0
  C  C93  1  0.57610000  0.32045000  0.11748000  1.0
  C  C94  1  0.95876000  0.20305000  0.88252000  1.0
  C  C95  1  0.42391000  0.67955000  0.88252000  1.0
  C  C96  1  0.11033000  0.76169000  0.17486000  1.0
  C  C97  1  0.56448000  0.41310000  0.17497000  1.0
  C  C98  1  0.88970000  0.23831000  0.82514000  1.0
  C  C99  1  0.43551000  0.58689000  0.82503000  1.0
  C  C100  1  0.11241000  0.76178000  0.26627000  1.0
  C  C101  1  0.65383000  0.50440000  0.26641000  1.0
  C  C102  1  0.88760000  0.23823000  0.73372000  1.0
  C  C103  1  0.34615000  0.49559000  0.73358000  1.0
  C  C104  1  0.04701000  0.79959000  0.30478000  1.0
  C  C105  1  0.75764000  0.50500000  0.30487000  1.0
  C  C106  1  0.95300000  0.20042000  0.69522000  1.0
  C  C107  1  0.24235000  0.49499000  0.69513000  1.0
  C  C108  1  0.98177000  0.83934000  0.25161000  1.0
  C  C109  1  0.76966000  0.41202000  0.25156000  1.0
  C  C110  1  0.01822000  0.16064000  0.74837000  1.0
  C  C111  1  0.23032000  0.58796000  0.74843000  1.0
  C  C112  1  0.97798000  0.83697000  0.15873000  1.0
  C  C113  1  0.68053000  0.32153000  0.15871000  1.0
  C  C114  1  0.02200000  0.16301000  0.84125000  1.0
  C  C115  1  0.31946000  0.67846000  0.84130000  1.0
  C  C116  1  0.04543000  0.79649000  0.39997000  1.0
  C  C117  1  0.85439000  0.60332000  0.40006000  1.0
  C  C118  1  0.95458000  0.20352000  0.60002000  1.0
  C  C119  1  0.14558000  0.39666000  0.59992000  1.0
  C  C120  1  0.28979000  0.69462000  0.59341000  1.0
  C  C121  1  0.80374000  0.89894000  0.59379000  1.0
  C  C122  1  0.71020000  0.30538000  0.40658000  1.0
  C  C123  1  0.19629000  0.10105000  0.40621000  1.0
  C  C124  1  0.35504000  0.64275000  0.57538000  1.0
  C  C125  1  0.72049000  0.93281000  0.57574000  1.0
  C  C126  1  0.64497000  0.35727000  0.42462000  1.0
  C  C127  1  0.27954000  0.06720000  0.42428000  1.0
  C  C128  1  0.30774000  0.53253000  0.50295000  1.0
  C  C129  1  0.69542000  0.97056000  0.50333000  1.0
  C  C130  1  0.69224000  0.46748000  0.49705000  1.0
  C  C131  1  0.30458000  0.02946000  0.49669000  1.0
  C  C132  1  0.19542000  0.48090000  0.45217000  1.0
  C  C133  1  0.75692000  0.97125000  0.45247000  1.0
  C  C134  1  0.80458000  0.51910000  0.54784000  1.0
  C  C135  1  0.24310000  0.02876000  0.54755000  1.0
  C  C136  1  0.13572000  0.53901000  0.47382000  1.0
  C  C137  1  0.83824000  0.93479000  0.47414000  1.0
  C  C138  1  0.86428000  0.46100000  0.52618000  1.0
  C  C139  1  0.16177000  0.06521000  0.52587000  1.0
  C  C140  1  0.37312000  0.47255000  0.48187000  1.0
  C  C141  1  0.60890000  0.00937000  0.48208000  1.0
  C  C142  1  0.62689000  0.52748000  0.51813000  1.0
  C  C143  1  0.39111000  0.99065000  0.51794000  1.0
  C  C144  1  0.32378000  0.35529000  0.43023000  1.0
  C  C145  1  0.60668000  0.07491000  0.43038000  1.0
  C  C146  1  0.67624000  0.64472000  0.56978000  1.0
  C  C147  1  0.39334000  0.92511000  0.56965000  1.0
  N  N148  1  0.18165000  0.64420000  0.54358000  1.0
  N  N149  1  0.86204000  0.89943000  0.54391000  1.0
  N  N150  1  0.81838000  0.35582000  0.45644000  1.0
  N  N151  1  0.13797000  0.10055000  0.45609000  1.0
  N  N152  1  0.47038000  0.52867000  0.51073000  1.0
  N  N153  1  0.54039000  0.98210000  0.51084000  1.0
  N  N154  1  0.52965000  0.47135000  0.48926000  1.0
  N  N155  1  0.45963000  0.01790000  0.48918000  1.0
  O  O156  1  0.97146000  0.82034000  0.68401000  1.0
  O  O157  1  0.21246000  0.86354000  0.68379000  1.0
  O  O158  1  0.02854000  0.17966000  0.31599000  1.0
  O  O159  1  0.78753000  0.13647000  0.31622000  1.0
  O  O160  1  0.06043000  0.71403000  0.67573000  1.0
  O  O161  1  0.11522000  0.96160000  0.67561000  1.0
  O  O162  1  0.93955000  0.28598000  0.32427000  1.0
  O  O163  1  0.88478000  0.03840000  0.32439000  1.0
  O  O164  1  0.10265000  0.75655000  0.44447000  1.0
  O  O165  1  0.84178000  0.68783000  0.44461000  1.0
  O  O166  1  0.89736000  0.24346000  0.55554000  1.0
  O  O167  1  0.15821000  0.31216000  0.55541000  1.0
  O  O168  1  0.98502000  0.83334000  0.43221000  1.0
  O  O169  1  0.94700000  0.59865000  0.43218000  1.0
  O  O170  1  0.01500000  0.16667000  0.56779000  1.0
  O  O171  1  0.05299000  0.40136000  0.56780000  1.0
