# generated using pymatgen
data_CoH30(C22N3)2
_symmetry_space_group_name_H-M   'P 1'
_cell_length_a   9.26919000
_cell_length_b   19.10970000
_cell_length_c   19.11090000
_cell_angle_alpha   117.43700000
_cell_angle_beta   99.30660000
_cell_angle_gamma   99.30870000
_symmetry_Int_Tables_number   1
_chemical_formula_structural   CoH30(C22N3)2
_chemical_formula_sum   'Co3 H90 C132 N18'
_cell_volume   2854.91112564
_cell_formula_units_Z   3
loop_
 _symmetry_equiv_pos_site_id
 _symmetry_equiv_pos_as_xyz
  1  'x, y, z'
loop_
 _atom_site_type_symbol
 _atom_site_label
 _atom_site_symmetry_multiplicity
 _atom_site_fract_x
 _atom_site_fract_y
 _atom_site_fract_z
 _atom_site_occupancy
  Co  Co0  1  0.00000000  0.00000000  0.50000000  1.0
  Co  Co1  1  0.50000000  0.50000000  0.50000000  1.0
  Co  Co2  1  0.00000000  0.50000000  0.00000000  1.0
  H  H3  1  0.74871000  0.23273000  0.65426000  1.0
  H  H4  1  0.09454000  0.34571000  0.57849000  1.0
  H  H5  1  0.51601000  0.42151000  0.76727000  1.0
  H  H6  1  0.25129000  0.76727000  0.34574000  1.0
  H  H7  1  0.90546000  0.65429000  0.42151000  1.0
  H  H8  1  0.48399000  0.57849000  0.23273000  1.0
  H  H9  1  0.56626000  0.14569000  0.49911000  1.0
  H  H10  1  0.06714000  0.50083000  0.64655000  1.0
  H  H11  1  0.42049000  0.35340000  0.85429000  1.0
  H  H12  1  0.43374000  0.85431000  0.50089000  1.0
  H  H13  1  0.93286000  0.49916000  0.35345000  1.0
  H  H14  1  0.57951000  0.64660000  0.14571000  1.0
  H  H15  1  0.57079000  0.88652000  0.22879000  1.0
  H  H16  1  0.34203000  0.77118000  0.65771000  1.0
  H  H17  1  0.68432000  0.34230000  0.11350000  1.0
  H  H18  1  0.42921000  0.11348000  0.77121000  1.0
  H  H19  1  0.65797000  0.22882000  0.34229000  1.0
  H  H20  1  0.31568000  0.65770000  0.88650000  1.0
  H  H21  1  0.75826000  0.78886000  0.18851000  1.0
  H  H22  1  0.56979000  0.81148000  0.60035000  1.0
  H  H23  1  0.96948000  0.39967000  0.21113000  1.0
  H  H24  1  0.24174000  0.21114000  0.81149000  1.0
  H  H25  1  0.43021000  0.18852000  0.39965000  1.0
  H  H26  1  0.03052000  0.60033000  0.78887000  1.0
  H  H27  1  0.38527000  0.98293000  0.41774000  1.0
  H  H28  1  0.96731000  0.58224000  0.56514000  1.0
  H  H29  1  0.40226000  0.43479000  0.01705000  1.0
  H  H30  1  0.61472000  0.01707000  0.58226000  1.0
  H  H31  1  0.03269000  0.41776000  0.43486000  1.0
  H  H32  1  0.59774000  0.56520000  0.98295000  1.0
  H  H33  1  0.14846000  0.98680000  0.34131000  1.0
  H  H34  1  0.80700000  0.65870000  0.64545000  1.0
  H  H35  1  0.16159000  0.35456000  0.01324000  1.0
  H  H36  1  0.85154000  0.01321000  0.65869000  1.0
  H  H37  1  0.19300000  0.34130000  0.35455000  1.0
  H  H38  1  0.83841000  0.64544000  0.98676000  1.0
  H  H39  1  0.39492000  0.05520000  0.19983000  1.0
  H  H40  1  0.19499000  0.80011000  0.85533000  1.0
  H  H41  1  0.33960000  0.14464000  0.94487000  1.0
  H  H42  1  0.60508000  0.94480000  0.80017000  1.0
  H  H43  1  0.80501000  0.19989000  0.14467000  1.0
  H  H44  1  0.66040000  0.85536000  0.05513000  1.0
  H  H45  1  0.63227000  0.04925000  0.27536000  1.0
  H  H46  1  0.35669000  0.72457000  0.77386000  1.0
  H  H47  1  0.58285000  0.22608000  0.95074000  1.0
  H  H48  1  0.36773000  0.95075000  0.72464000  1.0
  H  H49  1  0.64331000  0.27543000  0.22614000  1.0
  H  H50  1  0.41715000  0.77392000  0.04926000  1.0
  H  H51  1  0.00940000  0.98387000  0.21710000  1.0
  H  H52  1  0.79215000  0.78294000  0.76675000  1.0
  H  H53  1  0.02536000  0.23319000  0.01615000  1.0
  H  H54  1  0.99060000  0.01613000  0.78290000  1.0
  H  H55  1  0.20785000  0.21706000  0.23325000  1.0
  H  H56  1  0.97464000  0.76681000  0.98385000  1.0
  H  H57  1  0.11004000  0.01338000  0.15860000  1.0
  H  H58  1  0.95135000  0.84144000  0.85475000  1.0
  H  H59  1  0.09658000  0.14521000  0.98666000  1.0
  H  H60  1  0.88996000  0.98662000  0.84140000  1.0
  H  H61  1  0.04865000  0.15856000  0.14525000  1.0
  H  H62  1  0.90342000  0.85479000  0.01334000  1.0
  H  H63  1  0.09431000  0.08870000  0.25385000  1.0
  H  H64  1  0.84034000  0.74619000  0.83482000  1.0
  H  H65  1  0.00558000  0.16517000  0.91135000  1.0
  H  H66  1  0.90569000  0.91130000  0.74615000  1.0
  H  H67  1  0.15966000  0.25381000  0.16518000  1.0
  H  H68  1  0.99442000  0.83483000  0.08865000  1.0
  H  H69  1  0.17970000  0.81584000  0.21708000  1.0
  H  H70  1  0.96266000  0.78293000  0.59878000  1.0
  H  H71  1  0.36382000  0.40121000  0.18417000  1.0
  H  H72  1  0.82030000  0.18417000  0.78292000  1.0
  H  H73  1  0.03734000  0.21707000  0.40122000  1.0
  H  H74  1  0.63618000  0.59879000  0.81583000  1.0
  H  H75  1  0.15204000  0.68646000  0.08716000  1.0
  H  H76  1  0.06501000  0.91288000  0.59934000  1.0
  H  H77  1  0.46555000  0.40069000  0.31356000  1.0
  H  H78  1  0.84796000  0.31354000  0.91284000  1.0
  H  H79  1  0.93499000  0.08712000  0.40066000  1.0
  H  H80  1  0.53445000  0.59930000  0.68644000  1.0
  H  H81  1  0.80529000  0.55747000  0.12876000  1.0
  H  H82  1  0.67661000  0.87123000  0.42874000  1.0
  H  H83  1  0.24782000  0.57131000  0.44247000  1.0
  H  H84  1  0.19471000  0.44253000  0.87124000  1.0
  H  H85  1  0.32339000  0.12877000  0.57126000  1.0
  H  H86  1  0.75218000  0.42869000  0.55753000  1.0
  H  H87  1  0.81771000  0.68141000  0.26017000  1.0
  H  H88  1  0.55763000  0.73980000  0.42125000  1.0
  H  H89  1  0.13640000  0.57880000  0.31853000  1.0
  H  H90  1  0.18229000  0.31859000  0.73983000  1.0
  H  H91  1  0.44237000  0.26020000  0.57875000  1.0
  H  H92  1  0.86360000  0.42121000  0.68147000  1.0
  C  C93  1  0.87496000  0.13688000  0.60614000  1.0
  C  C94  1  0.26892000  0.39387000  0.53079000  1.0
  C  C95  1  0.73809000  0.46920000  0.86311000  1.0
  C  C96  1  0.12504000  0.86312000  0.39386000  1.0
  C  C97  1  0.73108000  0.60613000  0.46921000  1.0
  C  C98  1  0.26191000  0.53080000  0.13689000  1.0
  C  C99  1  0.75748000  0.17744000  0.60321000  1.0
  C  C100  1  0.15437000  0.39677000  0.57427000  1.0
  C  C101  1  0.58004000  0.42572000  0.82253000  1.0
  C  C102  1  0.24253000  0.82256000  0.39679000  1.0
  C  C103  1  0.84563000  0.60323000  0.42573000  1.0
  C  C104  1  0.41997000  0.57428000  0.17747000  1.0
  C  C105  1  0.66517000  0.13349000  0.52531000  1.0
  C  C106  1  0.13987000  0.47465000  0.60817000  1.0
  C  C107  1  0.53163000  0.39179000  0.86649000  1.0
  C  C108  1  0.33483000  0.86651000  0.47469000  1.0
  C  C109  1  0.86013000  0.52535000  0.39183000  1.0
  C  C110  1  0.46837000  0.60821000  0.13351000  1.0
  C  C111  1  0.72636000  0.06625000  0.48067000  1.0
  C  C112  1  0.24562000  0.51930000  0.58554000  1.0
  C  C113  1  0.66005000  0.41441000  0.93376000  1.0
  C  C114  1  0.27364000  0.93375000  0.51933000  1.0
  C  C115  1  0.75438000  0.48070000  0.41446000  1.0
  C  C116  1  0.33995000  0.58559000  0.06625000  1.0
  C  C117  1  0.66765000  0.01113000  0.39685000  1.0
  C  C118  1  0.27067000  0.60313000  0.61425000  1.0
  C  C119  1  0.65641000  0.38570000  0.98887000  1.0
  C  C120  1  0.33235000  0.98887000  0.60315000  1.0
  C  C121  1  0.72933000  0.39687000  0.38575000  1.0
  C  C122  1  0.34359000  0.61430000  0.01113000  1.0
  C  C123  1  0.73764000  0.95171000  0.35317000  1.0
  C  C124  1  0.38448000  0.64681000  0.59855000  1.0
  C  C125  1  0.78592000  0.40144000  0.04826000  1.0
  C  C126  1  0.26236000  0.04829000  0.64683000  1.0
  C  C127  1  0.61552000  0.35319000  0.40145000  1.0
  C  C128  1  0.21408000  0.59856000  0.95173000  1.0
  C  C129  1  0.67474000  0.89080000  0.26775000  1.0
  C  C130  1  0.40705000  0.73224000  0.62308000  1.0
  C  C131  1  0.78396000  0.37694000  0.10918000  1.0
  C  C132  1  0.32526000  0.10920000  0.73225000  1.0
  C  C133  1  0.59294000  0.26776000  0.37692000  1.0
  C  C134  1  0.21604000  0.62306000  0.89082000  1.0
  C  C135  1  0.76904000  0.84111000  0.24764000  1.0
  C  C136  1  0.52151000  0.75236000  0.59353000  1.0
  C  C137  1  0.92799000  0.40650000  0.15885000  1.0
  C  C138  1  0.23096000  0.15889000  0.75236000  1.0
  C  C139  1  0.47849000  0.24764000  0.40647000  1.0
  C  C140  1  0.07201000  0.59349000  0.84115000  1.0
  C  C141  1  0.88944000  0.87132000  0.32097000  1.0
  C  C142  1  0.56860000  0.67904000  0.55044000  1.0
  C  C143  1  0.01817000  0.44960000  0.12862000  1.0
  C  C144  1  0.11056000  0.12868000  0.67903000  1.0
  C  C145  1  0.43140000  0.32096000  0.44956000  1.0
  C  C146  1  0.98183000  0.55040000  0.87138000  1.0
  C  C147  1  0.00589000  0.83428000  0.32457000  1.0
  C  C148  1  0.68134000  0.67543000  0.50974000  1.0
  C  C149  1  0.17162000  0.49029000  0.16569000  1.0
  C  C150  1  0.99412000  0.16572000  0.67543000  1.0
  C  C151  1  0.31866000  0.32457000  0.49026000  1.0
  C  C152  1  0.82838000  0.50971000  0.83431000  1.0
  C  C153  1  0.52596000  0.01584000  0.35210000  1.0
  C  C154  1  0.17370000  0.64786000  0.66369000  1.0
  C  C155  1  0.51002000  0.33624000  0.98418000  1.0
  C  C156  1  0.47404000  0.98416000  0.64790000  1.0
  C  C157  1  0.82630000  0.35214000  0.33631000  1.0
  C  C158  1  0.48998000  0.66375000  0.01582000  1.0
  C  C159  1  0.38801000  0.99900000  0.37007000  1.0
  C  C160  1  0.01775000  0.62992000  0.62890000  1.0
  C  C161  1  0.38892000  0.37106000  0.00102000  1.0
  C  C162  1  0.61199000  0.00100000  0.62993000  1.0
  C  C163  1  0.98225000  0.37008000  0.37110000  1.0
  C  C164  1  0.61108000  0.62894000  0.99898000  1.0
  C  C165  1  0.25417000  0.00106000  0.32659000  1.0
  C  C166  1  0.92742000  0.67340000  0.67444000  1.0
  C  C167  1  0.25302000  0.32555000  0.99900000  1.0
  C  C168  1  0.74583000  0.99894000  0.67341000  1.0
  C  C169  1  0.07258000  0.32660000  0.32556000  1.0
  C  C170  1  0.74699000  0.67445000  0.00100000  1.0
  C  C171  1  0.25347000  0.02121000  0.26472000  1.0
  C  C172  1  0.98857000  0.73528000  0.75646000  1.0
  C  C173  1  0.23216000  0.24354000  0.97889000  1.0
  C  C174  1  0.74653000  0.97879000  0.73528000  1.0
  C  C175  1  0.01143000  0.26472000  0.24354000  1.0
  C  C176  1  0.76784000  0.75646000  0.02111000  1.0
  C  C177  1  0.39175000  0.03844000  0.24714000  1.0
  C  C178  1  0.14441000  0.75280000  0.79128000  1.0
  C  C179  1  0.35317000  0.20870000  0.96162000  1.0
  C  C180  1  0.60824000  0.96156000  0.75286000  1.0
  C  C181  1  0.85558000  0.24720000  0.20872000  1.0
  C  C182  1  0.64683000  0.79130000  0.03838000  1.0
  C  C183  1  0.52573000  0.03561000  0.28986000  1.0
  C  C184  1  0.23565000  0.71006000  0.74571000  1.0
  C  C185  1  0.48998000  0.25424000  0.96440000  1.0
  C  C186  1  0.47427000  0.96439000  0.71014000  1.0
  C  C187  1  0.76435000  0.28994000  0.25429000  1.0
  C  C188  1  0.51002000  0.74576000  0.03559000  1.0
  C  C189  1  0.10916000  0.02665000  0.22090000  1.0
  C  C190  1  0.88814000  0.77914000  0.80572000  1.0
  C  C191  1  0.08242000  0.19425000  0.97341000  1.0
  C  C192  1  0.89084000  0.97335000  0.77910000  1.0
  C  C193  1  0.11186000  0.22086000  0.19428000  1.0
  C  C194  1  0.91758000  0.80575000  0.02659000  1.0
  C  C195  1  0.99997000  0.75879000  0.24898000  1.0
  C  C196  1  0.75106000  0.75103000  0.50983000  1.0
  C  C197  1  0.24125000  0.49021000  0.24119000  1.0
  C  C198  1  0.00003000  0.24121000  0.75102000  1.0
  C  C199  1  0.24893000  0.24897000  0.49017000  1.0
  C  C200  1  0.75875000  0.50979000  0.75881000  1.0
  C  C201  1  0.09572000  0.75949000  0.19959000  1.0
  C  C202  1  0.89619000  0.80044000  0.55994000  1.0
  C  C203  1  0.33621000  0.44008000  0.24050000  1.0
  C  C204  1  0.90427000  0.24052000  0.80041000  1.0
  C  C205  1  0.10381000  0.19956000  0.44006000  1.0
  C  C206  1  0.66379000  0.55992000  0.75950000  1.0
  C  C207  1  0.08032000  0.68772000  0.12740000  1.0
  C  C208  1  0.95301000  0.87262000  0.56036000  1.0
  C  C209  1  0.39257000  0.43967000  0.31228000  1.0
  C  C210  1  0.91968000  0.31228000  0.87260000  1.0
  C  C211  1  0.04699000  0.12738000  0.43964000  1.0
  C  C212  1  0.60743000  0.56033000  0.68772000  1.0
  C  C213  1  0.88687000  0.61583000  0.15025000  1.0
  C  C214  1  0.73672000  0.84974000  0.46561000  1.0
  C  C215  1  0.27105000  0.53443000  0.38413000  1.0
  C  C216  1  0.11313000  0.38417000  0.84975000  1.0
  C  C217  1  0.26328000  0.15026000  0.53439000  1.0
  C  C218  1  0.72895000  0.46557000  0.61587000  1.0
  C  C219  1  0.89409000  0.68477000  0.22333000  1.0
  C  C220  1  0.67088000  0.77665000  0.46143000  1.0
  C  C221  1  0.20943000  0.53860000  0.31520000  1.0
  C  C222  1  0.10591000  0.31523000  0.77667000  1.0
  C  C223  1  0.32912000  0.22335000  0.53857000  1.0
  C  C224  1  0.79057000  0.46140000  0.68480000  1.0
  N  N225  1  0.85471000  0.06843000  0.53101000  1.0
  N  N226  1  0.32371000  0.46900000  0.53743000  1.0
  N  N227  1  0.78624000  0.46254000  0.93157000  1.0
  N  N228  1  0.14529000  0.93157000  0.46899000  1.0
  N  N229  1  0.67629000  0.53100000  0.46257000  1.0
  N  N230  1  0.21376000  0.53746000  0.06843000  1.0
  N  N231  1  0.87114000  0.93994000  0.38521000  1.0
  N  N232  1  0.48599000  0.61479000  0.55479000  1.0
  N  N233  1  0.93118000  0.44522000  0.06000000  1.0
  N  N234  1  0.12886000  0.06006000  0.61479000  1.0
  N  N235  1  0.51400000  0.38521000  0.44521000  1.0
  N  N236  1  0.06882000  0.55478000  0.94000000  1.0
  N  N237  1  0.97798000  0.61682000  0.10258000  1.0
  N  N238  1  0.87552000  0.89744000  0.51429000  1.0
  N  N239  1  0.36115000  0.48576000  0.38315000  1.0
  N  N240  1  0.02202000  0.38318000  0.89742000  1.0
  N  N241  1  0.12448000  0.10257000  0.48572000  1.0
  N  N242  1  0.63885000  0.51424000  0.61685000  1.0
