# generated using pymatgen
data_CuH16C24(N2O3)2
_symmetry_space_group_name_H-M   'P 1'
_cell_length_a   7.37207000
_cell_length_b   11.85650000
_cell_length_c   13.11121028
_cell_angle_alpha   71.56671823
_cell_angle_beta   73.67432178
_cell_angle_gamma   89.99180000
_symmetry_Int_Tables_number   1
_chemical_formula_structural   CuH16C24(N2O3)2
_chemical_formula_sum   'Cu2 H32 C48 N8 O12'
_cell_volume   1038.40692666
_cell_formula_units_Z   2
loop_
 _symmetry_equiv_pos_site_id
 _symmetry_equiv_pos_as_xyz
  1  'x, y, z'
loop_
 _atom_site_type_symbol
 _atom_site_label
 _atom_site_symmetry_multiplicity
 _atom_site_fract_x
 _atom_site_fract_y
 _atom_site_fract_z
 _atom_site_occupancy
  Cu  Cu0  1  0.59647000  0.74992000  0.99997000  1.0
  Cu  Cu1  1  0.40353000  0.25008000  0.00003000  1.0
  H  H2  1  0.27714000  0.02519000  0.19073000  1.0
  H  H3  1  0.46803000  0.47512000  0.80919000  1.0
  H  H4  1  0.72286000  0.97481000  0.80927000  1.0
  H  H5  1  0.53198000  0.52487000  0.19081000  1.0
  H  H6  1  0.99318000  0.94419000  0.35789000  1.0
  H  H7  1  0.35126000  0.55591000  0.64192000  1.0
  H  H8  1  0.00683000  0.05581000  0.64211000  1.0
  H  H9  1  0.64875000  0.44409000  0.35808000  1.0
  H  H10  1  0.73106000  0.26321000  0.22773000  1.0
  H  H11  1  0.95919000  0.23682000  0.77235000  1.0
  H  H12  1  0.26894000  0.73679000  0.77227000  1.0
  H  H13  1  0.04081000  0.76318000  0.22765000  1.0
  H  H14  1  0.02618000  0.33292000  0.06817000  1.0
  H  H15  1  0.09508000  0.16721000  0.93179000  1.0
  H  H16  1  0.97380000  0.66708000  0.93184000  1.0
  H  H17  1  0.90492000  0.83279000  0.06821000  1.0
  H  H18  1  0.87989000  0.21830000  0.43048000  1.0
  H  H19  1  0.31039000  0.28166000  0.56944000  1.0
  H  H20  1  0.12011000  0.78170000  0.56952000  1.0
  H  H21  1  0.68961000  0.71834000  0.43056000  1.0
  H  H22  1  0.80952000  0.29131000  0.59230000  1.0
  H  H23  1  0.40187000  0.20873000  0.40756000  1.0
  H  H24  1  0.19048000  0.70868000  0.40769000  1.0
  H  H25  1  0.59812000  0.79128000  0.59244000  1.0
  H  H26  1  0.52749000  0.20192000  0.75856000  1.0
  H  H27  1  0.28598000  0.29822000  0.24133000  1.0
  H  H28  1  0.47250000  0.79808000  0.24144000  1.0
  H  H29  1  0.71402000  0.70178000  0.75867000  1.0
  H  H30  1  0.68933000  0.95737000  0.23763000  1.0
  H  H31  1  0.92709000  0.54249000  0.76241000  1.0
  H  H32  1  0.31067000  0.04263000  0.76237000  1.0
  H  H33  1  0.07291000  0.45752000  0.23759000  1.0
  C  C34  1  0.15361000  0.07509000  0.20284000  1.0
  C  C35  1  0.35673000  0.42516000  0.79705000  1.0
  C  C36  1  0.84639000  0.92491000  0.79716000  1.0
  C  C37  1  0.64327000  0.57485000  0.20295000  1.0
  C  C38  1  0.99398000  0.03070000  0.29546000  1.0
  C  C39  1  0.28972000  0.46943000  0.70441000  1.0
  C  C40  1  0.00603000  0.96930000  0.70454000  1.0
  C  C41  1  0.71028000  0.53057000  0.29559000  1.0
  C  C42  1  0.83683000  0.09711000  0.30790000  1.0
  C  C43  1  0.14507000  0.40291000  0.69203000  1.0
  C  C44  1  0.16317000  0.90288000  0.69211000  1.0
  C  C45  1  0.85493000  0.59709000  0.30797000  1.0
  C  C46  1  0.84883000  0.20761000  0.22430000  1.0
  C  C47  1  0.07356000  0.29246000  0.77569000  1.0
  C  C48  1  0.15117000  0.79238000  0.77570000  1.0
  C  C49  1  0.92644000  0.70754000  0.22431000  1.0
  C  C50  1  0.01293000  0.24687000  0.13373000  1.0
  C  C51  1  0.14724000  0.25328000  0.86623000  1.0
  C  C52  1  0.98706000  0.75312000  0.86627000  1.0
  C  C53  1  0.85276000  0.74672000  0.13377000  1.0
  C  C54  1  0.66395000  0.04887000  0.40587000  1.0
  C  C55  1  0.06991000  0.45109000  0.59413000  1.0
  C  C56  1  0.33605000  0.95112000  0.59413000  1.0
  C  C57  1  0.93009000  0.54892000  0.40587000  1.0
  C  C58  1  0.53677000  0.96041000  0.40505000  1.0
  C  C59  1  0.94190000  0.53954000  0.59494000  1.0
  C  C60  1  0.46323000  0.03959000  0.59495000  1.0
  C  C61  1  0.05811000  0.46046000  0.40506000  1.0
  C  C62  1  0.63001000  0.08939000  0.49924000  1.0
  C  C63  1  0.12926000  0.41061000  0.50073000  1.0
  C  C64  1  0.36999000  0.91061000  0.50076000  1.0
  C  C65  1  0.87074000  0.58939000  0.49927000  1.0
  C  C66  1  0.75399000  0.18025000  0.50193000  1.0
  C  C67  1  0.25591000  0.31972000  0.49799000  1.0
  C  C68  1  0.24601000  0.81974000  0.49807000  1.0
  C  C69  1  0.74409000  0.68028000  0.50201000  1.0
  C  C70  1  0.71502000  0.22083000  0.59230000  1.0
  C  C71  1  0.30736000  0.27922000  0.40757000  1.0
  C  C72  1  0.28498000  0.77917000  0.40769000  1.0
  C  C73  1  0.69265000  0.72078000  0.59243000  1.0
  C  C74  1  0.55337000  0.17084000  0.68658000  1.0
  C  C75  1  0.23989000  0.32928000  0.31333000  1.0
  C  C76  1  0.44663000  0.82916000  0.31342000  1.0
  C  C77  1  0.76011000  0.67072000  0.68667000  1.0
  C  C78  1  0.56821000  0.91785000  0.31166000  1.0
  C  C79  1  0.87996000  0.58205000  0.68838000  1.0
  C  C80  1  0.43179000  0.08215000  0.68834000  1.0
  C  C81  1  0.12004000  0.41795000  0.31162000  1.0
  N  N82  1  0.33338000  0.90770000  0.98863000  1.0
  N  N83  1  0.32188000  0.59235000  0.01134000  1.0
  N  N84  1  0.66662000  0.09230000  0.01137000  1.0
  N  N85  1  0.67811000  0.40765000  0.98866000  1.0
  N  N86  1  0.16341000  0.18185000  0.12314000  1.0
  N  N87  1  0.28695000  0.31841000  0.87679000  1.0
  N  N88  1  0.83660000  0.81815000  0.87686000  1.0
  N  N89  1  0.71305000  0.68160000  0.12321000  1.0
  O  O90  1  0.20635000  0.96895000  0.96292000  1.0
  O  O91  1  0.16920000  0.53108000  0.03705000  1.0
  O  O92  1  0.79364000  0.03104000  0.03708000  1.0
  O  O93  1  0.83079000  0.46893000  0.96295000  1.0
  O  O94  1  0.36939000  0.88803000  0.08064000  1.0
  O  O95  1  0.44993000  0.61198000  0.91936000  1.0
  O  O96  1  0.63060000  0.11197000  0.91936000  1.0
  O  O97  1  0.55006000  0.38802000  0.08065000  1.0
  O  O98  1  0.43567000  0.85994000  0.91679000  1.0
  O  O99  1  0.35230000  0.64012000  0.08317000  1.0
  O  O100  1  0.56432000  0.14005000  0.08321000  1.0
  O  O101  1  0.64770000  0.35988000  0.91683000  1.0
