# generated using pymatgen
data_ZnPH5CNO3
_symmetry_space_group_name_H-M   'P 1'
_cell_length_a   7.87224000
_cell_length_b   8.26724000
_cell_length_c   15.65008611
_cell_angle_alpha   104.39637419
_cell_angle_beta   89.99980320
_cell_angle_gamma   89.99980000
_symmetry_Int_Tables_number   1
_chemical_formula_structural   ZnPH5CNO3
_chemical_formula_sum   'Zn8 P8 H40 C8 N8 O24'
_cell_volume   986.55107247
_cell_formula_units_Z   8
loop_
 _symmetry_equiv_pos_site_id
 _symmetry_equiv_pos_as_xyz
  1  'x, y, z'
loop_
 _atom_site_type_symbol
 _atom_site_label
 _atom_site_symmetry_multiplicity
 _atom_site_fract_x
 _atom_site_fract_y
 _atom_site_fract_z
 _atom_site_occupancy
  Zn  Zn0  1  0.38956000  0.72276000  0.83158000  1.0
  Zn  Zn1  1  0.88956000  0.77724000  0.66842000  1.0
  Zn  Zn2  1  0.61044000  0.27723000  0.16842000  1.0
  Zn  Zn3  1  0.11044000  0.22276000  0.33158000  1.0
  Zn  Zn4  1  0.18892000  0.21217000  0.81681000  1.0
  Zn  Zn5  1  0.68892000  0.28783000  0.68319000  1.0
  Zn  Zn6  1  0.81108000  0.78783000  0.18319000  1.0
  Zn  Zn7  1  0.31108000  0.71217000  0.31681000  1.0
  P  P8  1  0.02585000  0.88424000  0.86668000  1.0
  P  P9  1  0.52586000  0.61577000  0.63332000  1.0
  P  P10  1  0.97415000  0.11576000  0.13332000  1.0
  P  P11  1  0.47414000  0.38424000  0.36668000  1.0
  P  P12  1  0.54900000  0.38934000  0.87353000  1.0
  P  P13  1  0.04901000  0.11064000  0.62647000  1.0
  P  P14  1  0.45100000  0.61066000  0.12647000  1.0
  P  P15  1  0.95099000  0.88936000  0.37353000  1.0
  H  H16  1  0.93877000  0.88874000  0.94593000  1.0
  H  H17  1  0.43878000  0.61125000  0.55407000  1.0
  H  H18  1  0.06123000  0.11126000  0.05407000  1.0
  H  H19  1  0.56122000  0.38874000  0.44592000  1.0
  H  H20  1  0.62291000  0.37475000  0.95314000  1.0
  H  H21  1  0.12291000  0.12524000  0.54686000  1.0
  H  H22  1  0.37709000  0.62524000  0.04686000  1.0
  H  H23  1  0.87709000  0.87476000  0.45314000  1.0
  H  H24  1  0.65564000  0.89611000  0.84339000  1.0
  H  H25  1  0.15564000  0.60389000  0.65661000  1.0
  H  H26  1  0.34436000  0.10389000  0.15661000  1.0
  H  H27  1  0.84436000  0.39611000  0.34339000  1.0
  H  H28  1  0.49404000  0.02637000  0.85899000  1.0
  H  H29  1  0.99405000  0.47364000  0.64101000  1.0
  H  H30  1  0.50595000  0.97363000  0.14101000  1.0
  H  H31  1  0.00595000  0.52637000  0.35899000  1.0
  H  H32  1  0.63528000  0.86314000  0.99183000  1.0
  H  H33  1  0.13528000  0.63686000  0.50817000  1.0
  H  H34  1  0.36471000  0.13685000  0.00816000  1.0
  H  H35  1  0.86472000  0.36315000  0.49184000  1.0
  H  H36  1  0.67529000  0.07097000  0.98655000  1.0
  H  H37  1  0.17530000  0.42902000  0.51344000  1.0
  H  H38  1  0.32470000  0.92902000  0.01345000  1.0
  H  H39  1  0.82470000  0.57098000  0.48656000  1.0
  H  H40  1  0.09260000  0.51928000  0.86684000  1.0
  H  H41  1  0.59260000  0.98073000  0.63316000  1.0
  H  H42  1  0.90740000  0.48072000  0.13316000  1.0
  H  H43  1  0.40740000  0.01927000  0.36684000  1.0
  H  H44  1  0.92462000  0.39654000  0.85280000  1.0
  H  H45  1  0.42463000  0.10346000  0.64720000  1.0
  H  H46  1  0.07538000  0.60346000  0.14720000  1.0
  H  H47  1  0.57537000  0.89654000  0.35280000  1.0
  H  H48  1  0.17438000  0.41556000  0.99716000  1.0
  H  H49  1  0.67437000  0.08446000  0.50284000  1.0
  H  H50  1  0.82563000  0.58445000  0.00284000  1.0
  H  H51  1  0.32563000  0.91554000  0.49716000  1.0
  H  H52  1  0.97738000  0.30997000  0.98429000  1.0
  H  H53  1  0.47736000  0.19004000  0.51571000  1.0
  H  H54  1  0.02262000  0.69004000  0.01571000  1.0
  H  H55  1  0.52264000  0.80996000  0.48429000  1.0
  C  C56  1  0.57938000  0.97064000  0.97276000  1.0
  C  C57  1  0.07938000  0.52936000  0.52724000  1.0
  C  C58  1  0.42062000  0.02935000  0.02724000  1.0
  C  C59  1  0.92062000  0.47064000  0.47276000  1.0
  C  C60  1  0.04309000  0.42054000  0.97387000  1.0
  C  C61  1  0.54308000  0.07947000  0.52613000  1.0
  C  C62  1  0.95692000  0.57947000  0.02613000  1.0
  C  C63  1  0.45692000  0.92053000  0.47387000  1.0
  N  N64  1  0.54125000  0.92234000  0.87677000  1.0
  N  N65  1  0.04126000  0.57766000  0.62323000  1.0
  N  N66  1  0.45874000  0.07766000  0.12323000  1.0
  N  N67  1  0.95874000  0.42235000  0.37677000  1.0
  N  N68  1  0.04714000  0.40854000  0.87778000  1.0
  N  N69  1  0.54714000  0.09146000  0.62222000  1.0
  N  N70  1  0.95286000  0.59146000  0.12222000  1.0
  N  N71  1  0.45286000  0.90854000  0.37778000  1.0
  O  O72  1  0.44948000  0.55343000  0.89549000  1.0
  O  O73  1  0.94948000  0.94658000  0.60452000  1.0
  O  O74  1  0.55053000  0.44657000  0.10451000  1.0
  O  O75  1  0.05051000  0.05342000  0.39548000  1.0
  O  O76  1  0.14129000  0.72853000  0.84961000  1.0
  O  O77  1  0.64128000  0.77147000  0.65039000  1.0
  O  O78  1  0.85871000  0.27147000  0.15039000  1.0
  O  O79  1  0.35871000  0.22852000  0.34960000  1.0
  O  O80  1  0.88434000  0.86903000  0.79712000  1.0
  O  O81  1  0.38434000  0.63097000  0.70288000  1.0
  O  O82  1  0.11567000  0.13097000  0.20288000  1.0
  O  O83  1  0.61566000  0.36903000  0.29712000  1.0
  O  O84  1  0.43511000  0.23433000  0.84133000  1.0
  O  O85  1  0.93511000  0.26568000  0.65868000  1.0
  O  O86  1  0.56489000  0.76567000  0.15867000  1.0
  O  O87  1  0.06489000  0.73433000  0.34133000  1.0
  O  O88  1  0.12910000  0.04536000  0.88262000  1.0
  O  O89  1  0.62911000  0.45464000  0.61738000  1.0
  O  O90  1  0.87091000  0.95464000  0.11738000  1.0
  O  O91  1  0.37089000  0.54536000  0.38262000  1.0
  O  O92  1  0.69931000  0.38783000  0.80979000  1.0
  O  O93  1  0.19931000  0.11217000  0.69021000  1.0
  O  O94  1  0.30069000  0.61217000  0.19021000  1.0
  O  O95  1  0.80069000  0.88783000  0.30979000  1.0
