# generated using pymatgen
data_ZnH13C15NO5
_symmetry_space_group_name_H-M   'P 1'
_cell_length_a   7.11807000
_cell_length_b   13.57160000
_cell_length_c   14.09790000
_cell_angle_alpha   90.00000000
_cell_angle_beta   90.00000000
_cell_angle_gamma   95.32160000
_symmetry_Int_Tables_number   1
_chemical_formula_structural   ZnH13C15NO5
_chemical_formula_sum   'Zn4 H52 C60 N4 O20'
_cell_volume   1356.03778654
_cell_formula_units_Z   4
loop_
 _symmetry_equiv_pos_site_id
 _symmetry_equiv_pos_as_xyz
  1  'x, y, z'
loop_
 _atom_site_type_symbol
 _atom_site_label
 _atom_site_symmetry_multiplicity
 _atom_site_fract_x
 _atom_site_fract_y
 _atom_site_fract_z
 _atom_site_occupancy
  Zn  Zn0  1  0.92286000  0.45099000  0.24591000  1.0
  Zn  Zn1  1  0.42285000  0.95099000  0.75409000  1.0
  Zn  Zn2  1  0.41122000  0.33318000  0.26494000  1.0
  Zn  Zn3  1  0.91122000  0.83318000  0.73506000  1.0
  H  H4  1  0.67482000  0.69991000  0.16098000  1.0
  H  H5  1  0.17482000  0.19991000  0.83902000  1.0
  H  H6  1  0.63769000  0.83308000  0.04204000  1.0
  H  H7  1  0.13770000  0.33307000  0.95796000  1.0
  H  H8  1  0.48172000  0.66101000  0.75255000  1.0
  H  H9  1  0.98174000  0.16101000  0.24745000  1.0
  H  H10  1  0.41464000  0.48610000  0.70671000  1.0
  H  H11  1  0.91464000  0.98610000  0.29330000  1.0
  H  H12  1  0.42692000  0.35248000  0.82878000  1.0
  H  H13  1  0.92691000  0.85248000  0.17122000  1.0
  H  H14  1  0.49658000  0.39642000  0.99594000  1.0
  H  H15  1  0.99657000  0.89642000  0.00407000  1.0
  H  H16  1  0.70763000  0.14811000  0.36410000  1.0
  H  H17  1  0.20763000  0.64811000  0.63590000  1.0
  H  H18  1  0.71180000  0.01381000  0.48605000  1.0
  H  H19  1  0.21179000  0.51381000  0.51396000  1.0
  H  H20  1  0.83218000  0.18494000  0.78001000  1.0
  H  H21  1  0.33217000  0.68494000  0.21999000  1.0
  H  H22  1  0.89154000  0.35959000  0.82757000  1.0
  H  H23  1  0.39153000  0.85959000  0.17243000  1.0
  H  H24  1  0.90174000  0.49387000  0.70457000  1.0
  H  H25  1  0.40174000  0.99387000  0.29543000  1.0
  H  H26  1  0.86087000  0.44973000  0.53572000  1.0
  H  H27  1  0.36089000  0.94973000  0.46429000  1.0
  H  H28  1  0.58071000  0.28470000  0.07467000  1.0
  H  H29  1  0.08073000  0.78470000  0.92532000  1.0
  H  H30  1  0.37693000  0.03678000  0.13380000  1.0
  H  H31  1  0.87693000  0.53678000  0.86620000  1.0
  H  H32  1  0.61007000  0.00342000  0.11146000  1.0
  H  H33  1  0.11006000  0.50342000  0.88855000  1.0
  H  H34  1  0.43591000  0.98940000  0.01970000  1.0
  H  H35  1  0.93590000  0.48940000  0.98030000  1.0
  H  H36  1  0.66935000  0.22651000  0.94182000  1.0
  H  H37  1  0.16934000  0.72651000  0.05818000  1.0
  H  H38  1  0.50252000  0.12930000  0.89969000  1.0
  H  H39  1  0.00250000  0.62931000  0.10031000  1.0
  H  H40  1  0.72877000  0.10162000  0.93961000  1.0
  H  H41  1  0.22876000  0.60162000  0.06040000  1.0
  H  H42  1  0.39062000  0.35797000  0.47943000  1.0
  H  H43  1  0.89062000  0.85796000  0.52057000  1.0
  H  H44  1  0.19772000  0.10287000  0.46596000  1.0
  H  H45  1  0.69771000  0.60286000  0.53404000  1.0
  H  H46  1  0.12717000  0.10270000  0.58800000  1.0
  H  H47  1  0.62716000  0.60270000  0.41200000  1.0
  H  H48  1  0.35920000  0.07601000  0.55828000  1.0
  H  H49  1  0.85919000  0.57600000  0.44171000  1.0
  H  H50  1  0.42200000  0.34017000  0.63109000  1.0
  H  H51  1  0.92200000  0.84017000  0.36891000  1.0
  H  H52  1  0.42400000  0.21919000  0.67998000  1.0
  H  H53  1  0.92400000  0.71919000  0.32002000  1.0
  H  H54  1  0.20712000  0.27594000  0.67418000  1.0
  H  H55  1  0.70711000  0.77594000  0.32582000  1.0
  C  C56  1  0.58583000  0.58166000  0.06711000  1.0
  C  C57  1  0.08583000  0.08166000  0.93289000  1.0
  C  C58  1  0.62930000  0.68084000  0.08906000  1.0
  C  C59  1  0.12930000  0.18084000  0.91094000  1.0
  C  C60  1  0.61060000  0.75555000  0.02193000  1.0
  C  C61  1  0.11061000  0.25555000  0.97806000  1.0
  C  C62  1  0.56157000  0.73160000  0.92928000  1.0
  C  C63  1  0.06158000  0.23160000  0.07071000  1.0
  C  C64  1  0.52655000  0.63039000  0.90127000  1.0
  C  C65  1  0.02655000  0.13039000  0.09873000  1.0
  C  C66  1  0.48245000  0.60309000  0.80586000  1.0
  C  C67  1  0.98246000  0.10309000  0.19414000  1.0
  C  C68  1  0.44692000  0.50518000  0.78040000  1.0
  C  C69  1  0.94692000  0.00519000  0.21960000  1.0
  C  C70  1  0.45350000  0.43000000  0.84926000  1.0
  C  C71  1  0.95350000  0.93000000  0.15074000  1.0
  C  C72  1  0.49417000  0.45392000  0.94256000  1.0
  C  C73  1  0.99416000  0.95392000  0.05744000  1.0
  C  C74  1  0.53261000  0.55399000  0.97197000  1.0
  C  C75  1  0.03261000  0.05399000  0.02803000  1.0
  C  C76  1  0.60106000  0.50906000  0.14701000  1.0
  C  C77  1  0.10105000  0.00906000  0.85299000  1.0
  C  C78  1  0.53983000  0.81328000  0.86038000  1.0
  C  C79  1  0.03984000  0.31328000  0.13962000  1.0
  C  C80  1  0.78479000  0.26480000  0.46217000  1.0
  C  C81  1  0.28479000  0.76479000  0.53783000  1.0
  C  C82  1  0.74103000  0.16624000  0.43793000  1.0
  C  C83  1  0.24102000  0.66623000  0.56207000  1.0
  C  C84  1  0.74206000  0.09116000  0.50649000  1.0
  C  C85  1  0.24205000  0.59115000  0.49352000  1.0
  C  C86  1  0.77713000  0.11420000  0.60095000  1.0
  C  C87  1  0.27712000  0.61419000  0.39906000  1.0
  C  C88  1  0.81120000  0.21527000  0.62992000  1.0
  C  C89  1  0.31119000  0.71526000  0.37008000  1.0
  C  C90  1  0.83979000  0.24284000  0.72653000  1.0
  C  C91  1  0.33978000  0.74283000  0.27347000  1.0
  C  C92  1  0.87220000  0.34074000  0.75287000  1.0
  C  C93  1  0.37220000  0.84074000  0.24713000  1.0
  C  C94  1  0.87873000  0.41626000  0.68368000  1.0
  C  C95  1  0.37874000  0.91626000  0.31633000  1.0
  C  C96  1  0.85414000  0.39201000  0.58920000  1.0
  C  C97  1  0.35415000  0.89200000  0.41080000  1.0
  C  C98  1  0.81980000  0.29191000  0.55916000  1.0
  C  C99  1  0.31980000  0.79191000  0.44084000  1.0
  C  C100  1  0.80213000  0.33776000  0.38295000  1.0
  C  C101  1  0.30213000  0.83776000  0.61705000  1.0
  C  C102  1  0.77202000  0.03128000  0.67196000  1.0
  C  C103  1  0.27201000  0.53128000  0.32804000  1.0
  C  C104  1  0.52640000  0.21280000  0.10474000  1.0
  C  C105  1  0.02641000  0.71281000  0.89526000  1.0
  C  C106  1  0.48755000  0.03512000  0.08006000  1.0
  C  C107  1  0.98754000  0.53511000  0.91994000  1.0
  C  C108  1  0.61456000  0.14901000  0.95180000  1.0
  C  C109  1  0.11455000  0.64901000  0.04820000  1.0
  C  C110  1  0.34113000  0.27982000  0.46588000  1.0
  C  C111  1  0.84113000  0.77982000  0.53411000  1.0
  C  C112  1  0.24402000  0.12046000  0.53853000  1.0
  C  C113  1  0.74401000  0.62046000  0.46146000  1.0
  C  C114  1  0.34129000  0.26769000  0.63768000  1.0
  C  C115  1  0.84129000  0.76769000  0.36232000  1.0
  N  N116  1  0.54202000  0.13553000  0.04779000  1.0
  N  N117  1  0.04202000  0.63554000  0.95221000  1.0
  N  N118  1  0.30760000  0.22524000  0.54388000  1.0
  N  N119  1  0.80759000  0.72524000  0.45612000  1.0
  O  O120  1  0.72480000  0.53709000  0.21027000  1.0
  O  O121  1  0.22479000  0.03710000  0.78972000  1.0
  O  O122  1  0.49339000  0.42937000  0.14840000  1.0
  O  O123  1  0.99338000  0.92937000  0.85160000  1.0
  O  O124  1  0.62281000  0.81648000  0.78047000  1.0
  O  O125  1  0.12283000  0.31648000  0.21952000  1.0
  O  O126  1  0.42728000  0.87767000  0.88313000  1.0
  O  O127  1  0.92728000  0.37766000  0.11687000  1.0
  O  O128  1  0.92805000  0.41132000  0.38733000  1.0
  O  O129  1  0.42804000  0.91132000  0.61268000  1.0
  O  O130  1  0.70285000  0.32263000  0.30803000  1.0
  O  O131  1  0.20284000  0.82263000  0.69198000  1.0
  O  O132  1  0.87335000  0.96158000  0.65464000  1.0
  O  O133  1  0.37336000  0.46158000  0.34536000  1.0
  O  O134  1  0.66449000  0.03878000  0.74392000  1.0
  O  O135  1  0.16448000  0.53878000  0.25608000  1.0
  O  O136  1  0.45719000  0.20613000  0.18679000  1.0
  O  O137  1  0.95719000  0.70613000  0.81320000  1.0
  O  O138  1  0.31932000  0.24701000  0.38289000  1.0
  O  O139  1  0.81931000  0.74701000  0.61711000  1.0
