# generated using pymatgen
data_ZnH16C23I2Br2(NO2)2
_symmetry_space_group_name_H-M   'P 1'
_cell_length_a   10.25850000
_cell_length_b   11.36560000
_cell_length_c   12.78780000
_cell_angle_alpha   102.81700000
_cell_angle_beta   94.60960000
_cell_angle_gamma   96.47940000
_symmetry_Int_Tables_number   1
_chemical_formula_structural   ZnH16C23I2Br2(NO2)2
_chemical_formula_sum   'Zn2 H32 C46 I4 Br4 N4 O8'
_cell_volume   1435.97123531
_cell_formula_units_Z   2
loop_
 _symmetry_equiv_pos_site_id
 _symmetry_equiv_pos_as_xyz
  1  'x, y, z'
loop_
 _atom_site_type_symbol
 _atom_site_label
 _atom_site_symmetry_multiplicity
 _atom_site_fract_x
 _atom_site_fract_y
 _atom_site_fract_z
 _atom_site_occupancy
  Zn  Zn0  1  0.02558000  0.19328000  0.32589000  1.0
  Zn  Zn1  1  0.97441000  0.80673000  0.67412000  1.0
  H  H2  1  0.05261000  0.18704000  0.56021000  1.0
  H  H3  1  0.94737000  0.81296000  0.43980000  1.0
  H  H4  1  0.18741000  0.08865000  0.68131000  1.0
  H  H5  1  0.81258000  0.91133000  0.31870000  1.0
  H  H6  1  0.34811000  0.90216000  0.39841000  1.0
  H  H7  1  0.65189000  0.09786000  0.60159000  1.0
  H  H8  1  0.20296000  0.00469000  0.28843000  1.0
  H  H9  1  0.79705000  0.99534000  0.71158000  1.0
  H  H10  1  0.28239000  0.78620000  0.80873000  1.0
  H  H11  1  0.71763000  0.21381000  0.19127000  1.0
  H  H12  1  0.30742000  0.65965000  0.94663000  1.0
  H  H13  1  0.69256000  0.34035000  0.05335000  1.0
  H  H14  1  0.66388000  0.72309000  0.16389000  1.0
  H  H15  1  0.33610000  0.27688000  0.83611000  1.0
  H  H16  1  0.76065000  0.88235000  0.07433000  1.0
  H  H17  1  0.23935000  0.11763000  0.92567000  1.0
  H  H18  1  0.73611000  0.00692000  0.94050000  1.0
  H  H19  1  0.26391000  0.99307000  0.05951000  1.0
  H  H20  1  0.59688000  0.06483000  0.79539000  1.0
  H  H21  1  0.40314000  0.93517000  0.20463000  1.0
  H  H22  1  0.07776000  0.46663000  0.40798000  1.0
  H  H23  1  0.92227000  0.53339000  0.59205000  1.0
  H  H24  1  0.20144000  0.64292000  0.35414000  1.0
  H  H25  1  0.79859000  0.35708000  0.64586000  1.0
  H  H26  1  0.36863000  0.38323000  0.11964000  1.0
  H  H27  1  0.63132000  0.61675000  0.88034000  1.0
  H  H28  1  0.23744000  0.21767000  0.18220000  1.0
  H  H29  1  0.76253000  0.78231000  0.81780000  1.0
  H  H30  1  0.70475000  0.46169000  0.43195000  1.0
  H  H31  1  0.29524000  0.53831000  0.56805000  1.0
  H  H32  1  0.57537000  0.44196000  0.32289000  1.0
  H  H33  1  0.42462000  0.55805000  0.67711000  1.0
  C  C34  1  0.11966000  0.12329000  0.52849000  1.0
  C  C35  1  0.88032000  0.87671000  0.47152000  1.0
  C  C36  1  0.19527000  0.06953000  0.59501000  1.0
  C  C37  1  0.80472000  0.93046000  0.40498000  1.0
  C  C38  1  0.28087000  0.99053000  0.54854000  1.0
  C  C39  1  0.71912000  0.00947000  0.45146000  1.0
  C  C40  1  0.28457000  0.96534000  0.43690000  1.0
  C  C41  1  0.71542000  0.03467000  0.56310000  1.0
  C  C42  1  0.20501000  0.02180000  0.37592000  1.0
  C  C43  1  0.79500000  0.97822000  0.62409000  1.0
  C  C44  1  0.37233000  0.93481000  0.61411000  1.0
  C  C45  1  0.62768000  0.06519000  0.38589000  1.0
  C  C46  1  0.43537000  0.92412000  0.79409000  1.0
  C  C47  1  0.56465000  0.07589000  0.20591000  1.0
  C  C48  1  0.38258000  0.83117000  0.83695000  1.0
  C  C49  1  0.61743000  0.16884000  0.16305000  1.0
  C  C50  1  0.45800000  0.79923000  0.92179000  1.0
  C  C51  1  0.54200000  0.20077000  0.07821000  1.0
  C  C52  1  0.40600000  0.70903000  0.97376000  1.0
  C  C53  1  0.59399000  0.29096000  0.02623000  1.0
  C  C54  1  0.48048000  0.68598000  0.05933000  1.0
  C  C55  1  0.51951000  0.31401000  0.94066000  1.0
  C  C56  1  0.60899000  0.74619000  0.09639000  1.0
  C  C57  1  0.39100000  0.25379000  0.90361000  1.0
  C  C58  1  0.66195000  0.83316000  0.04608000  1.0
  C  C59  1  0.33806000  0.16681000  0.95391000  1.0
  C  C60  1  0.58811000  0.86328000  0.95934000  1.0
  C  C61  1  0.41190000  0.13669000  0.04066000  1.0
  C  C62  1  0.63799000  0.95738000  0.91053000  1.0
  C  C63  1  0.36203000  0.04260000  0.08947000  1.0
  C  C64  1  0.56275000  0.98830000  0.82907000  1.0
  C  C65  1  0.43727000  0.01170000  0.17094000  1.0
  C  C66  1  0.35666000  0.63219000  0.19380000  1.0
  C  C67  1  0.64333000  0.36779000  0.80618000  1.0
  C  C68  1  0.14401000  0.45249000  0.34508000  1.0
  C  C69  1  0.85601000  0.54752000  0.65493000  1.0
  C  C70  1  0.21233000  0.54992000  0.31461000  1.0
  C  C71  1  0.78767000  0.45009000  0.68539000  1.0
  C  C72  1  0.29315000  0.52646000  0.23152000  1.0
  C  C73  1  0.70684000  0.47353000  0.76847000  1.0
  C  C74  1  0.30627000  0.40557000  0.18416000  1.0
  C  C75  1  0.69370000  0.59441000  0.81582000  1.0
  C  C76  1  0.23411000  0.31321000  0.21908000  1.0
  C  C77  1  0.76587000  0.68677000  0.78091000  1.0
  C  C78  1  0.65525000  0.50491000  0.37465000  1.0
  C  C79  1  0.34473000  0.49509000  0.62535000  1.0
  I  I80  1  0.80159000  0.54853000  0.27247000  1.0
  I  I81  1  0.19841000  0.45147000  0.72754000  1.0
  I  I82  1  0.57358000  0.65777000  0.46148000  1.0
  I  I83  1  0.42641000  0.34223000  0.53852000  1.0
  Br  Br84  1  0.87369000  0.29074000  0.43476000  1.0
  Br  Br85  1  0.12636000  0.70936000  0.56528000  1.0
  Br  Br86  1  0.97300000  0.05841000  0.15450000  1.0
  Br  Br87  1  0.02698000  0.94161000  0.84551000  1.0
  N  N88  1  0.12555000  0.10083000  0.42118000  1.0
  N  N89  1  0.87445000  0.89918000  0.57883000  1.0
  N  N90  1  0.15329000  0.33607000  0.29697000  1.0
  N  N91  1  0.84671000  0.66393000  0.70304000  1.0
  O  O92  1  0.45613000  0.87393000  0.57770000  1.0
  O  O93  1  0.54389000  0.12608000  0.42229000  1.0
  O  O94  1  0.35337000  0.96484000  0.71995000  1.0
  O  O95  1  0.64666000  0.03517000  0.28005000  1.0
  O  O96  1  0.42756000  0.59510000  0.10950000  1.0
  O  O97  1  0.57243000  0.40488000  0.89047000  1.0
  O  O98  1  0.34327000  0.73799000  0.23152000  1.0
  O  O99  1  0.65673000  0.26199000  0.76847000  1.0
