# generated using pymatgen
data_MnH12C8(N3O)2
_symmetry_space_group_name_H-M   'P 1'
_cell_length_a   7.11439000
_cell_length_b   7.12742000
_cell_length_c   7.11452000
_cell_angle_alpha   71.50280000
_cell_angle_beta   64.17290000
_cell_angle_gamma   71.50540000
_symmetry_Int_Tables_number   1
_chemical_formula_structural   MnH12C8(N3O)2
_chemical_formula_sum   'Mn1 H12 C8 N6 O2'
_cell_volume   301.10045846
_cell_formula_units_Z   1
loop_
 _symmetry_equiv_pos_site_id
 _symmetry_equiv_pos_as_xyz
  1  'x, y, z'
loop_
 _atom_site_type_symbol
 _atom_site_label
 _atom_site_symmetry_multiplicity
 _atom_site_fract_x
 _atom_site_fract_y
 _atom_site_fract_z
 _atom_site_occupancy
  Mn  Mn0  1  0.00000000  0.50000000  0.00000000  1.0
  H  H1  1  0.24053000  0.21540000  0.24056000  1.0
  H  H2  1  0.75946000  0.78460000  0.75943000  1.0
  H  H3  1  0.22176000  0.00304000  0.98778000  1.0
  H  H4  1  0.01223000  0.99694000  0.77825000  1.0
  H  H5  1  0.77824000  0.99696000  0.01223000  1.0
  H  H6  1  0.98777000  0.00306000  0.22175000  1.0
  H  H7  1  0.26924000  0.70406000  0.26925000  1.0
  H  H8  1  0.73076000  0.29594000  0.73076000  1.0
  H  H9  1  0.21171000  0.85784000  0.44894000  1.0
  H  H10  1  0.55105000  0.14216000  0.78828000  1.0
  H  H11  1  0.78828000  0.14216000  0.55106000  1.0
  H  H12  1  0.44894000  0.85785000  0.21172000  1.0
  C  C13  1  0.55426000  0.32987000  0.25106000  1.0
  C  C14  1  0.74893000  0.67012000  0.44576000  1.0
  C  C15  1  0.44576000  0.67014000  0.74892000  1.0
  C  C16  1  0.25107000  0.32988000  0.55425000  1.0
  C  C17  1  0.15577000  0.01554000  0.15575000  1.0
  C  C18  1  0.84423000  0.98446000  0.84425000  1.0
  C  C19  1  0.27929000  0.85081000  0.27929000  1.0
  C  C20  1  0.72071000  0.14919000  0.72071000  1.0
  N  N21  1  0.71780000  0.37236000  0.12684000  1.0
  N  N22  1  0.87316000  0.62761000  0.28220000  1.0
  N  N23  1  0.28218000  0.62764000  0.87317000  1.0
  N  N24  1  0.12684000  0.37239000  0.71780000  1.0
  N  N25  1  0.37510000  0.27235000  0.37513000  1.0
  N  N26  1  0.62492000  0.72764000  0.62485000  1.0
  O  O27  1  0.15818000  0.21656000  0.15811000  1.0
  O  O28  1  0.84181000  0.78344000  0.84190000  1.0
