# generated using pymatgen
data_Nd2H48C39S3N14O19
_symmetry_space_group_name_H-M   'P 1'
_cell_length_a   11.64060000
_cell_length_b   17.42590000
_cell_length_c   25.61110000
_cell_angle_alpha   101.69400000
_cell_angle_beta   89.99980000
_cell_angle_gamma   90.00000000
_symmetry_Int_Tables_number   1
_chemical_formula_structural   Nd2H48C39S3N14O19
_chemical_formula_sum   'Nd8 H192 C156 S12 N56 O76'
_cell_volume   5087.32815976
_cell_formula_units_Z   4
loop_
 _symmetry_equiv_pos_site_id
 _symmetry_equiv_pos_as_xyz
  1  'x, y, z'
loop_
 _atom_site_type_symbol
 _atom_site_label
 _atom_site_symmetry_multiplicity
 _atom_site_fract_x
 _atom_site_fract_y
 _atom_site_fract_z
 _atom_site_occupancy
  Nd  Nd0  1  0.96653000  0.51081000  0.58050000  1.0
  Nd  Nd1  1  0.96653000  0.98920000  0.91950000  1.0
  Nd  Nd2  1  0.03347000  0.48920000  0.41950000  1.0
  Nd  Nd3  1  0.03347000  0.01080000  0.08050000  1.0
  Nd  Nd4  1  0.50702000  0.96150000  0.41896000  1.0
  Nd  Nd5  1  0.50702000  0.53850000  0.08104000  1.0
  Nd  Nd6  1  0.49298000  0.03850000  0.58104000  1.0
  Nd  Nd7  1  0.49298000  0.46150000  0.91896000  1.0
  H  H8  1  0.08762000  0.68767000  0.65300000  1.0
  H  H9  1  0.08763000  0.81233000  0.84700000  1.0
  H  H10  1  0.91238000  0.31234000  0.34700000  1.0
  H  H11  1  0.91238000  0.18766000  0.15300000  1.0
  H  H12  1  0.75504000  0.74673000  0.67591000  1.0
  H  H13  1  0.75504000  0.75327000  0.82409000  1.0
  H  H14  1  0.24496000  0.25327000  0.32409000  1.0
  H  H15  1  0.24495000  0.24673000  0.17591000  1.0
  H  H16  1  0.64008000  0.38206000  0.63219000  1.0
  H  H17  1  0.64008000  0.11794000  0.86781000  1.0
  H  H18  1  0.35992000  0.61794000  0.36781000  1.0
  H  H19  1  0.35992000  0.88206000  0.13219000  1.0
  H  H20  1  0.69075000  0.46526000  0.49758000  1.0
  H  H21  1  0.69075000  0.03474000  0.00242000  1.0
  H  H22  1  0.30926000  0.53474000  0.50242000  1.0
  H  H23  1  0.30926000  0.96526000  0.99758000  1.0
  H  H24  1  0.39113000  0.10746000  0.35998000  1.0
  H  H25  1  0.39114000  0.39254000  0.14002000  1.0
  H  H26  1  0.60886000  0.89254000  0.64002000  1.0
  H  H27  1  0.60886000  0.60746000  0.85998000  1.0
  H  H28  1  0.32994000  0.91184000  0.24770000  1.0
  H  H29  1  0.32995000  0.58816000  0.25230000  1.0
  H  H30  1  0.67005000  0.08815000  0.75230000  1.0
  H  H31  1  0.67005000  0.41184000  0.74770000  1.0
  H  H32  1  0.48394000  0.69741000  0.30984000  1.0
  H  H33  1  0.48394000  0.80259000  0.19016000  1.0
  H  H34  1  0.51606000  0.30258000  0.69016000  1.0
  H  H35  1  0.51606000  0.19741000  0.80984000  1.0
  H  H36  1  0.76139000  0.83170000  0.36449000  1.0
  H  H37  1  0.76139000  0.66830000  0.13551000  1.0
  H  H38  1  0.23861000  0.16830000  0.63551000  1.0
  H  H39  1  0.23861000  0.33170000  0.86449000  1.0
  H  H40  1  0.21403000  0.75546000  0.61558000  1.0
  H  H41  1  0.21402000  0.74454000  0.88442000  1.0
  H  H42  1  0.78597000  0.24454000  0.38442000  1.0
  H  H43  1  0.78597000  0.25546000  0.11558000  1.0
  H  H44  1  0.33296000  0.87531000  0.59539000  1.0
  H  H45  1  0.33295000  0.62469000  0.90461000  1.0
  H  H46  1  0.66705000  0.12469000  0.40461000  1.0
  H  H47  1  0.66704000  0.37531000  0.09539000  1.0
  H  H48  1  0.94892000  0.42046000  0.76528000  1.0
  H  H49  1  0.94892000  0.07954000  0.73472000  1.0
  H  H50  1  0.05108000  0.57954000  0.23472000  1.0
  H  H51  1  0.05108000  0.92046000  0.26528000  1.0
  H  H52  1  0.08012000  0.41810000  0.85151000  1.0
  H  H53  1  0.08012000  0.08189000  0.64849000  1.0
  H  H54  1  0.91988000  0.58190000  0.14849000  1.0
  H  H55  1  0.91988000  0.91810000  0.35151000  1.0
  H  H56  1  0.25241000  0.36314000  0.42228000  1.0
  H  H57  1  0.25241000  0.13686000  0.07772000  1.0
  H  H58  1  0.74758000  0.63686000  0.57772000  1.0
  H  H59  1  0.74760000  0.86314000  0.92228000  1.0
  H  H60  1  0.36983000  0.23130000  0.39964000  1.0
  H  H61  1  0.36983000  0.26870000  0.10036000  1.0
  H  H62  1  0.63016000  0.76870000  0.60036000  1.0
  H  H63  1  0.63018000  0.73130000  0.89964000  1.0
  H  H64  1  0.87463000  0.87942000  0.68899000  1.0
  H  H65  1  0.87463000  0.62059000  0.81101000  1.0
  H  H66  1  0.12537000  0.12059000  0.31102000  1.0
  H  H67  1  0.12536000  0.37941000  0.18899000  1.0
  H  H68  1  0.88446000  0.83621000  0.74617000  1.0
  H  H69  1  0.88447000  0.66379000  0.75383000  1.0
  H  H70  1  0.11553000  0.16379000  0.25383000  1.0
  H  H71  1  0.11552000  0.33621000  0.24617000  1.0
  H  H72  1  0.06042000  0.83247000  0.65772000  1.0
  H  H73  1  0.06043000  0.66753000  0.84228000  1.0
  H  H74  1  0.93958000  0.16754000  0.34228000  1.0
  H  H75  1  0.93957000  0.33246000  0.15772000  1.0
  H  H76  1  0.08328000  0.82439000  0.72547000  1.0
  H  H77  1  0.08328000  0.67562000  0.77452000  1.0
  H  H78  1  0.91672000  0.17562000  0.27453000  1.0
  H  H79  1  0.91671000  0.32438000  0.22547000  1.0
  H  H80  1  0.59926000  0.33153000  0.47853000  1.0
  H  H81  1  0.59926000  0.16846000  0.02147000  1.0
  H  H82  1  0.40074000  0.66847000  0.52147000  1.0
  H  H83  1  0.40074000  0.83153000  0.97853000  1.0
  H  H84  1  0.48082000  0.39754000  0.48814000  1.0
  H  H85  1  0.48082000  0.10246000  0.01187000  1.0
  H  H86  1  0.51919000  0.60246000  0.51186000  1.0
  H  H87  1  0.51919000  0.89754000  0.98813000  1.0
  H  H88  1  0.44512000  0.37481000  0.57531000  1.0
  H  H89  1  0.44512000  0.12519000  0.92469000  1.0
  H  H90  1  0.55488000  0.62519000  0.42469000  1.0
  H  H91  1  0.55488000  0.87481000  0.07531000  1.0
  H  H92  1  0.53556000  0.29166000  0.55778000  1.0
  H  H93  1  0.53556000  0.20834000  0.94221000  1.0
  H  H94  1  0.46445000  0.70834000  0.44221000  1.0
  H  H95  1  0.46445000  0.79165000  0.05779000  1.0
  H  H96  1  0.24663000  0.04307000  0.22004000  1.0
  H  H97  1  0.24664000  0.45693000  0.27996000  1.0
  H  H98  1  0.75337000  0.95693000  0.77996000  1.0
  H  H99  1  0.75335000  0.54307000  0.72004000  1.0
  H  H100  1  0.38722000  0.01306000  0.19834000  1.0
  H  H101  1  0.38723000  0.48694000  0.30166000  1.0
  H  H102  1  0.61277000  0.98694000  0.80166000  1.0
  H  H103  1  0.61276000  0.51306000  0.69834000  1.0
  H  H104  1  0.47850000  0.10351000  0.26930000  1.0
  H  H105  1  0.47851000  0.39649000  0.23070000  1.0
  H  H106  1  0.52149000  0.89649000  0.73069000  1.0
  H  H107  1  0.52148000  0.60351000  0.76931000  1.0
  H  H108  1  0.34886000  0.15711000  0.26922000  1.0
  H  H109  1  0.34887000  0.34289000  0.23078000  1.0
  H  H110  1  0.65113000  0.84289000  0.73077000  1.0
  H  H111  1  0.65113000  0.65711000  0.76922000  1.0
  H  H112  1  0.66965000  0.64473000  0.25480000  1.0
  H  H113  1  0.66965000  0.85527000  0.24520000  1.0
  H  H114  1  0.33035000  0.35527000  0.74520000  1.0
  H  H115  1  0.33035000  0.14473000  0.75480000  1.0
  H  H116  1  0.65976000  0.60515000  0.31354000  1.0
  H  H117  1  0.65976000  0.89485000  0.18646000  1.0
  H  H118  1  0.34024000  0.39484000  0.68646000  1.0
  H  H119  1  0.34025000  0.10515000  0.81354000  1.0
  H  H120  1  0.80589000  0.69041000  0.35728000  1.0
  H  H121  1  0.80589000  0.80959000  0.14272000  1.0
  H  H122  1  0.19411000  0.30959000  0.64272000  1.0
  H  H123  1  0.19412000  0.19041000  0.85728000  1.0
  H  H124  1  0.83866000  0.70794000  0.29280000  1.0
  H  H125  1  0.83866000  0.79206000  0.20720000  1.0
  H  H126  1  0.16134000  0.29206000  0.70720000  1.0
  H  H127  1  0.16134000  0.20794000  0.79280000  1.0
  H  H128  1  0.98275000  0.31799000  0.00642000  1.0
  H  H129  1  0.98274000  0.18201000  0.49358000  1.0
  H  H130  1  0.01726000  0.68201000  0.99358000  1.0
  H  H131  1  0.01726000  0.81799000  0.50642000  1.0
  H  H132  1  0.19790000  0.47358000  0.96254000  1.0
  H  H133  1  0.19790000  0.02643000  0.53747000  1.0
  H  H134  1  0.80210000  0.52643000  0.03747000  1.0
  H  H135  1  0.80211000  0.97357000  0.46253000  1.0
  H  H136  1  0.08898000  0.39362000  0.09374000  1.0
  H  H137  1  0.08898000  0.10638000  0.40626000  1.0
  H  H138  1  0.91102000  0.60638000  0.90626000  1.0
  H  H139  1  0.91101000  0.89361000  0.59374000  1.0
  H  H140  1  0.97177000  0.44676000  0.07267000  1.0
  H  H141  1  0.97177000  0.05324000  0.42733000  1.0
  H  H142  1  0.02823000  0.55324000  0.92733000  1.0
  H  H143  1  0.02823000  0.94676000  0.57267000  1.0
  H  H144  1  0.11414000  0.53820000  0.05988000  1.0
  H  H145  1  0.11414000  0.96180000  0.44012000  1.0
  H  H146  1  0.88586000  0.46180000  0.94012000  1.0
  H  H147  1  0.88586000  0.03819000  0.55988000  1.0
  H  H148  1  0.22766000  0.46943000  0.05877000  1.0
  H  H149  1  0.22766000  0.03058000  0.44124000  1.0
  H  H150  1  0.77234000  0.53058000  0.94124000  1.0
  H  H151  1  0.77234000  0.96943000  0.55876000  1.0
  H  H152  1  0.88116000  0.36480000  0.67573000  1.0
  H  H153  1  0.88117000  0.13520000  0.82427000  1.0
  H  H154  1  0.11884000  0.63520000  0.32427000  1.0
  H  H155  1  0.11884000  0.86480000  0.17573000  1.0
  H  H156  1  0.66103000  0.18110000  0.66749000  1.0
  H  H157  1  0.66103000  0.31889000  0.83251000  1.0
  H  H158  1  0.33897000  0.81890000  0.33251000  1.0
  H  H159  1  0.33897000  0.68110000  0.16749000  1.0
  H  H160  1  0.97705000  0.24062000  0.70740000  1.0
  H  H161  1  0.97706000  0.25938000  0.79260000  1.0
  H  H162  1  0.02294000  0.75938000  0.29260000  1.0
  H  H163  1  0.02294000  0.74062000  0.20740000  1.0
  H  H164  1  0.99273000  0.23945000  0.63766000  1.0
  H  H165  1  0.99273000  0.26055000  0.86234000  1.0
  H  H166  1  0.00727000  0.76055000  0.36234000  1.0
  H  H167  1  0.00727000  0.73945000  0.13766000  1.0
  H  H168  1  0.83753000  0.15079000  0.61354000  1.0
  H  H169  1  0.83753000  0.34921000  0.88646000  1.0
  H  H170  1  0.16247000  0.84921000  0.38646000  1.0
  H  H171  1  0.16247000  0.65079000  0.11354000  1.0
  H  H172  1  0.86734000  0.12300000  0.67518000  1.0
  H  H173  1  0.86734000  0.37700000  0.82482000  1.0
  H  H174  1  0.13266000  0.87700000  0.32482000  1.0
  H  H175  1  0.13265000  0.62300000  0.17518000  1.0
  H  H176  1  0.38622000  0.73585000  0.69221000  1.0
  H  H177  1  0.38620000  0.76415000  0.80779000  1.0
  H  H178  1  0.61380000  0.26415000  0.30779000  1.0
  H  H179  1  0.61380000  0.23585000  0.19221000  1.0
  H  H180  1  0.31155000  0.64013000  0.61135000  1.0
  H  H181  1  0.31154000  0.85988000  0.88864000  1.0
  H  H182  1  0.68846000  0.35987000  0.38865000  1.0
  H  H183  1  0.68846000  0.14013000  0.11135000  1.0
  H  H184  1  0.27244000  0.60031000  0.66771000  1.0
  H  H185  1  0.27244000  0.89969000  0.83228000  1.0
  H  H186  1  0.72757000  0.39969000  0.33229000  1.0
  H  H187  1  0.72757000  0.10031000  0.16772000  1.0
  H  H188  1  0.61994000  0.57494000  0.62528000  1.0
  H  H189  1  0.61993000  0.92505000  0.87472000  1.0
  H  H190  1  0.38007000  0.42506000  0.37472000  1.0
  H  H191  1  0.38007000  0.07494000  0.12528000  1.0
  H  H192  1  0.43652000  0.51400000  0.65729000  1.0
  H  H193  1  0.43652000  0.98600000  0.84270000  1.0
  H  H194  1  0.56348000  0.48600000  0.34270000  1.0
  H  H195  1  0.56348000  0.01401000  0.15730000  1.0
  H  H196  1  0.41842000  0.52016000  0.58907000  1.0
  H  H197  1  0.41841000  0.97984000  0.91092000  1.0
  H  H198  1  0.58159000  0.47984000  0.41093000  1.0
  H  H199  1  0.58159000  0.02016000  0.08908000  1.0
  C  C200  1  0.17937000  0.72158000  0.53050000  1.0
  C  C201  1  0.17936000  0.77842000  0.96950000  1.0
  C  C202  1  0.82063000  0.27842000  0.46950000  1.0
  C  C203  1  0.82063000  0.22158000  0.03050000  1.0
  C  C204  1  0.22468000  0.76851000  0.57615000  1.0
  C  C205  1  0.22467000  0.73150000  0.92385000  1.0
  C  C206  1  0.77533000  0.23149000  0.42385000  1.0
  C  C207  1  0.77532000  0.26851000  0.07615000  1.0
  C  C208  1  0.28705000  0.83310000  0.56552000  1.0
  C  C209  1  0.28705000  0.66690000  0.93448000  1.0
  C  C210  1  0.71295000  0.16690000  0.43448000  1.0
  C  C211  1  0.71294000  0.33310000  0.06552000  1.0
  C  C212  1  0.28755000  0.83473000  0.51165000  1.0
  C  C213  1  0.28755000  0.66527000  0.98835000  1.0
  C  C214  1  0.71245000  0.16527000  0.48835000  1.0
  C  C215  1  0.71244000  0.33473000  0.01165000  1.0
  C  C216  1  0.11477000  0.64670000  0.52352000  1.0
  C  C217  1  0.11476000  0.85331000  0.97648000  1.0
  C  C218  1  0.88523000  0.35331000  0.47648000  1.0
  C  C219  1  0.88523000  0.14670000  0.02352000  1.0
  C  C220  1  0.34507000  0.88833000  0.48226000  1.0
  C  C221  1  0.34507000  0.61168000  0.01774000  1.0
  C  C222  1  0.65493000  0.11167000  0.51774000  1.0
  C  C223  1  0.65492000  0.38833000  0.98226000  1.0
  C  C224  1  0.08459000  0.48770000  0.73786000  1.0
  C  C225  1  0.08459000  0.01230000  0.76214000  1.0
  C  C226  1  0.91541000  0.51230000  0.26214000  1.0
  C  C227  1  0.91540000  0.98770000  0.23786000  1.0
  C  C228  1  0.03296000  0.44770000  0.77319000  1.0
  C  C229  1  0.03296000  0.05230000  0.72681000  1.0
  C  C230  1  0.96704000  0.55230000  0.22681000  1.0
  C  C231  1  0.96704000  0.94770000  0.27319000  1.0
  C  C232  1  0.10133000  0.44662000  0.81849000  1.0
  C  C233  1  0.10133000  0.05338000  0.68152000  1.0
  C  C234  1  0.89867000  0.55338000  0.18152000  1.0
  C  C235  1  0.89867000  0.94662000  0.31849000  1.0
  C  C236  1  0.20489000  0.48546000  0.81654000  1.0
  C  C237  1  0.20489000  0.01454000  0.68346000  1.0
  C  C238  1  0.79511000  0.51453000  0.18346000  1.0
  C  C239  1  0.79511000  0.98546000  0.31654000  1.0
  C  C240  1  0.04133000  0.49882000  0.68589000  1.0
  C  C241  1  0.04133000  0.00118000  0.81411000  1.0
  C  C242  1  0.95867000  0.50118000  0.31411000  1.0
  C  C243  1  0.95867000  0.99882000  0.18589000  1.0
  C  C244  1  0.30077000  0.48946000  0.85436000  1.0
  C  C245  1  0.30077000  0.01054000  0.64564000  1.0
  C  C246  1  0.69922000  0.51054000  0.14564000  1.0
  C  C247  1  0.69922000  0.98946000  0.35436000  1.0
  C  C248  1  0.22844000  0.34099000  0.50218000  1.0
  C  C249  1  0.22844000  0.15901000  0.99782000  1.0
  C  C250  1  0.77156000  0.65901000  0.49782000  1.0
  C  C251  1  0.77156000  0.84099000  0.00218000  1.0
  C  C252  1  0.26951000  0.32526000  0.45023000  1.0
  C  C253  1  0.26951000  0.17474000  0.04977000  1.0
  C  C254  1  0.73048000  0.67473000  0.54977000  1.0
  C  C255  1  0.73049000  0.82526000  0.95023000  1.0
  C  C256  1  0.33074000  0.25426000  0.43813000  1.0
  C  C257  1  0.33074000  0.24574000  0.06188000  1.0
  C  C258  1  0.66925000  0.74574000  0.56187000  1.0
  C  C259  1  0.66926000  0.75426000  0.93813000  1.0
  C  C260  1  0.33634000  0.21687000  0.48096000  1.0
  C  C261  1  0.33635000  0.28313000  0.01905000  1.0
  C  C262  1  0.66365000  0.78313000  0.51904000  1.0
  C  C263  1  0.66366000  0.71687000  0.98095000  1.0
  C  C264  1  0.15645000  0.40701000  0.52816000  1.0
  C  C265  1  0.15645000  0.09299000  0.97185000  1.0
  C  C266  1  0.84355000  0.59299000  0.47184000  1.0
  C  C267  1  0.84355000  0.90701000  0.02816000  1.0
  C  C268  1  0.39134000  0.14106000  0.48364000  1.0
  C  C269  1  0.39134000  0.35894000  0.01636000  1.0
  C  C270  1  0.60865000  0.85894000  0.51636000  1.0
  C  C271  1  0.60865000  0.64106000  0.98364000  1.0
  C  C272  1  0.90119000  0.82666000  0.70303000  1.0
  C  C273  1  0.90120000  0.67334000  0.79697000  1.0
  C  C274  1  0.09881000  0.17334000  0.29698000  1.0
  C  C275  1  0.09880000  0.32666000  0.20303000  1.0
  C  C276  1  0.02863000  0.80544000  0.69034000  1.0
  C  C277  1  0.02863000  0.69456000  0.80966000  1.0
  C  C278  1  0.97137000  0.19456000  0.30966000  1.0
  C  C279  1  0.97136000  0.30544000  0.19034000  1.0
  C  C280  1  0.91441000  0.69608000  0.66000000  1.0
  C  C281  1  0.91442000  0.80392000  0.84000000  1.0
  C  C282  1  0.08559000  0.30392000  0.34000000  1.0
  C  C283  1  0.08558000  0.19607000  0.16000000  1.0
  C  C284  1  0.55829000  0.37965000  0.50689000  1.0
  C  C285  1  0.55829000  0.12035000  0.99311000  1.0
  C  C286  1  0.44171000  0.62035000  0.49311000  1.0
  C  C287  1  0.44171000  0.87964000  0.00689000  1.0
  C  C288  1  0.53123000  0.35528000  0.56063000  1.0
  C  C289  1  0.53123000  0.14472000  0.93937000  1.0
  C  C290  1  0.46877000  0.64472000  0.43937000  1.0
  C  C291  1  0.46877000  0.85528000  0.06063000  1.0
  C  C292  1  0.67987000  0.44670000  0.57358000  1.0
  C  C293  1  0.67987000  0.05330000  0.92642000  1.0
  C  C294  1  0.32013000  0.55330000  0.42642000  1.0
  C  C295  1  0.32013000  0.94670000  0.07358000  1.0
  C  C296  1  0.33323000  0.03093000  0.23373000  1.0
  C  C297  1  0.33324000  0.46907000  0.26627000  1.0
  C  C298  1  0.66676000  0.96907000  0.76626000  1.0
  C  C299  1  0.66675000  0.53093000  0.73373000  1.0
  C  C300  1  0.38431000  0.10078000  0.27359000  1.0
  C  C301  1  0.38432000  0.39922000  0.22641000  1.0
  C  C302  1  0.61568000  0.89922000  0.72640000  1.0
  C  C303  1  0.61568000  0.60078000  0.77360000  1.0
  C  C304  1  0.34658000  0.00030000  0.31751000  1.0
  C  C305  1  0.34659000  0.49971000  0.18249000  1.0
  C  C306  1  0.65341000  0.99971000  0.68249000  1.0
  C  C307  1  0.65341000  0.50030000  0.81751000  1.0
  C  C308  1  0.66558000  0.65990000  0.29864000  1.0
  C  C309  1  0.66558000  0.84010000  0.20136000  1.0
  C  C310  1  0.33442000  0.34009000  0.70136000  1.0
  C  C311  1  0.33443000  0.15990000  0.79864000  1.0
  C  C312  1  0.77008000  0.71014000  0.32247000  1.0
  C  C313  1  0.77008000  0.78986000  0.17753000  1.0
  C  C314  1  0.22992000  0.28986000  0.67753000  1.0
  C  C315  1  0.22993000  0.21014000  0.82247000  1.0
  C  C316  1  0.60358000  0.78579000  0.33677000  1.0
  C  C317  1  0.60358000  0.71421000  0.16323000  1.0
  C  C318  1  0.39642000  0.21421000  0.66323000  1.0
  C  C319  1  0.39642000  0.28579000  0.83677000  1.0
  C  C320  1  0.05503000  0.41865000  0.06077000  1.0
  C  C321  1  0.05503000  0.08135000  0.43923000  1.0
  C  C322  1  0.94497000  0.58135000  0.93923000  1.0
  C  C323  1  0.94497000  0.91864000  0.56077000  1.0
  C  C324  1  0.14058000  0.47745000  0.04419000  1.0
  C  C325  1  0.14059000  0.02255000  0.45581000  1.0
  C  C326  1  0.85941000  0.52255000  0.95581000  1.0
  C  C327  1  0.85942000  0.97745000  0.54419000  1.0
  C  C328  1  0.08472000  0.38637000  0.96827000  1.0
  C  C329  1  0.08472000  0.11363000  0.53173000  1.0
  C  C330  1  0.91528000  0.61363000  0.03173000  1.0
  C  C331  1  0.91527000  0.88637000  0.46827000  1.0
  C  C332  1  0.93051000  0.24105000  0.66987000  1.0
  C  C333  1  0.93051000  0.25895000  0.83013000  1.0
  C  C334  1  0.06949000  0.75895000  0.33013000  1.0
  C  C335  1  0.06949000  0.74105000  0.16987000  1.0
  C  C336  1  0.84482000  0.17244000  0.65683000  1.0
  C  C337  1  0.84482000  0.32756000  0.84317000  1.0
  C  C338  1  0.15518000  0.82756000  0.34317000  1.0
  C  C339  1  0.15518000  0.67244000  0.15683000  1.0
  C  C340  1  0.74397000  0.28783000  0.68144000  1.0
  C  C341  1  0.74398000  0.21217000  0.81856000  1.0
  C  C342  1  0.25602000  0.71217000  0.31856000  1.0
  C  C343  1  0.25602000  0.78783000  0.18144000  1.0
  C  C344  1  0.34505000  0.61968000  0.64643000  1.0
  C  C345  1  0.34504000  0.88032000  0.85356000  1.0
  C  C346  1  0.65496000  0.38032000  0.35357000  1.0
  C  C347  1  0.65496000  0.11968000  0.14644000  1.0
  C  C348  1  0.52900000  0.67132000  0.66526000  1.0
  C  C349  1  0.52899000  0.82868000  0.83474000  1.0
  C  C350  1  0.47101000  0.32868000  0.33474000  1.0
  C  C351  1  0.47101000  0.17132000  0.16526000  1.0
  C  C352  1  0.43473000  0.55453000  0.62925000  1.0
  C  C353  1  0.43473000  0.94547000  0.87074000  1.0
  C  C354  1  0.56527000  0.44547000  0.37075000  1.0
  C  C355  1  0.56528000  0.05454000  0.12926000  1.0
  S  S356  1  0.21426000  0.75658000  0.47435000  1.0
  S  S357  1  0.21425000  0.74342000  0.02565000  1.0
  S  S358  1  0.78575000  0.24342000  0.52565000  1.0
  S  S359  1  0.78574000  0.25659000  0.97435000  1.0
  S  S360  1  0.26607000  0.26878000  0.53592000  1.0
  S  S361  1  0.26607000  0.23122000  0.96408000  1.0
  S  S362  1  0.73392000  0.73122000  0.46408000  1.0
  S  S363  1  0.73393000  0.76878000  0.03592000  1.0
  S  S364  1  0.21698000  0.52424000  0.76018000  1.0
  S  S365  1  0.21698000  0.97576000  0.73982000  1.0
  S  S366  1  0.78302000  0.47576000  0.23982000  1.0
  S  S367  1  0.78302000  0.02424000  0.26018000  1.0
  N  N368  1  0.02420000  0.71992000  0.67432000  1.0
  N  N369  1  0.02420000  0.78007000  0.82568000  1.0
  N  N370  1  0.97581000  0.28008000  0.32569000  1.0
  N  N371  1  0.97580000  0.21992000  0.17431000  1.0
  N  N372  1  0.84171000  0.75719000  0.67422000  1.0
  N  N373  1  0.84172000  0.74281000  0.82578000  1.0
  N  N374  1  0.15829000  0.24281000  0.32578000  1.0
  N  N375  1  0.15828000  0.25719000  0.17422000  1.0
  N  N376  1  0.61967000  0.39583000  0.59603000  1.0
  N  N377  1  0.61967000  0.10416000  0.90397000  1.0
  N  N378  1  0.38034000  0.60417000  0.40397000  1.0
  N  N379  1  0.38034000  0.89583000  0.09603000  1.0
  N  N380  1  0.63742000  0.44568000  0.52341000  1.0
  N  N381  1  0.63742000  0.05432000  0.97659000  1.0
  N  N382  1  0.36258000  0.55432000  0.47659000  1.0
  N  N383  1  0.36258000  0.94567000  0.02341000  1.0
  N  N384  1  0.35467000  0.08039000  0.32480000  1.0
  N  N385  1  0.35468000  0.41961000  0.17520000  1.0
  N  N386  1  0.64532000  0.91961000  0.67520000  1.0
  N  N387  1  0.64532000  0.58039000  0.82480000  1.0
  N  N388  1  0.33058000  0.97015000  0.26528000  1.0
  N  N389  1  0.33059000  0.52985000  0.23472000  1.0
  N  N390  1  0.66941000  0.02985000  0.73471000  1.0
  N  N391  1  0.66941000  0.47015000  0.76528000  1.0
  N  N392  1  0.56941000  0.71170000  0.31658000  1.0
  N  N393  1  0.56940000  0.78830000  0.18342000  1.0
  N  N394  1  0.43059000  0.28830000  0.68342000  1.0
  N  N395  1  0.43060000  0.21170000  0.81658000  1.0
  N  N396  1  0.72114000  0.78899000  0.33744000  1.0
  N  N397  1  0.72114000  0.71100000  0.16256000  1.0
  N  N398  1  0.27886000  0.21100000  0.66256000  1.0
  N  N399  1  0.27886000  0.28899000  0.83744000  1.0
  N  N400  1  0.04525000  0.35935000  0.01186000  1.0
  N  N401  1  0.04524000  0.14065000  0.48814000  1.0
  N  N402  1  0.95475000  0.64065000  0.98814000  1.0
  N  N403  1  0.95475000  0.85935000  0.51186000  1.0
  N  N404  1  0.13468000  0.45814000  0.98604000  1.0
  N  N405  1  0.13468000  0.04186000  0.51397000  1.0
  N  N406  1  0.86532000  0.54186000  0.01397000  1.0
  N  N407  1  0.86532000  0.95814000  0.48603000  1.0
  N  N408  1  0.85435000  0.30875000  0.67606000  1.0
  N  N409  1  0.85436000  0.19125000  0.82394000  1.0
  N  N410  1  0.14564000  0.69125000  0.32394000  1.0
  N  N411  1  0.14564000  0.80875000  0.17606000  1.0
  N  N412  1  0.73707000  0.20904000  0.67838000  1.0
  N  N413  1  0.73708000  0.29096000  0.82162000  1.0
  N  N414  1  0.26292000  0.79096000  0.32162000  1.0
  N  N415  1  0.26292000  0.70904000  0.17838000  1.0
  N  N416  1  0.41482000  0.68005000  0.68025000  1.0
  N  N417  1  0.41481000  0.81995000  0.81975000  1.0
  N  N418  1  0.58519000  0.31994000  0.31975000  1.0
  N  N419  1  0.58519000  0.18006000  0.18025000  1.0
  N  N420  1  0.54062000  0.59990000  0.63159000  1.0
  N  N421  1  0.54062000  0.90009000  0.86840000  1.0
  N  N422  1  0.45938000  0.40009000  0.36841000  1.0
  N  N423  1  0.45939000  0.09991000  0.13160000  1.0
  O  O424  1  0.08856000  0.62102000  0.56521000  1.0
  O  O425  1  0.08856000  0.87899000  0.93479000  1.0
  O  O426  1  0.91144000  0.37899000  0.43479000  1.0
  O  O427  1  0.91144000  0.12102000  0.06521000  1.0
  O  O428  1  0.09311000  0.61404000  0.47552000  1.0
  O  O429  1  0.09311000  0.88597000  0.02448000  1.0
  O  O430  1  0.90689000  0.38597000  0.52448000  1.0
  O  O431  1  0.90688000  0.11404000  0.97552000  1.0
  O  O432  1  0.35308000  0.86600000  0.43212000  1.0
  O  O433  1  0.35309000  0.63401000  0.06788000  1.0
  O  O434  1  0.64691000  0.13400000  0.56788000  1.0
  O  O435  1  0.64691000  0.36599000  0.93212000  1.0
  O  O436  1  0.38650000  0.95438000  0.50649000  1.0
  O  O437  1  0.38650000  0.54563000  0.99351000  1.0
  O  O438  1  0.61350000  0.04562000  0.49351000  1.0
  O  O439  1  0.61350000  0.45438000  0.00649000  1.0
  O  O440  1  0.95280000  0.45995000  0.66558000  1.0
  O  O441  1  0.95280000  0.04005000  0.83442000  1.0
  O  O442  1  0.04720000  0.54005000  0.33442000  1.0
  O  O443  1  0.04720000  0.95995000  0.16558000  1.0
  O  O444  1  0.09398000  0.54623000  0.66234000  1.0
  O  O445  1  0.09398000  0.95377000  0.83767000  1.0
  O  O446  1  0.90602000  0.45377000  0.33767000  1.0
  O  O447  1  0.90602000  0.04623000  0.16234000  1.0
  O  O448  1  0.39616000  0.52107000  0.84559000  1.0
  O  O449  1  0.39616000  0.97893000  0.65441000  1.0
  O  O450  1  0.60384000  0.47893000  0.15441000  1.0
  O  O451  1  0.60384000  0.02107000  0.34559000  1.0
  O  O452  1  0.28567000  0.45865000  0.89512000  1.0
  O  O453  1  0.28567000  0.04135000  0.60488000  1.0
  O  O454  1  0.71433000  0.54135000  0.10488000  1.0
  O  O455  1  0.71433000  0.95865000  0.39512000  1.0
  O  O456  1  0.12019000  0.45679000  0.50055000  1.0
  O  O457  1  0.12019000  0.04321000  0.99945000  1.0
  O  O458  1  0.87981000  0.54321000  0.49945000  1.0
  O  O459  1  0.87981000  0.95679000  0.00055000  1.0
  O  O460  1  0.12981000  0.41400000  0.57689000  1.0
  O  O461  1  0.12982000  0.08600000  0.92312000  1.0
  O  O462  1  0.87019000  0.58600000  0.42311000  1.0
  O  O463  1  0.87018000  0.91400000  0.07689000  1.0
  O  O464  1  0.40152000  0.12583000  0.52989000  1.0
  O  O465  1  0.40151000  0.37418000  0.97011000  1.0
  O  O466  1  0.59848000  0.87417000  0.47011000  1.0
  O  O467  1  0.59848000  0.62583000  0.02989000  1.0
  O  O468  1  0.42313000  0.09704000  0.43979000  1.0
  O  O469  1  0.42313000  0.40296000  0.06021000  1.0
  O  O470  1  0.57687000  0.90296000  0.56021000  1.0
  O  O471  1  0.57687000  0.59704000  0.93979000  1.0
  O  O472  1  0.88467000  0.62776000  0.63787000  1.0
  O  O473  1  0.88467000  0.87224000  0.86213000  1.0
  O  O474  1  0.11534000  0.37224000  0.36213000  1.0
  O  O475  1  0.11534000  0.12776000  0.13787000  1.0
  O  O476  1  0.75764000  0.49204000  0.59597000  1.0
  O  O477  1  0.75764000  0.00796000  0.90403000  1.0
  O  O478  1  0.24236000  0.50797000  0.40403000  1.0
  O  O479  1  0.24237000  0.99203000  0.09597000  1.0
  O  O480  1  0.53564000  0.84273000  0.35095000  1.0
  O  O481  1  0.53563000  0.65727000  0.14905000  1.0
  O  O482  1  0.46437000  0.15727000  0.64905000  1.0
  O  O483  1  0.46436000  0.34273000  0.85095000  1.0
  O  O484  1  0.35151000  0.96163000  0.35412000  1.0
  O  O485  1  0.35151000  0.53837000  0.14588000  1.0
  O  O486  1  0.64849000  0.03837000  0.64588000  1.0
  O  O487  1  0.64849000  0.46163000  0.85412000  1.0
  O  O488  1  0.07664000  0.35123000  0.92090000  1.0
  O  O489  1  0.07663000  0.14878000  0.57910000  1.0
  O  O490  1  0.92337000  0.64878000  0.07910000  1.0
  O  O491  1  0.92337000  0.85122000  0.42089000  1.0
  O  O492  1  0.65941000  0.33493000  0.68853000  1.0
  O  O493  1  0.65942000  0.16507000  0.81147000  1.0
  O  O494  1  0.34059000  0.66507000  0.31147000  1.0
  O  O495  1  0.34059000  0.83493000  0.18853000  1.0
  O  O496  1  0.60589000  0.72025000  0.68014000  1.0
  O  O497  1  0.60587000  0.77975000  0.81986000  1.0
  O  O498  1  0.39413000  0.27975000  0.31986000  1.0
  O  O499  1  0.39413000  0.22025000  0.18014000  1.0
