# generated using pymatgen
data_Zr2H10C19O16
_symmetry_space_group_name_H-M   'P 1'
_cell_length_a   14.71545560
_cell_length_b   14.74220000
_cell_length_c   14.75335416
_cell_angle_alpha   119.85136692
_cell_angle_beta   119.79316692
_cell_angle_gamma   60.09414440
_symmetry_Int_Tables_number   1
_chemical_formula_structural   Zr2H10C19O16
_chemical_formula_sum   'Zr6 H30 C57 O48'
_cell_volume   2270.82021095
_cell_formula_units_Z   3
loop_
 _symmetry_equiv_pos_site_id
 _symmetry_equiv_pos_as_xyz
  1  'x, y, z'
loop_
 _atom_site_type_symbol
 _atom_site_label
 _atom_site_symmetry_multiplicity
 _atom_site_fract_x
 _atom_site_fract_y
 _atom_site_fract_z
 _atom_site_occupancy
  Zr  Zr0  1  0.62386000  0.62063000  0.11496000  1.0
  Zr  Zr1  1  0.38209000  0.38338000  0.87843000  1.0
  Zr  Zr2  1  0.62378000  0.38165000  0.11539000  1.0
  Zr  Zr3  1  0.38467000  0.61999000  0.87585000  1.0
  Zr  Zr4  1  0.38463000  0.62226000  0.11698000  1.0
  Zr  Zr5  1  0.62323000  0.38086000  0.87510000  1.0
  H  H6  1  0.59542000  0.59613000  0.28000000  1.0
  H  H7  1  0.21970000  0.59696000  0.90509000  1.0
  H  H8  1  0.59700000  0.21882000  0.90070000  1.0
  H  H9  1  0.59981000  0.59250000  0.89955000  1.0
  H  H10  1  0.62949000  0.94170000  0.39430000  1.0
  H  H11  1  0.34945000  0.92215000  0.39787000  1.0
  H  H12  1  0.62640000  0.10903000  0.56625000  1.0
  H  H13  1  0.92815000  0.63835000  0.15544000  1.0
  H  H14  1  0.93286000  0.34442000  0.86707000  1.0
  H  H15  1  0.09902000  0.63883000  0.15655000  1.0
  H  H16  1  0.10659000  0.93656000  0.16003000  1.0
  H  H17  1  0.10621000  0.92898000  0.86483000  1.0
  H  H18  1  0.93498000  0.10432000  0.15591000  1.0
  H  H19  1  0.62674000  0.33277000  0.55725000  1.0
  H  H20  1  0.36340000  0.64775000  0.58577000  1.0
  H  H21  1  0.62547000  0.33437000  0.38785000  1.0
  H  H22  1  0.35456000  0.92151000  0.85389000  1.0
  H  H23  1  0.64452000  0.91801000  0.14531000  1.0
  H  H24  1  0.35390000  0.09470000  0.85990000  1.0
  H  H25  1  0.40972000  0.01031000  0.66558000  1.0
  H  H26  1  0.04068000  0.40309000  0.74995000  1.0
  H  H27  1  0.85238000  0.98264000  0.75337000  1.0
  H  H28  1  0.46790000  0.72981000  0.47116000  1.0
  H  H29  1  0.75535000  0.04702000  0.09017000  1.0
  H  H30  1  0.18907000  0.26264000  0.49180000  1.0
  H  H31  1  0.92039000  0.31952000  0.28026000  1.0
  H  H32  1  0.12015000  0.71019000  0.81425000  1.0
  H  H33  1  0.78808000  0.89850000  0.80492000  1.0
  H  H34  1  0.63325000  0.85557000  0.56093000  1.0
  H  H35  1  0.70290000  0.68660000  0.37439000  1.0
  C  C36  1  0.49689000  0.81496000  0.29169000  1.0
  C  C37  1  0.20604000  0.50043000  0.00860000  1.0
  C  C38  1  0.49277000  0.20484000  0.68490000  1.0
  C  C39  1  0.81492000  0.49494000  0.00473000  1.0
  C  C40  1  0.80664000  0.50476000  0.30748000  1.0
  C  C41  1  0.50247000  0.80617000  0.99632000  1.0
  C  C42  1  0.19590000  0.50552000  0.69797000  1.0
  C  C43  1  0.50062000  0.20103000  0.00079000  1.0
  C  C44  1  0.50251000  0.49628000  0.29728000  1.0
  C  C45  1  0.81397000  0.20140000  0.99999000  1.0
  C  C46  1  0.49879000  0.49405000  0.68588000  1.0
  C  C47  1  0.20986000  0.81602000  0.00632000  1.0
  C  C48  1  0.48671000  0.10945000  0.57833000  1.0
  C  C49  1  0.49066000  0.92115000  0.38747000  1.0
  C  C50  1  0.40639000  0.05828000  0.52992000  1.0
  C  C51  1  0.56758000  0.97481000  0.43284000  1.0
  C  C52  1  0.40916000  0.96432000  0.43486000  1.0
  C  C53  1  0.56543000  0.06798000  0.52776000  1.0
  C  C54  1  0.10808000  0.49528000  0.00963000  1.0
  C  C55  1  0.91874000  0.49370000  0.00868000  1.0
  C  C56  1  0.06271000  0.41045000  0.92800000  1.0
  C  C57  1  0.96608000  0.57579000  0.09193000  1.0
  C  C58  1  0.96790000  0.41036000  0.92811000  1.0
  C  C59  1  0.06039000  0.57631000  0.09228000  1.0
  C  C60  1  0.92164000  0.10779000  0.00547000  1.0
  C  C61  1  0.11522000  0.92273000  0.01182000  1.0
  C  C62  1  0.97046000  0.05948000  0.92330000  1.0
  C  C63  1  0.06859000  0.97257000  0.09524000  1.0
  C  C64  1  0.06800000  0.96815000  0.92830000  1.0
  C  C65  1  0.97298000  0.06514000  0.09228000  1.0
  C  C66  1  0.49852000  0.49505000  0.39571000  1.0
  C  C67  1  0.49643000  0.49133000  0.58225000  1.0
  C  C68  1  0.42291000  0.58383000  0.45057000  1.0
  C  C69  1  0.57011000  0.40237000  0.52661000  1.0
  C  C70  1  0.42166000  0.58045000  0.54279000  1.0
  C  C71  1  0.57028000  0.40399000  0.43327000  1.0
  C  C72  1  0.89537000  0.50687000  0.41608000  1.0
  C  C73  1  0.88971000  0.60092000  0.51526000  1.0
  C  C74  1  0.99017000  0.41187000  0.41739000  1.0
  C  C75  1  0.78867000  0.68874000  0.52479000  1.0
  C  C76  1  0.78283000  0.77186000  0.62490000  1.0
  C  C77  1  0.08741000  0.50991000  0.60487000  1.0
  C  C78  1  0.08973000  0.41701000  0.51018000  1.0
  C  C79  1  0.98679000  0.60140000  0.61313000  1.0
  C  C80  1  0.97780000  0.68824000  0.71534000  1.0
  C  C81  1  0.87712000  0.77241000  0.72067000  1.0
  C  C82  1  0.50235000  0.09980000  0.00228000  1.0
  C  C83  1  0.50146000  0.90870000  0.99792000  1.0
  C  C84  1  0.58452000  0.05163000  0.08501000  1.0
  C  C85  1  0.41897000  0.95786000  0.91716000  1.0
  C  C86  1  0.58292000  0.95613000  0.08182000  1.0
  C  C87  1  0.41943000  0.05313000  0.91974000  1.0
  C  C88  1  0.31252000  0.09846000  0.57056000  1.0
  C  C89  1  0.11423000  0.31301000  0.84278000  1.0
  C  C90  1  0.91962000  0.09477000  0.82352000  1.0
  C  C91  1  0.34203000  0.68596000  0.41839000  1.0
  C  C92  1  0.67155000  0.09929000  0.18382000  1.0
  O  O93  1  0.57580000  0.77443000  0.25386000  1.0
  O  O94  1  0.24603000  0.42409000  0.93162000  1.0
  O  O95  1  0.41882000  0.24091000  0.72751000  1.0
  O  O96  1  0.77422000  0.57175000  0.08155000  1.0
  O  O97  1  0.77840000  0.41712000  0.25100000  1.0
  O  O98  1  0.42583000  0.76643000  0.91918000  1.0
  O  O99  1  0.23945000  0.57767000  0.73012000  1.0
  O  O100  1  0.57806000  0.24060000  0.07711000  1.0
  O  O101  1  0.42677000  0.57468000  0.25902000  1.0
  O  O102  1  0.76959000  0.23723000  0.91940000  1.0
  O  O103  1  0.57764000  0.41883000  0.72717000  1.0
  O  O104  1  0.24768000  0.77502000  0.08115000  1.0
  O  O105  1  0.77249000  0.23744000  0.07483000  1.0
  O  O106  1  0.42380000  0.57299000  0.72754000  1.0
  O  O107  1  0.24328000  0.77072000  0.92289000  1.0
  O  O108  1  0.58131000  0.42116000  0.25948000  1.0
  O  O109  1  0.76638000  0.58605000  0.27253000  1.0
  O  O110  1  0.42493000  0.23901000  0.92296000  1.0
  O  O111  1  0.23762000  0.42850000  0.73774000  1.0
  O  O112  1  0.58092000  0.76507000  0.07170000  1.0
  O  O113  1  0.77230000  0.42156000  0.92457000  1.0
  O  O114  1  0.42530000  0.77067000  0.25749000  1.0
  O  O115  1  0.24223000  0.58050000  0.08196000  1.0
  O  O116  1  0.57318000  0.24019000  0.72647000  1.0
  O  O117  1  0.57253000  0.56691000  0.92734000  1.0
  O  O118  1  0.57035000  0.29919000  0.92840000  1.0
  O  O119  1  0.30078000  0.57165000  0.93223000  1.0
  O  O120  1  0.57206000  0.56937000  0.19948000  1.0
  O  O121  1  0.45476000  0.45240000  0.04744000  1.0
  O  O122  1  0.45518000  0.65057000  0.04551000  1.0
  O  O123  1  0.45354000  0.45154000  0.84764000  1.0
  O  O124  1  0.65264000  0.45146000  0.04512000  1.0
  O  O125  1  0.33175000  0.05624000  0.64378000  1.0
  O  O126  1  0.21884000  0.15648000  0.53143000  1.0
  O  O127  1  0.08158000  0.32518000  0.74444000  1.0
  O  O128  1  0.17411000  0.22386000  0.85626000  1.0
  O  O129  1  0.85387000  0.03586000  0.73305000  1.0
  O  O130  1  0.93986000  0.16130000  0.81727000  1.0
  O  O131  1  0.38714000  0.76385000  0.45084000  1.0
  O  O132  1  0.24225000  0.70672000  0.37826000  1.0
  O  O133  1  0.76621000  0.07624000  0.16917000  1.0
  O  O134  1  0.66437000  0.14630000  0.27614000  1.0
  O  O135  1  0.18792000  0.33554000  0.50278000  1.0
  O  O136  1  0.99706000  0.31542000  0.33170000  1.0
  O  O137  1  0.06611000  0.68895000  0.81360000  1.0
  O  O138  1  0.86774000  0.85975000  0.81749000  1.0
  O  O139  1  0.68568000  0.85770000  0.63605000  1.0
  O  O140  1  0.68858000  0.69694000  0.43857000  1.0
