# generated using pymatgen
data_ZnH24C31(NO4)2
_symmetry_space_group_name_H-M   'P 1'
_cell_length_a   9.48808000
_cell_length_b   10.99370000
_cell_length_c   28.02090000
_cell_angle_alpha   88.08830000
_cell_angle_beta   87.75000000
_cell_angle_gamma   89.09390000
_symmetry_Int_Tables_number   1
_chemical_formula_structural   ZnH24C31(NO4)2
_chemical_formula_sum   'Zn2 H48 C62 N4 O16'
_cell_volume   2918.64821835
_cell_formula_units_Z   2
loop_
 _symmetry_equiv_pos_site_id
 _symmetry_equiv_pos_as_xyz
  1  'x, y, z'
loop_
 _atom_site_type_symbol
 _atom_site_label
 _atom_site_symmetry_multiplicity
 _atom_site_fract_x
 _atom_site_fract_y
 _atom_site_fract_z
 _atom_site_occupancy
  Zn  Zn0  1  0.64187000  0.50379000  0.49700000  1.0
  Zn  Zn1  1  0.36004000  0.50728000  0.50234000  1.0
  H  H2  1  0.71815000  0.55827000  0.34313000  1.0
  H  H3  1  0.27520000  0.42373000  0.65534000  1.0
  H  H4  1  0.71871000  0.49714000  0.64805000  1.0
  H  H5  1  0.27230000  0.50228000  0.35283000  1.0
  H  H6  1  0.71963000  0.49482000  0.73791000  1.0
  H  H7  1  0.26922000  0.48943000  0.26326000  1.0
  H  H8  1  0.43030000  0.76652000  0.86750000  1.0
  H  H9  1  0.52470000  0.20053000  0.13301000  1.0
  H  H10  1  0.42832000  0.78377000  0.95567000  1.0
  H  H11  1  0.52697000  0.18167000  0.04494000  1.0
  H  H12  1  0.45512000  0.79520000  0.02292000  1.0
  H  H13  1  0.54268000  0.17534000  0.97657000  1.0
  H  H14  1  0.27835000  0.89398000  0.50537000  1.0
  H  H15  1  0.73120000  0.11693000  0.49246000  1.0
  H  H16  1  0.27884000  0.12319000  0.49849000  1.0
  H  H17  1  0.73079000  0.88781000  0.49920000  1.0
  H  H18  1  0.12936000  0.37988000  0.55751000  1.0
  H  H19  1  0.87225000  0.63355000  0.44299000  1.0
  H  H20  1  0.14355000  0.63683000  0.44586000  1.0
  H  H21  1  0.85815000  0.37490000  0.55405000  1.0
  H  H22  1  0.94810000  0.57297000  0.24259000  1.0
  H  H23  1  0.86246000  0.62257000  0.29610000  1.0
  H  H24  1  0.83138000  0.74107000  0.19637000  1.0
  H  H25  1  0.74088000  0.79016000  0.24857000  1.0
  H  H26  1  0.97318000  0.83886000  0.28476000  1.0
  H  H27  1  0.95704000  0.91752000  0.22905000  1.0
  H  H28  1  0.06647000  0.78561000  0.23326000  1.0
  H  H29  1  0.24331000  0.22808000  0.75574000  1.0
  H  H30  1  0.14740000  0.29969000  0.70854000  1.0
  H  H31  1  0.07530000  0.33243000  0.81489000  1.0
  H  H32  1  0.97615000  0.38874000  0.76665000  1.0
  H  H33  1  0.93103000  0.16957000  0.74366000  1.0
  H  H34  1  0.86424000  0.20011000  0.80187000  1.0
  H  H35  1  0.02541000  0.11681000  0.79393000  1.0
  H  H36  1  0.49044000  0.01066000  0.11221000  1.0
  H  H37  1  0.53573000  0.94115000  0.05701000  1.0
  H  H38  1  0.68751000  0.89997000  0.15110000  1.0
  H  H39  1  0.72847000  0.82088000  0.09834000  1.0
  H  H40  1  0.78931000  0.02015000  0.05444000  1.0
  H  H41  1  0.89516000  0.99298000  0.10458000  1.0
  H  H42  1  0.75318000  0.09917000  0.10799000  1.0
  H  H43  1  0.55932000  0.95857000  0.88671000  1.0
  H  H44  1  0.50857000  0.02156000  0.94251000  1.0
  H  H45  1  0.80156000  0.03680000  0.89174000  1.0
  H  H46  1  0.75835000  0.10231000  0.94717000  1.0
  H  H47  1  0.70535000  0.89231000  0.98380000  1.0
  H  H48  1  0.88085000  0.90020000  0.96002000  1.0
  H  H49  1  0.75023000  0.82696000  0.92808000  1.0
  C  C50  1  0.50458000  0.74237000  0.50552000  1.0
  C  C51  1  0.50483000  0.26859000  0.49289000  1.0
  C  C52  1  0.50048000  0.53327000  0.40565000  1.0
  C  C53  1  0.49409000  0.47072000  0.59350000  1.0
  C  C54  1  0.48247000  0.62372000  0.17636000  1.0
  C  C55  1  0.50746000  0.34717000  0.82285000  1.0
  C  C56  1  0.50217000  0.39588000  0.18317000  1.0
  C  C57  1  0.47325000  0.57397000  0.81683000  1.0
  C  C58  1  0.36686000  0.50566000  0.28114000  1.0
  C  C59  1  0.62349000  0.47768000  0.71931000  1.0
  C  C60  1  0.36813000  0.51318000  0.33058000  1.0
  C  C61  1  0.62323000  0.47878000  0.66969000  1.0
  C  C62  1  0.62103000  0.54595000  0.32459000  1.0
  C  C63  1  0.37255000  0.43613000  0.67382000  1.0
  C  C64  1  0.61998000  0.53977000  0.27490000  1.0
  C  C65  1  0.37287000  0.43312000  0.72365000  1.0
  C  C66  1  0.49112000  0.51868000  0.25359000  1.0
  C  C67  1  0.49920000  0.45578000  0.74602000  1.0
  C  C68  1  0.48870000  0.50094000  0.10179000  1.0
  C  C69  1  0.48906000  0.46744000  0.89780000  1.0
  C  C70  1  0.47750000  0.61607000  0.12376000  1.0
  C  C71  1  0.50850000  0.35353000  0.87550000  1.0
  C  C72  1  0.46694000  0.72103000  0.09407000  1.0
  C  C73  1  0.52854000  0.24826000  0.90487000  1.0
  C  C74  1  0.50173000  0.39302000  0.13047000  1.0
  C  C75  1  0.46968000  0.57544000  0.86949000  1.0
  C  C76  1  0.49590000  0.53256000  0.35227000  1.0
  C  C77  1  0.49704000  0.45973000  0.64688000  1.0
  C  C78  1  0.46992000  0.59212000  0.96991000  1.0
  C  C79  1  0.50414000  0.37535000  0.02976000  1.0
  C  C80  1  0.50699000  0.36813000  0.97751000  1.0
  C  C81  1  0.47557000  0.60015000  0.02187000  1.0
  C  C82  1  0.48858000  0.47650000  0.94874000  1.0
  C  C83  1  0.48946000  0.49151000  0.05087000  1.0
  C  C84  1  0.44697000  0.69502000  0.94032000  1.0
  C  C85  1  0.51625000  0.27173000  0.05985000  1.0
  C  C86  1  0.44720000  0.68667000  0.89085000  1.0
  C  C87  1  0.51499000  0.28071000  0.10934000  1.0
  C  C88  1  0.46666000  0.71120000  0.04412000  1.0
  C  C89  1  0.52702000  0.25795000  0.95500000  1.0
  C  C90  1  0.37667000  0.94402000  0.50246000  1.0
  C  C91  1  0.63286000  0.06692000  0.49527000  1.0
  C  C92  1  0.37693000  0.07039000  0.49870000  1.0
  C  C93  1  0.63261000  0.94054000  0.49898000  1.0
  C  C94  1  0.50497000  0.13254000  0.49520000  1.0
  C  C95  1  0.50451000  0.87840000  0.50264000  1.0
  C  C96  1  0.06997000  0.43530000  0.53209000  1.0
  C  C97  1  0.93168000  0.57731000  0.46815000  1.0
  C  C98  1  0.07781000  0.57972000  0.46990000  1.0
  C  C99  1  0.92386000  0.43249000  0.53019000  1.0
  C  C100  1  0.85353000  0.62018000  0.25711000  1.0
  C  C101  1  0.84031000  0.74831000  0.23522000  1.0
  C  C102  1  0.96608000  0.82654000  0.24615000  1.0
  C  C103  1  0.17536000  0.30692000  0.74619000  1.0
  C  C104  1  0.04351000  0.31204000  0.77866000  1.0
  C  C105  1  0.96177000  0.19316000  0.77960000  1.0
  C  C106  1  0.53852000  0.92922000  0.09634000  1.0
  C  C107  1  0.68933000  0.90867000  0.11188000  1.0
  C  C108  1  0.78669000  0.01096000  0.09371000  1.0
  C  C109  1  0.58138000  0.03183000  0.91094000  1.0
  C  C110  1  0.73519000  0.02550000  0.92463000  1.0
  C  C111  1  0.76972000  0.90469000  0.95049000  1.0
  N  N112  1  0.48828000  0.51137000  0.20249000  1.0
  N  N113  1  0.49834000  0.45998000  0.79721000  1.0
  N  N114  1  0.85715000  0.50347000  0.49821000  1.0
  N  N115  1  0.14458000  0.50867000  0.50186000  1.0
  O  O116  1  0.62419000  0.68795000  0.50350000  1.0
  O  O117  1  0.38532000  0.32323000  0.49389000  1.0
  O  O118  1  0.62439000  0.32035000  0.49081000  1.0
  O  O119  1  0.38531000  0.69028000  0.50921000  1.0
  O  O120  1  0.62136000  0.53088000  0.42405000  1.0
  O  O121  1  0.37356000  0.47407000  0.57482000  1.0
  O  O122  1  0.61242000  0.47796000  0.57050000  1.0
  O  O123  1  0.38241000  0.53403000  0.42899000  1.0
  O  O124  1  0.48189000  0.71890000  0.19813000  1.0
  O  O125  1  0.51532000  0.25271000  0.80051000  1.0
  O  O126  1  0.45678000  0.66615000  0.79136000  1.0
  O  O127  1  0.51384000  0.30346000  0.20886000  1.0
  O  O128  1  0.73665000  0.54647000  0.24478000  1.0
  O  O129  1  0.25362000  0.41683000  0.75235000  1.0
  O  O130  1  0.44796000  0.83194000  0.11358000  1.0
  O  O131  1  0.54752000  0.14071000  0.88355000  1.0
