# generated using pymatgen
data_AlH15(C4O3)6
_symmetry_space_group_name_H-M   'P 1'
_cell_length_a   3.98059000
_cell_length_b   28.62420000
_cell_length_c   28.62435000
_cell_angle_alpha   60.00052004
_cell_angle_beta   89.99940000
_cell_angle_gamma   89.99960000
_symmetry_Int_Tables_number   1
_chemical_formula_structural   AlH15(C4O3)6
_chemical_formula_sum   'Al2 H30 C48 O36'
_cell_volume   2824.55051614
_cell_formula_units_Z   2
loop_
 _symmetry_equiv_pos_site_id
 _symmetry_equiv_pos_as_xyz
  1  'x, y, z'
loop_
 _atom_site_type_symbol
 _atom_site_label
 _atom_site_symmetry_multiplicity
 _atom_site_fract_x
 _atom_site_fract_y
 _atom_site_fract_z
 _atom_site_occupancy
  Al  Al0  1  0.99826000  1.00000000  0.50000000  1.0
  Al  Al1  1  0.99829000  0.66666000  0.16667000  1.0
  H  H2  1  0.51512000  0.33779000  0.27752000  1.0
  H  H3  1  0.51491000  0.32887000  0.38915000  1.0
  H  H4  1  0.51507000  0.77752000  0.38468000  1.0
  H  H5  1  0.51495000  0.88915000  0.28198000  1.0
  H  H6  1  0.51510000  0.88468000  0.83780000  1.0
  H  H7  1  0.51493000  0.78197000  0.82887000  1.0
  H  H8  1  0.86433000  0.56198000  0.15264000  1.0
  H  H9  1  0.94821000  0.44389000  0.17899000  1.0
  H  H10  1  0.13374000  0.55389000  0.28034000  1.0
  H  H11  1  0.04219000  0.43366000  0.36111000  1.0
  H  H12  1  0.04207000  0.23301000  0.30556000  1.0
  H  H13  1  0.13371000  0.11276000  0.38634000  1.0
  H  H14  1  0.94813000  0.22278000  0.48768000  1.0
  H  H15  1  0.86431000  0.10467000  0.51403000  1.0
  H  H16  1  0.86432000  0.65264000  0.28537000  1.0
  H  H17  1  0.94818000  0.67899000  0.37712000  1.0
  H  H18  1  0.13374000  0.78033000  0.16577000  1.0
  H  H19  1  0.04215000  0.86111000  0.20524000  1.0
  H  H20  1  0.04211000  0.80556000  0.46143000  1.0
  H  H21  1  0.13373000  0.88633000  0.50090000  1.0
  H  H22  1  0.94816000  0.98768000  0.28954000  1.0
  H  H23  1  0.86433000  0.01404000  0.38129000  1.0
  H  H24  1  0.86433000  0.78537000  0.06199000  1.0
  H  H25  1  0.94820000  0.87712000  0.94389000  1.0
  H  H26  1  0.13373000  0.66577000  0.05390000  1.0
  H  H27  1  0.04216000  0.70523000  0.93366000  1.0
  H  H28  1  0.04208000  0.96142000  0.73302000  1.0
  H  H29  1  0.13371000  0.00090000  0.61277000  1.0
  H  H30  1  0.94816000  0.78955000  0.72277000  1.0
  H  H31  1  0.86432000  0.88130000  0.60467000  1.0
  C  C32  1  0.49846000  0.95440000  0.58422000  1.0
  C  C33  1  0.49847000  0.08422000  0.46138000  1.0
  C  C34  1  0.49847000  0.96138000  0.45440000  1.0
  C  C35  1  0.49848000  0.58244000  0.20529000  1.0
  C  C36  1  0.49849000  0.70529000  0.21226000  1.0
  C  C37  1  0.49849000  0.71226000  0.08245000  1.0
  C  C38  1  0.50066000  0.52456000  0.23176000  1.0
  C  C39  1  0.32379000  0.49285000  0.28089000  1.0
  C  C40  1  0.33425000  0.43667000  0.30718000  1.0
  C  C41  1  0.49982000  0.40968000  0.28368000  1.0
  C  C42  1  0.66755000  0.44142000  0.23395000  1.0
  C  C43  1  0.67926000  0.49739000  0.20929000  1.0
  C  C44  1  0.49682000  0.35164000  0.30662000  1.0
  C  C45  1  0.49675000  0.31501000  0.36006000  1.0
  C  C46  1  0.66747000  0.22524000  0.43272000  1.0
  C  C47  1  0.49974000  0.25697000  0.38300000  1.0
  C  C48  1  0.33419000  0.22999000  0.35949000  1.0
  C  C49  1  0.32372000  0.17381000  0.38579000  1.0
  C  C50  1  0.50061000  0.14210000  0.43491000  1.0
  C  C51  1  0.67921000  0.16926000  0.45738000  1.0
  C  C52  1  0.50064000  0.73175000  0.24368000  1.0
  C  C53  1  0.32377000  0.78089000  0.22626000  1.0
  C  C54  1  0.33424000  0.80718000  0.25615000  1.0
  C  C55  1  0.49980000  0.78367000  0.30664000  1.0
  C  C56  1  0.66751000  0.73395000  0.32462000  1.0
  C  C57  1  0.67925000  0.70929000  0.29331000  1.0
  C  C58  1  0.49681000  0.80662000  0.34173000  1.0
  C  C59  1  0.49677000  0.86005000  0.32493000  1.0
  C  C60  1  0.66748000  0.93272000  0.34204000  1.0
  C  C61  1  0.49976000  0.88300000  0.36002000  1.0
  C  C62  1  0.33423000  0.85949000  0.41051000  1.0
  C  C63  1  0.32375000  0.88579000  0.44040000  1.0
  C  C64  1  0.50063000  0.93491000  0.42299000  1.0
  C  C65  1  0.67924000  0.95738000  0.37335000  1.0
  C  C66  1  0.50063000  0.74367000  0.02457000  1.0
  C  C67  1  0.32377000  0.72626000  0.99286000  1.0
  C  C68  1  0.33423000  0.75615000  0.93667000  1.0
  C  C69  1  0.49980000  0.80664000  0.90969000  1.0
  C  C70  1  0.66752000  0.82462000  0.94143000  1.0
  C  C71  1  0.67923000  0.79331000  0.99740000  1.0
  C  C72  1  0.49681000  0.84173000  0.85165000  1.0
  C  C73  1  0.49676000  0.82492000  0.81502000  1.0
  C  C74  1  0.66747000  0.84204000  0.72524000  1.0
  C  C75  1  0.49976000  0.86003000  0.75698000  1.0
  C  C76  1  0.33421000  0.91052000  0.73000000  1.0
  C  C77  1  0.32373000  0.94041000  0.67381000  1.0
  C  C78  1  0.50061000  0.92299000  0.64210000  1.0
  C  C79  1  0.67923000  0.87336000  0.66927000  1.0
  O  O80  1  0.72897000  0.99719000  0.44577000  1.0
  O  O81  1  0.72896000  0.94577000  0.55704000  1.0
  O  O82  1  0.72895000  0.05704000  0.49719000  1.0
  O  O83  1  0.26596000  0.94926000  0.49076000  1.0
  O  O84  1  0.26595000  0.05998000  0.44926000  1.0
  O  O85  1  0.26594000  0.99075000  0.55999000  1.0
  O  O86  1  0.72899000  0.72090000  0.10962000  1.0
  O  O87  1  0.72899000  0.60962000  0.16948000  1.0
  O  O88  1  0.72899000  0.66948000  0.22089000  1.0
  O  O89  1  0.26597000  0.67591000  0.10668000  1.0
  O  O90  1  0.26596000  0.71741000  0.17591000  1.0
  O  O91  1  0.26594000  0.60668000  0.21741000  1.0
  O  O92  1  0.85513000  0.52366000  0.16209000  1.0
  O  O93  1  0.83080000  0.41604000  0.21078000  1.0
  O  O94  1  0.14741000  0.51470000  0.30628000  1.0
  O  O95  1  0.16876000  0.40775000  0.35519000  1.0
  O  O96  1  0.16868000  0.25890000  0.31149000  1.0
  O  O97  1  0.14737000  0.15196000  0.36039000  1.0
  O  O98  1  0.83071000  0.25062000  0.45589000  1.0
  O  O99  1  0.85508000  0.14300000  0.50458000  1.0
  O  O100  1  0.85509000  0.66208000  0.31425000  1.0
  O  O101  1  0.83075000  0.71078000  0.37318000  1.0
  O  O102  1  0.14742000  0.80628000  0.17902000  1.0
  O  O103  1  0.16874000  0.85518000  0.23706000  1.0
  O  O104  1  0.16872000  0.81148000  0.42961000  1.0
  O  O105  1  0.14739000  0.86039000  0.48765000  1.0
  O  O106  1  0.83073000  0.95589000  0.29348000  1.0
  O  O107  1  0.85510000  0.00458000  0.35242000  1.0
  O  O108  1  0.85510000  0.81425000  0.02366000  1.0
  O  O109  1  0.83078000  0.87318000  0.91604000  1.0
  O  O110  1  0.14740000  0.67902000  0.01470000  1.0
  O  O111  1  0.16875000  0.73706000  0.90776000  1.0
  O  O112  1  0.16870000  0.92961000  0.75891000  1.0
  O  O113  1  0.14737000  0.98764000  0.65197000  1.0
  O  O114  1  0.83074000  0.79348000  0.75063000  1.0
  O  O115  1  0.85509000  0.85242000  0.64300000  1.0
