# generated using pymatgen
data_CuH6C12SN4(ClO)2
_symmetry_space_group_name_H-M   'P 1'
_cell_length_a   7.81678000
_cell_length_b   8.05517000
_cell_length_c   14.72430932
_cell_angle_alpha   92.82014442
_cell_angle_beta   104.71961113
_cell_angle_gamma   115.44280000
_symmetry_Int_Tables_number   1
_chemical_formula_structural   CuH6C12SN4(ClO)2
_chemical_formula_sum   'Cu2 H12 C24 S2 N8 Cl4 O4'
_cell_volume   796.30777371
_cell_formula_units_Z   2
loop_
 _symmetry_equiv_pos_site_id
 _symmetry_equiv_pos_as_xyz
  1  'x, y, z'
loop_
 _atom_site_type_symbol
 _atom_site_label
 _atom_site_symmetry_multiplicity
 _atom_site_fract_x
 _atom_site_fract_y
 _atom_site_fract_z
 _atom_site_occupancy
  Cu  Cu0  1  0.49998000  0.99999000  0.50001000  1.0
  Cu  Cu1  1  0.00002000  0.50002000  0.99999000  1.0
  H  H2  1  0.75689000  0.03268000  0.13005000  1.0
  H  H3  1  0.24311000  0.96732000  0.86995000  1.0
  H  H4  1  0.91550000  0.19385000  0.26105000  1.0
  H  H5  1  0.08451000  0.80616000  0.73894000  1.0
  H  H6  1  0.60370000  0.86073000  0.96375000  1.0
  H  H7  1  0.39637000  0.13934000  0.03624000  1.0
  H  H8  1  0.73595000  0.65535000  0.90544000  1.0
  H  H9  1  0.26412000  0.34470000  0.09455000  1.0
  H  H10  1  0.08880000  0.34803000  0.43133000  1.0
  H  H11  1  0.91118000  0.65196000  0.56867000  1.0
  H  H12  1  0.33667000  0.25910000  0.53083000  1.0
  H  H13  1  0.66328000  0.74087000  0.46919000  1.0
  C  C14  1  0.03652000  0.80735000  0.12611000  1.0
  C  C15  1  0.96351000  0.19267000  0.87390000  1.0
  C  C16  1  0.97486000  0.92786000  0.16524000  1.0
  C  C17  1  0.02515000  0.07216000  0.83477000  1.0
  C  C18  1  0.19397000  0.77669000  0.18603000  1.0
  C  C19  1  0.80605000  0.22334000  0.81398000  1.0
  C  C20  1  0.21683000  0.98783000  0.32700000  1.0
  C  C21  1  0.78315000  0.01215000  0.67300000  1.0
  C  C22  1  0.81475000  0.94480000  0.10485000  1.0
  C  C23  1  0.18526000  0.05521000  0.89515000  1.0
  C  C24  1  0.28040000  0.86295000  0.28908000  1.0
  C  C25  1  0.71957000  0.13702000  0.71091000  1.0
  C  C26  1  0.02314000  0.15553000  0.30484000  1.0
  C  C27  1  0.97685000  0.84447000  0.69515000  1.0
  C  C28  1  0.07068000  0.02465000  0.26562000  1.0
  C  C29  1  0.92928000  0.97533000  0.73437000  1.0
  C  C30  1  0.72977000  0.85059000  0.01085000  1.0
  C  C31  1  0.27026000  0.14943000  0.98914000  1.0
  C  C32  1  0.80071000  0.73472000  0.97803000  1.0
  C  C33  1  0.19935000  0.26533000  0.02196000  1.0
  C  C34  1  0.11932000  0.24251000  0.39991000  1.0
  C  C35  1  0.88065000  0.75747000  0.60009000  1.0
  C  C36  1  0.25855000  0.19462000  0.45604000  1.0
  C  C37  1  0.74139000  0.80534000  0.54396000  1.0
  S  S38  1  0.43843000  0.67547000  0.25782000  1.0
  S  S39  1  0.56150000  0.32450000  0.74219000  1.0
  N  N40  1  0.41424000  0.81857000  0.33738000  1.0
  N  N41  1  0.58573000  0.18135000  0.66260000  1.0
  N  N42  1  0.26693000  0.67227000  0.15833000  1.0
  N  N43  1  0.73314000  0.32776000  0.84169000  1.0
  N  N44  1  0.94922000  0.71245000  0.03510000  1.0
  N  N45  1  0.05084000  0.28759000  0.96490000  1.0
  N  N46  1  0.30467000  0.06942000  0.42016000  1.0
  N  N47  1  0.69529000  0.93055000  0.57985000  1.0
  Cl  Cl48  1  0.25203000  0.74494000  0.52548000  1.0
  Cl  Cl49  1  0.74792000  0.25502000  0.47453000  1.0
  Cl  Cl50  1  0.79721000  0.34151000  0.08896000  1.0
  Cl  Cl51  1  0.20281000  0.65852000  0.91102000  1.0
  O  O52  1  0.37117000  0.49083000  0.28044000  1.0
  O  O53  1  0.62879000  0.50916000  0.71954000  1.0
  O  O54  1  0.63412000  0.76915000  0.24791000  1.0
  O  O55  1  0.36587000  0.23080000  0.75211000  1.0
