# generated using pymatgen
data_Hf3H36C45(S5O8)2
_symmetry_space_group_name_H-M   'P 1'
_cell_length_a   11.47150000
_cell_length_b   20.38070000
_cell_length_c   33.58900000
_cell_angle_alpha   90.50960000
_cell_angle_beta   98.10670000
_cell_angle_gamma   90.23060000
_symmetry_Int_Tables_number   1
_chemical_formula_structural   Hf3H36C45(S5O8)2
_chemical_formula_sum   'Hf6 H72 C90 S20 O32'
_cell_volume   7774.12231390
_cell_formula_units_Z   2
loop_
 _symmetry_equiv_pos_site_id
 _symmetry_equiv_pos_as_xyz
  1  'x, y, z'
loop_
 _atom_site_type_symbol
 _atom_site_label
 _atom_site_symmetry_multiplicity
 _atom_site_fract_x
 _atom_site_fract_y
 _atom_site_fract_z
 _atom_site_occupancy
  Hf  Hf0  1  0.98677000  0.08164000  0.95493000  1.0
  Hf  Hf1  1  0.04157000  0.88495000  0.03841000  1.0
  Hf  Hf2  1  0.84164000  0.92905000  0.95241000  1.0
  Hf  Hf3  1  0.18509000  0.03721000  0.03928000  1.0
  Hf  Hf4  1  0.87550000  0.02951000  0.04110000  1.0
  Hf  Hf5  1  0.15174000  0.93697000  0.95266000  1.0
  H  H6  1  0.01702000  0.13929000  0.03236000  1.0
  H  H7  1  0.79049000  0.90157000  0.03143000  1.0
  H  H8  1  0.27987000  0.91326000  0.03029000  1.0
  H  H9  1  0.96776000  0.97883000  0.89370000  1.0
  H  H10  1  0.63979000  0.99468000  0.04151000  1.0
  H  H11  1  0.80374000  0.84632000  0.88558000  1.0
  H  H12  1  0.10982000  0.82462000  0.90498000  1.0
  H  H13  1  0.92706000  0.07607000  0.11824000  1.0
  H  H14  1  0.18725000  0.14149000  0.09469000  1.0
  H  H15  1  0.39983000  0.07211000  0.02643000  1.0
  H  H16  1  0.36412000  0.98901000  0.99228000  1.0
  H  H17  1  0.79733000  0.99454000  0.11386000  1.0
  H  H18  1  0.89023000  0.91556000  0.09526000  1.0
  H  H19  1  0.04138000  0.09814000  0.87569000  1.0
  H  H20  1  0.18855000  0.96105000  0.87687000  1.0
  H  H21  1  0.06259000  0.09658000  0.09519000  1.0
  H  H22  1  0.90008000  0.83578000  0.09387000  1.0
  H  H23  1  0.62224000  0.89039000  0.96396000  1.0
  H  H24  1  0.66044000  0.98217000  0.99563000  1.0
  H  H25  1  0.36739000  0.98090000  0.94370000  1.0
  H  H26  1  0.98700000  0.86637000  0.89691000  1.0
  H  H27  1  0.14328000  0.04954000  0.89896000  1.0
  H  H28  1  0.30140000  0.48687000  0.99736000  1.0
  H  H29  1  0.73173000  0.47867000  0.99497000  1.0
  H  H30  1  0.74472000  0.09341000  0.71395000  1.0
  H  H31  1  0.49322000  0.08746000  0.60621000  1.0
  H  H32  1  0.37356000  0.08048000  0.72184000  1.0
  H  H33  1  0.56824000  0.91572000  0.28371000  1.0
  H  H34  1  0.43960000  0.94305000  0.39675000  1.0
  H  H35  1  0.19439000  0.91320000  0.28896000  1.0
  H  H36  1  0.75422000  0.03723000  0.49259000  1.0
  H  H37  1  0.18273000  0.99615000  0.50807000  1.0
  H  H38  1  0.22092000  0.02782000  0.31189000  1.0
  H  H39  1  0.08255000  0.88340000  0.49683000  1.0
  H  H40  1  0.26820000  0.85278000  0.40650000  1.0
  H  H41  1  0.02241000  0.05208000  0.39856000  1.0
  H  H42  1  0.58131000  0.81726000  0.35387000  1.0
  H  H43  1  0.87562000  0.11282000  0.43619000  1.0
  H  H44  1  0.61184000  0.04786000  0.35375000  1.0
  H  H45  1  0.84244000  0.88190000  0.43762000  1.0
  H  H46  1  0.72178000  0.98525000  0.68783000  1.0
  H  H47  1  0.85405000  0.15283000  0.50777000  1.0
  H  H48  1  0.66033000  0.17078000  0.59728000  1.0
  H  H49  1  0.91992000  0.97766000  0.60101000  1.0
  H  H50  1  0.37034000  0.20144000  0.65185000  1.0
  H  H51  1  0.04561000  0.91907000  0.56301000  1.0
  H  H52  1  0.30749000  0.97238000  0.64933000  1.0
  H  H53  1  0.11014000  0.14829000  0.56452000  1.0
  H  H54  1  0.20834000  0.17846000  0.91708000  1.0
  H  H55  1  0.39783000  0.43675000  0.06450000  1.0
  H  H56  1  0.25491000  0.25780000  0.05525000  1.0
  H  H57  1  0.39477000  0.34373000  0.93318000  1.0
  H  H58  1  0.63571000  0.55474000  0.07497000  1.0
  H  H59  1  0.83906000  0.75936000  0.92332000  1.0
  H  H60  1  0.68414000  0.58887000  0.93721000  1.0
  H  H61  1  0.77230000  0.72707000  0.05951000  1.0
  H  H62  1  0.34298000  0.81739000  0.93569000  1.0
  H  H63  1  0.40132000  0.55506000  0.07682000  1.0
  H  H64  1  0.20598000  0.70025000  0.04370000  1.0
  H  H65  1  0.47446000  0.64069000  0.94718000  1.0
  H  H66  1  0.73949000  0.16231000  0.06798000  1.0
  H  H67  1  0.62532000  0.42925000  0.92625000  1.0
  H  H68  1  0.78948000  0.25614000  0.94094000  1.0
  H  H69  1  0.59414000  0.33623000  0.05355000  1.0
  H  H70  1  0.26221000  0.80133000  0.27369000  1.0
  H  H71  1  0.40782000  0.01599000  0.11559000  1.0
  H  H72  1  0.47760000  0.98408000  0.23141000  1.0
  H  H73  1  0.17400000  0.84004000  0.15716000  1.0
  H  H74  1  0.78225000  0.17603000  0.88937000  1.0
  H  H75  1  0.51144000  0.97060000  0.72346000  1.0
  H  H76  1  0.68115000  0.96199000  0.83566000  1.0
  H  H77  1  0.61469000  0.18363000  0.77840000  1.0
  C  C78  1  0.80706000  0.16974000  0.99728000  1.0
  C  C79  1  0.19977000  0.17717000  0.99457000  1.0
  C  C80  1  0.77125000  0.04900000  0.88684000  1.0
  C  C81  1  0.84636000  0.78397000  0.99748000  1.0
  C  C82  1  0.21638000  0.79467000  0.99315000  1.0
  C  C83  1  0.24352000  0.92700000  0.10952000  1.0
  C  C84  1  0.45094000  0.42419000  0.99578000  1.0
  C  C85  1  0.57325000  0.42160000  0.99468000  1.0
  C  C86  1  0.63680000  0.48042000  0.99521000  1.0
  C  C87  1  0.58264000  0.54143000  0.99735000  1.0
  C  C88  1  0.45974000  0.54433000  0.99825000  1.0
  C  C89  1  0.39633000  0.48526000  0.99734000  1.0
  C  C90  1  0.56234000  0.08843000  0.72241000  1.0
  C  C91  1  0.65402000  0.09216000  0.69902000  1.0
  C  C92  1  0.63046000  0.09127000  0.65697000  1.0
  C  C93  1  0.51308000  0.08974000  0.63891000  1.0
  C  C94  1  0.42010000  0.08610000  0.66170000  1.0
  C  C95  1  0.44489000  0.08516000  0.70373000  1.0
  C  C96  1  0.37858000  0.91151000  0.28149000  1.0
  C  C97  1  0.49494000  0.91827000  0.30108000  1.0
  C  C98  1  0.51699000  0.92986000  0.34254000  1.0
  C  C99  1  0.42230000  0.93299000  0.36453000  1.0
  C  C100  1  0.30590000  0.92739000  0.34575000  1.0
  C  C101  1  0.28471000  0.91655000  0.30413000  1.0
  C  C102  1  0.91717000  0.04225000  0.53314000  1.0
  C  C103  1  0.03891000  0.02970000  0.53748000  1.0
  C  C104  1  0.08798000  0.00449000  0.50471000  1.0
  C  C105  1  0.01961000  0.99076000  0.46760000  1.0
  C  C106  1  0.89785000  0.00300000  0.46330000  1.0
  C  C107  1  0.84901000  0.02903000  0.49591000  1.0
  C  C108  1  0.21340000  0.93774000  0.37178000  1.0
  C  C109  1  0.21207000  0.89607000  0.40458000  1.0
  C  C110  1  0.14441000  0.90906000  0.43526000  1.0
  C  C111  1  0.07800000  0.96737000  0.43358000  1.0
  C  C112  1  0.07418000  0.00712000  0.39971000  1.0
  C  C113  1  0.13978000  0.99343000  0.36854000  1.0
  C  C114  1  0.63371000  0.94530000  0.36614000  1.0
  C  C115  1  0.66466000  0.01148000  0.37176000  1.0
  C  C116  1  0.75589000  0.03213000  0.40143000  1.0
  C  C117  1  0.81688000  0.98466000  0.42644000  1.0
  C  C118  1  0.79249000  0.91817000  0.41858000  1.0
  C  C119  1  0.70164000  0.89747000  0.38876000  1.0
  C  C120  1  0.72168000  0.08510000  0.63020000  1.0
  C  C121  1  0.71917000  0.12869000  0.59812000  1.0
  C  C122  1  0.78687000  0.11937000  0.56702000  1.0
  C  C123  1  0.85798000  0.06294000  0.56758000  1.0
  C  C124  1  0.86538000  0.02145000  0.60073000  1.0
  C  C125  1  0.79955000  0.03119000  0.63230000  1.0
  C  C126  1  0.30253000  0.07562000  0.63750000  1.0
  C  C127  1  0.26191000  0.01113000  0.63117000  1.0
  C  C128  1  0.17121000  0.99465000  0.60025000  1.0
  C  C129  1  0.11950000  0.04470000  0.57506000  1.0
  C  C130  1  0.15303000  0.10986000  0.58366000  1.0
  C  C131  1  0.24416000  0.12633000  0.61444000  1.0
  C  C132  1  0.26333000  0.24083000  0.99271000  1.0
  C  C133  1  0.28434000  0.27768000  0.02830000  1.0
  C  C134  1  0.34152000  0.33849000  0.03027000  1.0
  C  C135  1  0.38186000  0.36233000  0.99527000  1.0
  C  C136  1  0.36146000  0.32518000  0.95983000  1.0
  C  C137  1  0.30171000  0.26474000  0.95735000  1.0
  C  C138  1  0.65698000  0.60142000  0.99865000  1.0
  C  C139  1  0.70278000  0.61996000  0.96401000  1.0
  C  C140  1  0.76534000  0.67872000  0.96182000  1.0
  C  C141  1  0.78747000  0.71843000  0.99680000  1.0
  C  C142  1  0.74931000  0.69741000  0.03234000  1.0
  C  C143  1  0.68290000  0.64012000  0.03382000  1.0
  C  C144  1  0.28239000  0.73196000  0.99263000  1.0
  C  C145  1  0.26458000  0.68607000  0.02230000  1.0
  C  C146  1  0.32039000  0.62549000  0.02590000  1.0
  C  C147  1  0.39734000  0.60808000  0.99798000  1.0
  C  C148  1  0.41553000  0.65369000  0.96873000  1.0
  C  C149  1  0.36260000  0.71581000  0.96554000  1.0
  C  C150  1  0.74561000  0.23368000  0.99891000  1.0
  C  C151  1  0.74498000  0.27436000  0.96533000  1.0
  C  C152  1  0.68961000  0.33517000  0.96217000  1.0
  C  C153  1  0.63457000  0.35770000  0.99480000  1.0
  C  C154  1  0.63647000  0.31809000  0.02848000  1.0
  C  C155  1  0.68929000  0.25599000  0.03158000  1.0
  C  C156  1  0.35376000  0.90698000  0.23703000  1.0
  C  C157  1  0.41216000  0.95116000  0.21495000  1.0
  C  C158  1  0.38633000  0.95809000  0.17315000  1.0
  C  C159  1  0.29451000  0.91854000  0.15247000  1.0
  C  C160  1  0.24138000  0.87112000  0.17412000  1.0
  C  C161  1  0.26957000  0.86378000  0.21564000  1.0
  C  C162  1  0.70380000  0.06491000  0.84675000  1.0
  C  C163  1  0.66576000  0.01042000  0.82247000  1.0
  C  C164  1  0.61441000  0.01676000  0.78255000  1.0
  C  C165  1  0.59771000  0.08043000  0.76636000  1.0
  C  C166  1  0.62892000  0.13474000  0.79114000  1.0
  C  C167  1  0.68288000  0.12884000  0.83121000  1.0
  S  S168  1  0.14807000  0.84978000  0.47336000  1.0
  S  S169  1  0.13053000  0.05125000  0.32945000  1.0
  S  S170  1  0.78585000  0.11709000  0.40571000  1.0
  S  S171  1  0.67299000  0.81256000  0.38367000  1.0
  S  S172  1  0.77603000  0.17989000  0.52947000  1.0
  S  S173  1  0.81649000  0.97035000  0.66975000  1.0
  S  S174  1  0.13116000  0.91102000  0.59452000  1.0
  S  S175  1  0.28468000  0.20973000  0.62040000  1.0
  S  S176  1  0.36756000  0.37765000  0.07781000  1.0
  S  S177  1  0.29212000  0.22282000  0.91103000  1.0
  S  S178  1  0.81595000  0.69487000  0.91577000  1.0
  S  S179  1  0.63375000  0.62056000  0.07984000  1.0
  S  S180  1  0.28909000  0.57452000  0.06560000  1.0
  S  S181  1  0.41012000  0.76533000  0.92830000  1.0
  S  S182  1  0.68897000  0.37751000  0.91651000  1.0
  S  S183  1  0.67873000  0.21605000  0.07702000  1.0
  S  S184  1  0.47549000  0.01489000  0.15215000  1.0
  S  S185  1  0.19571000  0.79983000  0.23723000  1.0
  S  S186  1  0.58389000  0.94372000  0.75411000  1.0
  S  S187  1  0.71389000  0.20306000  0.85763000  1.0
  O  O188  1  0.09224000  0.09236000  0.90113000  1.0
  O  O189  1  0.86993000  0.16111000  0.96893000  1.0
  O  O190  1  0.85302000  0.09001000  0.90188000  1.0
  O  O191  1  0.23596000  0.13972000  0.02410000  1.0
  O  O192  1  0.75035000  0.99496000  0.90238000  1.0
  O  O193  1  0.11251000  0.16524000  0.96746000  1.0
  O  O194  1  0.79617000  0.12677000  0.02405000  1.0
  O  O195  1  0.87416000  0.02150000  0.97863000  1.0
  O  O196  1  0.01783000  0.09464000  0.02218000  1.0
  O  O197  1  0.98437000  0.98165000  0.92280000  1.0
  O  O198  1  0.13343000  0.02845000  0.97748000  1.0
  O  O199  1  0.36256000  0.03011000  0.03022000  1.0
  O  O200  1  0.67524000  0.01442000  0.01976000  1.0
  O  O201  1  0.03801000  0.98275000  0.05150000  1.0
  O  O202  1  0.85540000  0.92366000  0.02143000  1.0
  O  O203  1  0.01158000  0.89922000  0.97790000  1.0
  O  O204  1  0.20502000  0.93247000  0.01933000  1.0
  O  O205  1  0.66657000  0.93028000  0.96101000  1.0
  O  O206  1  0.81110000  0.82206000  0.96853000  1.0
  O  O207  1  0.92425000  0.79777000  0.02765000  1.0
  O  O208  1  0.20685000  0.98540000  0.90199000  1.0
  O  O209  1  0.15570000  0.80420000  0.02161000  1.0
  O  O210  1  0.86273000  0.87592000  0.89934000  1.0
  O  O211  1  0.08040000  0.86882000  0.89944000  1.0
  O  O212  1  0.34810000  0.95753000  0.96721000  1.0
  O  O213  1  0.22319000  0.83642000  0.96483000  1.0
  O  O214  1  0.94733000  0.87559000  0.09454000  1.0
  O  O215  1  0.15828000  0.09658000  0.09345000  1.0
  O  O216  1  0.17827000  0.88129000  0.09187000  1.0
  O  O217  1  0.26472000  0.98105000  0.09284000  1.0
  O  O218  1  0.94257000  0.09097000  0.09214000  1.0
  O  O219  1  0.81256000  0.97549000  0.08854000  1.0
