# generated using pymatgen
data_Zn2H17C25N8O5
_symmetry_space_group_name_H-M   'P 1'
_cell_length_a   14.56390000
_cell_length_b   15.40720000
_cell_length_c   23.66840000
_cell_angle_alpha   86.75970000
_cell_angle_beta   86.74030000
_cell_angle_gamma   78.01990000
_symmetry_Int_Tables_number   1
_chemical_formula_structural   Zn2H17C25N8O5
_chemical_formula_sum   'Zn8 H68 C100 N32 O20'
_cell_volume   5181.40710504
_cell_formula_units_Z   4
loop_
 _symmetry_equiv_pos_site_id
 _symmetry_equiv_pos_as_xyz
  1  'x, y, z'
loop_
 _atom_site_type_symbol
 _atom_site_label
 _atom_site_symmetry_multiplicity
 _atom_site_fract_x
 _atom_site_fract_y
 _atom_site_fract_z
 _atom_site_occupancy
  Zn  Zn0  1  0.46087000  0.44452000  0.55621000  1.0
  Zn  Zn1  1  0.55603000  0.61340000  0.59351000  1.0
  Zn  Zn2  1  0.94827000  0.92790000  0.05688000  1.0
  Zn  Zn3  1  0.03634000  0.10033000  0.09491000  1.0
  Zn  Zn4  1  0.55117000  0.62525000  0.46795000  1.0
  Zn  Zn5  1  0.45628000  0.42399000  0.41620000  1.0
  Zn  Zn6  1  0.03271000  0.11483000  0.97020000  1.0
  Zn  Zn7  1  0.94487000  0.91372000  0.91567000  1.0
  H  H8  1  0.25720000  0.56218000  0.57314000  1.0
  H  H9  1  0.60240000  0.55376000  0.72075000  1.0
  H  H10  1  0.74155000  0.03678000  0.07239000  1.0
  H  H11  1  0.08849000  0.04176000  0.21953000  1.0
  H  H12  1  0.55107000  0.25917000  0.76604000  1.0
  H  H13  1  0.28595000  0.86870000  0.60070000  1.0
  H  H14  1  0.06489000  0.73719000  0.26139000  1.0
  H  H15  1  0.71756000  0.35626000  0.07590000  1.0
  H  H16  1  0.66499000  0.10207000  0.41642000  1.0
  H  H17  1  0.66172000  0.94482000  0.42900000  1.0
  H  H18  1  0.18786000  0.58066000  0.92677000  1.0
  H  H19  1  0.17904000  0.42317000  0.94084000  1.0
  H  H20  1  0.66148000  0.96205000  0.61020000  1.0
  H  H21  1  0.66576000  0.11982000  0.59762000  1.0
  H  H22  1  0.08497000  0.46559000  0.11487000  1.0
  H  H23  1  0.09539000  0.62221000  0.10117000  1.0
  H  H24  1  0.61463000  0.81873000  0.43730000  1.0
  H  H25  1  0.61096000  0.25266000  0.40549000  1.0
  H  H26  1  0.08285000  0.31695000  0.94246000  1.0
  H  H27  1  0.08707000  0.73470000  0.90959000  1.0
  H  H28  1  0.28450000  0.55498000  0.37955000  1.0
  H  H29  1  0.62603000  0.48511000  0.24361000  1.0
  H  H30  1  0.77051000  0.05122000  0.87517000  1.0
  H  H31  1  0.18901000  0.93950000  0.77866000  1.0
  H  H32  1  0.40815000  0.77689000  0.55113000  1.0
  H  H33  1  0.51189000  0.32300000  0.66693000  1.0
  H  H34  1  0.88057000  0.25985000  0.05485000  1.0
  H  H35  1  0.01089000  0.80424000  0.16652000  1.0
  H  H36  1  0.08945000  0.47992000  0.58397000  1.0
  H  H37  1  0.91944000  0.51595000  0.58678000  1.0
  H  H38  1  0.58124000  0.97323000  0.08151000  1.0
  H  H39  1  0.41119000  0.01383000  0.08494000  1.0
  H  H40  1  0.85065000  0.24645000  0.47088000  1.0
  H  H41  1  0.12765000  0.25748000  0.36253000  1.0
  H  H42  1  0.34145000  0.72992000  0.92974000  1.0
  H  H43  1  0.61450000  0.74822000  0.86270000  1.0
  H  H44  1  0.95737000  0.36144000  0.36133000  1.0
  H  H45  1  0.05061000  0.16726000  0.45937000  1.0
  H  H46  1  0.44233000  0.85309000  0.85926000  1.0
  H  H47  1  0.52676000  0.66326000  0.95552000  1.0
  H  H48  1  0.18187000  0.64149000  0.32016000  1.0
  H  H49  1  0.62074000  0.43824000  0.15156000  1.0
  H  H50  1  0.66209000  0.15392000  0.82383000  1.0
  H  H51  1  0.18783000  0.94421000  0.67792000  1.0
  H  H52  1  0.74397000  0.43746000  0.75014000  1.0
  H  H53  1  0.13352000  0.65591000  0.61969000  1.0
  H  H54  1  0.23241000  0.93795000  0.24979000  1.0
  H  H55  1  0.65598000  0.11175000  0.15054000  1.0
  H  H56  1  0.34784000  0.84373000  0.31088000  1.0
  H  H57  1  0.56372000  0.19203000  0.22690000  1.0
  H  H58  1  0.85398000  0.33375000  0.80965000  1.0
  H  H59  1  0.04019000  0.72823000  0.69894000  1.0
  H  H60  1  0.54049000  0.73617000  0.35280000  1.0
  H  H61  1  0.44292000  0.25620000  0.26700000  1.0
  H  H62  1  0.03588000  0.22290000  0.85897000  1.0
  H  H63  1  0.92149000  0.81913000  0.73595000  1.0
  H  H64  1  0.62726000  0.81090000  0.61987000  1.0
  H  H65  1  0.61976000  0.27620000  0.58670000  1.0
  H  H66  1  0.09938000  0.29897000  0.12490000  1.0
  H  H67  1  0.11617000  0.77102000  0.08743000  1.0
  H  H68  1  0.18941000  0.36550000  0.39731000  1.0
  H  H69  1  0.81367000  0.44142000  0.40764000  1.0
  H  H70  1  0.67539000  0.86003000  0.89518000  1.0
  H  H71  1  0.29755000  0.94127000  0.90732000  1.0
  H  H72  1  0.30751000  0.39610000  0.62663000  1.0
  H  H73  1  0.82154000  0.43644000  0.62722000  1.0
  H  H74  1  0.79993000  0.86898000  0.12490000  1.0
  H  H75  1  0.31221000  0.93365000  0.12692000  1.0
  C  C76  1  0.30704000  0.60512000  0.56384000  1.0
  C  C77  1  0.57150000  0.50588000  0.70049000  1.0
  C  C78  1  0.78929000  0.08207000  0.06438000  1.0
  C  C79  1  0.06015000  0.99184000  0.19964000  1.0
  C  C80  1  0.34303000  0.67775000  0.35607000  1.0
  C  C81  1  0.55161000  0.36975000  0.24803000  1.0
  C  C82  1  0.83397000  0.17231000  0.85510000  1.0
  C  C83  1  0.07376000  0.87431000  0.75212000  1.0
  C  C84  1  0.63549000  0.85217000  0.52677000  1.0
  C  C85  1  0.63686000  0.22248000  0.49885000  1.0
  C  C86  1  0.10568000  0.34457000  0.03258000  1.0
  C  C87  1  0.12041000  0.71107000  0.00223000  1.0
  C  C88  1  0.20899000  0.38389000  0.50856000  1.0
  C  C89  1  0.79971000  0.45952000  0.52019000  1.0
  C  C90  1  0.69739000  0.87216000  0.00656000  1.0
  C  C91  1  0.28802000  0.95890000  0.02018000  1.0
  C  C92  1  0.05396000  0.35302000  0.48010000  1.0
  C  C93  1  0.95588000  0.37105000  0.48343000  1.0
  C  C94  1  0.53997000  0.84771000  0.97839000  1.0
  C  C95  1  0.44190000  0.86866000  0.98179000  1.0
  C  C96  1  0.10809000  0.39167000  0.51460000  1.0
  C  C97  1  0.90118000  0.43040000  0.52036000  1.0
  C  C98  1  0.59600000  0.88410000  0.01281000  1.0
  C  C99  1  0.38930000  0.92884000  0.01917000  1.0
  C  C100  1  0.05331000  0.44722000  0.55508000  1.0
  C  C101  1  0.95539000  0.46636000  0.55742000  1.0
  C  C102  1  0.54344000  0.94143000  0.05301000  1.0
  C  C103  1  0.44547000  0.96339000  0.05567000  1.0
  C  C104  1  0.94766000  0.30864000  0.43759000  1.0
  C  C105  1  0.06028000  0.28600000  0.43440000  1.0
  C  C106  1  0.43143000  0.80605000  0.93655000  1.0
  C  C107  1  0.54423000  0.78034000  0.93330000  1.0
  C  C108  1  0.19329000  0.70693000  0.30545000  1.0
  C  C109  1  0.62894000  0.36626000  0.15170000  1.0
  C  C110  1  0.68079000  0.21615000  0.80799000  1.0
  C  C111  1  0.17640000  0.88029000  0.66552000  1.0
  C  C112  1  0.61793000  0.27561000  0.77520000  1.0
  C  C113  1  0.23141000  0.83756000  0.62153000  1.0
  C  C114  1  0.12716000  0.76094000  0.27189000  1.0
  C  C115  1  0.68348000  0.31978000  0.10882000  1.0
  C  C116  1  0.63888000  0.35660000  0.75369000  1.0
  C  C117  1  0.22159000  0.75322000  0.60574000  1.0
  C  C118  1  0.13896000  0.84558000  0.25142000  1.0
  C  C119  1  0.69801000  0.22655000  0.10829000  1.0
  C  C120  1  0.43065000  0.69012000  0.37231000  1.0
  C  C121  1  0.49570000  0.34757000  0.29513000  1.0
  C  C122  1  0.92256000  0.18033000  0.87223000  1.0
  C  C123  1  0.99635000  0.86062000  0.78762000  1.0
  C  C124  1  0.72485000  0.37604000  0.76734000  1.0
  C  C125  1  0.14624000  0.71949000  0.63191000  1.0
  C  C126  1  0.21985000  0.87368000  0.26637000  1.0
  C  C127  1  0.64732000  0.18389000  0.14962000  1.0
  C  C128  1  0.28576000  0.82009000  0.30033000  1.0
  C  C129  1  0.59362000  0.23028000  0.19303000  1.0
  C  C130  1  0.78759000  0.31700000  0.80038000  1.0
  C  C131  1  0.09174000  0.76172000  0.67663000  1.0
  C  C132  1  0.27437000  0.73500000  0.32064000  1.0
  C  C133  1  0.58745000  0.32239000  0.19741000  1.0
  C  C134  1  0.76763000  0.23498000  0.82113000  1.0
  C  C135  1  0.10970000  0.84042000  0.69741000  1.0
  C  C136  1  0.66501000  0.07208000  0.45926000  1.0
  C  C137  1  0.66263000  0.98259000  0.46648000  1.0
  C  C138  1  0.16593000  0.55580000  0.96837000  1.0
  C  C139  1  0.16018000  0.46694000  0.97617000  1.0
  C  C140  1  0.65618000  0.94126000  0.52074000  1.0
  C  C141  1  0.66095000  0.12542000  0.50609000  1.0
  C  C142  1  0.12769000  0.43298000  0.02823000  1.0
  C  C143  1  0.13960000  0.61467000  0.01249000  1.0
  C  C144  1  0.66257000  0.99206000  0.56734000  1.0
  C  C145  1  0.66523000  0.08188000  0.56014000  1.0
  C  C146  1  0.10976000  0.48976000  0.07375000  1.0
  C  C147  1  0.11597000  0.57841000  0.06601000  1.0
  C  C148  1  0.62089000  0.79923000  0.57560000  1.0
  C  C149  1  0.61122000  0.28462000  0.54132000  1.0
  C  C150  1  0.09179000  0.28957000  0.08043000  1.0
  C  C151  1  0.10174000  0.77630000  0.04274000  1.0
  C  C152  1  0.26664000  0.38544000  0.45812000  1.0
  C  C153  1  0.74026000  0.48931000  0.47432000  1.0
  C  C154  1  0.75411000  0.87592000  0.95602000  1.0
  C  C155  1  0.22730000  0.98788000  0.97495000  1.0
  C  C156  1  0.61519000  0.80286000  0.48252000  1.0
  C  C157  1  0.60753000  0.27272000  0.44895000  1.0
  C  C158  1  0.08518000  0.29769000  0.98725000  1.0
  C  C159  1  0.08878000  0.75833000  0.95183000  1.0
  C  C160  1  0.27183000  0.38891000  0.55076000  1.0
  C  C161  1  0.74024000  0.48493000  0.56797000  1.0
  C  C162  1  0.76198000  0.87075000  0.04873000  1.0
  C  C163  1  0.22912000  0.98197000  0.06854000  1.0
  C  C164  1  0.33835000  0.59385000  0.38202000  1.0
  C  C165  1  0.57971000  0.44648000  0.26610000  1.0
  C  C166  1  0.82600000  0.08775000  0.87902000  1.0
  C  C167  1  0.12274000  0.91843000  0.78796000  1.0
  C  C168  1  0.38324000  0.71510000  0.55292000  1.0
  C  C169  1  0.52518000  0.38860000  0.67309000  1.0
  C  C170  1  0.85928000  0.19642000  0.05500000  1.0
  C  C171  1  0.02056000  0.87107000  0.17262000  1.0
  C  C172  1  0.29630000  0.69702000  0.57221000  1.0
  C  C173  1  0.57866000  0.41493000  0.71392000  1.0
  C  C174  1  0.77428000  0.17373000  0.07398000  1.0
  C  C175  1  0.07412000  0.90016000  0.21235000  1.0
  N  N176  1  0.39397000  0.57134000  0.54335000  1.0
  N  N177  1  0.51945000  0.53120000  0.65457000  1.0
  N  N178  1  0.87696000  0.05239000  0.04348000  1.0
  N  N179  1  0.00446000  0.01515000  0.15513000  1.0
  N  N180  1  0.47270000  0.62092000  0.40536000  1.0
  N  N181  1  0.49244000  0.40554000  0.33600000  1.0
  N  N182  1  0.96198000  0.10871000  0.90418000  1.0
  N  N183  1  0.00110000  0.89285000  0.83876000  1.0
  N  N184  1  0.59413000  0.72490000  0.56104000  1.0
  N  N185  1  0.56780000  0.36367000  0.51839000  1.0
  N  N186  1  0.06564000  0.21596000  0.06432000  1.0
  N  N187  1  0.05924000  0.85493000  0.01853000  1.0
  N  N188  1  0.35432000  0.38968000  0.46984000  1.0
  N  N189  1  0.65439000  0.52904000  0.49425000  1.0
  N  N190  1  0.84282000  0.87645000  0.96757000  1.0
  N  N191  1  0.14103000  0.02471000  0.99567000  1.0
  N  N192  1  0.59078000  0.72767000  0.50313000  1.0
  N  N193  1  0.56562000  0.35627000  0.46128000  1.0
  N  N194  1  0.06164000  0.22135000  0.00643000  1.0
  N  N195  1  0.05130000  0.84358000  0.96239000  1.0
  N  N196  1  0.35770000  0.39103000  0.52854000  1.0
  N  N197  1  0.65464000  0.52545000  0.55298000  1.0
  N  N198  1  0.84810000  0.87213000  0.02641000  1.0
  N  N199  1  0.14234000  0.02017000  0.05432000  1.0
  N  N200  1  0.41516000  0.56017000  0.41103000  1.0
  N  N201  1  0.54605000  0.46727000  0.31801000  1.0
  N  N202  1  0.90182000  0.05013000  0.90795000  1.0
  N  N203  1  0.08086000  0.92859000  0.83918000  1.0
  N  N204  1  0.44296000  0.63835000  0.53682000  1.0
  N  N205  1  0.49120000  0.45727000  0.63724000  1.0
  N  N206  1  0.92224000  0.12216000  0.03787000  1.0
  N  N207  1  0.98036000  0.93908000  0.13795000  1.0
  O  O208  1  0.91357000  0.23158000  0.45290000  1.0
  O  O209  1  0.10037000  0.31283000  0.38102000  1.0
  O  O210  1  0.39168000  0.73268000  0.95472000  1.0
  O  O211  1  0.58588000  0.80464000  0.87952000  1.0
  O  O212  1  0.90581000  0.35028000  0.38734000  1.0
  O  O213  1  0.10156000  0.19714000  0.44588000  1.0
  O  O214  1  0.39024000  0.84515000  0.88586000  1.0
  O  O215  1  0.58107000  0.69084000  0.94569000  1.0
  O  O216  1  0.47343000  0.76015000  0.35891000  1.0
  O  O217  1  0.44711000  0.28031000  0.30369000  1.0
  O  O218  1  0.96867000  0.24849000  0.86069000  1.0
  O  O219  1  0.92211000  0.82298000  0.77684000  1.0
  O  O220  1  0.24526000  0.39071000  0.40332000  1.0
  O  O221  1  0.75858000  0.48835000  0.41819000  1.0
  O  O222  1  0.73099000  0.88546000  0.90135000  1.0
  O  O223  1  0.24539000  0.98998000  0.91870000  1.0
  O  O224  1  0.25093000  0.39196000  0.60753000  1.0
  O  O225  1  0.75913000  0.47398000  0.62382000  1.0
  O  O226  1  0.74225000  0.86924000  0.10567000  1.0
  O  O227  1  0.24942000  0.97068000  0.12415000  1.0
