# generated using pymatgen
data_ZnH7C16N3ClO4
_symmetry_space_group_name_H-M   'P 1'
_cell_length_a   14.49830000
_cell_length_b   15.93090000
_cell_length_c   17.22180000
_cell_angle_alpha   86.29620000
_cell_angle_beta   89.40850000
_cell_angle_gamma   87.93180000
_symmetry_Int_Tables_number   1
_chemical_formula_structural   ZnH7C16N3ClO4
_chemical_formula_sum   'Zn2 H14 C32 N6 Cl2 O8'
_cell_volume   3966.71449218
_cell_formula_units_Z   2
loop_
 _symmetry_equiv_pos_site_id
 _symmetry_equiv_pos_as_xyz
  1  'x, y, z'
loop_
 _atom_site_type_symbol
 _atom_site_label
 _atom_site_symmetry_multiplicity
 _atom_site_fract_x
 _atom_site_fract_y
 _atom_site_fract_z
 _atom_site_occupancy
  Zn  Zn0  1  0.49647000  0.58869000  0.50453000  1.0
  Zn  Zn1  1  0.50353000  0.41131000  0.49547000  1.0
  H  H2  1  0.41049000  0.58067000  0.74465000  1.0
  H  H3  1  0.58960000  0.41936000  0.25537000  1.0
  H  H4  1  0.41351000  0.58165000  0.89025000  1.0
  H  H5  1  0.58671000  0.41841000  0.10976000  1.0
  H  H6  1  0.58095000  0.73091000  0.41671000  1.0
  H  H7  1  0.41903000  0.26910000  0.58328000  1.0
  H  H8  1  0.57896000  0.88966000  0.41745000  1.0
  H  H9  1  0.42103000  0.11034000  0.58254000  1.0
  H  H10  1  0.61278000  0.13043000  0.38943000  1.0
  H  H11  1  0.38726000  0.86957000  0.61060000  1.0
  H  H12  1  0.60195000  0.28891000  0.39770000  1.0
  H  H13  1  0.39808000  0.71110000  0.60233000  1.0
  H  H14  1  0.40623000  0.63896000  0.10227000  1.0
  H  H15  1  0.59394000  0.36107000  0.89769000  1.0
  C  C16  1  0.50376000  0.52095000  0.34838000  1.0
  C  C17  1  0.49625000  0.47905000  0.65161000  1.0
  C  C18  1  0.44718000  0.59144000  0.13628000  1.0
  C  C19  1  0.55298000  0.40859000  0.86370000  1.0
  C  C20  1  0.45027000  0.59230000  0.21723000  1.0
  C  C21  1  0.54981000  0.40772000  0.78275000  1.0
  C  C22  1  0.46007000  0.23512000  0.54129000  1.0
  C  C23  1  0.53992000  0.76489000  0.45871000  1.0
  C  C24  1  0.46153000  0.14809000  0.54083000  1.0
  C  C25  1  0.53847000  0.85191000  0.45917000  1.0
  C  C26  1  0.51701000  0.10955000  0.48507000  1.0
  C  C27  1  0.48301000  0.89046000  0.51494000  1.0
  C  C28  1  0.56899000  0.15971000  0.43258000  1.0
  C  C29  1  0.43104000  0.84030000  0.56745000  1.0
  C  C30  1  0.56321000  0.24660000  0.43697000  1.0
  C  C31  1  0.43681000  0.75340000  0.56304000  1.0
  C  C32  1  0.68065000  0.50018000  0.50188000  1.0
  C  C33  1  0.31936000  0.49981000  0.49813000  1.0
  C  C34  1  0.78029000  0.49992000  0.50130000  1.0
  C  C35  1  0.21972000  0.50007000  0.49871000  1.0
  C  C36  1  0.86495000  0.49985000  0.50076000  1.0
  C  C37  1  0.13506000  0.50013000  0.49925000  1.0
  C  C38  1  0.95744000  0.49991000  0.50024000  1.0
  C  C39  1  0.04257000  0.50007000  0.49977000  1.0
  C  C40  1  0.50103000  0.52922000  0.26106000  1.0
  C  C41  1  0.49903000  0.47079000  0.73893000  1.0
  C  C42  1  0.55024000  0.46750000  0.22069000  1.0
  C  C43  1  0.44986000  0.53253000  0.77932000  1.0
  C  C44  1  0.54862000  0.46638000  0.14049000  1.0
  C  C45  1  0.45156000  0.53367000  0.85951000  1.0
  C  C46  1  0.49481000  0.52811000  0.09777000  1.0
  C  C47  1  0.50539000  0.47193000  0.90221000  1.0
  N  N48  1  0.48330000  0.53178000  0.01626000  1.0
  N  N49  1  0.51693000  0.46827000  0.98373000  1.0
  N  N50  1  0.50972000  0.28328000  0.49018000  1.0
  N  N51  1  0.49028000  0.71672000  0.50983000  1.0
  N  N52  1  0.52596000  0.02141000  0.47738000  1.0
  N  N53  1  0.47406000  0.97859000  0.52263000  1.0
  Cl  Cl54  1  0.38574000  0.67067000  0.25996000  1.0
  Cl  Cl55  1  0.61429000  0.32933000  0.73999000  1.0
  O  O56  1  0.50337000  0.58748000  0.38516000  1.0
  O  O57  1  0.49665000  0.41254000  0.61484000  1.0
  O  O58  1  0.50702000  0.44564000  0.37842000  1.0
  O  O59  1  0.49297000  0.55437000  0.62158000  1.0
  O  O60  1  0.63915000  0.57155000  0.50588000  1.0
  O  O61  1  0.36086000  0.42845000  0.49415000  1.0
  O  O62  1  0.64442000  0.42890000  0.49833000  1.0
  O  O63  1  0.35559000  0.57111000  0.50165000  1.0
