# generated using pymatgen
data_Zn3H6C18I4(O6F)2
_symmetry_space_group_name_H-M   'P 1'
_cell_length_a   16.95660000
_cell_length_b   16.95630000
_cell_length_c   17.06420000
_cell_angle_alpha   114.11100000
_cell_angle_beta   100.51900000
_cell_angle_gamma   113.90300000
_symmetry_Int_Tables_number   1
_chemical_formula_structural   Zn3H6C18I4(O6F)2
_chemical_formula_sum   'Zn6 H12 C36 I8 O24 F4'
_cell_volume   3720.98261855
_cell_formula_units_Z   2
loop_
 _symmetry_equiv_pos_site_id
 _symmetry_equiv_pos_as_xyz
  1  'x, y, z'
loop_
 _atom_site_type_symbol
 _atom_site_label
 _atom_site_symmetry_multiplicity
 _atom_site_fract_x
 _atom_site_fract_y
 _atom_site_fract_z
 _atom_site_occupancy
  Zn  Zn0  1  0.07066000  0.07067000  0.00000000  1.0
  Zn  Zn1  1  0.06005000  0.49978000  0.55981000  1.0
  Zn  Zn2  1  0.93996000  0.50022000  0.44019000  1.0
  Zn  Zn3  1  0.92934000  0.92933000  1.00000000  1.0
  Zn  Zn4  1  0.49841000  0.92961000  0.42802000  1.0
  Zn  Zn5  1  0.50159000  0.07039000  0.57198000  1.0
  H  H6  1  0.91528000  0.10721000  0.79330000  1.0
  H  H7  1  0.14533000  0.85449000  0.09562000  1.0
  H  H8  1  0.24114000  0.95028000  0.09561000  1.0
  H  H9  1  0.75886000  0.04971000  0.90439000  1.0
  H  H10  1  0.85467000  0.14551000  0.90438000  1.0
  H  H11  1  0.74727000  0.15019000  0.80224000  1.0
  H  H12  1  0.25273000  0.84981000  0.19776000  1.0
  H  H13  1  0.34795000  0.94502000  0.19776000  1.0
  H  H14  1  0.08472000  0.89278000  0.20669000  1.0
  H  H15  1  0.65205000  0.05498000  0.80224000  1.0
  H  H16  1  0.31391000  0.12197000  0.20669000  1.0
  H  H17  1  0.68609000  0.87803000  0.79331000  1.0
  C  C18  1  0.99971000  0.86079000  0.86051000  1.0
  C  C19  1  0.36065000  0.86066000  0.50002000  1.0
  C  C20  1  0.63935000  0.13936000  0.50000000  1.0
  C  C21  1  0.61862000  0.00113000  0.61975000  1.0
  C  C22  1  0.38137000  0.99889000  0.38027000  1.0
  C  C23  1  0.86058000  0.36059000  0.50000000  1.0
  C  C24  1  0.13942000  0.63941000  0.50000000  1.0
  C  C25  1  0.00029000  0.13921000  0.13949000  1.0
  C  C26  1  0.99992000  0.63960000  0.63951000  1.0
  C  C27  1  0.00008000  0.36040000  0.36050000  1.0
  C  C28  1  0.71720000  0.21721000  0.49999000  1.0
  C  C29  1  0.28280000  0.78280000  0.50001000  1.0
  C  C30  1  0.78291000  0.28292000  0.50000000  1.0
  C  C31  1  0.21709000  0.71709000  0.50000000  1.0
  C  C32  1  0.88126000  0.99602000  0.87731000  1.0
  C  C33  1  0.11874000  0.00398000  0.12268000  1.0
  C  C34  1  0.85612000  0.02830000  0.74345000  1.0
  C  C35  1  0.14388000  0.97169000  0.25654000  1.0
  C  C36  1  0.28486000  0.11267000  0.25655000  1.0
  C  C37  1  0.71513000  0.88733000  0.74344000  1.0
  C  C38  1  0.78226000  0.02396000  0.67032000  1.0
  C  C39  1  0.21774000  0.97604000  0.32967000  1.0
  C  C40  1  0.35364000  0.11191000  0.32968000  1.0
  C  C41  1  0.64636000  0.88809000  0.67032000  1.0
  C  C42  1  0.99948000  0.71738000  0.71686000  1.0
  C  C43  1  0.78787000  0.07058000  0.85848000  1.0
  C  C44  1  0.21213000  0.92941000  0.14152000  1.0
  C  C45  1  0.81110000  0.99017000  0.80131000  1.0
  C  C46  1  0.18890000  0.00983000  0.19869000  1.0
  C  C47  1  0.00052000  0.28262000  0.28315000  1.0
  C  C48  1  0.68966000  0.99764000  0.68727000  1.0
  C  C49  1  0.31034000  0.00236000  0.31273000  1.0
  C  C50  1  0.71717000  0.07376000  0.79094000  1.0
  C  C51  1  0.28283000  0.92623000  0.20906000  1.0
  C  C52  1  0.99938000  0.78308000  0.78244000  1.0
  C  C53  1  0.00062000  0.21692000  0.21756000  1.0
  I  I54  1  0.93001000  0.96063000  0.67886000  1.0
  I  I55  1  0.15395000  0.82571000  0.31701000  1.0
  I  I56  1  0.49128000  0.16303000  0.31698000  1.0
  I  I57  1  0.50871000  0.83697000  0.68301000  1.0
  I  I58  1  0.84604000  0.17428000  0.68298000  1.0
  I  I59  1  0.06999000  0.03937000  0.32114000  1.0
  I  I60  1  0.28177000  0.25116000  0.32115000  1.0
  I  I61  1  0.71823000  0.74884000  0.67885000  1.0
  O  O62  1  0.06185000  0.95314000  0.89118000  1.0
  O  O63  1  0.03124000  0.93801000  0.09212000  1.0
  O  O64  1  0.15412000  0.06090000  0.09211000  1.0
  O  O65  1  0.84588000  0.93910000  0.90789000  1.0
  O  O66  1  0.96876000  0.06198000  0.90787000  1.0
  O  O67  1  0.60740000  0.04718000  0.43647000  1.0
  O  O68  1  0.39260000  0.95282000  0.56353000  1.0
  O  O69  1  0.61071000  0.17093000  0.56352000  1.0
  O  O70  1  0.93815000  0.04686000  0.10882000  1.0
  O  O71  1  0.38929000  0.82907000  0.43647000  1.0
  O  O72  1  0.59037000  0.94143000  0.53180000  1.0
  O  O73  1  0.40962000  0.05856000  0.46820000  1.0
  O  O74  1  0.59435000  0.06400000  0.65839000  1.0
  O  O75  1  0.06196000  0.17068000  0.10881000  1.0
  O  O76  1  0.40565000  0.93599000  0.34161000  1.0
  O  O77  1  0.83857000  0.39095000  0.44709000  1.0
  O  O78  1  0.16142000  0.60905000  0.55291000  1.0
  O  O79  1  0.94385000  0.39150000  0.55290000  1.0
  O  O80  1  0.05615000  0.60851000  0.44710000  1.0
  O  O81  1  0.93804000  0.82932000  0.89119000  1.0
  O  O82  1  0.94750000  0.60914000  0.55663000  1.0
  O  O83  1  0.05250000  0.39086000  0.44337000  1.0
  O  O84  1  0.05277000  0.60900000  0.66176000  1.0
  O  O85  1  0.94723000  0.39100000  0.33824000  1.0
  F  F86  1  0.76125000  0.95555000  0.57900000  1.0
  F  F87  1  0.23875000  0.04445000  0.42100000  1.0
  F  F88  1  0.37657000  0.18226000  0.42100000  1.0
  F  F89  1  0.62342000  0.81774000  0.57900000  1.0
