# generated using pymatgen
data_Cu3H18C12(N10O3)2
_symmetry_space_group_name_H-M   'P 1'
_cell_length_a   7.05830000
_cell_length_b   9.09383000
_cell_length_c   10.27128633
_cell_angle_alpha   73.78986416
_cell_angle_beta   70.79466874
_cell_angle_gamma   74.90000000
_symmetry_Int_Tables_number   1
_chemical_formula_structural   Cu3H18C12(N10O3)2
_chemical_formula_sum   'Cu3 H18 C12 N20 O6'
_cell_volume   587.40599802
_cell_formula_units_Z   1
loop_
 _symmetry_equiv_pos_site_id
 _symmetry_equiv_pos_as_xyz
  1  'x, y, z'
loop_
 _atom_site_type_symbol
 _atom_site_label
 _atom_site_symmetry_multiplicity
 _atom_site_fract_x
 _atom_site_fract_y
 _atom_site_fract_z
 _atom_site_occupancy
  Cu  Cu0  1  0.00012000  0.00003000  0.00001000  1.0
  Cu  Cu1  1  0.60143000  0.26004000  0.52388000  1.0
  Cu  Cu2  1  0.39834000  0.73990000  0.47613000  1.0
  H  H3  1  0.29763000  0.09194000  0.02009000  1.0
  H  H4  1  0.70270000  0.90798000  0.98006000  1.0
  H  H5  1  0.36623000  0.90048000  0.02434000  1.0
  H  H6  1  0.63397000  0.09951000  0.97578000  1.0
  H  H7  1  0.21021000  0.96276000  0.16388000  1.0
  H  H8  1  0.78998000  0.03717000  0.83614000  1.0
  H  H9  1  0.96060000  0.32103000  0.44012000  1.0
  H  H10  1  0.03908000  0.67912000  0.56001000  1.0
  H  H11  1  0.95315000  0.15381000  0.56161000  1.0
  H  H12  1  0.04668000  0.84621000  0.43837000  1.0
  H  H13  1  0.86740000  0.32539000  0.60709000  1.0
  H  H14  1  0.13227000  0.67454000  0.39307000  1.0
  H  H15  1  0.21627000  0.34151000  0.59297000  1.0
  H  H16  1  0.78359000  0.65848000  0.40681000  1.0
  H  H17  1  0.28637000  0.30955000  0.43310000  1.0
  H  H18  1  0.71357000  0.69029000  0.56674000  1.0
  H  H19  1  0.27740000  0.15953000  0.57282000  1.0
  H  H20  1  0.72246000  0.84040000  0.42710000  1.0
  C  C21  1  0.33045000  0.57687000  0.76670000  1.0
  C  C22  1  0.66959000  0.42314000  0.23329000  1.0
  C  C23  1  0.16697000  0.68547000  0.97581000  1.0
  C  C24  1  0.83325000  0.31461000  0.02420000  1.0
  C  C25  1  0.29634000  0.40758000  0.00024000  1.0
  C  C26  1  0.70379000  0.59248000  0.99974000  1.0
  C  C27  1  0.19514000  0.84714000  0.74701000  1.0
  C  C28  1  0.80498000  0.15287000  0.25297000  1.0
  C  C29  1  0.13835000  0.52006000  0.19555000  1.0
  C  C30  1  0.86174000  0.47995000  0.80447000  1.0
  C  C31  1  0.44238000  0.31152000  0.79496000  1.0
  C  C32  1  0.55752000  0.68845000  0.20503000  1.0
  N  N33  1  0.26325000  0.55736000  0.91317000  1.0
  N  N34  1  0.73686000  0.44271000  0.08681000  1.0
  N  N35  1  0.29888000  0.72004000  0.68720000  1.0
  N  N36  1  0.70114000  0.27998000  0.31281000  1.0
  N  N37  1  0.13980000  0.82726000  0.89164000  1.0
  N  N38  1  0.86049000  0.17279000  0.10831000  1.0
  N  N39  1  0.10262000  0.66810000  0.11401000  1.0
  N  N40  1  0.89756000  0.33199000  0.88599000  1.0
  N  N41  1  0.23559000  0.39023000  0.13904000  1.0
  N  N42  1  0.76458000  0.60981000  0.86096000  1.0
  N  N43  1  0.38834000  0.28648000  0.93841000  1.0
  N  N44  1  0.61172000  0.71354000  0.06159000  1.0
  N  N45  1  0.42067000  0.45554000  0.70749000  1.0
  N  N46  1  0.57923000  0.54448000  0.29248000  1.0
  N  N47  1  0.24645000  0.98684000  0.05618000  1.0
  N  N48  1  0.75372000  0.01315000  0.94386000  1.0
  N  N49  1  0.87474000  0.26438000  0.53404000  1.0
  N  N50  1  0.12498000  0.73563000  0.46606000  1.0
  N  N51  1  0.31564000  0.26820000  0.52957000  1.0
  N  N52  1  0.68423000  0.73173000  0.47029000  1.0
  O  O53  1  0.15279000  0.97735000  0.67006000  1.0
  O  O54  1  0.84719000  0.02265000  0.32995000  1.0
  O  O55  1  0.07831000  0.50363000  0.32817000  1.0
  O  O56  1  0.92155000  0.49635000  0.67184000  1.0
  O  O57  1  0.51957000  0.19295000  0.73816000  1.0
  O  O58  1  0.48016000  0.80700000  0.26183000  1.0
