# generated using pymatgen
data_CoH7C8S2N3O2
_symmetry_space_group_name_H-M   'P 1'
_cell_length_a   7.68727000
_cell_length_b   8.15860000
_cell_length_c   9.74533000
_cell_angle_alpha   75.14010000
_cell_angle_beta   73.15860000
_cell_angle_gamma   74.40940000
_symmetry_Int_Tables_number   1
_chemical_formula_structural   CoH7C8S2N3O2
_chemical_formula_sum   'Co2 H14 C16 S4 N6 O4'
_cell_volume   552.78977197
_cell_formula_units_Z   2
loop_
 _symmetry_equiv_pos_site_id
 _symmetry_equiv_pos_as_xyz
  1  'x, y, z'
loop_
 _atom_site_type_symbol
 _atom_site_label
 _atom_site_symmetry_multiplicity
 _atom_site_fract_x
 _atom_site_fract_y
 _atom_site_fract_z
 _atom_site_occupancy
  Co  Co0  1  0.36724000  0.35739000  0.49650000  1.0
  Co  Co1  1  0.63276000  0.64261000  0.50350000  1.0
  H  H2  1  0.20151000  0.82874000  0.43996000  1.0
  H  H3  1  0.79848000  0.17125000  0.56004000  1.0
  H  H4  1  0.05907000  0.06570000  0.25628000  1.0
  H  H5  1  0.94092000  0.93430000  0.74372000  1.0
  H  H6  1  0.45907000  0.81404000  0.91644000  1.0
  H  H7  1  0.54095000  0.18597000  0.08356000  1.0
  H  H8  1  0.58234000  0.58762000  0.11769000  1.0
  H  H9  1  0.41767000  0.41239000  0.88231000  1.0
  H  H10  1  0.92644000  0.19846000  0.05896000  1.0
  H  H11  1  0.07356000  0.80153000  0.94105000  1.0
  H  H12  1  0.04215000  0.31213000  0.88659000  1.0
  H  H13  1  0.95784000  0.68787000  0.11341000  1.0
  H  H14  1  0.10765000  0.30190000  0.05255000  1.0
  H  H15  1  0.89235000  0.69810000  0.94746000  1.0
  C  C16  1  0.34283000  0.97885000  0.64059000  1.0
  C  C17  1  0.65717000  0.02115000  0.35940000  1.0
  C  C18  1  0.25223000  0.96047000  0.07025000  1.0
  C  C19  1  0.74778000  0.03953000  0.92975000  1.0
  C  C20  1  0.97954000  0.55422000  0.64783000  1.0
  C  C21  1  0.02045000  0.44579000  0.35217000  1.0
  C  C22  1  0.24962000  0.83536000  0.32253000  1.0
  C  C23  1  0.75037000  0.16463000  0.67747000  1.0
  C  C24  1  0.17536000  0.96412000  0.21924000  1.0
  C  C25  1  0.82464000  0.03587000  0.78076000  1.0
  C  C26  1  0.39950000  0.82209000  0.03101000  1.0
  C  C27  1  0.60051000  0.17792000  0.96899000  1.0
  C  C28  1  0.46829000  0.69761000  0.13812000  1.0
  C  C29  1  0.53172000  0.30240000  0.86188000  1.0
  C  C30  1  0.05860000  0.23254000  0.99282000  1.0
  C  C31  1  0.94140000  0.76746000  0.00718000  1.0
  S  S32  1  0.33045000  0.77528000  0.67771000  1.0
  S  S33  1  0.66956000  0.22472000  0.32229000  1.0
  S  S34  1  0.76094000  0.64696000  0.70067000  1.0
  S  S35  1  0.23905000  0.35304000  0.29933000  1.0
  N  N36  1  0.35376000  0.12632000  0.61023000  1.0
  N  N37  1  0.64623000  0.87368000  0.38976000  1.0
  N  N38  1  0.13762000  0.48843000  0.60744000  1.0
  N  N39  1  0.86238000  0.51157000  0.39256000  1.0
  N  N40  1  0.39519000  0.70714000  0.28133000  1.0
  N  N41  1  0.60481000  0.29285000  0.71867000  1.0
  O  O42  1  0.47134000  0.58637000  0.38241000  1.0
  O  O43  1  0.52866000  0.41362000  0.61759000  1.0
  O  O44  1  0.19630000  0.07986000  0.95943000  1.0
  O  O45  1  0.80371000  0.92014000  0.04057000  1.0
