# generated using pymatgen
data_ZnH20C22(NO2)2
_symmetry_space_group_name_H-M   'P 1'
_cell_length_a   7.77843000
_cell_length_b   10.91580000
_cell_length_c   12.91590000
_cell_angle_alpha   89.92430000
_cell_angle_beta   87.29600000
_cell_angle_gamma   73.58970000
_symmetry_Int_Tables_number   1
_chemical_formula_structural   ZnH20C22(NO2)2
_chemical_formula_sum   'Zn2 H40 C44 N4 O8'
_cell_volume   1050.73224217
_cell_formula_units_Z   2
loop_
 _symmetry_equiv_pos_site_id
 _symmetry_equiv_pos_as_xyz
  1  'x, y, z'
loop_
 _atom_site_type_symbol
 _atom_site_label
 _atom_site_symmetry_multiplicity
 _atom_site_fract_x
 _atom_site_fract_y
 _atom_site_fract_z
 _atom_site_occupancy
  Zn  Zn0  1  0.99506000  0.87334000  0.31406000  1.0
  Zn  Zn1  1  0.00493000  0.12666000  0.68594000  1.0
  H  H2  1  0.55351000  0.69494000  0.40939000  1.0
  H  H3  1  0.44649000  0.30507000  0.59060000  1.0
  H  H4  1  0.58519000  0.72983000  0.27838000  1.0
  H  H5  1  0.41480000  0.27017000  0.72162000  1.0
  H  H6  1  0.64204000  0.54904000  0.14292000  1.0
  H  H7  1  0.35796000  0.45097000  0.85708000  1.0
  H  H8  1  0.80104000  0.31700000  0.10920000  1.0
  H  H9  1  0.19896000  0.68300000  0.89080000  1.0
  H  H10  1  0.79408000  0.24814000  0.43559000  1.0
  H  H11  1  0.20592000  0.75186000  0.56441000  1.0
  H  H12  1  0.64396000  0.47848000  0.47075000  1.0
  H  H13  1  0.35604000  0.52152000  0.52925000  1.0
  H  H14  1  0.96166000  0.62909000  0.41076000  1.0
  H  H15  1  0.03834000  0.37091000  0.58924000  1.0
  H  H16  1  0.81805000  0.56586000  0.57386000  1.0
  H  H17  1  0.18195000  0.43414000  0.42614000  1.0
  H  H18  1  0.64341000  0.96609000  0.65993000  1.0
  H  H19  1  0.35658000  0.03391000  0.34007000  1.0
  H  H20  1  0.78849000  0.01158000  0.49507000  1.0
  H  H21  1  0.21151000  0.98842000  0.50493000  1.0
  H  H22  1  0.49018000  0.78342000  0.73473000  1.0
  H  H23  1  0.50983000  0.21657000  0.26527000  1.0
  H  H24  1  0.63251000  0.62551000  0.72506000  1.0
  H  H25  1  0.36749000  0.37449000  0.27494000  1.0
  H  H26  1  0.72405000  0.85259000  0.82871000  1.0
  H  H27  1  0.27595000  0.14740000  0.17128000  1.0
  H  H28  1  0.86843000  0.69748000  0.81741000  1.0
  H  H29  1  0.13157000  0.30251000  0.18259000  1.0
  H  H30  1  0.49345000  0.76325000  0.92768000  1.0
  H  H31  1  0.50656000  0.23674000  0.07232000  1.0
  H  H32  1  0.65323000  0.61124000  0.92164000  1.0
  H  H33  1  0.34677000  0.38876000  0.07836000  1.0
  H  H34  1  0.49440000  0.90591000  0.07016000  1.0
  H  H35  1  0.50560000  0.09409000  0.92985000  1.0
  H  H36  1  0.65179000  0.96048000  0.22034000  1.0
  H  H37  1  0.34821000  0.03952000  0.77966000  1.0
  H  H38  1  0.10526000  0.66057000  0.15332000  1.0
  H  H39  1  0.89474000  0.33943000  0.84668000  1.0
  H  H40  1  0.97461000  0.60162000  0.99287000  1.0
  H  H41  1  0.02540000  0.39839000  0.00712000  1.0
  C  C42  1  0.33038000  0.70290000  0.31921000  1.0
  C  C43  1  0.66961000  0.29710000  0.68079000  1.0
  C  C44  1  0.53343000  0.66716000  0.33000000  1.0
  C  C45  1  0.46657000  0.33284000  0.67000000  1.0
  C  C46  1  0.63129000  0.52949000  0.30922000  1.0
  C  C47  1  0.36871000  0.47051000  0.69078000  1.0
  C  C48  1  0.67714000  0.48313000  0.20731000  1.0
  C  C49  1  0.32287000  0.51688000  0.79269000  1.0
  C  C50  1  0.76540000  0.35469000  0.18797000  1.0
  C  C51  1  0.23460000  0.64531000  0.81203000  1.0
  C  C52  1  0.80716000  0.26921000  0.27026000  1.0
  C  C53  1  0.19284000  0.73079000  0.72974000  1.0
  C  C54  1  0.76187000  0.31505000  0.37198000  1.0
  C  C55  1  0.23814000  0.68496000  0.62802000  1.0
  C  C56  1  0.67663000  0.44386000  0.39104000  1.0
  C  C57  1  0.32337000  0.55614000  0.60896000  1.0
  C  C58  1  0.89334000  0.12941000  0.24932000  1.0
  C  C59  1  0.10666000  0.87060000  0.75069000  1.0
  C  C60  1  0.88809000  0.69963000  0.46847000  1.0
  C  C61  1  0.11191000  0.30038000  0.53153000  1.0
  C  C62  1  0.80908000  0.66568000  0.55850000  1.0
  C  C63  1  0.19093000  0.33432000  0.44150000  1.0
  C  C64  1  0.71640000  0.76035000  0.63011000  1.0
  C  C65  1  0.28360000  0.23965000  0.36989000  1.0
  C  C66  1  0.70930000  0.88717000  0.60709000  1.0
  C  C67  1  0.29069000  0.11283000  0.39291000  1.0
  C  C68  1  0.79152000  0.91422000  0.51577000  1.0
  C  C69  1  0.20847000  0.08579000  0.48423000  1.0
  C  C70  1  0.63160000  0.72636000  0.72838000  1.0
  C  C71  1  0.36840000  0.27363000  0.27162000  1.0
  C  C72  1  0.72577000  0.75159000  0.82420000  1.0
  C  C73  1  0.27424000  0.24840000  0.17580000  1.0
  C  C74  1  0.63831000  0.71475000  0.92406000  1.0
  C  C75  1  0.36170000  0.28525000  0.07594000  1.0
  C  C76  1  0.72208000  0.74833000  0.01821000  1.0
  C  C77  1  0.27792000  0.25167000  0.98178000  1.0
  C  C78  1  0.63163000  0.85045000  0.08398000  1.0
  C  C79  1  0.36837000  0.14954000  0.91602000  1.0
  C  C80  1  0.71709000  0.88049000  0.16832000  1.0
  C  C81  1  0.28290000  0.11950000  0.83169000  1.0
  C  C82  1  0.97232000  0.71368000  0.12951000  1.0
  C  C83  1  0.02768000  0.28632000  0.87049000  1.0
  C  C84  1  0.89690000  0.68053000  0.04241000  1.0
  C  C85  1  0.10310000  0.31947000  0.95759000  1.0
  N  N86  1  0.87929000  0.82207000  0.44695000  1.0
  N  N87  1  0.12071000  0.17793000  0.55305000  1.0
  N  N88  1  0.88385000  0.81277000  0.19158000  1.0
  N  N89  1  0.11614000  0.18723000  0.80842000  1.0
  O  O90  1  0.25681000  0.82567000  0.31774000  1.0
  O  O91  1  0.74318000  0.17433000  0.68227000  1.0
  O  O92  1  0.24711000  0.62066000  0.31408000  1.0
  O  O93  1  0.75289000  0.37934000  0.68593000  1.0
  O  O94  1  0.96148000  0.08961000  0.16223000  1.0
  O  O95  1  0.03851000  0.91039000  0.83778000  1.0
  O  O96  1  0.88555000  0.05764000  0.32967000  1.0
  O  O97  1  0.11445000  0.94237000  0.67034000  1.0
