# generated using pymatgen
data_Zn4H12C48O13F12
_symmetry_space_group_name_H-M   'P 1'
_cell_length_a   28.29668311
_cell_length_b   28.29650000
_cell_length_c   28.29630000
_cell_angle_alpha   120.00690000
_cell_angle_beta   120.00599307
_cell_angle_gamma   59.99464225
_symmetry_Int_Tables_number   1
_chemical_formula_structural   Zn4H12C48O13F12
_chemical_formula_sum   'Zn8 H24 C96 O26 F24'
_cell_volume   16018.54244949
_cell_formula_units_Z   2
loop_
 _symmetry_equiv_pos_site_id
 _symmetry_equiv_pos_as_xyz
  1  'x, y, z'
loop_
 _atom_site_type_symbol
 _atom_site_label
 _atom_site_symmetry_multiplicity
 _atom_site_fract_x
 _atom_site_fract_y
 _atom_site_fract_z
 _atom_site_occupancy
  Zn  Zn0  1  0.02838000  0.02841000  0.47161000  1.0
  Zn  Zn1  1  0.91478000  0.02846000  0.47156000  1.0
  Zn  Zn2  1  0.02832000  0.02844000  0.58513000  1.0
  Zn  Zn3  1  0.02835000  0.91489000  0.47160000  1.0
  Zn  Zn4  1  0.47168000  0.47158000  0.02848000  1.0
  Zn  Zn5  1  0.47160000  0.47160000  0.91490000  1.0
  Zn  Zn6  1  0.58517000  0.47161000  0.02845000  1.0
  Zn  Zn7  1  0.47163000  0.58514000  0.02847000  1.0
  H  H8  1  0.30541000  0.77123000  0.19468000  1.0
  H  H9  1  0.30535000  0.61791000  0.19465000  1.0
  H  H10  1  0.19465000  0.88200000  0.30541000  1.0
  H  H11  1  0.19464000  0.72868000  0.30545000  1.0
  H  H12  1  0.61791000  0.30543000  0.72877000  1.0
  H  H13  1  0.77131000  0.30545000  0.88209000  1.0
  H  H14  1  0.72867000  0.19469000  0.61797000  1.0
  H  H15  1  0.88204000  0.19468000  0.77129000  1.0
  H  H16  1  0.30550000  0.30525000  0.72886000  1.0
  H  H17  1  0.30551000  0.30526000  0.88221000  1.0
  H  H18  1  0.19480000  0.19449000  0.61808000  1.0
  H  H19  1  0.19470000  0.19449000  0.77137000  1.0
  H  H20  1  0.61795000  0.77127000  0.19455000  1.0
  H  H21  1  0.77133000  0.61793000  0.19460000  1.0
  H  H22  1  0.72871000  0.88203000  0.30543000  1.0
  H  H23  1  0.88210000  0.72870000  0.30542000  1.0
  H  H24  1  0.77142000  0.30536000  0.19459000  1.0
  H  H25  1  0.61814000  0.30532000  0.19467000  1.0
  H  H26  1  0.88221000  0.19463000  0.30540000  1.0
  H  H27  1  0.72880000  0.19468000  0.30529000  1.0
  H  H28  1  0.30553000  0.61798000  0.72876000  1.0
  H  H29  1  0.30551000  0.77133000  0.88214000  1.0
  H  H30  1  0.19462000  0.72877000  0.61797000  1.0
  H  H31  1  0.19462000  0.88217000  0.77132000  1.0
  C  C32  1  0.90959000  0.09050000  0.40953000  1.0
  C  C33  1  0.90948000  0.09053000  0.59040000  1.0
  C  C34  1  0.09043000  0.09046000  0.59046000  1.0
  C  C35  1  0.09040000  0.90962000  0.59044000  1.0
  C  C36  1  0.09040000  0.90958000  0.40954000  1.0
  C  C37  1  0.90953000  0.90960000  0.40951000  1.0
  C  C38  1  0.40966000  0.40945000  0.90971000  1.0
  C  C39  1  0.59048000  0.40951000  0.90966000  1.0
  C  C40  1  0.59053000  0.40951000  0.09049000  1.0
  C  C41  1  0.59049000  0.59040000  0.09057000  1.0
  C  C42  1  0.40965000  0.59037000  0.09059000  1.0
  C  C43  1  0.40958000  0.59045000  0.90962000  1.0
  C  C44  1  0.37216000  0.62782000  0.12799000  1.0
  C  C45  1  0.35300000  0.68903000  0.14712000  1.0
  C  C46  1  0.31835000  0.72447000  0.18172000  1.0
  C  C47  1  0.30057000  0.69939000  0.19950000  1.0
  C  C48  1  0.31834000  0.63873000  0.18171000  1.0
  C  C49  1  0.35297000  0.60491000  0.14711000  1.0
  C  C50  1  0.26525000  0.73472000  0.23481000  1.0
  C  C51  1  0.23478000  0.76519000  0.26529000  1.0
  C  C52  1  0.19947000  0.80051000  0.30061000  1.0
  C  C53  1  0.18169000  0.86116000  0.31836000  1.0
  C  C54  1  0.14706000  0.89500000  0.35298000  1.0
  C  C55  1  0.12789000  0.87211000  0.37213000  1.0
  C  C56  1  0.14705000  0.81089000  0.35300000  1.0
  C  C57  1  0.18168000  0.77544000  0.31839000  1.0
  C  C58  1  0.62792000  0.37210000  0.87220000  1.0
  C  C59  1  0.60499000  0.35296000  0.81097000  1.0
  C  C60  1  0.63879000  0.31837000  0.77553000  1.0
  C  C61  1  0.69945000  0.30060000  0.80060000  1.0
  C  C62  1  0.72455000  0.31838000  0.86126000  1.0
  C  C63  1  0.68914000  0.35298000  0.89509000  1.0
  C  C64  1  0.73474000  0.26530000  0.76527000  1.0
  C  C65  1  0.76522000  0.23483000  0.73478000  1.0
  C  C66  1  0.80052000  0.19952000  0.69946000  1.0
  C  C67  1  0.77542000  0.18174000  0.63880000  1.0
  C  C68  1  0.81083000  0.14711000  0.60497000  1.0
  C  C69  1  0.87205000  0.12797000  0.62787000  1.0
  C  C70  1  0.89498000  0.14711000  0.68909000  1.0
  C  C71  1  0.86118000  0.18172000  0.72453000  1.0
  C  C72  1  0.37223000  0.37198000  0.87226000  1.0
  C  C73  1  0.35307000  0.35283000  0.81104000  1.0
  C  C74  1  0.31845000  0.31821000  0.77562000  1.0
  C  C75  1  0.30069000  0.30042000  0.80072000  1.0
  C  C76  1  0.31846000  0.31822000  0.86137000  1.0
  C  C77  1  0.35308000  0.35284000  0.89519000  1.0
  C  C78  1  0.26537000  0.26511000  0.76539000  1.0
  C  C79  1  0.23489000  0.23463000  0.73490000  1.0
  C  C80  1  0.19957000  0.19932000  0.69956000  1.0
  C  C81  1  0.18180000  0.18156000  0.63890000  1.0
  C  C82  1  0.14716000  0.14696000  0.60505000  1.0
  C  C83  1  0.12795000  0.12783000  0.62793000  1.0
  C  C84  1  0.14710000  0.14696000  0.68916000  1.0
  C  C85  1  0.18175000  0.18155000  0.72461000  1.0
  C  C86  1  0.62794000  0.62785000  0.12793000  1.0
  C  C87  1  0.60501000  0.68908000  0.14703000  1.0
  C  C88  1  0.63882000  0.72451000  0.18163000  1.0
  C  C89  1  0.69947000  0.69943000  0.19942000  1.0
  C  C90  1  0.72457000  0.63878000  0.18165000  1.0
  C  C91  1  0.68916000  0.60495000  0.14706000  1.0
  C  C92  1  0.73478000  0.73474000  0.23475000  1.0
  C  C93  1  0.76527000  0.76522000  0.26526000  1.0
  C  C94  1  0.80058000  0.80053000  0.30059000  1.0
  C  C95  1  0.77547000  0.86119000  0.31837000  1.0
  C  C96  1  0.81088000  0.89502000  0.35299000  1.0
  C  C97  1  0.87210000  0.87213000  0.37212000  1.0
  C  C98  1  0.89503000  0.81090000  0.35298000  1.0
  C  C99  1  0.86123000  0.77546000  0.31837000  1.0
  C  C100  1  0.62799000  0.37207000  0.12791000  1.0
  C  C101  1  0.68921000  0.35293000  0.14703000  1.0
  C  C102  1  0.72466000  0.31831000  0.18164000  1.0
  C  C103  1  0.69959000  0.30054000  0.19943000  1.0
  C  C104  1  0.63895000  0.31829000  0.18169000  1.0
  C  C105  1  0.60510000  0.35290000  0.14707000  1.0
  C  C106  1  0.73493000  0.26523000  0.23475000  1.0
  C  C107  1  0.76541000  0.23476000  0.26523000  1.0
  C  C108  1  0.80071000  0.19945000  0.30054000  1.0
  C  C109  1  0.86136000  0.18167000  0.31834000  1.0
  C  C110  1  0.89514000  0.14707000  0.35296000  1.0
  C  C111  1  0.87218000  0.12793000  0.37208000  1.0
  C  C112  1  0.81096000  0.14709000  0.35290000  1.0
  C  C113  1  0.77557000  0.18170000  0.31828000  1.0
  C  C114  1  0.37220000  0.62791000  0.87217000  1.0
  C  C115  1  0.35306000  0.60502000  0.81094000  1.0
  C  C116  1  0.31845000  0.63885000  0.77553000  1.0
  C  C117  1  0.30067000  0.69950000  0.80061000  1.0
  C  C118  1  0.31845000  0.72457000  0.86128000  1.0
  C  C119  1  0.35305000  0.68914000  0.89509000  1.0
  C  C120  1  0.26533000  0.73482000  0.76530000  1.0
  C  C121  1  0.23482000  0.76531000  0.73481000  1.0
  C  C122  1  0.19948000  0.80063000  0.69949000  1.0
  C  C123  1  0.18167000  0.77554000  0.63883000  1.0
  C  C124  1  0.14703000  0.81095000  0.60501000  1.0
  C  C125  1  0.12786000  0.87218000  0.62790000  1.0
  C  C126  1  0.14703000  0.89509000  0.68912000  1.0
  C  C127  1  0.18167000  0.86129000  0.72456000  1.0
  O  O128  1  0.99994000  0.00006000  0.49996000  1.0
  O  O129  1  0.96413000  0.07608000  0.42394000  1.0
  O  O130  1  0.88373000  0.07614000  0.53586000  1.0
  O  O131  1  0.07600000  0.07609000  0.61619000  1.0
  O  O132  1  0.88381000  0.07612000  0.42390000  1.0
  O  O133  1  0.07605000  0.07609000  0.53592000  1.0
  O  O134  1  0.96402000  0.07612000  0.61616000  1.0
  O  O135  1  0.07600000  0.96416000  0.61619000  1.0
  O  O136  1  0.07601000  0.88382000  0.42392000  1.0
  O  O137  1  0.07603000  0.88385000  0.53590000  1.0
  O  O138  1  0.07604000  0.96411000  0.42394000  1.0
  O  O139  1  0.88377000  0.96413000  0.42387000  1.0
  O  O140  1  0.96406000  0.88384000  0.42391000  1.0
  O  O141  1  0.50001000  0.49999000  0.00007000  1.0
  O  O142  1  0.42406000  0.42385000  0.96425000  1.0
  O  O143  1  0.53595000  0.42389000  0.88391000  1.0
  O  O144  1  0.61625000  0.42393000  0.07609000  1.0
  O  O145  1  0.42402000  0.42386000  0.88395000  1.0
  O  O146  1  0.53600000  0.42390000  0.07612000  1.0
  O  O147  1  0.61625000  0.42389000  0.96420000  1.0
  O  O148  1  0.61626000  0.53586000  0.07619000  1.0
  O  O149  1  0.42404000  0.61612000  0.07620000  1.0
  O  O150  1  0.53596000  0.61615000  0.07620000  1.0
  O  O151  1  0.42407000  0.53583000  0.07622000  1.0
  O  O152  1  0.42393000  0.53591000  0.88385000  1.0
  O  O153  1  0.42396000  0.61619000  0.96417000  1.0
  F  F154  1  0.36819000  0.71646000  0.13193000  1.0
  F  F155  1  0.36815000  0.54709000  0.13190000  1.0
  F  F156  1  0.13186000  0.95282000  0.36815000  1.0
  F  F157  1  0.13186000  0.78347000  0.36821000  1.0
  F  F158  1  0.54717000  0.36815000  0.78357000  1.0
  F  F159  1  0.71659000  0.36817000  0.95291000  1.0
  F  F160  1  0.78339000  0.13193000  0.54716000  1.0
  F  F161  1  0.95280000  0.13191000  0.71651000  1.0
  F  F162  1  0.36827000  0.36802000  0.78362000  1.0
  F  F163  1  0.36828000  0.36803000  0.95301000  1.0
  F  F164  1  0.13199000  0.13177000  0.54724000  1.0
  F  F165  1  0.13188000  0.13176000  0.71656000  1.0
  F  F166  1  0.54719000  0.71649000  0.13181000  1.0
  F  F167  1  0.71660000  0.54713000  0.13186000  1.0
  F  F168  1  0.78344000  0.95283000  0.36819000  1.0
  F  F169  1  0.95285000  0.78348000  0.36818000  1.0
  F  F170  1  0.71660000  0.36814000  0.13180000  1.0
  F  F171  1  0.54728000  0.36809000  0.13189000  1.0
  F  F172  1  0.95297000  0.13185000  0.36818000  1.0
  F  F173  1  0.78350000  0.13191000  0.36807000  1.0
  F  F174  1  0.36828000  0.54720000  0.78350000  1.0
  F  F175  1  0.36825000  0.71657000  0.95291000  1.0
  F  F176  1  0.13182000  0.78351000  0.54719000  1.0
  F  F177  1  0.13182000  0.95292000  0.71655000  1.0
