# generated using pymatgen
data_Cu3H44C40(NO8)2
_symmetry_space_group_name_H-M   'P 1'
_cell_length_a   10.13230000
_cell_length_b   16.55130000
_cell_length_c   16.95370438
_cell_angle_alpha   68.11123305
_cell_angle_beta   72.65218643
_cell_angle_gamma   89.98320000
_symmetry_Int_Tables_number   1
_chemical_formula_structural   Cu3H44C40(NO8)2
_chemical_formula_sum   'Cu6 H88 C80 N4 O32'
_cell_volume   2498.40316089
_cell_formula_units_Z   2
loop_
 _symmetry_equiv_pos_site_id
 _symmetry_equiv_pos_as_xyz
  1  'x, y, z'
loop_
 _atom_site_type_symbol
 _atom_site_label
 _atom_site_symmetry_multiplicity
 _atom_site_fract_x
 _atom_site_fract_y
 _atom_site_fract_z
 _atom_site_occupancy
  Cu  Cu0  1  0.00209000  0.50009000  0.49950000  1.0
  Cu  Cu1  1  0.50117000  0.99986000  0.50041000  1.0
  Cu  Cu2  1  0.80122000  0.62831000  0.54875000  1.0
  Cu  Cu3  1  0.35019000  0.87185000  0.45127000  1.0
  Cu  Cu4  1  0.19852000  0.37167000  0.45139000  1.0
  Cu  Cu5  1  0.64963000  0.12825000  0.54863000  1.0
  H  H6  1  0.04041000  0.37606000  0.76612000  1.0
  H  H7  1  0.80653000  0.12350000  0.23429000  1.0
  H  H8  1  0.96122000  0.62432000  0.23389000  1.0
  H  H9  1  0.19489000  0.87656000  0.76555000  1.0
  H  H10  1  0.02682000  0.31256000  0.92627000  1.0
  H  H11  1  0.95293000  0.18717000  0.07413000  1.0
  H  H12  1  0.97381000  0.68767000  0.07392000  1.0
  H  H13  1  0.04723000  0.81303000  0.92536000  1.0
  H  H14  1  0.73001000  0.48736000  0.98052000  1.0
  H  H15  1  0.71013000  0.01300000  0.01929000  1.0
  H  H16  1  0.26940000  0.51236000  0.01932000  1.0
  H  H17  1  0.28907000  0.98695000  0.98112000  1.0
  H  H18  1  0.74596000  0.55101000  0.81920000  1.0
  H  H19  1  0.56514000  0.94909000  0.18066000  1.0
  H  H20  1  0.25415000  0.44873000  0.18051000  1.0
  H  H21  1  0.43506000  0.05086000  0.82000000  1.0
  H  H22  1  0.92395000  0.47155000  0.11854000  1.0
  H  H23  1  0.04315000  0.02871000  0.88130000  1.0
  H  H24  1  0.07564000  0.52849000  0.88145000  1.0
  H  H25  1  0.95668000  0.97126000  0.11860000  1.0
  H  H26  1  0.74431000  0.50400000  0.23781000  1.0
  H  H27  1  0.98272000  0.99645000  0.76191000  1.0
  H  H28  1  0.25528000  0.49606000  0.76216000  1.0
  H  H29  1  0.01747000  0.00360000  0.23787000  1.0
  H  H30  1  0.44072000  0.31712000  0.24643000  1.0
  H  H31  1  0.68734000  0.18322000  0.75347000  1.0
  H  H32  1  0.55891000  0.68294000  0.75348000  1.0
  H  H33  1  0.31233000  0.81662000  0.24657000  1.0
  H  H34  1  0.61792000  0.28835000  0.12315000  1.0
  H  H35  1  0.74124000  0.21170000  0.87697000  1.0
  H  H36  1  0.38172000  0.71175000  0.87675000  1.0
  H  H37  1  0.25828000  0.78793000  0.12324000  1.0
  H  H38  1  0.11490000  0.68104000  0.34658000  1.0
  H  H39  1  0.46141000  0.81921000  0.65366000  1.0
  H  H40  1  0.88498000  0.31959000  0.65355000  1.0
  H  H41  1  0.53830000  0.18062000  0.34629000  1.0
  H  H42  1  0.04995000  0.75349000  0.40027000  1.0
  H  H43  1  0.45055000  0.74642000  0.60028000  1.0
  H  H44  1  0.94901000  0.24644000  0.60051000  1.0
  H  H45  1  0.54939000  0.25344000  0.39965000  1.0
  H  H46  1  0.91392000  0.76250000  0.29965000  1.0
  H  H47  1  0.21380000  0.73774000  0.70025000  1.0
  H  H48  1  0.08566000  0.23814000  0.70047000  1.0
  H  H49  1  0.78562000  0.26174000  0.29955000  1.0
  H  H50  1  0.89855000  0.64627000  0.33437000  1.0
  H  H51  1  0.23312000  0.85389000  0.66565000  1.0
  H  H52  1  0.10122000  0.35446000  0.66520000  1.0
  H  H53  1  0.76611000  0.14539000  0.33493000  1.0
  H  H54  1  0.69905000  0.80686000  0.35495000  1.0
  H  H55  1  0.05498000  0.69324000  0.64518000  1.0
  H  H56  1  0.30010000  0.19317000  0.64539000  1.0
  H  H57  1  0.94497000  0.30667000  0.35470000  1.0
  H  H58  1  0.60495000  0.75712000  0.47075000  1.0
  H  H59  1  0.07581000  0.74278000  0.52942000  1.0
  H  H60  1  0.39460000  0.24277000  0.52961000  1.0
  H  H61  1  0.92404000  0.25717000  0.47045000  1.0
  H  H62  1  0.90168000  0.85569000  0.38777000  1.0
  H  H63  1  0.29026000  0.64451000  0.61218000  1.0
  H  H64  1  0.09767000  0.14458000  0.61228000  1.0
  H  H65  1  0.70967000  0.35553000  0.38769000  1.0
  H  H66  1  0.74427000  0.89089000  0.43842000  1.0
  H  H67  1  0.18315000  0.60916000  0.56176000  1.0
  H  H68  1  0.25502000  0.10907000  0.56201000  1.0
  H  H69  1  0.81679000  0.39083000  0.43813000  1.0
  H  H70  1  0.60354000  0.49661000  0.44432000  1.0
  H  H71  1  0.04751000  0.00347000  0.55543000  1.0
  H  H72  1  0.39773000  0.50336000  0.55517000  1.0
  H  H73  1  0.95280000  0.99663000  0.44486000  1.0
  H  H74  1  0.78400000  0.53153000  0.39392000  1.0
  H  H75  1  0.17759000  0.96856000  0.60593000  1.0
  H  H76  1  0.21726000  0.46878000  0.60628000  1.0
  H  H77  1  0.82337000  0.03122000  0.39372000  1.0
  H  H78  1  0.64488000  0.65478000  0.35766000  1.0
  H  H79  1  0.00264000  0.84517000  0.64200000  1.0
  H  H80  1  0.35521000  0.34508000  0.64240000  1.0
  H  H81  1  0.99726000  0.15491000  0.35785000  1.0
  H  H82  1  0.55832000  0.63062000  0.47253000  1.0
  H  H83  1  0.03110000  0.86937000  0.52709000  1.0
  H  H84  1  0.44169000  0.36909000  0.52757000  1.0
  H  H85  1  0.96888000  0.13073000  0.47275000  1.0
  H  H86  1  0.73748000  0.77857000  0.57151000  1.0
  H  H87  1  0.30898000  0.72199000  0.42845000  1.0
  H  H88  1  0.26249000  0.22142000  0.42865000  1.0
  H  H89  1  0.69114000  0.27832000  0.57135000  1.0
  H  H90  1  0.63632000  0.49285000  0.58053000  1.0
  H  H91  1  0.21639000  0.00701000  0.41929000  1.0
  H  H92  1  0.36319000  0.50706000  0.41951000  1.0
  H  H93  1  0.78278000  0.99295000  0.58050000  1.0
  C  C94  1  0.90116000  0.50764000  0.68492000  1.0
  C  C95  1  0.58557000  0.99247000  0.31505000  1.0
  C  C96  1  0.10062000  0.49259000  0.31473000  1.0
  C  C97  1  0.41509000  0.00755000  0.68526000  1.0
  C  C98  1  0.89445000  0.46831000  0.78142000  1.0
  C  C99  1  0.67566000  0.03162000  0.21868000  1.0
  C  C100  1  0.10648000  0.53176000  0.21841000  1.0
  C  C101  1  0.32489000  0.96844000  0.78158000  1.0
  C  C102  1  0.97264000  0.40073000  0.81276000  1.0
  C  C103  1  0.78529000  0.09899000  0.18754000  1.0
  C  C104  1  0.02844000  0.59947000  0.18721000  1.0
  C  C105  1  0.21545000  0.90103000  0.81249000  1.0
  C  C106  1  0.96550000  0.36476000  0.90237000  1.0
  C  C107  1  0.86781000  0.13498000  0.09797000  1.0
  C  C108  1  0.03503000  0.63537000  0.09769000  1.0
  C  C109  1  0.13249000  0.86500000  0.90193000  1.0
  C  C110  1  0.87804000  0.39611000  0.96288000  1.0
  C  C111  1  0.84083000  0.10379000  0.03733000  1.0
  C  C112  1  0.12193000  0.60387000  0.03713000  1.0
  C  C113  1  0.15909000  0.89608000  0.96274000  1.0
  C  C114  1  0.79784000  0.46302000  0.93338000  1.0
  C  C115  1  0.73103000  0.03708000  0.06659000  1.0
  C  C116  1  0.20195000  0.53680000  0.06651000  1.0
  C  C117  1  0.26875000  0.96281000  0.93371000  1.0
  C  C118  1  0.80712000  0.49864000  0.84312000  1.0
  C  C119  1  0.65013000  0.00141000  0.15682000  1.0
  C  C120  1  0.19315000  0.50119000  0.15667000  1.0
  C  C121  1  0.35004000  0.99860000  0.84357000  1.0
  C  C122  1  0.77925000  0.37886000  0.11488000  1.0
  C  C123  1  0.89433000  0.12116000  0.88523000  1.0
  C  C124  1  0.22044000  0.62110000  0.88518000  1.0
  C  C125  1  0.10528000  0.87862000  0.11479000  1.0
  C  C126  1  0.81744000  0.43894000  0.14639000  1.0
  C  C127  1  0.96427000  0.06125000  0.85353000  1.0
  C  C128  1  0.18219000  0.56108000  0.85362000  1.0
  C  C129  1  0.03551000  0.93863000  0.14637000  1.0
  C  C130  1  0.71745000  0.45633000  0.21305000  1.0
  C  C131  1  0.93087000  0.04396000  0.78682000  1.0
  C  C132  1  0.28213000  0.54370000  0.78696000  1.0
  C  C133  1  0.06902000  0.95597000  0.21303000  1.0
  C  C134  1  0.58193000  0.41206000  0.24969000  1.0
  C  C135  1  0.83183000  0.08821000  0.75021000  1.0
  C  C136  1  0.41772000  0.58791000  0.75035000  1.0
  C  C137  1  0.16803000  0.91170000  0.24967000  1.0
  C  C138  1  0.54623000  0.35155000  0.21712000  1.0
  C  C139  1  0.76348000  0.14864000  0.78284000  1.0
  C  C140  1  0.45343000  0.64844000  0.78287000  1.0
  C  C141  1  0.23619000  0.85115000  0.21718000  1.0
  C  C142  1  0.64409000  0.33519000  0.14908000  1.0
  C  C143  1  0.79328000  0.16487000  0.85100000  1.0
  C  C144  1  0.35556000  0.66483000  0.85090000  1.0
  C  C145  1  0.20625000  0.83484000  0.14910000  1.0
  C  C146  1  0.47668000  0.42660000  0.32538000  1.0
  C  C147  1  0.80215000  0.07361000  0.67454000  1.0
  C  C148  1  0.52290000  0.57329000  0.67467000  1.0
  C  C149  1  0.19762000  0.92646000  0.32527000  1.0
  C  C150  1  0.02278000  0.69239000  0.39376000  1.0
  C  C151  1  0.41676000  0.80765000  0.60645000  1.0
  C  C152  1  0.97666000  0.30778000  0.60642000  1.0
  C  C153  1  0.58288000  0.19216000  0.39356000  1.0
  C  C154  1  0.90096000  0.69971000  0.35706000  1.0
  C  C155  1  0.25834000  0.80051000  0.64290000  1.0
  C  C156  1  0.09874000  0.30078000  0.64285000  1.0
  C  C157  1  0.74127000  0.19911000  0.35721000  1.0
  C  C158  1  0.71000000  0.77238000  0.42202000  1.0
  C  C159  1  0.13256000  0.72771000  0.57798000  1.0
  C  C160  1  0.28944000  0.22766000  0.57822000  1.0
  C  C161  1  0.86733000  0.27227000  0.42187000  1.0
  C  C162  1  0.79899000  0.83334000  0.43961000  1.0
  C  C163  1  0.23919000  0.66676000  0.56038000  1.0
  C  C164  1  0.20049000  0.16673000  0.56058000  1.0
  C  C165  1  0.76079000  0.33325000  0.43946000  1.0
  C  C166  1  0.69109000  0.53453000  0.44610000  1.0
  C  C167  1  0.13691000  0.96555000  0.55370000  1.0
  C  C168  1  0.30959000  0.46549000  0.55394000  1.0
  C  C169  1  0.86339000  0.03448000  0.44610000  1.0
  C  C170  1  0.65778000  0.62864000  0.42488000  1.0
  C  C171  1  0.08278000  0.87141000  0.57485000  1.0
  C  C172  1  0.34232000  0.37127000  0.57519000  1.0
  C  C173  1  0.91719000  0.12864000  0.42502000  1.0
  N  N174  1  0.76473000  0.68800000  0.42799000  1.0
  N  N175  1  0.19311000  0.81218000  0.57184000  1.0
  N  N176  1  0.23502000  0.31216000  0.57205000  1.0
  N  N177  1  0.80674000  0.18777000  0.42807000  1.0
  O  O178  1  0.83765000  0.57489000  0.66318000  1.0
  O  O179  1  0.50053000  0.92521000  0.33672000  1.0
  O  O180  1  0.16252000  0.42469000  0.33666000  1.0
  O  O181  1  0.49929000  0.07520000  0.66338000  1.0
  O  O182  1  0.96801000  0.47144000  0.63284000  1.0
  O  O183  1  0.59988000  0.02890000  0.36705000  1.0
  O  O184  1  0.03617000  0.52978000  0.36646000  1.0
  O  O185  1  0.40182000  0.97058000  0.63343000  1.0
  O  O186  1  0.88038000  0.35984000  0.04984000  1.0
  O  O187  1  0.93025000  0.14002000  0.95045000  1.0
  O  O188  1  0.11935000  0.64014000  0.95023000  1.0
  O  O189  1  0.06943000  0.85978000  0.04954000  1.0
  O  O190  1  0.38421000  0.35969000  0.37871000  1.0
  O  O191  1  0.76265000  0.14045000  0.62126000  1.0
  O  O192  1  0.61559000  0.64012000  0.62141000  1.0
  O  O193  1  0.23734000  0.85975000  0.37859000  1.0
  O  O194  1  0.48600667  0.49885000  0.33333333  1.0
  O  O195  1  0.81959000  0.00135000  0.66659000  1.0
  O  O196  1  0.51331333  0.50109000  0.66666667  1.0
  O  O197  1  0.17974000  0.99870000  0.33314000  1.0
  O  O198  1  0.99005000  0.62306000  0.47980000  1.0
  O  O199  1  0.47043000  0.87677000  0.52024000  1.0
  O  O200  1  0.00866000  0.37647000  0.51990000  1.0
  O  O201  1  0.52848000  0.12336000  0.47999000  1.0
  O  O202  1  0.82627000  0.79240000  0.52323000  1.0
  O  O203  1  0.34974000  0.70761000  0.47673000  1.0
  O  O204  1  0.17358000  0.20758000  0.47684000  1.0
  O  O205  1  0.65026000  0.29241000  0.52316000  1.0
  O  O206  1  0.71974000  0.49508000  0.52881000  1.0
  O  O207  1  0.24808000  0.00501000  0.47100000  1.0
  O  O208  1  0.28015000  0.50489000  0.47144000  1.0
  O  O209  1  0.75165000  0.99499000  0.52856000  1.0
