# generated using pymatgen
data_CdH14C12N4O5
_symmetry_space_group_name_H-M   'P 1'
_cell_length_a   8.44280000
_cell_length_b   9.67479000
_cell_length_c   11.32360000
_cell_angle_alpha   110.24900000
_cell_angle_beta   89.99840000
_cell_angle_gamma   89.99980000
_symmetry_Int_Tables_number   1
_chemical_formula_structural   CdH14C12N4O5
_chemical_formula_sum   'Cd2 H28 C24 N8 O10'
_cell_volume   867.77429678
_cell_formula_units_Z   2
loop_
 _symmetry_equiv_pos_site_id
 _symmetry_equiv_pos_as_xyz
  1  'x, y, z'
loop_
 _atom_site_type_symbol
 _atom_site_label
 _atom_site_symmetry_multiplicity
 _atom_site_fract_x
 _atom_site_fract_y
 _atom_site_fract_z
 _atom_site_occupancy
  Cd  Cd0  1  0.49720000  0.48907000  0.89866000  1.0
  Cd  Cd1  1  0.99718000  0.51094000  0.10133000  1.0
  H  H2  1  0.71563000  0.55249000  0.76208000  1.0
  H  H3  1  0.21561000  0.44750000  0.23791000  1.0
  H  H4  1  0.81258000  0.43238000  0.79792000  1.0
  H  H5  1  0.31255000  0.56761000  0.20208000  1.0
  H  H6  1  0.53413000  0.38810000  0.58478000  1.0
  H  H7  1  0.03410000  0.61191000  0.41520000  1.0
  H  H8  1  0.36361000  0.32499000  0.39165000  1.0
  H  H9  1  0.86359000  0.67501000  0.60835000  1.0
  H  H10  1  0.06980000  0.31865000  0.41635000  1.0
  H  H11  1  0.56978000  0.68135000  0.58366000  1.0
  H  H12  1  0.95613000  0.36670000  0.63306000  1.0
  H  H13  1  0.45610000  0.63331000  0.36696000  1.0
  H  H14  1  0.72849000  0.93726000  0.72261000  1.0
  H  H15  1  0.22847000  0.06274000  0.27738000  1.0
  H  H16  1  0.68679000  0.20286000  0.74531000  1.0
  H  H17  1  0.18677000  0.79713000  0.25468000  1.0
  H  H18  1  0.37294000  0.26642000  0.04061000  1.0
  H  H19  1  0.87296000  0.73358000  0.95938000  1.0
  H  H20  1  0.39460000  0.00135000  0.02503000  1.0
  H  H21  1  0.89462000  0.99865000  0.97496000  1.0
  H  H22  1  0.64259000  0.19194000  0.23760000  1.0
  H  H23  1  0.14260000  0.80804000  0.76242000  1.0
  H  H24  1  0.79631000  0.20841000  0.32993000  1.0
  H  H25  1  0.29631000  0.79156000  0.67007000  1.0
  H  H26  1  0.69368000  0.98712000  0.31802000  1.0
  H  H27  1  0.19369000  0.01287000  0.68199000  1.0
  H  H28  1  0.60999000  0.10153000  0.44624000  1.0
  H  H29  1  0.10998000  0.89847000  0.55378000  1.0
  C  C30  1  0.40538000  0.38239000  0.59081000  1.0
  C  C31  1  0.90536000  0.61761000  0.40918000  1.0
  C  C32  1  0.31012000  0.34784000  0.48384000  1.0
  C  C33  1  0.81010000  0.65216000  0.51615000  1.0
  C  C34  1  0.14654000  0.34285000  0.49834000  1.0
  C  C35  1  0.64652000  0.65715000  0.50168000  1.0
  C  C36  1  0.08337000  0.36945000  0.61794000  1.0
  C  C37  1  0.58335000  0.63055000  0.38207000  1.0
  C  C38  1  0.18719000  0.40215000  0.72010000  1.0
  C  C39  1  0.68717000  0.59786000  0.27990000  1.0
  C  C40  1  0.12795000  0.43071000  0.85212000  1.0
  C  C41  1  0.62793000  0.56929000  0.14788000  1.0
  C  C42  1  0.58208000  0.78884000  0.85709000  1.0
  C  C43  1  0.08207000  0.21117000  0.14291000  1.0
  C  C44  1  0.56153000  0.94897000  0.87101000  1.0
  C  C45  1  0.06153000  0.05104000  0.12898000  1.0
  C  C46  1  0.64609000  0.00642000  0.79213000  1.0
  C  C47  1  0.14608000  0.99359000  0.20786000  1.0
  C  C48  1  0.62491000  0.15346000  0.80532000  1.0
  C  C49  1  0.12490000  0.84655000  0.19468000  1.0
  C  C50  1  0.44883000  0.18960000  0.97024000  1.0
  C  C51  1  0.94885000  0.81040000  0.02974000  1.0
  C  C52  1  0.46104000  0.04281000  0.96183000  1.0
  C  C53  1  0.96105000  0.95720000  0.03816000  1.0
  N  N54  1  0.34516000  0.40987000  0.70634000  1.0
  N  N55  1  0.84513000  0.59014000  0.29366000  1.0
  N  N56  1  0.52825000  0.24371000  0.89269000  1.0
  N  N57  1  0.02825000  0.75629000  0.10729000  1.0
  N  N58  1  0.67510000  0.20263000  0.32717000  1.0
  N  N59  1  0.17510000  0.79735000  0.67284000  1.0
  N  N60  1  0.61762000  0.07472000  0.35096000  1.0
  N  N61  1  0.11762000  0.92527000  0.64906000  1.0
  O  O62  1  0.22701000  0.46309000  0.94218000  1.0
  O  O63  1  0.72698000  0.53691000  0.05782000  1.0
  O  O64  1  0.71407000  0.44479000  0.75395000  1.0
  O  O65  1  0.21405000  0.55521000  0.24604000  1.0
  O  O66  1  0.98036000  0.42209000  0.87061000  1.0
  O  O67  1  0.48034000  0.57793000  0.12940000  1.0
  O  O68  1  0.47977000  0.73305000  0.90986000  1.0
  O  O69  1  0.97976000  0.26696000  0.09015000  1.0
  O  O70  1  0.70068000  0.72445000  0.79234000  1.0
  O  O71  1  0.20066000  0.27555000  0.20767000  1.0
