# generated using pymatgen
data_DyPH9C8NO9
_symmetry_space_group_name_H-M   'P 1'
_cell_length_a   9.47330000
_cell_length_b   10.48200000
_cell_length_c   15.55070000
_cell_angle_alpha   89.99990000
_cell_angle_beta   102.45800000
_cell_angle_gamma   89.99990000
_symmetry_Int_Tables_number   1
_chemical_formula_structural   DyPH9C8NO9
_chemical_formula_sum   'Dy4 P4 H36 C32 N4 O36'
_cell_volume   1507.81256288
_cell_formula_units_Z   4
loop_
 _symmetry_equiv_pos_site_id
 _symmetry_equiv_pos_as_xyz
  1  'x, y, z'
loop_
 _atom_site_type_symbol
 _atom_site_label
 _atom_site_symmetry_multiplicity
 _atom_site_fract_x
 _atom_site_fract_y
 _atom_site_fract_z
 _atom_site_occupancy
  Dy  Dy0  1  0.21732000  0.10998000  0.39389000  1.0
  Dy  Dy1  1  0.28268000  0.60998000  0.10611000  1.0
  Dy  Dy2  1  0.78267000  0.89002000  0.60611000  1.0
  Dy  Dy3  1  0.71732000  0.39001000  0.89389000  1.0
  P  P4  1  0.16543000  0.85597000  0.23322000  1.0
  P  P5  1  0.33457000  0.35597000  0.26678000  1.0
  P  P6  1  0.83457000  0.14402000  0.76677000  1.0
  P  P7  1  0.66543000  0.64402000  0.73322000  1.0
  H  H8  1  0.33052000  0.87212000  0.92718000  1.0
  H  H9  1  0.16949000  0.37212000  0.57283000  1.0
  H  H10  1  0.66949000  0.12788000  0.07282000  1.0
  H  H11  1  0.83051000  0.62788000  0.42718000  1.0
  H  H12  1  0.39608000  0.10750000  0.92271000  1.0
  H  H13  1  0.10392000  0.60749000  0.57729000  1.0
  H  H14  1  0.60392000  0.89251000  0.07728000  1.0
  H  H15  1  0.89608000  0.39251000  0.42271000  1.0
  H  H16  1  0.29982000  0.25919000  0.02218000  1.0
  H  H17  1  0.20018000  0.75918000  0.47783000  1.0
  H  H18  1  0.70018000  0.74082000  0.97782000  1.0
  H  H19  1  0.79982000  0.24082000  0.52218000  1.0
  H  H20  1  0.14966000  0.17140000  0.12191000  1.0
  H  H21  1  0.35035000  0.67140000  0.37809000  1.0
  H  H22  1  0.85035000  0.82861000  0.87808000  1.0
  H  H23  1  0.64965000  0.32860000  0.62192000  1.0
  H  H24  1  0.99746000  0.84285000  0.09503000  1.0
  H  H25  1  0.50255000  0.34284000  0.40498000  1.0
  H  H26  1  0.00255000  0.15716000  0.90497000  1.0
  H  H27  1  0.49746000  0.65715000  0.59503000  1.0
  H  H28  1  0.98866000  0.99444000  0.14807000  1.0
  H  H29  1  0.51135000  0.49444000  0.35194000  1.0
  H  H30  1  0.01135000  0.00557000  0.85193000  1.0
  H  H31  1  0.48865000  0.50556000  0.64807000  1.0
  H  H32  1  0.03270000  0.83662000  0.32844000  1.0
  H  H33  1  0.46730000  0.33662000  0.17155000  1.0
  H  H34  1  0.96730000  0.16337000  0.67155000  1.0
  H  H35  1  0.53270000  0.66337000  0.82845000  1.0
  H  H36  1  0.99418000  0.24209000  0.26139000  1.0
  H  H37  1  0.50582000  0.74209000  0.23861000  1.0
  H  H38  1  0.00583000  0.75791000  0.73861000  1.0
  H  H39  1  0.49417000  0.25790000  0.76138000  1.0
  H  H40  1  0.87674000  0.15925000  0.29672000  1.0
  H  H41  1  0.62326000  0.65924000  0.20327000  1.0
  H  H42  1  0.12326000  0.84075000  0.70327000  1.0
  H  H43  1  0.37674000  0.34075000  0.79673000  1.0
  C  C44  1  0.29290000  0.94587000  0.96603000  1.0
  C  C45  1  0.20710000  0.44586000  0.53397000  1.0
  C  C46  1  0.70710000  0.05414000  0.03397000  1.0
  C  C47  1  0.79290000  0.55414000  0.46603000  1.0
  C  C48  1  0.32768000  0.07399000  0.96602000  1.0
  C  C49  1  0.17233000  0.57399000  0.53399000  1.0
  C  C50  1  0.67233000  0.92601000  0.03398000  1.0
  C  C51  1  0.82767000  0.42601000  0.46602000  1.0
  C  C52  1  0.27577000  0.15775000  0.02180000  1.0
  C  C53  1  0.22423000  0.65775000  0.47820000  1.0
  C  C54  1  0.72424000  0.84226000  0.97820000  1.0
  C  C55  1  0.77577000  0.34225000  0.52180000  1.0
  C  C56  1  0.19016000  0.10941000  0.07647000  1.0
  C  C57  1  0.30985000  0.60941000  0.42354000  1.0
  C  C58  1  0.80985000  0.89060000  0.92353000  1.0
  C  C59  1  0.69015000  0.39059000  0.57647000  1.0
  C  C60  1  0.15384000  0.98051000  0.07512000  1.0
  C  C61  1  0.34616000  0.48051000  0.42489000  1.0
  C  C62  1  0.84617000  0.01949000  0.92488000  1.0
  C  C63  1  0.65384000  0.51949000  0.57512000  1.0
  C  C64  1  0.06087000  0.92204000  0.13013000  1.0
  C  C65  1  0.43914000  0.42203000  0.36987000  1.0
  C  C66  1  0.93914000  0.07797000  0.86987000  1.0
  C  C67  1  0.56086000  0.57796000  0.63013000  1.0
  C  C68  1  0.54254000  0.03469000  0.46924000  1.0
  C  C69  1  0.95746000  0.53470000  0.03077000  1.0
  C  C70  1  0.45746000  0.96531000  0.53077000  1.0
  C  C71  1  0.04255000  0.46531000  0.96923000  1.0
  C  C72  1  0.01140000  0.06128000  0.52838000  1.0
  C  C73  1  0.48858000  0.56128000  0.97162000  1.0
  C  C74  1  0.98858000  0.93871000  0.47162000  1.0
  C  C75  1  0.51140000  0.43872000  0.02838000  1.0
  N  N76  1  0.20714000  0.90078000  0.01931000  1.0
  N  N77  1  0.29286000  0.40078000  0.48069000  1.0
  N  N78  1  0.79287000  0.09922000  0.98068000  1.0
  N  N79  1  0.70713000  0.59922000  0.51932000  1.0
  O  O80  1  0.23441000  0.96545000  0.29104000  1.0
  O  O81  1  0.26559000  0.46545000  0.20896000  1.0
  O  O82  1  0.76559000  0.03455000  0.70897000  1.0
  O  O83  1  0.73441000  0.53455000  0.79104000  1.0
  O  O84  1  0.04950000  0.78505000  0.27623000  1.0
  O  O85  1  0.45050000  0.28505000  0.22377000  1.0
  O  O86  1  0.95049000  0.21495000  0.72377000  1.0
  O  O87  1  0.54951000  0.71494000  0.77624000  1.0
  O  O88  1  0.27251000  0.76041000  0.21058000  1.0
  O  O89  1  0.22749000  0.26041000  0.28942000  1.0
  O  O90  1  0.72749000  0.23959000  0.78942000  1.0
  O  O91  1  0.77251000  0.73958000  0.71058000  1.0
  O  O92  1  0.17081000  0.77913000  0.01482000  1.0
  O  O93  1  0.32919000  0.27913000  0.48518000  1.0
  O  O94  1  0.82919000  0.22087000  0.98518000  1.0
  O  O95  1  0.67081000  0.72087000  0.51482000  1.0
  O  O96  1  0.67934000  0.02248000  0.48882000  1.0
  O  O97  1  0.82065000  0.52248000  0.01118000  1.0
  O  O98  1  0.32065000  0.97752000  0.51120000  1.0
  O  O99  1  0.17933000  0.47752000  0.98881000  1.0
  O  O100  1  0.46997000  0.09718000  0.40570000  1.0
  O  O101  1  0.03002000  0.59718000  0.09430000  1.0
  O  O102  1  0.53002000  0.90282000  0.59431000  1.0
  O  O103  1  0.96997000  0.40282000  0.90569000  1.0
  O  O104  1  0.07402000  0.15425000  0.50184000  1.0
  O  O105  1  0.42597000  0.65424000  0.99815000  1.0
  O  O106  1  0.92596000  0.84576000  0.49816000  1.0
  O  O107  1  0.57404000  0.34575000  0.00184000  1.0
  O  O108  1  0.96257000  0.05619000  0.59850000  1.0
  O  O109  1  0.53741000  0.55618000  0.90149000  1.0
  O  O110  1  0.03742000  0.94380000  0.40150000  1.0
  O  O111  1  0.46257000  0.44380000  0.09850000  1.0
  O  O112  1  0.97834000  0.18146000  0.30591000  1.0
  O  O113  1  0.52166000  0.68146000  0.19409000  1.0
  O  O114  1  0.02166000  0.81855000  0.69409000  1.0
  O  O115  1  0.47834000  0.31854000  0.80591000  1.0
