# generated using pymatgen
data_CoH13C14(N3O2)2
_symmetry_space_group_name_H-M   'P 1'
_cell_length_a   9.25648000
_cell_length_b   9.48069000
_cell_length_c   10.65540000
_cell_angle_alpha   65.84150000
_cell_angle_beta   67.33370000
_cell_angle_gamma   89.12410000
_symmetry_Int_Tables_number   1
_chemical_formula_structural   CoH13C14(N3O2)2
_chemical_formula_sum   'Co2 H26 C28 N12 O8'
_cell_volume   775.95260428
_cell_formula_units_Z   2
loop_
 _symmetry_equiv_pos_site_id
 _symmetry_equiv_pos_as_xyz
  1  'x, y, z'
loop_
 _atom_site_type_symbol
 _atom_site_label
 _atom_site_symmetry_multiplicity
 _atom_site_fract_x
 _atom_site_fract_y
 _atom_site_fract_z
 _atom_site_occupancy
  Co  Co0  1  0.62485000  0.67656000  0.23429000  1.0
  Co  Co1  1  0.37513000  0.32344000  0.76572000  1.0
  H  H2  1  0.38175000  0.86971000  0.12621000  1.0
  H  H3  1  0.61824000  0.13029000  0.87379000  1.0
  H  H4  1  0.71312000  0.85898000  0.87909000  1.0
  H  H5  1  0.28689000  0.14101000  0.12091000  1.0
  H  H6  1  0.70355000  0.49752000  0.50951000  1.0
  H  H7  1  0.29644000  0.50247000  0.49053000  1.0
  H  H8  1  0.20323000  0.80954000  0.01686000  1.0
  H  H9  1  0.79678000  0.19047000  0.98313000  1.0
  H  H10  1  0.22807000  0.50526000  0.04936000  1.0
  H  H11  1  0.77195000  0.49475000  0.95062000  1.0
  H  H12  1  0.44202000  0.42279000  0.17952000  1.0
  H  H13  1  0.55799000  0.57721000  0.82047000  1.0
  H  H14  1  0.95543000  0.85865000  0.66339000  1.0
  H  H15  1  0.04460000  0.14136000  0.33662000  1.0
  H  H16  1  0.15284000  0.69451000  0.79176000  1.0
  H  H17  1  0.84718000  0.30550000  0.20828000  1.0
  H  H18  1  0.97850000  0.60442000  0.09683000  1.0
  H  H19  1  0.02148000  0.39560000  0.90320000  1.0
  H  H20  1  0.91075000  0.58106000  0.58688000  1.0
  H  H21  1  0.08930000  0.41894000  0.41307000  1.0
  H  H22  1  0.07445000  0.87026000  0.35354000  1.0
  H  H23  1  0.92556000  0.12975000  0.64640000  1.0
  H  H24  1  0.92346000  0.93069000  0.16132000  1.0
  H  H25  1  0.07646000  0.06929000  0.83869000  1.0
  H  H26  1  0.55490000  0.22344000  0.25300000  1.0
  H  H27  1  0.44510000  0.77655000  0.74701000  1.0
  C  C28  1  0.27217000  0.72714000  0.06307000  1.0
  C  C29  1  0.72783000  0.27286000  0.93692000  1.0
  C  C30  1  0.28637000  0.57438000  0.08130000  1.0
  C  C31  1  0.71364000  0.42563000  0.91869000  1.0
  C  C32  1  0.39577000  0.53131000  0.14670000  1.0
  C  C33  1  0.60424000  0.46870000  0.85328000  1.0
  C  C34  1  0.93953000  0.80094000  0.78024000  1.0
  C  C35  1  0.06049000  0.19907000  0.21978000  1.0
  C  C36  1  0.03651000  0.71886000  0.84699000  1.0
  C  C37  1  0.96350000  0.28114000  0.15304000  1.0
  C  C38  1  0.94926000  0.67239000  0.00252000  1.0
  C  C39  1  0.05074000  0.32763000  0.99750000  1.0
  C  C40  1  0.89658000  0.65177000  0.48400000  1.0
  C  C41  1  0.10346000  0.34822000  0.51597000  1.0
  C  C42  1  0.97528000  0.79839000  0.36618000  1.0
  C  C43  1  0.02473000  0.20160000  0.63378000  1.0
  C  C44  1  0.90199000  0.82840000  0.26622000  1.0
  C  C45  1  0.09798000  0.17158000  0.73377000  1.0
  C  C46  1  0.53567000  0.15538000  0.47798000  1.0
  C  C47  1  0.46434000  0.84462000  0.52202000  1.0
  C  C48  1  0.50507000  0.02758000  0.61878000  1.0
  C  C49  1  0.49494000  0.97242000  0.38122000  1.0
  C  C50  1  0.52974000  0.12462000  0.36206000  1.0
  C  C51  1  0.47026000  0.87537000  0.63794000  1.0
  C  C52  1  0.57725000  0.32172000  0.44888000  1.0
  C  C53  1  0.42273000  0.67828000  0.55112000  1.0
  C  C54  1  0.50886000  0.04416000  0.75229000  1.0
  C  C55  1  0.49114000  0.95583000  0.24771000  1.0
  N  N56  1  0.44571000  0.65017000  0.16631000  1.0
  N  N57  1  0.55429000  0.34984000  0.83368000  1.0
  N  N58  1  0.36921000  0.76789000  0.11421000  1.0
  N  N59  1  0.63078000  0.23211000  0.88580000  1.0
  N  N60  1  0.80884000  0.72282000  0.02917000  1.0
  N  N61  1  0.19115000  0.27720000  0.97085000  1.0
  N  N62  1  0.80499000  0.80023000  0.89242000  1.0
  N  N63  1  0.19502000  0.19978000  0.10759000  1.0
  N  N64  1  0.78746000  0.70726000  0.31876000  1.0
  N  N65  1  0.21251000  0.29272000  0.68126000  1.0
  N  N66  1  0.78586000  0.60165000  0.45144000  1.0
  N  N67  1  0.21415000  0.39833000  0.54857000  1.0
  O  O68  1  0.61701000  0.43040000  0.31573000  1.0
  O  O69  1  0.38298000  0.56959000  0.68427000  1.0
  O  O70  1  0.57440000  0.34564000  0.55973000  1.0
  O  O71  1  0.42557000  0.65436000  0.44028000  1.0
  O  O72  1  0.39022000  0.08697000  0.83136000  1.0
  O  O73  1  0.60978000  0.91304000  0.16864000  1.0
  O  O74  1  0.62667000  0.00598000  0.78398000  1.0
  O  O75  1  0.37332000  0.99402000  0.21603000  1.0
