# generated using pymatgen
data_CoH20C22(N2O)4
_symmetry_space_group_name_H-M   'P 1'
_cell_length_a   8.45539000
_cell_length_b   8.70014000
_cell_length_c   18.04430000
_cell_angle_alpha   97.08400000
_cell_angle_beta   93.47940000
_cell_angle_gamma   100.35400000
_symmetry_Int_Tables_number   1
_chemical_formula_structural   CoH20C22(N2O)4
_chemical_formula_sum   'Co2 H40 C44 N16 O8'
_cell_volume   1291.13557626
_cell_formula_units_Z   2
loop_
 _symmetry_equiv_pos_site_id
 _symmetry_equiv_pos_as_xyz
  1  'x, y, z'
loop_
 _atom_site_type_symbol
 _atom_site_label
 _atom_site_symmetry_multiplicity
 _atom_site_fract_x
 _atom_site_fract_y
 _atom_site_fract_z
 _atom_site_occupancy
  Co  Co0  1  0.50000000  0.50000000  0.00000000  1.0
  Co  Co1  1  0.00000000  0.00000000  0.50000000  1.0
  H  H2  1  0.10001000  0.30955000  0.23272000  1.0
  H  H3  1  0.89999000  0.69045000  0.76728000  1.0
  H  H4  1  0.59115000  0.22641000  0.10243000  1.0
  H  H5  1  0.40885000  0.77358000  0.89757000  1.0
  H  H6  1  0.66358000  0.88983000  0.99290000  1.0
  H  H7  1  0.33642000  0.11016000  0.00711000  1.0
  H  H8  1  0.69523000  0.71883000  0.50600000  1.0
  H  H9  1  0.30476000  0.28117000  0.49400000  1.0
  H  H10  1  0.81484000  0.98635000  0.34003000  1.0
  H  H11  1  0.18516000  0.01365000  0.65997000  1.0
  H  H12  1  0.03448000  0.11098000  0.10250000  1.0
  H  H13  1  0.96552000  0.88902000  0.89750000  1.0
  H  H14  1  0.60864000  0.36752000  0.21043000  1.0
  H  H15  1  0.39136000  0.63248000  0.78957000  1.0
  H  H16  1  0.81393000  0.43219000  0.93308000  1.0
  H  H17  1  0.18608000  0.56782000  0.06692000  1.0
  H  H18  1  0.73638000  0.57170000  0.13209000  1.0
  H  H19  1  0.26362000  0.42830000  0.86791000  1.0
  H  H20  1  0.63968000  0.20888000  0.31393000  1.0
  H  H21  1  0.36031000  0.79111000  0.68607000  1.0
  H  H22  1  0.92274000  0.82645000  0.19842000  1.0
  H  H23  1  0.07727000  0.17354000  0.80158000  1.0
  H  H24  1  0.02206000  0.27205000  0.98291000  1.0
  H  H25  1  0.97795000  0.72796000  0.01709000  1.0
  H  H26  1  0.90246000  0.14862000  0.17082000  1.0
  H  H27  1  0.09753000  0.85137000  0.82918000  1.0
  H  H28  1  0.39738000  0.10086000  0.37812000  1.0
  H  H29  1  0.60262000  0.89914000  0.62188000  1.0
  H  H30  1  0.54735000  0.80088000  0.28196000  1.0
  H  H31  1  0.45265000  0.19912000  0.71804000  1.0
  H  H32  1  0.30688000  0.55691000  0.55508000  1.0
  H  H33  1  0.69312000  0.44309000  0.44492000  1.0
  H  H34  1  0.18228000  0.81428000  0.37577000  1.0
  H  H35  1  0.81772000  0.18571000  0.62423000  1.0
  H  H36  1  0.34808000  0.55044000  0.33737000  1.0
  H  H37  1  0.65191000  0.44956000  0.66263000  1.0
  H  H38  1  0.43408000  0.47890000  0.41379000  1.0
  H  H39  1  0.56592000  0.52110000  0.58621000  1.0
  H  H40  1  0.11911000  0.75087000  0.59317000  1.0
  H  H41  1  0.88089000  0.24913000  0.40683000  1.0
  C  C42  1  0.21737000  0.28506000  0.24999000  1.0
  C  C43  1  0.78263000  0.71495000  0.75001000  1.0
  C  C44  1  0.23309000  0.19727000  0.30897000  1.0
  C  C45  1  0.76691000  0.80273000  0.69103000  1.0
  C  C46  1  0.32971000  0.43363000  0.14799000  1.0
  C  C47  1  0.67029000  0.56637000  0.85201000  1.0
  C  C48  1  0.08822000  0.13878000  0.34891000  1.0
  C  C49  1  0.91178000  0.86123000  0.65109000  1.0
  C  C50  1  0.35160000  0.34480000  0.21350000  1.0
  C  C51  1  0.64841000  0.65520000  0.78650000  1.0
  C  C52  1  0.68571000  0.25317000  0.06549000  1.0
  C  C53  1  0.31430000  0.74683000  0.93451000  1.0
  C  C54  1  0.83457000  0.20258000  0.06225000  1.0
  C  C55  1  0.16543000  0.79742000  0.93775000  1.0
  C  C56  1  0.38584000  0.16898000  0.33191000  1.0
  C  C57  1  0.61416000  0.83102000  0.66808000  1.0
  C  C58  1  0.52060000  0.22986000  0.29637000  1.0
  C  C59  1  0.47940000  0.77014000  0.70363000  1.0
  C  C60  1  0.50371000  0.31816000  0.23784000  1.0
  C  C61  1  0.49629000  0.68184000  0.76216000  1.0
  C  C62  1  0.71589000  0.84652000  0.04073000  1.0
  C  C63  1  0.28410000  0.15348000  0.95927000  1.0
  C  C64  1  0.68265000  0.75591000  0.45108000  1.0
  C  C65  1  0.31734000  0.24409000  0.54892000  1.0
  C  C66  1  0.82533000  0.93061000  0.10023000  1.0
  C  C67  1  0.17467000  0.06939000  0.89977000  1.0
  C  C68  1  0.28999000  0.65185000  0.44399000  1.0
  C  C69  1  0.71001000  0.34815000  0.55601000  1.0
  C  C70  1  0.90606000  0.27530000  0.00469000  1.0
  C  C71  1  0.09395000  0.72471000  0.99531000  1.0
  C  C72  1  0.90564000  0.10146000  0.11154000  1.0
  C  C73  1  0.09436000  0.89853000  0.88846000  1.0
  C  C74  1  0.55830000  0.70517000  0.39293000  1.0
  C  C75  1  0.44170000  0.29483000  0.60707000  1.0
  C  C76  1  0.19464000  0.76185000  0.42680000  1.0
  C  C77  1  0.80536000  0.23815000  0.57320000  1.0
  C  C78  1  0.84852000  0.81760000  0.14635000  1.0
  C  C79  1  0.15149000  0.18240000  0.85365000  1.0
  C  C80  1  0.40570000  0.58668000  0.39454000  1.0
  C  C81  1  0.59430000  0.41332000  0.60546000  1.0
  C  C82  1  0.60478000  0.79731000  0.33704000  1.0
  C  C83  1  0.39523000  0.20269000  0.66296000  1.0
  C  C84  1  0.26210000  0.63109000  0.51780000  1.0
  C  C85  1  0.73789000  0.36891000  0.48220000  1.0
  N  N86  1  0.80459000  0.36226000  0.97779000  1.0
  N  N87  1  0.19542000  0.63774000  0.02221000  1.0
  N  N88  1  0.67597000  0.69334000  0.04931000  1.0
  N  N89  1  0.32403000  0.30665000  0.95069000  1.0
  N  N90  1  0.11580000  0.80619000  0.48564000  1.0
  N  N91  1  0.88420000  0.19381000  0.51436000  1.0
  N  N92  1  0.75853000  0.67854000  0.11341000  1.0
  N  N93  1  0.24147000  0.32146000  0.88659000  1.0
  N  N94  1  0.66925000  0.35101000  0.01430000  1.0
  N  N95  1  0.33075000  0.64899000  0.98570000  1.0
  N  N96  1  0.79605000  0.86982000  0.43230000  1.0
  N  N97  1  0.20395000  0.13018000  0.56770000  1.0
  N  N98  1  0.15754000  0.72482000  0.54040000  1.0
  N  N99  1  0.84246000  0.27517000  0.45959000  1.0
  N  N100  1  0.74714000  0.89366000  0.36272000  1.0
  N  N101  1  0.25285000  0.10634000  0.63728000  1.0
  O  O102  1  0.45381000  0.46580000  0.11118000  1.0
  O  O103  1  0.54619000  0.53420000  0.88883000  1.0
  O  O104  1  0.19254000  0.46722000  0.13404000  1.0
  O  O105  1  0.80747000  0.53279000  0.86596000  1.0
  O  O106  1  0.94846000  0.15525000  0.32298000  1.0
  O  O107  1  0.05154000  0.84475000  0.67702000  1.0
  O  O108  1  0.11473000  0.07700000  0.40768000  1.0
  O  O109  1  0.88526000  0.92300000  0.59232000  1.0
