# generated using pymatgen
data_HoH9(CO)6
_symmetry_space_group_name_H-M   'P 1'
_cell_length_a   7.86473000
_cell_length_b   8.06679000
_cell_length_c   15.40723051
_cell_angle_alpha   104.41188878
_cell_angle_beta   104.02843106
_cell_angle_gamma   92.76470000
_symmetry_Int_Tables_number   1
_chemical_formula_structural   HoH9(CO)6
_chemical_formula_sum   'Ho4 H36 C24 O24'
_cell_volume   912.33625621
_cell_formula_units_Z   4
loop_
 _symmetry_equiv_pos_site_id
 _symmetry_equiv_pos_as_xyz
  1  'x, y, z'
loop_
 _atom_site_type_symbol
 _atom_site_label
 _atom_site_symmetry_multiplicity
 _atom_site_fract_x
 _atom_site_fract_y
 _atom_site_fract_z
 _atom_site_occupancy
  Ho  Ho0  1  0.87871000  0.62871000  0.25753000  1.0
  Ho  Ho1  1  0.12129000  0.37129000  0.74247000  1.0
  Ho  Ho2  1  0.37307000  0.62331000  0.24635000  1.0
  Ho  Ho3  1  0.62693000  0.37669000  0.75365000  1.0
  H  H4  1  0.53760000  0.06664000  0.23733000  1.0
  H  H5  1  0.19871000  0.17077000  0.23746000  1.0
  H  H6  1  0.46240000  0.93336000  0.76267000  1.0
  H  H7  1  0.80129000  0.82923000  0.76253000  1.0
  H  H8  1  0.74497000  0.18924000  0.30961000  1.0
  H  H9  1  0.06380000  0.11990000  0.30980000  1.0
  H  H10  1  0.25502000  0.81076000  0.69039000  1.0
  H  H11  1  0.93619000  0.88011000  0.69019000  1.0
  H  H12  1  0.69948000  0.13638000  0.18689000  1.0
  H  H13  1  0.98667000  0.05024000  0.18706000  1.0
  H  H14  1  0.30052000  0.86363000  0.81311000  1.0
  H  H15  1  0.01333000  0.94976000  0.81293000  1.0
  H  H16  1  0.71898000  0.17785000  0.45544000  1.0
  H  H17  1  0.23640000  0.27737000  0.45548000  1.0
  H  H18  1  0.28103000  0.82214000  0.54456000  1.0
  H  H19  1  0.76360000  0.72262000  0.54452000  1.0
  H  H20  1  0.87908000  0.07468000  0.51953000  1.0
  H  H21  1  0.14035000  0.44445000  0.51960000  1.0
  H  H22  1  0.12093000  0.92533000  0.48048000  1.0
  H  H23  1  0.85965000  0.55554000  0.48040000  1.0
  H  H24  1  0.65339000  0.05786000  0.52559000  1.0
  H  H25  1  0.37210000  0.46729000  0.52565000  1.0
  H  H26  1  0.34661000  0.94213000  0.47441000  1.0
  H  H27  1  0.62789000  0.53270000  0.47435000  1.0
  H  H28  1  0.60617000  0.89702000  0.02070000  1.0
  H  H29  1  0.91517000  0.12391000  0.02120000  1.0
  H  H30  1  0.39382000  0.10299000  0.97930000  1.0
  H  H31  1  0.08484000  0.87610000  0.97880000  1.0
  H  H32  1  0.41360000  0.84077000  0.05652000  1.0
  H  H33  1  0.14339000  0.21628000  0.05695000  1.0
  H  H34  1  0.58640000  0.15922000  0.94348000  1.0
  H  H35  1  0.85662000  0.78372000  0.94305000  1.0
  H  H36  1  0.49030000  0.68663000  0.97546000  1.0
  H  H37  1  0.98551000  0.28891000  0.97567000  1.0
  H  H38  1  0.50970000  0.31338000  0.02454000  1.0
  H  H39  1  0.01451000  0.71108000  0.02433000  1.0
  C  C40  1  0.56037000  0.33406000  0.24159000  1.0
  C  C41  1  0.18089000  0.90760000  0.24171000  1.0
  C  C42  1  0.43961000  0.66594000  0.75841000  1.0
  C  C43  1  0.81911000  0.09240000  0.75829000  1.0
  C  C44  1  0.63994000  0.17068000  0.24561000  1.0
  C  C45  1  0.10490000  0.07479000  0.24578000  1.0
  C  C46  1  0.36005000  0.82932000  0.75439000  1.0
  C  C47  1  0.89509000  0.92520000  0.75421000  1.0
  C  C48  1  0.69560000  0.90793000  0.39692000  1.0
  C  C49  1  0.20137000  0.48888000  0.39699000  1.0
  C  C50  1  0.30442000  0.09206000  0.60309000  1.0
  C  C51  1  0.79862000  0.51110000  0.60301000  1.0
  C  C52  1  0.74072000  0.06191000  0.48031000  1.0
  C  C53  1  0.23952000  0.41813000  0.48039000  1.0
  C  C54  1  0.25928000  0.93809000  0.51969000  1.0
  C  C55  1  0.76047000  0.58187000  0.51961000  1.0
  C  C56  1  0.64588000  0.73888000  0.11518000  1.0
  C  C57  1  0.96938000  0.37657000  0.11534000  1.0
  C  C58  1  0.35412000  0.26113000  0.88482000  1.0
  C  C59  1  0.03062000  0.62343000  0.88465000  1.0
  C  C60  1  0.53267000  0.79633000  0.03775000  1.0
  C  C61  1  0.00549000  0.24170000  0.03807000  1.0
  C  C62  1  0.46732000  0.20366000  0.96224000  1.0
  C  C63  1  0.99452000  0.75830000  0.96193000  1.0
  O  O64  1  0.64853000  0.48130000  0.29040000  1.0
  O  O65  1  0.14186000  0.80893000  0.29055000  1.0
  O  O66  1  0.35145000  0.51871000  0.70960000  1.0
  O  O67  1  0.85813000  0.19108000  0.70945000  1.0
  O  O68  1  0.40619000  0.33055000  0.19048000  1.0
  O  O69  1  0.28387000  0.86030000  0.19050000  1.0
  O  O70  1  0.59380000  0.66945000  0.80952000  1.0
  O  O71  1  0.71614000  0.13970000  0.80951000  1.0
  O  O72  1  0.81982000  0.85034000  0.36184000  1.0
  O  O73  1  0.04208000  0.51125000  0.36180000  1.0
  O  O74  1  0.18018000  0.14965000  0.63816000  1.0
  O  O75  1  0.95792000  0.48874000  0.63820000  1.0
  O  O76  1  0.53503000  0.84376000  0.36344000  1.0
  O  O77  1  0.32862000  0.51996000  0.36365000  1.0
  O  O78  1  0.46498000  0.15624000  0.63657000  1.0
  O  O79  1  0.67140000  0.48006000  0.63637000  1.0
  O  O80  1  0.81314000  0.76471000  0.13520000  1.0
  O  O81  1  0.82220000  0.37049000  0.13542000  1.0
  O  O82  1  0.18685000  0.23528000  0.86479000  1.0
  O  O83  1  0.17780000  0.62951000  0.86457000  1.0
  O  O84  1  0.57368000  0.65744000  0.16202000  1.0
  O  O85  1  0.08808000  0.50513000  0.16198000  1.0
  O  O86  1  0.42631000  0.34255000  0.83797000  1.0
  O  O87  1  0.91193000  0.49488000  0.83801000  1.0
