# generated using pymatgen
data_CdH18C24(NO3)2
_symmetry_space_group_name_H-M   'P 1'
_cell_length_a   10.36070000
_cell_length_b   10.94990000
_cell_length_c   10.96300000
_cell_angle_alpha   63.20930000
_cell_angle_beta   80.30790000
_cell_angle_gamma   82.80080000
_symmetry_Int_Tables_number   1
_chemical_formula_structural   CdH18C24(NO3)2
_chemical_formula_sum   'Cd2 H36 C48 N4 O12'
_cell_volume   1092.65796195
_cell_formula_units_Z   2
loop_
 _symmetry_equiv_pos_site_id
 _symmetry_equiv_pos_as_xyz
  1  'x, y, z'
loop_
 _atom_site_type_symbol
 _atom_site_label
 _atom_site_symmetry_multiplicity
 _atom_site_fract_x
 _atom_site_fract_y
 _atom_site_fract_z
 _atom_site_occupancy
  Cd  Cd0  1  0.89140000  0.11676000  0.57948000  1.0
  Cd  Cd1  1  0.10859000  0.88324000  0.42052000  1.0
  H  H2  1  0.68254000  0.66951000  0.99606000  1.0
  H  H3  1  0.31746000  0.33049000  0.00394000  1.0
  H  H4  1  0.75141000  0.46729000  0.20553000  1.0
  H  H5  1  0.24859000  0.53271000  0.79447000  1.0
  H  H6  1  0.36297000  0.74647000  0.69319000  1.0
  H  H7  1  0.63703000  0.25354000  0.30681000  1.0
  H  H8  1  0.69663000  0.61397000  0.70417000  1.0
  H  H9  1  0.30337000  0.38603000  0.29582000  1.0
  H  H10  1  0.43525000  0.94813000  0.70078000  1.0
  H  H11  1  0.56475000  0.05187000  0.29922000  1.0
  H  H12  1  0.52482000  0.87113000  0.59787000  1.0
  H  H13  1  0.47518000  0.12887000  0.40213000  1.0
  H  H14  1  0.92982000  0.53068000  0.69997000  1.0
  H  H15  1  0.07018000  0.46933000  0.30002000  1.0
  H  H16  1  0.33628000  0.35296000  0.70421000  1.0
  H  H17  1  0.66372000  0.64703000  0.29579000  1.0
  H  H18  1  0.20036000  0.05407000  0.60634000  1.0
  H  H19  1  0.79964000  0.94593000  0.39366000  1.0
  H  H20  1  0.61392000  0.28514000  0.61752000  1.0
  H  H21  1  0.38607000  0.71486000  0.38248000  1.0
  H  H22  1  0.24254000  0.02591000  0.06255000  1.0
  H  H23  1  0.75746000  0.97409000  0.93745000  1.0
  H  H24  1  0.97813000  0.37248000  0.07938000  1.0
  H  H25  1  0.02188000  0.62753000  0.92062000  1.0
  H  H26  1  0.13095000  0.33284000  0.14607000  1.0
  H  H27  1  0.86906000  0.66716000  0.85393000  1.0
  H  H28  1  0.38864000  0.15696000  0.64047000  1.0
  H  H29  1  0.61136000  0.84304000  0.35953000  1.0
  H  H30  1  0.10727000  0.44933000  0.71277000  1.0
  H  H31  1  0.89273000  0.55068000  0.28723000  1.0
  H  H32  1  0.82387000  0.26828000  0.07682000  1.0
  H  H33  1  0.17613000  0.73172000  0.92318000  1.0
  H  H34  1  0.53185000  0.48973000  0.66502000  1.0
  H  H35  1  0.46814000  0.51026000  0.33499000  1.0
  H  H36  1  0.32351000  0.83453000  0.00028000  1.0
  H  H37  1  0.67649000  0.16547000  0.99972000  1.0
  C  C38  1  0.63498000  0.57303000  0.03838000  1.0
  C  C39  1  0.36502000  0.42697000  0.96162000  1.0
  C  C40  1  0.49262000  0.67335000  0.85042000  1.0
  C  C41  1  0.50738000  0.32665000  0.14958000  1.0
  C  C42  1  0.97244000  0.23069000  0.29390000  1.0
  C  C43  1  0.02756000  0.76931000  0.70610000  1.0
  C  C44  1  0.53263000  0.56222000  0.97291000  1.0
  C  C45  1  0.46737000  0.43778000  0.02709000  1.0
  C  C46  1  0.03236000  0.30320000  0.66275000  1.0
  C  C47  1  0.96764000  0.69680000  0.33725000  1.0
  C  C48  1  0.67174000  0.46190000  0.15489000  1.0
  C  C49  1  0.32826000  0.53810000  0.84511000  1.0
  C  C50  1  0.89408000  0.35921000  0.66337000  1.0
  C  C51  1  0.10591000  0.64080000  0.33663000  1.0
  C  C52  1  0.63698000  0.00378000  0.62936000  1.0
  C  C53  1  0.36302000  0.99622000  0.37064000  1.0
  C  C54  1  0.39198000  0.66243000  0.78762000  1.0
  C  C55  1  0.60802000  0.33757000  0.21238000  1.0
  C  C56  1  0.72641000  0.52344000  0.68695000  1.0
  C  C57  1  0.27359000  0.47656000  0.31305000  1.0
  C  C58  1  0.53155000  0.90107000  0.68019000  1.0
  C  C59  1  0.46845000  0.09893000  0.31982000  1.0
  C  C60  1  0.85720000  0.47563000  0.68616000  1.0
  C  C61  1  0.14279000  0.52437000  0.31384000  1.0
  C  C62  1  0.04421000  0.02984000  0.02112000  1.0
  C  C63  1  0.95580000  0.97016000  0.97888000  1.0
  C  C64  1  0.25911000  0.30799000  0.68390000  1.0
  C  C65  1  0.74089000  0.69201000  0.31610000  1.0
  C  C66  1  0.18520000  0.14251000  0.62894000  1.0
  C  C67  1  0.81480000  0.85749000  0.37106000  1.0
  C  C68  1  0.67909000  0.34165000  0.63962000  1.0
  C  C69  1  0.32091000  0.65834000  0.36038000  1.0
  C  C70  1  0.17733000  0.97979000  0.02888000  1.0
  C  C71  1  0.82267000  0.02021000  0.97112000  1.0
  C  C72  1  0.99356000  0.13953000  0.05558000  1.0
  C  C73  1  0.00644000  0.86047000  0.94442000  1.0
  C  C74  1  0.04141000  0.28853000  0.14634000  1.0
  C  C75  1  0.95860000  0.71147000  0.85365000  1.0
  C  C76  1  0.28800000  0.19764000  0.65123000  1.0
  C  C77  1  0.71200000  0.80236000  0.34877000  1.0
  C  C78  1  0.13049000  0.36145000  0.69001000  1.0
  C  C79  1  0.86951000  0.63855000  0.30999000  1.0
  C  C80  1  0.86319000  0.18621000  0.04883000  1.0
  C  C81  1  0.13681000  0.81379000  0.95117000  1.0
  C  C82  1  0.63503000  0.45501000  0.66430000  1.0
  C  C83  1  0.36496000  0.54498000  0.33570000  1.0
  C  C84  1  0.22156000  0.87395000  0.99429000  1.0
  C  C85  1  0.77844000  0.12605000  0.00571000  1.0
  N  N86  1  0.06099000  0.19417000  0.63436000  1.0
  N  N87  1  0.93901000  0.80583000  0.36564000  1.0
  N  N88  1  0.80522000  0.29500000  0.63954000  1.0
  N  N89  1  0.19477000  0.70500000  0.36046000  1.0
  O  O90  1  0.95985000  0.10199000  0.36585000  1.0
  O  O91  1  0.04015000  0.89801000  0.63415000  1.0
  O  O92  1  0.93332000  0.31766000  0.34037000  1.0
  O  O93  1  0.06669000  0.68233000  0.65963000  1.0
  O  O94  1  0.56419000  0.78563000  0.80239000  1.0
  O  O95  1  0.43581000  0.21437000  0.19761000  1.0
  O  O96  1  0.75002000  0.95566000  0.66754000  1.0
  O  O97  1  0.24998000  0.04434000  0.33246000  1.0
  O  O98  1  0.08465000  0.19173000  0.09356000  1.0
  O  O99  1  0.91535000  0.80827000  0.90644000  1.0
  O  O100  1  0.60706000  0.12645000  0.55056000  1.0
  O  O101  1  0.39293000  0.87355000  0.44944000  1.0
