# generated using pymatgen
data_CdH4(C2O3)2
_symmetry_space_group_name_H-M   'P 1'
_cell_length_a   8.52942000
_cell_length_b   8.52944000
_cell_length_c   8.52939000
_cell_angle_alpha   89.38000000
_cell_angle_beta   89.37950000
_cell_angle_gamma   89.37890000
_symmetry_Int_Tables_number   1
_chemical_formula_structural   CdH4(C2O3)2
_chemical_formula_sum   'Cd3 H12 C12 O18'
_cell_volume   620.41475934
_cell_formula_units_Z   3
loop_
 _symmetry_equiv_pos_site_id
 _symmetry_equiv_pos_as_xyz
  1  'x, y, z'
loop_
 _atom_site_type_symbol
 _atom_site_label
 _atom_site_symmetry_multiplicity
 _atom_site_fract_x
 _atom_site_fract_y
 _atom_site_fract_z
 _atom_site_occupancy
  Cd  Cd0  1  0.00000000  0.50000000  0.00000000  1.0
  Cd  Cd1  1  0.50000000  0.00000000  0.99999000  1.0
  Cd  Cd2  1  0.00000000  0.00000000  0.50000000  1.0
  H  H3  1  0.93219000  0.75358000  0.19036000  1.0
  H  H4  1  0.75358000  0.19036000  0.93220000  1.0
  H  H5  1  0.19036000  0.93219000  0.75358000  1.0
  H  H6  1  0.06781000  0.24642000  0.80964000  1.0
  H  H7  1  0.24642000  0.80963000  0.06780000  1.0
  H  H8  1  0.80963000  0.06780000  0.24642000  1.0
  H  H9  1  0.80512000  0.75499000  0.05058000  1.0
  H  H10  1  0.75499000  0.05058000  0.80512000  1.0
  H  H11  1  0.05057000  0.80511000  0.75499000  1.0
  H  H12  1  0.19488000  0.24500000  0.94942000  1.0
  H  H13  1  0.24500000  0.94942000  0.19487000  1.0
  H  H14  1  0.94942000  0.19488000  0.24500000  1.0
  C  C15  1  0.38819000  0.55017000  0.01009000  1.0
  C  C16  1  0.55016000  0.01008000  0.38818000  1.0
  C  C17  1  0.01008000  0.38819000  0.55016000  1.0
  C  C18  1  0.61182000  0.44983000  0.98993000  1.0
  C  C19  1  0.44983000  0.98992000  0.61181000  1.0
  C  C20  1  0.98992000  0.61180000  0.44984000  1.0
  C  C21  1  0.45076000  0.38857000  0.99965000  1.0
  C  C22  1  0.38857000  0.99964000  0.45075000  1.0
  C  C23  1  0.99965000  0.45075000  0.38857000  1.0
  C  C24  1  0.54924000  0.61142000  0.00036000  1.0
  C  C25  1  0.61142000  0.00036000  0.54923000  1.0
  C  C26  1  0.00036000  0.54924000  0.61144000  1.0
  O  O27  1  0.25363000  0.61236000  0.02324000  1.0
  O  O28  1  0.61236000  0.02324000  0.25363000  1.0
  O  O29  1  0.02324000  0.25362000  0.61237000  1.0
  O  O30  1  0.74637000  0.38763000  0.97676000  1.0
  O  O31  1  0.38763000  0.97676000  0.74636000  1.0
  O  O32  1  0.97676000  0.74637000  0.38763000  1.0
  O  O33  1  0.38905000  0.25467000  0.99962000  1.0
  O  O34  1  0.25466000  0.99961000  0.38903000  1.0
  O  O35  1  0.99962000  0.38904000  0.25468000  1.0
  O  O36  1  0.61095000  0.74533000  0.00038000  1.0
  O  O37  1  0.74532000  0.00039000  0.61095000  1.0
  O  O38  1  0.00038000  0.61095000  0.74532000  1.0
  O  O39  1  0.91738000  0.73644000  0.07627000  1.0
  O  O40  1  0.73644000  0.07626000  0.91737000  1.0
  O  O41  1  0.07627000  0.91738000  0.73644000  1.0
  O  O42  1  0.08262000  0.26355000  0.92372000  1.0
  O  O43  1  0.26356000  0.92373000  0.08261000  1.0
  O  O44  1  0.92373000  0.08262000  0.26356000  1.0
