# generated using pymatgen
data_AlH15C24N2O5
_symmetry_space_group_name_H-M   'P 1'
_cell_length_a   6.66662000
_cell_length_b   16.42090000
_cell_length_c   17.10710000
_cell_angle_alpha   89.99990000
_cell_angle_beta   90.00010000
_cell_angle_gamma   101.71600000
_symmetry_Int_Tables_number   1
_chemical_formula_structural   AlH15C24N2O5
_chemical_formula_sum   'Al2 H30 C48 N4 O10'
_cell_volume   1833.73020972
_cell_formula_units_Z   2
loop_
 _symmetry_equiv_pos_site_id
 _symmetry_equiv_pos_as_xyz
  1  'x, y, z'
loop_
 _atom_site_type_symbol
 _atom_site_label
 _atom_site_symmetry_multiplicity
 _atom_site_fract_x
 _atom_site_fract_y
 _atom_site_fract_z
 _atom_site_occupancy
  Al  Al0  1  0.00000000  0.50000000  0.00000000  1.0
  Al  Al1  1  0.50000000  0.50000000  0.00000000  1.0
  H  H2  1  0.84569000  0.33456000  0.17900000  1.0
  H  H3  1  0.79130000  0.22760000  0.28590000  1.0
  H  H4  1  0.15432000  0.66544000  0.17900000  1.0
  H  H5  1  0.20870000  0.77240000  0.28590000  1.0
  H  H6  1  0.51141000  0.66546000  0.82100000  1.0
  H  H7  1  0.56396000  0.77244000  0.71408000  1.0
  H  H8  1  0.48859000  0.33455000  0.82100000  1.0
  H  H9  1  0.43603000  0.22756000  0.71408000  1.0
  H  H10  1  0.15432000  0.66545000  0.82100000  1.0
  H  H11  1  0.20871000  0.77240000  0.71410000  1.0
  H  H12  1  0.84568000  0.33456000  0.82100000  1.0
  H  H13  1  0.79129000  0.22760000  0.71410000  1.0
  H  H14  1  0.48860000  0.33454000  0.17900000  1.0
  H  H15  1  0.43604000  0.22756000  0.28592000  1.0
  H  H16  1  0.51141000  0.66546000  0.17900000  1.0
  H  H17  1  0.56396000  0.77244000  0.28592000  1.0
  H  H18  1  0.30517000  0.61035000  0.00000000  1.0
  H  H19  1  0.69483000  0.38965000  0.00000000  1.0
  H  H20  1  0.04156000  0.08316000  0.19722000  1.0
  H  H21  1  0.16038000  0.32175000  0.42073000  1.0
  H  H22  1  0.95844000  0.91684000  0.19722000  1.0
  H  H23  1  0.83964000  0.67825000  0.42073000  1.0
  H  H24  1  0.95844000  0.91683000  0.80278000  1.0
  H  H25  1  0.83963000  0.67825000  0.57927000  1.0
  H  H26  1  0.04155000  0.08316000  0.80279000  1.0
  H  H27  1  0.16038000  0.32175000  0.57927000  1.0
  H  H28  1  0.00020000  0.00000000  0.43144000  1.0
  H  H29  1  0.00019000  0.00000000  0.56856000  1.0
  H  H30  1  0.03720000  0.07463000  0.50000000  1.0
  H  H31  1  0.96251000  0.92537000  0.50000000  1.0
  C  C32  1  0.97343000  0.31045000  0.20302000  1.0
  C  C33  1  0.94405000  0.25109000  0.26231000  1.0
  C  C34  1  0.02658000  0.68955000  0.20302000  1.0
  C  C35  1  0.05596000  0.74891000  0.26231000  1.0
  C  C36  1  0.66324000  0.68956000  0.79697000  1.0
  C  C37  1  0.69322000  0.74891000  0.73769000  1.0
  C  C38  1  0.33676000  0.31044000  0.79697000  1.0
  C  C39  1  0.30677000  0.25109000  0.73769000  1.0
  C  C40  1  0.02658000  0.68955000  0.79699000  1.0
  C  C41  1  0.05596000  0.74891000  0.73769000  1.0
  C  C42  1  0.97342000  0.31046000  0.79698000  1.0
  C  C43  1  0.94404000  0.25109000  0.73769000  1.0
  C  C44  1  0.33677000  0.31044000  0.20303000  1.0
  C  C45  1  0.30679000  0.25109000  0.26231000  1.0
  C  C46  1  0.66323000  0.68956000  0.20303000  1.0
  C  C47  1  0.69322000  0.74891000  0.26231000  1.0
  C  C48  1  0.19989000  0.39999000  0.10616000  1.0
  C  C49  1  0.16976000  0.33975000  0.17243000  1.0
  C  C50  1  0.10978000  0.21982000  0.29176000  1.0
  C  C51  1  0.07678000  0.15399000  0.35340000  1.0
  C  C52  1  0.03615000  0.07251000  0.32780000  1.0
  C  C53  1  0.09223000  0.18501000  0.43267000  1.0
  C  C54  1  0.02122000  0.04248000  0.24785000  1.0
  C  C55  1  0.13342000  0.26779000  0.45874000  1.0
  C  C56  1  0.80012000  0.60001000  0.10616000  1.0
  C  C57  1  0.83024000  0.66025000  0.17243000  1.0
  C  C58  1  0.89023000  0.78018000  0.29176000  1.0
  C  C59  1  0.92322000  0.84601000  0.35340000  1.0
  C  C60  1  0.96383000  0.92750000  0.32780000  1.0
  C  C61  1  0.90778000  0.81499000  0.43266000  1.0
  C  C62  1  0.97877000  0.95752000  0.24784000  1.0
  C  C63  1  0.86659000  0.73221000  0.45873000  1.0
  C  C64  1  0.80012000  0.60001000  0.89384000  1.0
  C  C65  1  0.83024000  0.66025000  0.82757000  1.0
  C  C66  1  0.89023000  0.78018000  0.70824000  1.0
  C  C67  1  0.92322000  0.84601000  0.64660000  1.0
  C  C68  1  0.96383000  0.92750000  0.67220000  1.0
  C  C69  1  0.90778000  0.81499000  0.56733000  1.0
  C  C70  1  0.97877000  0.95752000  0.75215000  1.0
  C  C71  1  0.86659000  0.73221000  0.54126000  1.0
  C  C72  1  0.19988000  0.39999000  0.89384000  1.0
  C  C73  1  0.16976000  0.33975000  0.82757000  1.0
  C  C74  1  0.10977000  0.21982000  0.70824000  1.0
  C  C75  1  0.07677000  0.15399000  0.64660000  1.0
  C  C76  1  0.03614000  0.07250000  0.67220000  1.0
  C  C77  1  0.09222000  0.18501000  0.56733000  1.0
  C  C78  1  0.02121000  0.04248000  0.75216000  1.0
  C  C79  1  0.13341000  0.26779000  0.54127000  1.0
  N  N80  1  0.99994000  0.00000000  0.37306000  1.0
  N  N81  1  0.99993000  0.00000000  0.62694000  1.0
  N  N82  1  0.06831000  0.13682000  0.50000000  1.0
  N  N83  1  0.93173000  0.86318000  0.50000000  1.0
  O  O84  1  0.04118000  0.42281000  0.07984000  1.0
  O  O85  1  0.95883000  0.57719000  0.07984000  1.0
  O  O86  1  0.61858000  0.57718000  0.92017000  1.0
  O  O87  1  0.38142000  0.42283000  0.92017000  1.0
  O  O88  1  0.95883000  0.57719000  0.92016000  1.0
  O  O89  1  0.04118000  0.42282000  0.92016000  1.0
  O  O90  1  0.38142000  0.42282000  0.07983000  1.0
  O  O91  1  0.61858000  0.57717000  0.07983000  1.0
  O  O92  1  0.27513000  0.55020000  0.00000000  1.0
  O  O93  1  0.72487000  0.44980000  0.00000000  1.0
