# generated using pymatgen
data_AlH30C45(NO2)3
_symmetry_space_group_name_H-M   'P 1'
_cell_length_a   4.01333000
_cell_length_b   23.53140000
_cell_length_c   23.55870000
_cell_angle_alpha   60.05590000
_cell_angle_beta   87.28010000
_cell_angle_gamma   87.28320000
_symmetry_Int_Tables_number   1
_chemical_formula_structural   AlH30C45(NO2)3
_chemical_formula_sum   'Al1 H30 C45 N3 O6'
_cell_volume   1924.98067011
_cell_formula_units_Z   1
loop_
 _symmetry_equiv_pos_site_id
 _symmetry_equiv_pos_as_xyz
  1  'x, y, z'
loop_
 _atom_site_type_symbol
 _atom_site_label
 _atom_site_symmetry_multiplicity
 _atom_site_fract_x
 _atom_site_fract_y
 _atom_site_fract_z
 _atom_site_occupancy
  Al  Al0  1  0.00100000  0.50023000  0.50033000  1.0
  H  H1  1  0.36209000  0.32191000  0.68094000  1.0
  H  H2  1  0.37298000  0.20138000  0.74434000  1.0
  H  H3  1  0.16293000  0.98192000  0.83425000  1.0
  H  H4  1  0.68227000  0.67446000  0.31539000  1.0
  H  H5  1  0.62195000  0.73545000  0.19606000  1.0
  H  H6  1  0.77560000  0.76500000  0.10678000  1.0
  H  H7  1  0.79692000  0.82830000  0.98782000  1.0
  H  H8  1  0.51223000  0.89295000  0.89599000  1.0
  H  H9  1  0.35074000  0.50002000  0.32271000  1.0
  H  H10  1  0.36197000  0.55607000  0.20263000  1.0
  H  H11  1  0.18749000  0.68588000  0.98187000  1.0
  H  H12  1  0.63495000  0.50879000  0.67409000  1.0
  H  H13  1  0.57922000  0.56805000  0.73539000  1.0
  H  H14  1  0.76129000  0.62679000  0.76113000  1.0
  H  H15  1  0.79899000  0.68173000  0.82483000  1.0
  H  H16  1  0.50099000  0.71180000  0.89280000  1.0
  H  H17  1  0.28060000  0.68011000  0.50158000  1.0
  H  H18  1  0.29701000  0.74418000  0.55757000  1.0
  H  H19  1  0.14954000  0.83693000  0.69016000  1.0
  H  H20  1  0.66481000  0.31538000  0.50687000  1.0
  H  H21  1  0.60947000  0.19535000  0.56665000  1.0
  H  H22  1  0.81883000  0.10629000  0.62872000  1.0
  H  H23  1  0.83878000  0.98640000  0.68482000  1.0
  H  H24  1  0.50389000  0.89604000  0.71211000  1.0
  H  H25  1  0.93282000  0.75766000  0.60553000  1.0
  H  H26  1  0.87291000  0.81984000  0.61999000  1.0
  H  H27  1  0.97668000  0.15131000  0.75213000  1.0
  H  H28  1  0.89311000  0.07634000  0.81364000  1.0
  H  H29  1  0.98936000  0.59998000  0.14901000  1.0
  H  H30  1  0.93799000  0.61231000  0.07393000  1.0
  C  C31  1  0.51270000  0.39957000  0.55244000  1.0
  C  C32  1  0.47306000  0.55282000  0.54846000  1.0
  C  C33  1  0.51417000  0.54827000  0.39987000  1.0
  C  C34  1  0.42251000  0.29371000  0.65638000  1.0
  C  C35  1  0.41968000  0.22552000  0.69160000  1.0
  C  C36  1  0.28637000  0.07808000  0.75645000  1.0
  C  C37  1  0.31424000  0.00927000  0.78952000  1.0
  C  C38  1  0.59990000  0.64952000  0.29026000  1.0
  C  C39  1  0.57034000  0.68330000  0.22266000  1.0
  C  C40  1  0.63403000  0.74808000  0.08002000  1.0
  C  C41  1  0.64837000  0.78437000  0.01220000  1.0
  C  C42  1  0.51086000  0.32671000  0.58966000  1.0
  C  C43  1  0.48035000  0.18766000  0.66061000  1.0
  C  C44  1  0.47240000  0.11517000  0.69676000  1.0
  C  C45  1  0.50327000  0.97501000  0.76449000  1.0
  C  C46  1  0.51231000  0.90259000  0.80004000  1.0
  C  C47  1  0.51298000  0.86677000  0.86867000  1.0
  C  C48  1  0.41663000  0.55148000  0.29437000  1.0
  C  C49  1  0.41227000  0.58421000  0.22629000  1.0
  C  C50  1  0.29696000  0.66691000  0.07802000  1.0
  C  C51  1  0.32542000  0.70276000  0.00929000  1.0
  C  C52  1  0.54817000  0.55992000  0.64968000  1.0
  C  C53  1  0.52156000  0.59415000  0.68357000  1.0
  C  C54  1  0.61421000  0.67185000  0.74628000  1.0
  C  C55  1  0.63769000  0.70285000  0.78274000  1.0
  C  C56  1  0.51220000  0.58355000  0.32721000  1.0
  C  C57  1  0.47670000  0.65195000  0.18814000  1.0
  C  C58  1  0.46376000  0.68861000  0.11570000  1.0
  C  C59  1  0.49637000  0.76131000  0.97525000  1.0
  C  C60  1  0.50898000  0.79803000  0.90290000  1.0
  C  C61  1  0.50591000  0.76524000  0.86696000  1.0
  C  C62  1  0.35173000  0.65613000  0.55269000  1.0
  C  C63  1  0.35054000  0.69165000  0.58544000  1.0
  C  C64  1  0.25307000  0.75865000  0.66950000  1.0
  C  C65  1  0.29144000  0.79108000  0.70519000  1.0
  C  C66  1  0.59117000  0.29000000  0.55868000  1.0
  C  C67  1  0.56438000  0.22222000  0.59298000  1.0
  C  C68  1  0.66290000  0.07939000  0.67270000  1.0
  C  C69  1  0.67643000  0.01141000  0.70434000  1.0
  C  C70  1  0.45522000  0.59012000  0.58408000  1.0
  C  C71  1  0.42681000  0.66147000  0.65251000  1.0
  C  C72  1  0.42665000  0.69760000  0.68897000  1.0
  C  C73  1  0.47848000  0.76440000  0.76171000  1.0
  C  C74  1  0.50146000  0.79976000  0.79835000  1.0
  C  C75  1  0.50802000  0.86844000  0.76551000  1.0
  N  N76  1  0.04634000  0.78908000  0.61581000  1.0
  N  N77  1  0.07664000  0.10673000  0.78467000  1.0
  N  N78  1  0.10640000  0.61072000  0.10567000  1.0
  O  O79  1  0.74042000  0.56185000  0.42725000  1.0
  O  O80  1  0.75402000  0.42689000  0.51161000  1.0
  O  O81  1  0.71527000  0.51124000  0.56159000  1.0
  O  O82  1  0.28636000  0.50648000  0.43014000  1.0
  O  O83  1  0.24695000  0.56469000  0.50726000  1.0
  O  O84  1  0.26999000  0.42971000  0.56422000  1.0
