# generated using pymatgen
data_AgH6C4N3O5
_symmetry_space_group_name_H-M   'P 1'
_cell_length_a   4.97620000
_cell_length_b   10.17500000
_cell_length_c   15.39470000
_cell_angle_alpha   89.98090000
_cell_angle_beta   94.67210000
_cell_angle_gamma   89.99450000
_symmetry_Int_Tables_number   1
_chemical_formula_structural   AgH6C4N3O5
_chemical_formula_sum   'Ag4 H24 C16 N12 O20'
_cell_volume   776.88718402
_cell_formula_units_Z   4
loop_
 _symmetry_equiv_pos_site_id
 _symmetry_equiv_pos_as_xyz
  1  'x, y, z'
loop_
 _atom_site_type_symbol
 _atom_site_label
 _atom_site_symmetry_multiplicity
 _atom_site_fract_x
 _atom_site_fract_y
 _atom_site_fract_z
 _atom_site_occupancy
  Ag  Ag0  1  0.41287000  0.64741000  0.26689000  1.0
  Ag  Ag1  1  0.91305000  0.85257000  0.76693000  1.0
  Ag  Ag2  1  0.58713000  0.35258000  0.73309000  1.0
  Ag  Ag3  1  0.08701000  0.14742000  0.23309000  1.0
  H  H4  1  0.08571000  0.46064000  0.35104000  1.0
  H  H5  1  0.50030000  0.02617000  0.65547000  1.0
  H  H6  1  0.00007000  0.52610000  0.84451000  1.0
  H  H7  1  0.41445000  0.96058000  0.14899000  1.0
  H  H8  1  0.91428000  0.53938000  0.64895000  1.0
  H  H9  1  0.49955000  0.97385000  0.34453000  1.0
  H  H10  1  0.99989000  0.47385000  0.15546000  1.0
  H  H11  1  0.58569000  0.03945000  0.85104000  1.0
  H  H12  1  0.35193000  0.58408000  0.58779000  1.0
  H  H13  1  0.88554000  0.91795000  0.44671000  1.0
  H  H14  1  0.61431000  0.41784000  0.05322000  1.0
  H  H15  1  0.14803000  0.08413000  0.91221000  1.0
  H  H16  1  0.64805000  0.41594000  0.41220000  1.0
  H  H17  1  0.11437000  0.08213000  0.55330000  1.0
  H  H18  1  0.38570000  0.58208000  0.94675000  1.0
  H  H19  1  0.85202000  0.91582000  0.08782000  1.0
  H  H20  1  0.10518000  0.70475000  0.55510000  1.0
  H  H21  1  0.62515000  0.79961000  0.45253000  1.0
  H  H22  1  0.87491000  0.29956000  0.04750000  1.0
  H  H23  1  0.39473000  0.20478000  0.94486000  1.0
  H  H24  1  0.89480000  0.29527000  0.44489000  1.0
  H  H25  1  0.37483000  0.20044000  0.54747000  1.0
  H  H26  1  0.12514000  0.70038000  0.95246000  1.0
  H  H27  1  0.60523000  0.79522000  0.05514000  1.0
  C  C28  1  0.20103000  0.57059000  0.45607000  1.0
  C  C29  1  0.67696000  0.92574000  0.56132000  1.0
  C  C30  1  0.82316000  0.42570000  0.93866000  1.0
  C  C31  1  0.29900000  0.07057000  0.04393000  1.0
  C  C32  1  0.79896000  0.42943000  0.54392000  1.0
  C  C33  1  0.32294000  0.07429000  0.43869000  1.0
  C  C34  1  0.17681000  0.57426000  0.06131000  1.0
  C  C35  1  0.70108000  0.92944000  0.95610000  1.0
  C  C36  1  0.15786000  0.59995000  0.54972000  1.0
  C  C37  1  0.67799000  0.90366000  0.46454000  1.0
  C  C38  1  0.82194000  0.40361000  0.03545000  1.0
  C  C39  1  0.34211000  0.09997000  0.95027000  1.0
  C  C40  1  0.84213000  0.40007000  0.45027000  1.0
  C  C41  1  0.32194000  0.09638000  0.53547000  1.0
  C  C42  1  0.17806000  0.59633000  0.96452000  1.0
  C  C43  1  0.65793000  0.90002000  0.04976000  1.0
  N  N44  1  0.95142000  0.85197000  0.26283000  1.0
  N  N45  1  0.45160000  0.64804000  0.76282000  1.0
  N  N46  1  0.04859000  0.14802000  0.73719000  1.0
  N  N47  1  0.54846000  0.35196000  0.23718000  1.0
  N  N48  1  0.04948000  0.47891000  0.41439000  1.0
  N  N49  1  0.50460000  0.01329000  0.58954000  1.0
  N  N50  1  0.99558000  0.51322000  0.91044000  1.0
  N  N51  1  0.45060000  0.97886000  0.08563000  1.0
  N  N52  1  0.95052000  0.52112000  0.58560000  1.0
  N  N53  1  0.49529000  0.98674000  0.41047000  1.0
  N  N54  1  0.00441000  0.48672000  0.08953000  1.0
  N  N55  1  0.54949000  0.02116000  0.91440000  1.0
  O  O56  1  0.88504000  0.73915000  0.28796000  1.0
  O  O57  1  0.38522000  0.76080000  0.78803000  1.0
  O  O58  1  0.11497000  0.26083000  0.71204000  1.0
  O  O59  1  0.61484000  0.23921000  0.21197000  1.0
  O  O60  1  0.19391000  0.87283000  0.24494000  1.0
  O  O61  1  0.69405000  0.62723000  0.74488000  1.0
  O  O62  1  0.80611000  0.12716000  0.75508000  1.0
  O  O63  1  0.30601000  0.37278000  0.25512000  1.0
  O  O64  1  0.78179000  0.94532000  0.25539000  1.0
  O  O65  1  0.28197000  0.55471000  0.75535000  1.0
  O  O66  1  0.21824000  0.05467000  0.74464000  1.0
  O  O67  1  0.71807000  0.44531000  0.24463000  1.0
  O  O68  1  0.38158000  0.63330000  0.42097000  1.0
  O  O69  1  0.83814000  0.85928000  0.61071000  1.0
  O  O70  1  0.66207000  0.35924000  0.88927000  1.0
  O  O71  1  0.11845000  0.13327000  0.07902000  1.0
  O  O72  1  0.61842000  0.36671000  0.57902000  1.0
  O  O73  1  0.16173000  0.14075000  0.38929000  1.0
  O  O74  1  0.33786000  0.64073000  0.11070000  1.0
  O  O75  1  0.88165000  0.86674000  0.92101000  1.0
