# generated using pymatgen
data_Cd2H12C8O11
_symmetry_space_group_name_H-M   'P 1'
_cell_length_a   7.48115000
_cell_length_b   7.85215000
_cell_length_c   11.95300000
_cell_angle_alpha   73.18290000
_cell_angle_beta   86.87730000
_cell_angle_gamma   66.89110000
_symmetry_Int_Tables_number   1
_chemical_formula_structural   Cd2H12C8O11
_chemical_formula_sum   'Cd4 H24 C16 O22'
_cell_volume   616.80301518
_cell_formula_units_Z   2
loop_
 _symmetry_equiv_pos_site_id
 _symmetry_equiv_pos_as_xyz
  1  'x, y, z'
loop_
 _atom_site_type_symbol
 _atom_site_label
 _atom_site_symmetry_multiplicity
 _atom_site_fract_x
 _atom_site_fract_y
 _atom_site_fract_z
 _atom_site_occupancy
  Cd  Cd0  1  0.11036000  0.14374000  0.75796000  1.0
  Cd  Cd1  1  0.88964000  0.85626000  0.24203000  1.0
  Cd  Cd2  1  0.51028000  0.32923000  0.76585000  1.0
  Cd  Cd3  1  0.48972000  0.67077000  0.23415000  1.0
  H  H4  1  0.06131000  0.77324000  0.99283000  1.0
  H  H5  1  0.93869000  0.22676000  0.00717000  1.0
  H  H6  1  0.06743000  0.74164000  0.85287000  1.0
  H  H7  1  0.93257000  0.25836000  0.14713000  1.0
  H  H8  1  0.84414000  0.57274000  0.90005000  1.0
  H  H9  1  0.15586000  0.42726000  0.09995000  1.0
  H  H10  1  0.57639000  0.12745000  0.40435000  1.0
  H  H11  1  0.42361000  0.87255000  0.59565000  1.0
  H  H12  1  0.25743000  0.14188000  0.34624000  1.0
  H  H13  1  0.74257000  0.85812000  0.65375000  1.0
  H  H14  1  0.15972000  0.19498000  0.47715000  1.0
  H  H15  1  0.84028000  0.80502000  0.52285000  1.0
  H  H16  1  0.13088000  0.56395000  0.63242000  1.0
  H  H17  1  0.86912000  0.43604000  0.36758000  1.0
  H  H18  1  0.27410000  0.66152000  0.56380000  1.0
  H  H19  1  0.72591000  0.33848000  0.43620000  1.0
  H  H20  1  0.09003000  0.86630000  0.63927000  1.0
  H  H21  1  0.90997000  0.13370000  0.36073000  1.0
  H  H22  1  0.89536000  0.06715000  0.60393000  1.0
  H  H23  1  0.10464000  0.93285000  0.39607000  1.0
  H  H24  1  0.47946000  0.86560000  0.86002000  1.0
  H  H25  1  0.52054000  0.13440000  0.13998000  1.0
  H  H26  1  0.36935000  0.72123000  0.88647000  1.0
  H  H27  1  0.63065000  0.27877000  0.11353000  1.0
  C  C28  1  0.80837000  0.95882000  0.87922000  1.0
  C  C29  1  0.19163000  0.04118000  0.12078000  1.0
  C  C30  1  0.97317000  0.76444000  0.92569000  1.0
  C  C31  1  0.02683000  0.23556000  0.07431000  1.0
  C  C32  1  0.91065000  0.59500000  0.97160000  1.0
  C  C33  1  0.08935000  0.40500000  0.02840000  1.0
  C  C34  1  0.76089000  0.62880000  0.06297000  1.0
  C  C35  1  0.23911000  0.37120000  0.93703000  1.0
  C  C36  1  0.49682000  0.19473000  0.56583000  1.0
  C  C37  1  0.50318000  0.80528000  0.43417000  1.0
  C  C38  1  0.47350000  0.10950000  0.47107000  1.0
  C  C39  1  0.52650000  0.89051000  0.52893000  1.0
  C  C40  1  0.26651000  0.21076000  0.41289000  1.0
  C  C41  1  0.73349000  0.78924000  0.58711000  1.0
  C  C42  1  0.21579000  0.42221000  0.34641000  1.0
  C  C43  1  0.78421000  0.57779000  0.65359000  1.0
  O  O44  1  0.84484000  0.11268000  0.85508000  1.0
  O  O45  1  0.15517000  0.88732000  0.14492000  1.0
  O  O46  1  0.63783000  0.97254000  0.86105000  1.0
  O  O47  1  0.36217000  0.02746000  0.13895000  1.0
  O  O48  1  0.21944000  0.62777000  0.64123000  1.0
  O  O49  1  0.78056000  0.37223000  0.35877000  1.0
  O  O50  1  0.37345000  0.21320000  0.64374000  1.0
  O  O51  1  0.62655000  0.78680000  0.35626000  1.0
  O  O52  1  0.03468000  0.00852000  0.63036000  1.0
  O  O53  1  0.96532000  0.99148000  0.36964000  1.0
  O  O54  1  0.64184000  0.24184000  0.56834000  1.0
  O  O55  1  0.35816000  0.75815000  0.43166000  1.0
  O  O56  1  0.35962000  0.85090000  0.84167000  1.0
  O  O57  1  0.64038000  0.14910000  0.15833000  1.0
  O  O58  1  0.77217000  0.72115000  0.13251000  1.0
  O  O59  1  0.22783000  0.27885000  0.86749000  1.0
  O  O60  1  0.63105000  0.55957000  0.07137000  1.0
  O  O61  1  0.36895000  0.44042000  0.92863000  1.0
  O  O62  1  0.34790000  0.46165000  0.28929000  1.0
  O  O63  1  0.65210000  0.53836000  0.71071000  1.0
  O  O64  1  0.04095000  0.54145000  0.35047000  1.0
  O  O65  1  0.95905000  0.45855000  0.64953000  1.0
