# generated using pymatgen
data_CuH9C3N5O3
_symmetry_space_group_name_H-M   'P 1'
_cell_length_a   7.02626000
_cell_length_b   7.24303000
_cell_length_c   8.50163557
_cell_angle_alpha   93.48846992
_cell_angle_beta   109.53550518
_cell_angle_gamma   115.80860000
_symmetry_Int_Tables_number   1
_chemical_formula_structural   CuH9C3N5O3
_chemical_formula_sum   'Cu2 H18 C6 N10 O6'
_cell_volume   356.05066930
_cell_formula_units_Z   2
loop_
 _symmetry_equiv_pos_site_id
 _symmetry_equiv_pos_as_xyz
  1  'x, y, z'
loop_
 _atom_site_type_symbol
 _atom_site_label
 _atom_site_symmetry_multiplicity
 _atom_site_fract_x
 _atom_site_fract_y
 _atom_site_fract_z
 _atom_site_occupancy
  Cu  Cu0  1  0.00000000  0.50000000  0.50000000  1.0
  Cu  Cu1  1  0.00000000  0.00000000  0.00000000  1.0
  H  H2  1  0.26946000  0.98404000  0.85425000  1.0
  H  H3  1  0.73054000  0.01596000  0.14575000  1.0
  H  H4  1  0.05799000  0.74097000  0.82961000  1.0
  H  H5  1  0.94201000  0.25903000  0.17039000  1.0
  H  H6  1  0.28519000  0.86416000  0.01625000  1.0
  H  H7  1  0.71480000  0.13584000  0.98375000  1.0
  H  H8  1  0.06871000  0.23081000  0.64956000  1.0
  H  H9  1  0.93128000  0.76918000  0.35043000  1.0
  H  H10  1  0.10242000  0.20450000  0.46757000  1.0
  H  H11  1  0.89758000  0.79550000  0.53243000  1.0
  H  H12  1  0.83883000  0.09759000  0.46594000  1.0
  H  H13  1  0.16118000  0.90241000  0.53406000  1.0
  H  H14  1  0.79207000  0.55132000  0.96130000  1.0
  H  H15  1  0.20792000  0.44868000  0.03870000  1.0
  H  H16  1  0.98127000  0.61650000  0.14230000  1.0
  H  H17  1  0.01872000  0.38350000  0.85770000  1.0
  H  H18  1  0.55788000  0.34422000  0.12724000  1.0
  H  H19  1  0.44212000  0.65579000  0.87277000  1.0
  C  C20  1  0.51335000  0.25586000  0.48035000  1.0
  C  C21  1  0.48665000  0.74414000  0.51965000  1.0
  C  C22  1  0.50616000  0.29134000  0.23048000  1.0
  C  C23  1  0.49384000  0.70867000  0.76951000  1.0
  C  C24  1  0.59420000  0.27794000  0.67038000  1.0
  C  C25  1  0.40581000  0.72206000  0.32962000  1.0
  N  N26  1  0.28842000  0.16788000  0.21269000  1.0
  N  N27  1  0.71157000  0.83212000  0.78731000  1.0
  N  N28  1  0.29190000  0.14512000  0.37090000  1.0
  N  N29  1  0.70810000  0.85487000  0.62910000  1.0
  N  N30  1  0.17511000  0.88585000  0.91361000  1.0
  N  N31  1  0.82489000  0.11415000  0.08640000  1.0
  N  N32  1  0.65260000  0.35024000  0.39703000  1.0
  N  N33  1  0.34740000  0.64976000  0.60297000  1.0
  N  N34  1  0.00060000  0.22797000  0.52177000  1.0
  N  N35  1  0.99940000  0.77202000  0.47823000  1.0
  O  O36  1  0.45963000  0.14978000  0.72761000  1.0
  O  O37  1  0.54039000  0.85024000  0.27239000  1.0
  O  O38  1  0.79788000  0.43071000  0.76124000  1.0
  O  O39  1  0.20213000  0.56929000  0.23875000  1.0
  O  O40  1  0.83972000  0.62633000  0.08013000  1.0
  O  O41  1  0.16026000  0.37367000  0.91987000  1.0
