# generated using pymatgen
data_CoH12C15(N2O3)2
_symmetry_space_group_name_H-M   'P 1'
_cell_length_a   7.28704000
_cell_length_b   9.12274000
_cell_length_c   14.56340000
_cell_angle_alpha   102.36400000
_cell_angle_beta   95.15390000
_cell_angle_gamma   93.34250000
_symmetry_Int_Tables_number   1
_chemical_formula_structural   CoH12C15(N2O3)2
_chemical_formula_sum   'Co2 H24 C30 N8 O12'
_cell_volume   938.86846541
_cell_formula_units_Z   2
loop_
 _symmetry_equiv_pos_site_id
 _symmetry_equiv_pos_as_xyz
  1  'x, y, z'
loop_
 _atom_site_type_symbol
 _atom_site_label
 _atom_site_symmetry_multiplicity
 _atom_site_fract_x
 _atom_site_fract_y
 _atom_site_fract_z
 _atom_site_occupancy
  Co  Co0  1  0.00000000  0.50000000  0.00000000  1.0
  Co  Co1  1  0.99999000  0.00000000  0.50000000  1.0
  H  H2  1  0.54260000  0.23082000  0.16333000  1.0
  H  H3  1  0.45741000  0.76918000  0.83665000  1.0
  H  H4  1  0.86478000  0.53497000  0.39900000  1.0
  H  H5  1  0.13519000  0.46500000  0.60101000  1.0
  H  H6  1  0.42714000  0.69498000  0.23838000  1.0
  H  H7  1  0.57288000  0.30502000  0.76162000  1.0
  H  H8  1  0.83058000  0.28161000  0.45600000  1.0
  H  H9  1  0.16936000  0.71838000  0.54400000  1.0
  H  H10  1  0.72694000  0.90969000  0.08187000  1.0
  H  H11  1  0.27310000  0.09032000  0.91813000  1.0
  H  H12  1  0.69812000  0.94327000  0.91640000  1.0
  H  H13  1  0.30190000  0.05674000  0.08361000  1.0
  H  H14  1  0.80432000  0.19290000  0.88409000  1.0
  H  H15  1  0.19571000  0.80711000  0.11591000  1.0
  H  H16  1  0.99125000  0.36209000  0.16549000  1.0
  H  H17  1  0.00876000  0.63792000  0.83451000  1.0
  H  H18  1  0.89692000  0.70015000  0.14862000  1.0
  H  H19  1  0.10308000  0.29985000  0.85138000  1.0
  H  H20  1  0.74702000  0.64793000  0.05684000  1.0
  H  H21  1  0.25297000  0.35208000  0.94315000  1.0
  H  H22  1  0.33638000  0.97815000  0.52419000  1.0
  H  H23  1  0.66359000  0.02184000  0.47581000  1.0
  H  H24  1  0.33192000  0.90007000  0.41494000  1.0
  H  H25  1  0.66805000  0.09992000  0.58507000  1.0
  C  C26  1  0.34128000  0.43481000  0.10369000  1.0
  C  C27  1  0.65872000  0.56520000  0.89631000  1.0
  C  C28  1  0.47245000  0.46003000  0.19197000  1.0
  C  C29  1  0.52755000  0.53997000  0.80802000  1.0
  C  C30  1  0.57149000  0.34130000  0.21024000  1.0
  C  C31  1  0.42851000  0.65870000  0.78975000  1.0
  C  C32  1  0.70975000  0.36776000  0.28591000  1.0
  C  C33  1  0.29025000  0.63222000  0.71409000  1.0
  C  C34  1  0.75060000  0.51123000  0.34296000  1.0
  C  C35  1  0.24938000  0.48875000  0.65704000  1.0
  C  C36  1  0.64627000  0.62888000  0.32670000  1.0
  C  C37  1  0.35372000  0.37111000  0.67330000  1.0
  C  C38  1  0.50550000  0.60260000  0.25212000  1.0
  C  C39  1  0.49450000  0.39740000  0.74788000  1.0
  C  C40  1  0.69760000  0.78446000  0.38603000  1.0
  C  C41  1  0.30239000  0.21554000  0.61397000  1.0
  C  C42  1  0.86440000  0.21673000  0.38915000  1.0
  C  C43  1  0.13557000  0.78326000  0.61085000  1.0
  C  C44  1  0.87643000  0.13176000  0.23810000  1.0
  C  C45  1  0.12359000  0.86824000  0.76191000  1.0
  C  C46  1  0.86304000  0.13363000  0.13738000  1.0
  C  C47  1  0.13699000  0.86637000  0.86262000  1.0
  C  C48  1  0.78045000  0.01431000  0.06593000  1.0
  C  C49  1  0.21958000  0.98569000  0.93408000  1.0
  C  C50  1  0.76132000  0.03428000  0.97345000  1.0
  C  C51  1  0.23871000  0.96573000  0.02655000  1.0
  C  C52  1  0.82233000  0.17161000  0.95508000  1.0
  C  C53  1  0.17770000  0.82841000  0.04493000  1.0
  C  C54  1  0.92502000  0.26654000  0.11224000  1.0
  C  C55  1  0.07499000  0.73347000  0.88777000  1.0
  N  N56  1  0.81548000  0.24781000  0.30338000  1.0
  N  N57  1  0.18451000  0.75217000  0.69662000  1.0
  N  N58  1  0.94642000  0.08975000  0.37773000  1.0
  N  N59  1  0.05357000  0.91024000  0.62228000  1.0
  N  N60  1  0.95532000  0.03503000  0.28228000  1.0
  N  N61  1  0.04470000  0.96498000  0.71773000  1.0
  N  N62  1  0.90510000  0.28610000  0.02345000  1.0
  N  N63  1  0.09492000  0.71391000  0.97656000  1.0
  O  O64  1  0.36664000  0.32803000  0.03560000  1.0
  O  O65  1  0.63336000  0.67199000  0.96439000  1.0
  O  O66  1  0.21408000  0.52631000  0.10355000  1.0
  O  O67  1  0.78592000  0.47371000  0.89645000  1.0
  O  O68  1  0.58519000  0.88550000  0.38447000  1.0
  O  O69  1  0.41479000  0.11448000  0.61553000  1.0
  O  O70  1  0.85616000  0.80244000  0.43417000  1.0
  O  O71  1  0.14382000  0.19756000  0.56585000  1.0
  O  O72  1  0.83499000  0.61167000  0.10468000  1.0
  O  O73  1  0.16500000  0.38834000  0.89531000  1.0
  O  O74  1  0.25794000  0.91042000  0.46880000  1.0
  O  O75  1  0.74203000  0.08957000  0.53120000  1.0
