# generated using pymatgen
data_Fe3H14C20(NO4)4
_symmetry_space_group_name_H-M   'P 1'
_cell_length_a   6.42544000
_cell_length_b   9.40118000
_cell_length_c   10.24350000
_cell_angle_alpha   108.21000000
_cell_angle_beta   91.44030000
_cell_angle_gamma   101.61000000
_symmetry_Int_Tables_number   1
_chemical_formula_structural   Fe3H14C20(NO4)4
_chemical_formula_sum   'Fe3 H14 C20 N4 O16'
_cell_volume   573.17814409
_cell_formula_units_Z   1
loop_
 _symmetry_equiv_pos_site_id
 _symmetry_equiv_pos_as_xyz
  1  'x, y, z'
loop_
 _atom_site_type_symbol
 _atom_site_label
 _atom_site_symmetry_multiplicity
 _atom_site_fract_x
 _atom_site_fract_y
 _atom_site_fract_z
 _atom_site_occupancy
  Fe  Fe0  1  0.29197000  0.18501000  0.65797000  1.0
  Fe  Fe1  1  0.70803000  0.81499000  0.34203000  1.0
  Fe  Fe2  1  0.50000000  0.50000000  0.50000000  1.0
  H  H3  1  0.33252000  0.22708000  0.12431000  1.0
  H  H4  1  0.66747000  0.77292000  0.87569000  1.0
  H  H5  1  0.12491000  0.66102000  0.02130000  1.0
  H  H6  1  0.87509000  0.33898000  0.97870000  1.0
  H  H7  1  0.15362000  0.75342000  0.59577000  1.0
  H  H8  1  0.84638000  0.24658000  0.40423000  1.0
  H  H9  1  0.72873000  0.34901000  0.59440000  1.0
  H  H10  1  0.27127000  0.65099000  0.40560000  1.0
  H  H11  1  0.89781000  0.50383000  0.61171000  1.0
  H  H12  1  0.10219000  0.49617000  0.38829000  1.0
  H  H13  1  0.25131000  0.49846000  0.71616000  1.0
  H  H14  1  0.74869000  0.50154000  0.28384000  1.0
  H  H15  1  0.48379000  0.48184000  0.76146000  1.0
  H  H16  1  0.51620000  0.51816000  0.23854000  1.0
  C  C17  1  0.26585000  0.06933000  0.85284000  1.0
  C  C18  1  0.73415000  0.93066000  0.14716000  1.0
  C  C19  1  0.24863000  0.00753000  0.96562000  1.0
  C  C20  1  0.75137000  0.99247000  0.03437000  1.0
  C  C21  1  0.28839000  0.10354000  0.10268000  1.0
  C  C22  1  0.71160000  0.89646000  0.89731000  1.0
  C  C23  1  0.27100000  0.04304000  0.21074000  1.0
  C  C24  1  0.72901000  0.95697000  0.78926000  1.0
  C  C25  1  0.21145000  0.88161000  0.18153000  1.0
  C  C26  1  0.78854000  0.11839000  0.81847000  1.0
  C  C27  1  0.17142000  0.78513000  0.04540000  1.0
  C  C28  1  0.82857000  0.21487000  0.95460000  1.0
  C  C29  1  0.18889000  0.84634000  0.93618000  1.0
  C  C30  1  0.81111000  0.15366000  0.06382000  1.0
  C  C31  1  0.14601000  0.74883000  0.79312000  1.0
  C  C32  1  0.85399000  0.25117000  0.20689000  1.0
  C  C33  1  0.31626000  0.15123000  0.35470000  1.0
  C  C34  1  0.68374000  0.84877000  0.64530000  1.0
  C  C35  1  0.19392000  0.81048000  0.29467000  1.0
  C  C36  1  0.80608000  0.18952000  0.70533000  1.0
  N  N37  1  0.23033000  0.97619000  0.72153000  1.0
  N  N38  1  0.76967000  0.02381000  0.27847000  1.0
  N  N39  1  0.17151000  0.82187000  0.69761000  1.0
  N  N40  1  0.82849000  0.17813000  0.30239000  1.0
  O  O41  1  0.31504000  0.21461000  0.86858000  1.0
  O  O42  1  0.68497000  0.78539000  0.13142000  1.0
  O  O43  1  0.08540000  0.60188000  0.75460000  1.0
  O  O44  1  0.91461000  0.39812000  0.24541000  1.0
  O  O45  1  0.37667000  0.29303000  0.36835000  1.0
  O  O46  1  0.62333000  0.70696000  0.63165000  1.0
  O  O47  1  0.29152000  0.09623000  0.45363000  1.0
  O  O48  1  0.70848000  0.90377000  0.54637000  1.0
  O  O49  1  0.35785000  0.76610000  0.32780000  1.0
  O  O50  1  0.64215000  0.23390000  0.67220000  1.0
  O  O51  1  0.01996000  0.78432000  0.34648000  1.0
  O  O52  1  0.98004000  0.21568000  0.65352000  1.0
  O  O53  1  0.77820000  0.42832000  0.54676000  1.0
  O  O54  1  0.22180000  0.57168000  0.45324000  1.0
  O  O55  1  0.36927000  0.43877000  0.68647000  1.0
  O  O56  1  0.63073000  0.56123000  0.31353000  1.0
