# generated using pymatgen
data_Zr3H14C25ClO26
_symmetry_space_group_name_H-M   'P 1'
_cell_length_a   14.85148074
_cell_length_b   14.85020000
_cell_length_c   14.85367374
_cell_angle_alpha   60.03859318
_cell_angle_beta   60.06349117
_cell_angle_gamma   60.05194946
_symmetry_Int_Tables_number   1
_chemical_formula_structural   Zr3H14C25ClO26
_chemical_formula_sum   'Zr6 H28 C50 Cl2 O52'
_cell_volume   2319.13489072
_cell_formula_units_Z   2
loop_
 _symmetry_equiv_pos_site_id
 _symmetry_equiv_pos_as_xyz
  1  'x, y, z'
loop_
 _atom_site_type_symbol
 _atom_site_label
 _atom_site_symmetry_multiplicity
 _atom_site_fract_x
 _atom_site_fract_y
 _atom_site_fract_z
 _atom_site_occupancy
  Zr  Zr0  1  0.88117000  0.61926000  0.61924000  1.0
  Zr  Zr1  1  0.11881000  0.38242000  0.38141000  1.0
  Zr  Zr2  1  0.88217000  0.38227000  0.61816000  1.0
  Zr  Zr3  1  0.11986000  0.61929000  0.38057000  1.0
  Zr  Zr4  1  0.88211000  0.61974000  0.38149000  1.0
  Zr  Zr5  1  0.11898000  0.38251000  0.61828000  1.0
  H  H6  1  0.72003000  0.59429000  0.59323000  1.0
  H  H7  1  0.09390000  0.59444000  0.21935000  1.0
  H  H8  1  0.09395000  0.22026000  0.59316000  1.0
  H  H9  1  0.09428000  0.59459000  0.59364000  1.0
  H  H10  1  0.62873000  0.66237000  0.95924000  1.0
  H  H11  1  0.54387000  0.74633000  0.87407000  1.0
  H  H12  1  0.37538000  0.74650000  0.04246000  1.0
  H  H13  1  0.46048000  0.66276000  0.12738000  1.0
  H  H14  1  0.35146000  0.15853000  0.34320000  1.0
  H  H15  1  0.65318000  0.84603000  0.65295000  1.0
  H  H16  1  0.65586000  0.85177000  0.34360000  1.0
  H  H17  1  0.34842000  0.15321000  0.65314000  1.0
  H  H18  1  0.15169000  0.34820000  0.15396000  1.0
  H  H19  1  0.84158000  0.64587000  0.85270000  1.0
  H  H20  1  0.15147000  0.34560000  0.84967000  1.0
  H  H21  1  0.84243000  0.64977000  0.15651000  1.0
  H  H22  1  0.15402000  0.15309000  0.84763000  1.0
  H  H23  1  0.84423000  0.85175000  0.15539000  1.0
  H  H24  1  0.15372000  0.84606000  0.15256000  1.0
  H  H25  1  0.84387000  0.15853000  0.85092000  1.0
  H  H26  1  0.65735000  0.64976000  0.34170000  1.0
  H  H27  1  0.35012000  0.34580000  0.65079000  1.0
  H  H28  1  0.35336000  0.64608000  0.34085000  1.0
  H  H29  1  0.65455000  0.34818000  0.65106000  1.0
  H  H30  1  0.84507000  0.15624000  0.64959000  1.0
  H  H31  1  0.15058000  0.85030000  0.34436000  1.0
  H  H32  1  0.84515000  0.85033000  0.64973000  1.0
  H  H33  1  0.15065000  0.15621000  0.34400000  1.0
  C  C34  1  0.69645000  0.80960000  0.49710000  1.0
  C  C35  1  0.99645000  0.49874000  0.19657000  1.0
  C  C36  1  0.30886000  0.19648000  0.49862000  1.0
  C  C37  1  0.99730000  0.49668000  0.80969000  1.0
  C  C38  1  0.70148000  0.49708000  0.80439000  1.0
  C  C39  1  0.99780000  0.80946000  0.49708000  1.0
  C  C40  1  0.30514000  0.49728000  0.20084000  1.0
  C  C41  1  0.99765000  0.19731000  0.49667000  1.0
  C  C42  1  0.69726000  0.49868000  0.49581000  1.0
  C  C43  1  0.99945000  0.19633000  0.80817000  1.0
  C  C44  1  0.31030000  0.49685000  0.49661000  1.0
  C  C45  1  0.99775000  0.80964000  0.19588000  1.0
  C  C46  1  0.40656000  0.09760000  0.49902000  1.0
  C  C47  1  0.59707000  0.90665000  0.49853000  1.0
  C  C48  1  0.45495000  0.05045000  0.41500000  1.0
  C  C49  1  0.54741000  0.95265000  0.58375000  1.0
  C  C50  1  0.54945000  0.95586000  0.41470000  1.0
  C  C51  1  0.45352000  0.04754000  0.58364000  1.0
  C  C52  1  0.99618000  0.49791000  0.09877000  1.0
  C  C53  1  0.99630000  0.49640000  0.90857000  1.0
  C  C54  1  0.08053000  0.41553000  0.04999000  1.0
  C  C55  1  0.91153000  0.57837000  0.95780000  1.0
  C  C56  1  0.08072000  0.41497000  0.95558000  1.0
  C  C57  1  0.91188000  0.57962000  0.05145000  1.0
  C  C58  1  0.99971000  0.09760000  0.90599000  1.0
  C  C59  1  0.99917000  0.90670000  0.09656000  1.0
  C  C60  1  0.08436000  0.04753000  0.95292000  1.0
  C  C61  1  0.91527000  0.95594000  0.04900000  1.0
  C  C62  1  0.08445000  0.95269000  0.04684000  1.0
  C  C63  1  0.91557000  0.05051000  0.95450000  1.0
  C  C64  1  0.59947000  0.49790000  0.49547000  1.0
  C  C65  1  0.40924000  0.49650000  0.49556000  1.0
  C  C66  1  0.55224000  0.57963000  0.41110000  1.0
  C  C67  1  0.45618000  0.41503000  0.58004000  1.0
  C  C68  1  0.45854000  0.57847000  0.41073000  1.0
  C  C69  1  0.55060000  0.41556000  0.57985000  1.0
  C  C70  1  0.60070000  0.49285000  0.90369000  1.0
  C  C71  1  0.40447000  0.49298000  0.10005000  1.0
  C  C72  1  0.54945000  0.57204000  0.95467000  1.0
  C  C73  1  0.45359000  0.41200000  0.04880000  1.0
  C  C74  1  0.45560000  0.57210000  0.04861000  1.0
  C  C75  1  0.54933000  0.41194000  0.95302000  1.0
  C  C76  1  0.55534000  0.67441000  0.94792000  1.0
  C  C77  1  0.44915000  0.67455000  0.05411000  1.0
  C  C78  1  0.99783000  0.09883000  0.49686000  1.0
  C  C79  1  0.99787000  0.90772000  0.49703000  1.0
  C  C80  1  0.91483000  0.05040000  0.58028000  1.0
  C  C81  1  0.08123000  0.95577000  0.41400000  1.0
  C  C82  1  0.91486000  0.95578000  0.58036000  1.0
  C  C83  1  0.08126000  0.05036000  0.41394000  1.0
  Cl  Cl84  1  0.40065000  0.31048000  0.09727000  1.0
  Cl  Cl85  1  0.59772000  0.31028000  0.90032000  1.0
  O  O86  1  0.73950000  0.76675000  0.57299000  1.0
  O  O87  1  0.07299000  0.42345000  0.23889000  1.0
  O  O88  1  0.26571000  0.23903000  0.42302000  1.0
  O  O89  1  0.92168000  0.57294000  0.76637000  1.0
  O  O90  1  0.74729000  0.42258000  0.76071000  1.0
  O  O91  1  0.07425000  0.76626000  0.42136000  1.0
  O  O92  1  0.26733000  0.57658000  0.23656000  1.0
  O  O93  1  0.92188000  0.23990000  0.57302000  1.0
  O  O94  1  0.73931000  0.57554000  0.42031000  1.0
  O  O95  1  0.07564000  0.23918000  0.76542000  1.0
  O  O96  1  0.26659000  0.42174000  0.57382000  1.0
  O  O97  1  0.92123000  0.76727000  0.23888000  1.0
  O  O98  1  0.92384000  0.23888000  0.76501000  1.0
  O  O99  1  0.26693000  0.57319000  0.42105000  1.0
  O  O100  1  0.07362000  0.76681000  0.23896000  1.0
  O  O101  1  0.73961000  0.42332000  0.57232000  1.0
  O  O102  1  0.73721000  0.57642000  0.76650000  1.0
  O  O103  1  0.07394000  0.23997000  0.42089000  1.0
  O  O104  1  0.26137000  0.42283000  0.24661000  1.0
  O  O105  1  0.92203000  0.76629000  0.57351000  1.0
  O  O106  1  0.07450000  0.42157000  0.76601000  1.0
  O  O107  1  0.73947000  0.76731000  0.42055000  1.0
  O  O108  1  0.92090000  0.57553000  0.23864000  1.0
  O  O109  1  0.26626000  0.23938000  0.57470000  1.0
  O  O110  1  0.06762000  0.56784000  0.56703000  1.0
  O  O111  1  0.06742000  0.30021000  0.56666000  1.0
  O  O112  1  0.06651000  0.56865000  0.29927000  1.0
  O  O113  1  0.79996000  0.56854000  0.56585000  1.0
  O  O114  1  0.95079000  0.45207000  0.45013000  1.0
  O  O115  1  0.95135000  0.64888000  0.45076000  1.0
  O  O116  1  0.14794000  0.45195000  0.45111000  1.0
  O  O117  1  0.95178000  0.45190000  0.64726000  1.0
  O  O118  1  0.41571000  0.09179000  0.33258000  1.0
  O  O119  1  0.58573000  0.90930000  0.66761000  1.0
  O  O120  1  0.59019000  0.91709000  0.33204000  1.0
  O  O121  1  0.41224000  0.08610333  0.66666667  1.0
  O  O122  1  0.16335000  0.33579000  0.08882000  1.0
  O  O123  1  0.82805000  0.65755000  0.91906000  1.0
  O  O124  1  0.16395000  0.33487000  0.91432000  1.0
  O  O125  1  0.82960000  0.66060000  0.09200000  1.0
  O  O126  1  0.16742000  0.08612000  0.91151000  1.0
  O  O127  1  0.83258000  0.91713000  0.08980000  1.0
  O  O128  1  0.16833000  0.90935000  0.08514000  1.0
  O  O129  1  0.83312000  0.09189000  0.91526000  1.0
  O  O130  1  0.59290000  0.66057000  0.32878000  1.0
  O  O131  1  0.41481000  0.33499000  0.66329000  1.0
  O  O132  1  0.41980000  0.65767000  0.32727000  1.0
  O  O133  1  0.58936000  0.33584000  0.66273000  1.0
  O  O134  1  0.83352000  0.09035000  0.66191000  1.0
  O  O135  1  0.16293000  0.91542000  0.33272000  1.0
  O  O136  1  0.83358000  0.91542000  0.66210000  1.0
  O  O137  1  0.16299000  0.09020000  0.33266000  1.0
