# generated using pymatgen
data_LiH2C2NO3
_symmetry_space_group_name_H-M   'P 1'
_cell_length_a   6.44466000
_cell_length_b   9.50177000
_cell_length_c   10.24960000
_cell_angle_alpha   103.23100000
_cell_angle_beta   106.84300000
_cell_angle_gamma   91.56140000
_symmetry_Int_Tables_number   1
_chemical_formula_structural   LiH2C2NO3
_chemical_formula_sum   'Li6 H12 C12 N6 O18'
_cell_volume   581.81470931
_cell_formula_units_Z   6
loop_
 _symmetry_equiv_pos_site_id
 _symmetry_equiv_pos_as_xyz
  1  'x, y, z'
loop_
 _atom_site_type_symbol
 _atom_site_label
 _atom_site_symmetry_multiplicity
 _atom_site_fract_x
 _atom_site_fract_y
 _atom_site_fract_z
 _atom_site_occupancy
  Li  Li0  1  0.29665000  0.46609000  0.16083000  1.0
  Li  Li1  1  0.70335000  0.53391000  0.83917000  1.0
  Li  Li2  1  0.21525000  0.47000000  0.83410000  1.0
  Li  Li3  1  0.78475000  0.53000000  0.16590000  1.0
  Li  Li4  1  0.15557000  0.12107000  0.64283000  1.0
  Li  Li5  1  0.84442000  0.87893000  0.35717000  1.0
  H  H6  1  0.60065000  0.62531000  0.34924000  1.0
  H  H7  1  0.39935000  0.37469000  0.65076000  1.0
  H  H8  1  0.66649000  0.46322000  0.35001000  1.0
  H  H9  1  0.33351000  0.53679000  0.64999000  1.0
  H  H10  1  0.13890000  0.65833000  0.24938000  1.0
  H  H11  1  0.86110000  0.34167000  0.75062000  1.0
  H  H12  1  0.14428000  0.57923000  0.36915000  1.0
  H  H13  1  0.85572000  0.42077000  0.63085000  1.0
  H  H14  1  0.55387000  0.18015000  0.67285000  1.0
  H  H15  1  0.44613000  0.81985000  0.32715000  1.0
  H  H16  1  0.45469000  0.14494000  0.50670000  1.0
  H  H17  1  0.54531000  0.85506000  0.49330000  1.0
  C  C18  1  0.23064000  0.81876000  0.95635000  1.0
  C  C19  1  0.76935000  0.18124000  0.04364000  1.0
  C  C20  1  0.21863000  0.03720000  0.90428000  1.0
  C  C21  1  0.78136000  0.96280000  0.09572000  1.0
  C  C22  1  0.18823000  0.83116000  0.73274000  1.0
  C  C23  1  0.81176000  0.16884000  0.26726000  1.0
  C  C24  1  0.24768000  0.72806000  0.06411000  1.0
  C  C25  1  0.75232000  0.27194000  0.93590000  1.0
  C  C26  1  0.23474000  0.20346000  0.94336000  1.0
  C  C27  1  0.76527000  0.79654000  0.05665000  1.0
  C  C28  1  0.16223000  0.76396000  0.57758000  1.0
  C  C29  1  0.83778000  0.23604000  0.42242000  1.0
  N  N30  1  0.23951000  0.96335000  0.00294000  1.0
  N  N31  1  0.76049000  0.03665000  0.99706000  1.0
  N  N32  1  0.18667000  0.97566000  0.76757000  1.0
  N  N33  1  0.81332000  0.02434000  0.23243000  1.0
  N  N34  1  0.21210000  0.74731000  0.82347000  1.0
  N  N35  1  0.78789000  0.25269000  0.17653000  1.0
  O  O36  1  0.26203000  0.59337000  0.02418000  1.0
  O  O37  1  0.73796000  0.40663000  0.97582000  1.0
  O  O38  1  0.24268000  0.79567000  0.18500000  1.0
  O  O39  1  0.75732000  0.20432000  0.81500000  1.0
  O  O40  1  0.24321000  0.26620000  0.06697000  1.0
  O  O41  1  0.75679000  0.73379000  0.93302000  1.0
  O  O42  1  0.23934000  0.26162000  0.84383000  1.0
  O  O43  1  0.76066000  0.73838000  0.15617000  1.0
  O  O44  1  0.09493000  0.84431000  0.49489000  1.0
  O  O45  1  0.90506000  0.15569000  0.50511000  1.0
  O  O46  1  0.21407000  0.63568000  0.54461000  1.0
  O  O47  1  0.78597000  0.36433000  0.45539000  1.0
  O  O48  1  0.59640000  0.52781000  0.28818000  1.0
  O  O49  1  0.40359000  0.47219000  0.71182000  1.0
  O  O50  1  0.10325000  0.56170000  0.26422000  1.0
  O  O51  1  0.89675000  0.43830000  0.73578000  1.0
  O  O52  1  0.41687000  0.17673000  0.59326000  1.0
  O  O53  1  0.58313000  0.82327000  0.40674000  1.0
