# generated using pymatgen
data_NiH12C10(N2O3)2
_symmetry_space_group_name_H-M   'P 1'
_cell_length_a   7.38234000
_cell_length_b   8.47469000
_cell_length_c   11.05930000
_cell_angle_alpha   90.00000000
_cell_angle_beta   90.00010000
_cell_angle_gamma   110.45500000
_symmetry_Int_Tables_number   1
_chemical_formula_structural   NiH12C10(N2O3)2
_chemical_formula_sum   'Ni2 H24 C20 N8 O12'
_cell_volume   648.27683941
_cell_formula_units_Z   2
loop_
 _symmetry_equiv_pos_site_id
 _symmetry_equiv_pos_as_xyz
  1  'x, y, z'
loop_
 _atom_site_type_symbol
 _atom_site_label
 _atom_site_symmetry_multiplicity
 _atom_site_fract_x
 _atom_site_fract_y
 _atom_site_fract_z
 _atom_site_occupancy
  Ni  Ni0  1  0.00000000  0.50000000  0.00000000  1.0
  Ni  Ni1  1  0.00000000  0.00000000  0.50000000  1.0
  H  H2  1  0.51478000  0.45215000  0.30034000  1.0
  H  H3  1  0.48522000  0.04784000  0.80035000  1.0
  H  H4  1  0.48522000  0.54784000  0.69966000  1.0
  H  H5  1  0.51478000  0.95217000  0.19965000  1.0
  H  H6  1  0.12655000  0.35379000  0.24199000  1.0
  H  H7  1  0.87345000  0.14620000  0.74199000  1.0
  H  H8  1  0.87345000  0.64620000  0.75801000  1.0
  H  H9  1  0.12655000  0.85380000  0.25801000  1.0
  H  H10  1  0.45079000  0.71524000  0.98783000  1.0
  H  H11  1  0.54920000  0.78476000  0.48782000  1.0
  H  H12  1  0.54921000  0.28476000  0.01218000  1.0
  H  H13  1  0.45080000  0.21524000  0.51218000  1.0
  H  H14  1  0.69040000  0.66276000  0.13588000  1.0
  H  H15  1  0.30961000  0.83724000  0.63588000  1.0
  H  H16  1  0.30961000  0.33725000  0.86412000  1.0
  H  H17  1  0.69039000  0.16276000  0.36412000  1.0
  H  H18  1  0.15463000  0.55601000  0.78978000  1.0
  H  H19  1  0.84537000  0.94399000  0.28978000  1.0
  H  H20  1  0.84537000  0.44399000  0.21023000  1.0
  H  H21  1  0.15463000  0.05601000  0.71022000  1.0
  H  H22  1  0.15576000  0.73630000  0.84491000  1.0
  H  H23  1  0.84424000  0.76370000  0.34492000  1.0
  H  H24  1  0.84424000  0.26370000  0.15509000  1.0
  H  H25  1  0.15576000  0.23630000  0.65509000  1.0
  C  C26  1  0.44131000  0.49304000  0.22898000  1.0
  C  C27  1  0.55870000  0.00695000  0.72899000  1.0
  C  C28  1  0.55869000  0.50696000  0.77102000  1.0
  C  C29  1  0.44131000  0.99305000  0.27101000  1.0
  C  C30  1  0.24944000  0.44625000  0.19844000  1.0
  C  C31  1  0.75056000  0.05375000  0.69844000  1.0
  C  C32  1  0.75056000  0.55375000  0.80156000  1.0
  C  C33  1  0.24944000  0.94625000  0.30156000  1.0
  C  C34  1  0.41237000  0.63431000  0.06651000  1.0
  C  C35  1  0.58762000  0.86569000  0.56652000  1.0
  C  C36  1  0.58763000  0.36569000  0.93349000  1.0
  C  C37  1  0.41237000  0.13431000  0.43349000  1.0
  C  C38  1  0.93545000  0.03424000  0.07424000  1.0
  C  C39  1  0.06455000  0.46575000  0.57425000  1.0
  C  C40  1  0.06455000  0.96575000  0.92575000  1.0
  C  C41  1  0.93545000  0.53425000  0.42575000  1.0
  C  C42  1  0.97120000  0.88041000  0.03753000  1.0
  C  C43  1  0.02880000  0.61959000  0.53753000  1.0
  C  C44  1  0.02880000  0.11958000  0.96247000  1.0
  C  C45  1  0.97120000  0.38041000  0.46247000  1.0
  N  N46  1  0.23279000  0.53545000  0.09646000  1.0
  N  N47  1  0.76721000  0.96455000  0.59645000  1.0
  N  N48  1  0.76721000  0.46455000  0.90355000  1.0
  N  N49  1  0.23279000  0.03545000  0.40355000  1.0
  N  N50  1  0.54109000  0.61172000  0.14532000  1.0
  N  N51  1  0.45891000  0.88827000  0.64532000  1.0
  N  N52  1  0.45891000  0.38828000  0.85468000  1.0
  N  N53  1  0.54109000  0.11173000  0.35468000  1.0
  O  O54  1  0.85646000  0.07223000  0.16595000  1.0
  O  O55  1  0.14354000  0.42777000  0.66595000  1.0
  O  O56  1  0.14354000  0.92777000  0.83405000  1.0
  O  O57  1  0.85646000  0.57223000  0.33405000  1.0
  O  O58  1  0.93290000  0.73774000  0.08548000  1.0
  O  O59  1  0.06710000  0.76226000  0.58549000  1.0
  O  O60  1  0.06709000  0.26226000  0.91451000  1.0
  O  O61  1  0.93290000  0.23774000  0.41451000  1.0
  O  O62  1  0.17037000  0.62540000  0.86489000  1.0
  O  O63  1  0.82963000  0.87460000  0.36489000  1.0
  O  O64  1  0.82963000  0.37460000  0.13511000  1.0
  O  O65  1  0.17037000  0.12540000  0.63511000  1.0
