# generated using pymatgen
data_ZnH15C20N8O5
_symmetry_space_group_name_H-M   'P 1'
_cell_length_a   8.91846000
_cell_length_b   9.97866000
_cell_length_c   13.80740000
_cell_angle_alpha   90.15820000
_cell_angle_beta   106.73600000
_cell_angle_gamma   116.16800000
_symmetry_Int_Tables_number   1
_chemical_formula_structural   ZnH15C20N8O5
_chemical_formula_sum   'Zn2 H30 C40 N16 O10'
_cell_volume   1044.01712241
_cell_formula_units_Z   2
loop_
 _symmetry_equiv_pos_site_id
 _symmetry_equiv_pos_as_xyz
  1  'x, y, z'
loop_
 _atom_site_type_symbol
 _atom_site_label
 _atom_site_symmetry_multiplicity
 _atom_site_fract_x
 _atom_site_fract_y
 _atom_site_fract_z
 _atom_site_occupancy
  Zn  Zn0  1  0.74552000  0.08990000  0.92311000  1.0
  Zn  Zn1  1  0.25447000  0.91010000  0.07689000  1.0
  H  H2  1  0.80032000  0.68958000  0.74049000  1.0
  H  H3  1  0.19968000  0.31042000  0.25951000  1.0
  H  H4  1  0.48855000  0.63525000  0.66775000  1.0
  H  H5  1  0.51145000  0.36475000  0.33225000  1.0
  H  H6  1  0.36427000  0.17907000  0.56068000  1.0
  H  H7  1  0.63573000  0.82093000  0.43932000  1.0
  H  H8  1  0.68615000  0.25479000  0.63701000  1.0
  H  H9  1  0.31385000  0.74521000  0.36299000  1.0
  H  H10  1  0.60738000  0.20009000  0.45343000  1.0
  H  H11  1  0.39262000  0.79991000  0.54657000  1.0
  H  H12  1  0.33856000  0.05060000  0.30177000  1.0
  H  H13  1  0.66144000  0.94940000  0.69823000  1.0
  H  H14  1  0.62834000  0.95842000  0.14983000  1.0
  H  H15  1  0.37167000  0.04158000  0.85017000  1.0
  H  H16  1  0.91012000  0.10515000  0.29501000  1.0
  H  H17  1  0.08988000  0.89485000  0.70500000  1.0
  H  H18  1  0.09710000  0.53419000  0.71705000  1.0
  H  H19  1  0.90290000  0.46581000  0.28295000  1.0
  H  H20  1  0.30300000  0.52636000  0.74830000  1.0
  H  H21  1  0.69700000  0.47364000  0.25170000  1.0
  H  H22  1  0.05879000  0.03618000  0.85347000  1.0
  H  H23  1  0.94121000  0.96382000  0.14653000  1.0
  H  H24  1  0.90893000  0.38505000  0.82038000  1.0
  H  H25  1  0.09107000  0.61495000  0.17962000  1.0
  H  H26  1  0.77219000  0.59514000  0.95230000  1.0
  H  H27  1  0.22781000  0.40486000  0.04769000  1.0
  H  H28  1  0.05060000  0.18734000  0.08798000  1.0
  H  H29  1  0.94939000  0.81266000  0.91202000  1.0
  H  H30  1  0.90172000  0.23884000  0.10068000  1.0
  H  H31  1  0.09828000  0.76116000  0.89932000  1.0
  C  C32  1  0.70123000  0.57712000  0.69993000  1.0
  C  C33  1  0.29877000  0.42287000  0.30007000  1.0
  C  C34  1  0.52479000  0.54591000  0.65972000  1.0
  C  C35  1  0.47521000  0.45409000  0.34028000  1.0
  C  C36  1  0.39915000  0.40067000  0.60850000  1.0
  C  C37  1  0.60085000  0.59933000  0.39150000  1.0
  C  C38  1  0.45802000  0.29371000  0.59901000  1.0
  C  C39  1  0.54198000  0.70629000  0.40099000  1.0
  C  C40  1  0.63680000  0.33624000  0.64215000  1.0
  C  C41  1  0.36320000  0.66376000  0.35785000  1.0
  C  C42  1  0.21078000  0.35587000  0.56495000  1.0
  C  C43  1  0.78922000  0.64412000  0.43505000  1.0
  C  C44  1  0.94240000  0.25362000  0.47071000  1.0
  C  C45  1  0.05761000  0.74637000  0.52929000  1.0
  C  C46  1  0.78102000  0.16473000  0.38557000  1.0
  C  C47  1  0.21898000  0.83527000  0.61443000  1.0
  C  C48  1  0.61698000  0.14780000  0.38766000  1.0
  C  C49  1  0.38302000  0.85220000  0.61234000  1.0
  C  C50  1  0.46802000  0.06447000  0.30403000  1.0
  C  C51  1  0.53197000  0.93553000  0.69597000  1.0
  C  C52  1  0.62981000  0.01293000  0.21892000  1.0
  C  C53  1  0.37019000  0.98708000  0.78107000  1.0
  C  C54  1  0.78559000  0.09438000  0.29938000  1.0
  C  C55  1  0.21441000  0.90562000  0.70062000  1.0
  C  C56  1  0.15975000  0.46216000  0.71416000  1.0
  C  C57  1  0.84025000  0.53784000  0.28584000  1.0
  C  C58  1  0.04904000  0.13740000  0.83143000  1.0
  C  C59  1  0.95096000  0.86260000  0.16857000  1.0
  C  C60  1  0.97025000  0.31284000  0.81782000  1.0
  C  C61  1  0.02975000  0.68716000  0.18218000  1.0
  C  C62  1  0.64848000  0.79630000  0.93930000  1.0
  C  C63  1  0.35152000  0.20370000  0.06070000  1.0
  C  C64  1  0.30241000  0.67173000  0.98252000  1.0
  C  C65  1  0.69759000  0.32827000  0.01748000  1.0
  C  C66  1  0.41017000  0.58774000  0.99337000  1.0
  C  C67  1  0.58983000  0.41226000  0.00664000  1.0
  C  C68  1  0.56571000  0.64139000  0.96689000  1.0
  C  C69  1  0.43430000  0.35861000  0.03311000  1.0
  C  C70  1  0.65194000  0.55221000  0.97295000  1.0
  C  C71  1  0.34806000  0.44779000  0.02705000  1.0
  N  N72  1  0.75801000  0.47484000  0.69223000  1.0
  N  N73  1  0.24199000  0.52517000  0.30777000  1.0
  N  N74  1  0.10386000  0.26539000  0.47688000  1.0
  N  N75  1  0.89614000  0.73461000  0.52312000  1.0
  N  N76  1  0.11538000  0.39813000  0.60920000  1.0
  N  N77  1  0.88462000  0.60187000  0.39080000  1.0
  N  N78  1  0.94364000  0.33158000  0.55018000  1.0
  N  N79  1  0.05636000  0.66842000  0.44982000  1.0
  N  N80  1  0.47354000  0.99860000  0.22090000  1.0
  N  N81  1  0.52646000  0.00141000  0.77910000  1.0
  N  N82  1  0.09258000  0.34045000  0.77198000  1.0
  N  N83  1  0.90742000  0.65955000  0.22803000  1.0
  N  N84  1  0.14464000  0.23023000  0.77955000  1.0
  N  N85  1  0.85536000  0.76977000  0.22045000  1.0
  N  N86  1  0.93942000  0.18410000  0.85629000  1.0
  N  N87  1  0.06058000  0.81590000  0.14371000  1.0
  O  O88  1  0.60383000  0.89171000  0.96789000  1.0
  O  O89  1  0.39617000  0.10829000  0.03210000  1.0
  O  O90  1  0.75990000  0.82950000  0.89194000  1.0
  O  O91  1  0.24010000  0.17050000  0.10805000  1.0
  O  O92  1  0.31469000  0.73825000  0.06588000  1.0
  O  O93  1  0.68531000  0.26175000  0.93412000  1.0
  O  O94  1  0.20179000  0.66206000  0.89410000  1.0
  O  O95  1  0.79821000  0.33794000  0.10590000  1.0
  O  O96  1  0.92407000  0.15427000  0.07899000  1.0
  O  O97  1  0.07593000  0.84573000  0.92101000  1.0
