# generated using pymatgen
data_CdH24C28(N2O3)2
_symmetry_space_group_name_H-M   'P 1'
_cell_length_a   10.70340000
_cell_length_b   17.02910000
_cell_length_c   17.82370000
_cell_angle_alpha   99.45440000
_cell_angle_beta   89.99990000
_cell_angle_gamma   89.99990000
_symmetry_Int_Tables_number   1
_chemical_formula_structural   CdH24C28(N2O3)2
_chemical_formula_sum   'Cd4 H96 C112 N16 O24'
_cell_volume   3204.58435199
_cell_formula_units_Z   4
loop_
 _symmetry_equiv_pos_site_id
 _symmetry_equiv_pos_as_xyz
  1  'x, y, z'
loop_
 _atom_site_type_symbol
 _atom_site_label
 _atom_site_symmetry_multiplicity
 _atom_site_fract_x
 _atom_site_fract_y
 _atom_site_fract_z
 _atom_site_occupancy
  Cd  Cd0  1  0.54721000  0.32931000  0.48415000  1.0
  Cd  Cd1  1  0.04721000  0.17069000  0.01585000  1.0
  Cd  Cd2  1  0.45279000  0.67069000  0.51585000  1.0
  Cd  Cd3  1  0.95279000  0.82931000  0.98415000  1.0
  H  H4  1  0.45548000  0.22308000  0.31097000  1.0
  H  H5  1  0.95547000  0.27692000  0.18903000  1.0
  H  H6  1  0.54452000  0.77692000  0.68903000  1.0
  H  H7  1  0.04453000  0.72308000  0.81097000  1.0
  H  H8  1  0.32265000  0.44548000  0.42177000  1.0
  H  H9  1  0.82265000  0.05451000  0.07823000  1.0
  H  H10  1  0.67735000  0.55452000  0.57823000  1.0
  H  H11  1  0.17735000  0.94549000  0.92177000  1.0
  H  H12  1  0.19887000  0.40551000  0.28307000  1.0
  H  H13  1  0.69887000  0.09449000  0.21693000  1.0
  H  H14  1  0.80113000  0.59449000  0.71693000  1.0
  H  H15  1  0.30113000  0.90551000  0.78307000  1.0
  H  H16  1  0.18005000  0.25962000  0.19546000  1.0
  H  H17  1  0.68005000  0.24038000  0.30454000  1.0
  H  H18  1  0.81995000  0.74038000  0.80454000  1.0
  H  H19  1  0.31995000  0.75962000  0.69546000  1.0
  H  H20  1  0.31551000  0.19920000  0.19397000  1.0
  H  H21  1  0.81551000  0.30080000  0.30603000  1.0
  H  H22  1  0.68449000  0.80080000  0.80604000  1.0
  H  H23  1  0.18449000  0.69920000  0.69397000  1.0
  H  H24  1  0.29154000  0.27278000  0.08327000  1.0
  H  H25  1  0.79154000  0.22722000  0.41673000  1.0
  H  H26  1  0.70846000  0.72722000  0.91673000  1.0
  H  H27  1  0.20846000  0.77278000  0.58327000  1.0
  H  H28  1  0.31152000  0.36460000  0.14725000  1.0
  H  H29  1  0.81151000  0.13540000  0.35275000  1.0
  H  H30  1  0.68848000  0.63539000  0.85275000  1.0
  H  H31  1  0.18849000  0.86460000  0.64725000  1.0
  H  H32  1  0.70040000  0.26842000  0.11036000  1.0
  H  H33  1  0.20040000  0.23158000  0.38964000  1.0
  H  H34  1  0.29960000  0.73158000  0.88964000  1.0
  H  H35  1  0.79960000  0.76842000  0.61036000  1.0
  H  H36  1  0.82472000  0.31598000  0.00836000  1.0
  H  H37  1  0.32472000  0.18402000  0.49163000  1.0
  H  H38  1  0.17528000  0.68402000  0.99164000  1.0
  H  H39  1  0.67528000  0.81598000  0.50837000  1.0
  H  H40  1  0.36749000  0.37118000  0.02962000  1.0
  H  H41  1  0.86749000  0.12882000  0.47038000  1.0
  H  H42  1  0.63251000  0.62882000  0.97038000  1.0
  H  H43  1  0.13251000  0.87118000  0.52962000  1.0
  H  H44  1  0.37681000  0.44011000  0.92172000  1.0
  H  H45  1  0.87681000  0.05989000  0.57828000  1.0
  H  H46  1  0.62319000  0.55989000  0.07828000  1.0
  H  H47  1  0.12319000  0.94011000  0.42172000  1.0
  H  H48  1  0.72583000  0.45841000  0.80424000  1.0
  H  H49  1  0.22583000  0.04159000  0.69576000  1.0
  H  H50  1  0.27417000  0.54159000  0.19576000  1.0
  H  H51  1  0.77417000  0.95841000  0.30424000  1.0
  H  H52  1  0.83478000  0.38659000  0.89652000  1.0
  H  H53  1  0.33478000  0.11341000  0.60348000  1.0
  H  H54  1  0.16522000  0.61341000  0.10348000  1.0
  H  H55  1  0.66522000  0.88659000  0.39652000  1.0
  H  H56  1  0.34042000  0.55146000  0.85707000  1.0
  H  H57  1  0.84043000  0.94854000  0.64293000  1.0
  H  H58  1  0.65958000  0.44853000  0.14293000  1.0
  H  H59  1  0.15957000  0.05147000  0.35707000  1.0
  H  H60  1  0.31190000  0.45156000  0.81000000  1.0
  H  H61  1  0.81190000  0.04844000  0.69000000  1.0
  H  H62  1  0.68810000  0.54844000  0.19000000  1.0
  H  H63  1  0.18810000  0.95156000  0.31000000  1.0
  H  H64  1  0.23274000  0.56266000  0.73991000  1.0
  H  H65  1  0.73274000  0.93734000  0.76009000  1.0
  H  H66  1  0.76726000  0.43734000  0.26009000  1.0
  H  H67  1  0.26726000  0.06266000  0.23991000  1.0
  H  H68  1  0.39138000  0.58619000  0.72498000  1.0
  H  H69  1  0.89138000  0.91381000  0.77502000  1.0
  H  H70  1  0.60862000  0.41381000  0.27502000  1.0
  H  H71  1  0.10862000  0.08619000  0.22498000  1.0
  H  H72  1  0.14153000  0.43251000  0.66585000  1.0
  H  H73  1  0.64153000  0.06749000  0.83415000  1.0
  H  H74  1  0.85847000  0.56749000  0.33415000  1.0
  H  H75  1  0.35847000  0.93251000  0.16585000  1.0
  H  H76  1  0.52442000  0.48036000  0.63419000  1.0
  H  H77  1  0.02442000  0.01965000  0.86581000  1.0
  H  H78  1  0.47558000  0.51965000  0.36581000  1.0
  H  H79  1  0.97558000  0.98035000  0.13419000  1.0
  H  H80  1  0.23270000  0.32673000  0.54293000  1.0
  H  H81  1  0.73270000  0.17327000  0.95707000  1.0
  H  H82  1  0.76730000  0.67327000  0.45707000  1.0
  H  H83  1  0.26730000  0.82673000  0.04293000  1.0
  H  H84  1  0.87026000  0.49554000  0.61457000  1.0
  H  H85  1  0.37026000  0.00446000  0.88543000  1.0
  H  H86  1  0.12974000  0.50446000  0.38543000  1.0
  H  H87  1  0.62974000  0.99554000  0.11457000  1.0
  H  H88  1  0.93160000  0.42325000  0.37592000  1.0
  H  H89  1  0.43160000  0.07674000  0.12408000  1.0
  H  H90  1  0.06840000  0.57674000  0.62408000  1.0
  H  H91  1  0.56840000  0.92326000  0.87592000  1.0
  H  H92  1  0.43997000  0.03131000  0.37352000  1.0
  H  H93  1  0.93997000  0.46869000  0.12648000  1.0
  H  H94  1  0.56003000  0.96869000  0.62648000  1.0
  H  H95  1  0.06003000  0.53131000  0.87352000  1.0
  H  H96  1  0.61604000  0.10154000  0.59002000  1.0
  H  H97  1  0.11604000  0.39846000  0.90999000  1.0
  H  H98  1  0.38396000  0.89846000  0.40998000  1.0
  H  H99  1  0.88396000  0.60154000  0.09002000  1.0
  C  C100  1  0.40512000  0.27907000  0.32180000  1.0
  C  C101  1  0.90511000  0.22093000  0.17820000  1.0
  C  C102  1  0.59489000  0.72093000  0.67820000  1.0
  C  C103  1  0.09489000  0.77907000  0.82180000  1.0
  C  C104  1  0.33280000  0.39350000  0.37809000  1.0
  C  C105  1  0.83280000  0.10650000  0.12191000  1.0
  C  C106  1  0.66720000  0.60650000  0.62191000  1.0
  C  C107  1  0.16720000  0.89350000  0.87809000  1.0
  C  C108  1  0.27059000  0.37492000  0.31003000  1.0
  C  C109  1  0.77059000  0.12508000  0.18998000  1.0
  C  C110  1  0.72941000  0.62508000  0.68997000  1.0
  C  C111  1  0.22941000  0.87492000  0.81002000  1.0
  C  C112  1  0.28213000  0.26070000  0.20034000  1.0
  C  C113  1  0.78213000  0.23930000  0.29967000  1.0
  C  C114  1  0.71787000  0.73930000  0.79966000  1.0
  C  C115  1  0.21787000  0.76070000  0.70034000  1.0
  C  C116  1  0.33394000  0.30056000  0.13729000  1.0
  C  C117  1  0.83394000  0.19944000  0.36272000  1.0
  C  C118  1  0.66606000  0.69944000  0.86271000  1.0
  C  C119  1  0.16606000  0.80056000  0.63728000  1.0
  C  C120  1  0.52645000  0.31724000  0.07620000  1.0
  C  C121  1  0.02645000  0.18275000  0.42380000  1.0
  C  C122  1  0.47355000  0.68276000  0.92380000  1.0
  C  C123  1  0.97355000  0.81725000  0.57620000  1.0
  C  C124  1  0.65671000  0.30164000  0.07008000  1.0
  C  C125  1  0.15671000  0.19835000  0.42992000  1.0
  C  C126  1  0.34329000  0.69836000  0.92992000  1.0
  C  C127  1  0.84329000  0.80165000  0.57008000  1.0
  C  C128  1  0.72477000  0.32795000  0.01347000  1.0
  C  C129  1  0.22477000  0.17205000  0.48653000  1.0
  C  C130  1  0.27523000  0.67205000  0.98653000  1.0
  C  C131  1  0.77523000  0.82795000  0.51347000  1.0
  C  C132  1  0.66722000  0.37013000  0.96037000  1.0
  C  C133  1  0.16722000  0.12987000  0.53963000  1.0
  C  C134  1  0.33278000  0.62987000  0.03963000  1.0
  C  C135  1  0.83278000  0.87013000  0.46037000  1.0
  C  C136  1  0.53577000  0.38532000  0.96679000  1.0
  C  C137  1  0.03577000  0.11468000  0.53321000  1.0
  C  C138  1  0.46423000  0.61468000  0.03321000  1.0
  C  C139  1  0.96423000  0.88532000  0.46679000  1.0
  C  C140  1  0.46709000  0.35843000  0.02565000  1.0
  C  C141  1  0.96709000  0.14157000  0.47435000  1.0
  C  C142  1  0.53291000  0.64157000  0.97435000  1.0
  C  C143  1  0.03291000  0.85843000  0.52565000  1.0
  C  C144  1  0.47613000  0.42731000  0.91440000  1.0
  C  C145  1  0.97614000  0.07269000  0.58560000  1.0
  C  C146  1  0.52387000  0.57269000  0.08560000  1.0
  C  C147  1  0.02386000  0.92731000  0.41440000  1.0
  C  C148  1  0.54465000  0.45218000  0.85690000  1.0
  C  C149  1  0.04465000  0.04782000  0.64310000  1.0
  C  C150  1  0.45535000  0.54782000  0.14310000  1.0
  C  C151  1  0.95535000  0.95218000  0.35690000  1.0
  C  C152  1  0.67509000  0.43759000  0.85024000  1.0
  C  C153  1  0.17509000  0.06241000  0.64975000  1.0
  C  C154  1  0.32491000  0.56241000  0.14976000  1.0
  C  C155  1  0.82491000  0.93759000  0.35024000  1.0
  C  C156  1  0.73448000  0.39761000  0.90111000  1.0
  C  C157  1  0.23448000  0.10239000  0.59889000  1.0
  C  C158  1  0.26552000  0.60239000  0.09889000  1.0
  C  C159  1  0.76552000  0.89761000  0.40111000  1.0
  C  C160  1  0.36332000  0.50707000  0.80669000  1.0
  C  C161  1  0.86332000  0.99293000  0.69331000  1.0
  C  C162  1  0.63668000  0.49293000  0.19331000  1.0
  C  C163  1  0.13668000  0.00707000  0.30669000  1.0
  C  C164  1  0.32781000  0.53822000  0.73455000  1.0
  C  C165  1  0.82781000  0.96178000  0.76545000  1.0
  C  C166  1  0.67219000  0.46178000  0.26545000  1.0
  C  C167  1  0.17219000  0.03822000  0.23455000  1.0
  C  C168  1  0.23394000  0.42585000  0.64091000  1.0
  C  C169  1  0.73394000  0.07415000  0.85909000  1.0
  C  C170  1  0.76606000  0.57415000  0.35910000  1.0
  C  C171  1  0.26606000  0.92585000  0.14091000  1.0
  C  C172  1  0.43332000  0.45278000  0.62464000  1.0
  C  C173  1  0.93332000  0.04722000  0.87536000  1.0
  C  C174  1  0.56668000  0.54722000  0.37536000  1.0
  C  C175  1  0.06668000  0.95278000  0.12464000  1.0
  C  C176  1  0.28040000  0.37410000  0.58016000  1.0
  C  C177  1  0.78040000  0.12590000  0.91984000  1.0
  C  C178  1  0.71960000  0.62590000  0.41984000  1.0
  C  C179  1  0.21960000  0.87410000  0.08016000  1.0
  C  C180  1  0.76689000  0.41237000  0.48910000  1.0
  C  C181  1  0.26688000  0.08763000  0.01090000  1.0
  C  C182  1  0.23312000  0.58763000  0.51089000  1.0
  C  C183  1  0.73311000  0.91237000  0.98910000  1.0
  C  C184  1  0.88879000  0.45593000  0.49469000  1.0
  C  C185  1  0.38879000  0.04407000  0.00531000  1.0
  C  C186  1  0.11121000  0.54407000  0.50531000  1.0
  C  C187  1  0.61121000  0.95593000  0.99469000  1.0
  C  C188  1  0.92788000  0.49854000  0.56481000  1.0
  C  C189  1  0.42788000  0.00146000  0.93520000  1.0
  C  C190  1  0.07212000  0.50146000  0.43519000  1.0
  C  C191  1  0.57212000  0.99854000  0.06480000  1.0
  C  C192  1  0.96244000  0.45724000  0.42995000  1.0
  C  C193  1  0.46244000  0.04276000  0.07005000  1.0
  C  C194  1  0.03756000  0.54277000  0.57005000  1.0
  C  C195  1  0.53756000  0.95724000  0.92995000  1.0
  C  C196  1  0.55778000  0.15358000  0.45781000  1.0
  C  C197  1  0.05778000  0.34642000  0.04220000  1.0
  C  C198  1  0.44222000  0.84642000  0.54219000  1.0
  C  C199  1  0.94222000  0.65358000  0.95781000  1.0
  C  C200  1  0.53193000  0.07340000  0.47929000  1.0
  C  C201  1  0.03193000  0.42660000  0.02072000  1.0
  C  C202  1  0.46807000  0.92660000  0.52071000  1.0
  C  C203  1  0.96807000  0.57340000  0.97929000  1.0
  C  C204  1  0.46583000  0.01653000  0.42872000  1.0
  C  C205  1  0.96583000  0.48348000  0.07128000  1.0
  C  C206  1  0.53417000  0.98348000  0.57128000  1.0
  C  C207  1  0.03417000  0.51652000  0.92872000  1.0
  C  C208  1  0.56599000  0.05634000  0.55089000  1.0
  C  C209  1  0.06598000  0.44366000  0.94911000  1.0
  C  C210  1  0.43401000  0.94366000  0.44911000  1.0
  C  C211  1  0.93401000  0.55634000  0.05089000  1.0
  N  N212  1  0.41650000  0.33328000  0.38461000  1.0
  N  N213  1  0.91650000  0.16672000  0.11539000  1.0
  N  N214  1  0.58350000  0.66666667  0.61539000  1.0
  N  N215  1  0.08350000  0.83328000  0.88461000  1.0
  N  N216  1  0.31718000  0.30234000  0.27544000  1.0
  N  N217  1  0.81717000  0.19765000  0.22456000  1.0
  N  N218  1  0.68282000  0.69766000  0.72456000  1.0
  N  N219  1  0.18283000  0.80235000  0.77544000  1.0
  N  N220  1  0.33152000  0.47574000  0.66802000  1.0
  N  N221  1  0.83152000  0.02426000  0.83198000  1.0
  N  N222  1  0.66848000  0.52426000  0.33198000  1.0
  N  N223  1  0.16848000  0.97574000  0.16802000  1.0
  N  N224  1  0.40502000  0.39151000  0.57070000  1.0
  N  N225  1  0.90502000  0.10849000  0.92930000  1.0
  N  N226  1  0.59498000  0.60849000  0.42930000  1.0
  N  N227  1  0.09498000  0.89151000  0.07069000  1.0
  O  O228  1  0.46679000  0.28933000  0.13459000  1.0
  O  O229  1  0.96679000  0.21067000  0.36541000  1.0
  O  O230  1  0.53321000  0.71067000  0.86541000  1.0
  O  O231  1  0.03321000  0.78933000  0.63459000  1.0
  O  O232  1  0.49482000  0.49214000  0.80303000  1.0
  O  O233  1  0.99482000  0.00786000  0.69697000  1.0
  O  O234  1  0.50518000  0.50786000  0.19697000  1.0
  O  O235  1  0.00518000  0.99214000  0.30303000  1.0
  O  O236  1  0.73208000  0.37406000  0.42485000  1.0
  O  O237  1  0.23207000  0.12593000  0.07515000  1.0
  O  O238  1  0.26793000  0.62594000  0.57515000  1.0
  O  O239  1  0.76793000  0.87407000  0.92485000  1.0
  O  O240  1  0.70022000  0.41595000  0.54913000  1.0
  O  O241  1  0.20022000  0.08405000  0.95088000  1.0
  O  O242  1  0.29978000  0.58405000  0.45087000  1.0
  O  O243  1  0.79978000  0.91595000  0.04912000  1.0
  O  O244  1  0.57670000  0.21032000  0.51457000  1.0
  O  O245  1  0.07670000  0.28968000  0.98543000  1.0
  O  O246  1  0.42330000  0.78968000  0.48543000  1.0
  O  O247  1  0.92330000  0.71032000  0.01456000  1.0
  O  O248  1  0.55520000  0.16193000  0.38902000  1.0
  O  O249  1  0.05520000  0.33807000  0.11098000  1.0
  O  O250  1  0.44480000  0.83807000  0.61098000  1.0
  O  O251  1  0.94480000  0.66193000  0.88902000  1.0
