# generated using pymatgen
data_TbH6C3(NO)6
_symmetry_space_group_name_H-M   'P 1'
_cell_length_a   8.95272000
_cell_length_b   9.21714000
_cell_length_c   12.99540000
_cell_angle_alpha   89.99860000
_cell_angle_beta   89.99820000
_cell_angle_gamma   75.02900000
_symmetry_Int_Tables_number   1
_chemical_formula_structural   TbH6C3(NO)6
_chemical_formula_sum   'Tb4 H24 C12 N24 O24'
_cell_volume   1035.96111766
_cell_formula_units_Z   4
loop_
 _symmetry_equiv_pos_site_id
 _symmetry_equiv_pos_as_xyz
  1  'x, y, z'
loop_
 _atom_site_type_symbol
 _atom_site_label
 _atom_site_symmetry_multiplicity
 _atom_site_fract_x
 _atom_site_fract_y
 _atom_site_fract_z
 _atom_site_occupancy
  Tb  Tb0  1  0.77486000  0.62871000  0.68314000  1.0
  Tb  Tb1  1  0.27483000  0.62876000  0.31685000  1.0
  Tb  Tb2  1  0.14600000  0.09513000  0.79338000  1.0
  Tb  Tb3  1  0.64597000  0.09516000  0.20662000  1.0
  H  H4  1  0.11425000  0.06478000  0.55813000  1.0
  H  H5  1  0.61424000  0.06476000  0.44188000  1.0
  H  H6  1  0.10438000  0.23704000  0.58621000  1.0
  H  H7  1  0.60436000  0.23704000  0.41380000  1.0
  H  H8  1  0.31022000  0.33112000  0.74691000  1.0
  H  H9  1  0.81019000  0.33113000  0.25308000  1.0
  H  H10  1  0.14219000  0.38953000  0.70265000  1.0
  H  H11  1  0.64218000  0.38953000  0.29736000  1.0
  H  H12  1  0.07272000  0.86893000  0.98856000  1.0
  H  H13  1  0.57269000  0.86897000  0.01144000  1.0
  H  H14  1  0.95925000  0.03309000  0.98487000  1.0
  H  H15  1  0.45920000  0.03312000  0.01512000  1.0
  H  H16  1  0.90333000  0.00575000  0.67224000  1.0
  H  H17  1  0.40333000  0.00575000  0.32779000  1.0
  H  H18  1  0.85076000  0.98276000  0.78430000  1.0
  H  H19  1  0.35071000  0.98281000  0.21573000  1.0
  H  H20  1  0.18628000  0.10230000  0.99951000  1.0
  H  H21  1  0.68627000  0.10229000  0.00049000  1.0
  H  H22  1  0.23558000  0.25207000  0.96859000  1.0
  H  H23  1  0.73558000  0.25207000  0.03141000  1.0
  H  H24  1  0.00199000  0.62555000  0.85778000  1.0
  H  H25  1  0.50198000  0.62557000  0.14221000  1.0
  H  H26  1  0.07122000  0.67585000  0.75668000  1.0
  H  H27  1  0.57120000  0.67587000  0.24331000  1.0
  C  C28  1  0.55280000  0.67766000  0.47940000  1.0
  C  C29  1  0.05278000  0.67770000  0.52060000  1.0
  C  C30  1  0.60633000  0.51205000  0.48701000  1.0
  C  C31  1  0.10631000  0.51209000  0.51298000  1.0
  C  C32  1  0.75030000  0.46805000  0.90962000  1.0
  C  C33  1  0.25028000  0.46807000  0.09038000  1.0
  C  C34  1  0.86394000  0.36051000  0.84661000  1.0
  C  C35  1  0.36392000  0.36053000  0.15339000  1.0
  C  C36  1  0.42646000  0.80495000  0.73755000  1.0
  C  C37  1  0.92645000  0.80499000  0.26245000  1.0
  C  C38  1  0.51069000  0.92244000  0.75222000  1.0
  C  C39  1  0.01067000  0.92249000  0.24778000  1.0
  N  N40  1  0.62076000  0.76918000  0.53048000  1.0
  N  N41  1  0.12075000  0.76923000  0.46952000  1.0
  N  N42  1  0.54649000  0.90841000  0.50106000  1.0
  N  N43  1  0.04647000  0.90845000  0.49894000  1.0
  N  N44  1  0.43547000  0.90011000  0.43588000  1.0
  N  N45  1  0.93545000  0.90014000  0.56413000  1.0
  N  N46  1  0.43769000  0.75589000  0.42056000  1.0
  N  N47  1  0.93768000  0.75593000  0.57944000  1.0
  N  N48  1  0.69757000  0.61149000  0.88031000  1.0
  N  N49  1  0.19755000  0.61151000  0.11969000  1.0
  N  N50  1  0.60334000  0.67755000  0.95641000  1.0
  N  N51  1  0.10334000  0.67756000  0.04358000  1.0
  N  N52  1  0.59822000  0.57491000  0.02737000  1.0
  N  N53  1  0.09822000  0.57492000  0.97262000  1.0
  N  N54  1  0.69114000  0.44222000  0.00031000  1.0
  N  N55  1  0.19114000  0.44223000  0.99969000  1.0
  N  N56  1  0.27356000  0.82941000  0.74948000  1.0
  N  N57  1  0.77355000  0.82945000  0.25051000  1.0
  N  N58  1  0.24446000  0.69654000  0.72929000  1.0
  N  N59  1  0.74445000  0.69657000  0.27069000  1.0
  N  N60  1  0.37392000  0.59556000  0.70646000  1.0
  N  N61  1  0.87390000  0.59560000  0.29353000  1.0
  N  N62  1  0.49049000  0.66226000  0.71119000  1.0
  N  N63  1  0.99047000  0.66230000  0.28881000  1.0
  O  O64  1  0.13434000  0.13208000  0.61300000  1.0
  O  O65  1  0.63432000  0.13207000  0.38701000  1.0
  O  O66  1  0.20302000  0.32978000  0.75901000  1.0
  O  O67  1  0.70298000  0.32980000  0.24100000  1.0
  O  O68  1  0.05788000  0.97042000  0.95723000  1.0
  O  O69  1  0.55783000  0.97045000  0.04277000  1.0
  O  O70  1  0.91768000  0.03212000  0.74601000  1.0
  O  O71  1  0.41767000  0.03215000  0.25401000  1.0
  O  O72  1  0.25976000  0.13955000  0.95732000  1.0
  O  O73  1  0.75976000  0.13954000  0.04269000  1.0
  O  O74  1  0.97113000  0.66366000  0.78640000  1.0
  O  O75  1  0.47112000  0.66368000  0.21359000  1.0
  O  O76  1  0.70442000  0.46156000  0.55670000  1.0
  O  O77  1  0.20440000  0.46159000  0.44330000  1.0
  O  O78  1  0.54936000  0.43841000  0.42115000  1.0
  O  O79  1  0.04934000  0.43845000  0.57885000  1.0
  O  O80  1  0.86792000  0.38861000  0.75104000  1.0
  O  O81  1  0.36789000  0.38865000  0.24896000  1.0
  O  O82  1  0.95402000  0.25053000  0.89159000  1.0
  O  O83  1  0.45399000  0.25055000  0.10842000  1.0
  O  O84  1  0.42712000  0.05158000  0.77506000  1.0
  O  O85  1  0.92710000  0.05163000  0.22495000  1.0
  O  O86  1  0.65677000  0.88121000  0.74145000  1.0
  O  O87  1  0.15675000  0.88125000  0.25854000  1.0
