# generated using pymatgen
data_AgPH12C6(NO)4
_symmetry_space_group_name_H-M   'P 1'
_cell_length_a   7.70149000
_cell_length_b   9.99103000
_cell_length_c   13.49980000
_cell_angle_alpha   90.00000000
_cell_angle_beta   90.00000000
_cell_angle_gamma   90.00000000
_symmetry_Int_Tables_number   1
_chemical_formula_structural   AgPH12C6(NO)4
_chemical_formula_sum   'Ag4 P4 H48 C24 N16 O16'
_cell_volume   1038.75314890
_cell_formula_units_Z   4
loop_
 _symmetry_equiv_pos_site_id
 _symmetry_equiv_pos_as_xyz
  1  'x, y, z'
loop_
 _atom_site_type_symbol
 _atom_site_label
 _atom_site_symmetry_multiplicity
 _atom_site_fract_x
 _atom_site_fract_y
 _atom_site_fract_z
 _atom_site_occupancy
  Ag  Ag0  1  0.19288000  0.25870000  0.78510000  1.0
  Ag  Ag1  1  0.69288000  0.24130000  0.21490000  1.0
  Ag  Ag2  1  0.80712000  0.75870000  0.71490000  1.0
  Ag  Ag3  1  0.30712000  0.74130000  0.28510000  1.0
  P  P4  1  0.35087000  0.48544000  0.97607000  1.0
  P  P5  1  0.85087000  0.01456000  0.02394000  1.0
  P  P6  1  0.64913000  0.98544000  0.52394000  1.0
  P  P7  1  0.14913000  0.51456000  0.47606000  1.0
  H  H8  1  0.21428000  0.67920000  0.04956000  1.0
  H  H9  1  0.71428000  0.82080000  0.95044000  1.0
  H  H10  1  0.78572000  0.17920000  0.45044000  1.0
  H  H11  1  0.28572000  0.32080000  0.54956000  1.0
  H  H12  1  0.16557000  0.52856000  0.11641000  1.0
  H  H13  1  0.66557000  0.97144000  0.88359000  1.0
  H  H14  1  0.83443000  0.02856000  0.38359000  1.0
  H  H15  1  0.33443000  0.47144000  0.61641000  1.0
  H  H16  1  0.61427000  0.53244000  0.88126000  1.0
  H  H17  1  0.11427000  0.96756000  0.11874000  1.0
  H  H18  1  0.38573000  0.03244000  0.61874000  1.0
  H  H19  1  0.88573000  0.46756000  0.38126000  1.0
  H  H20  1  0.49169000  0.68078000  0.90206000  1.0
  H  H21  1  0.99169000  0.81921000  0.09794000  1.0
  H  H22  1  0.50831000  0.18079000  0.59794000  1.0
  H  H23  1  0.00831000  0.31921000  0.40206000  1.0
  H  H24  1  0.36494000  0.28996000  0.08170000  1.0
  H  H25  1  0.86494000  0.21004000  0.91830000  1.0
  H  H26  1  0.63506000  0.78996000  0.41830000  1.0
  H  H27  1  0.13506000  0.71004000  0.58170000  1.0
  H  H28  1  0.53709000  0.28853000  0.99330000  1.0
  H  H29  1  0.03709000  0.21147000  0.00670000  1.0
  H  H30  1  0.46291000  0.78853000  0.50670000  1.0
  H  H31  1  0.96291000  0.71147000  0.49330000  1.0
  H  H32  1  0.80778000  0.52820000  0.12891000  1.0
  H  H33  1  0.30778000  0.97180000  0.87109000  1.0
  H  H34  1  0.19222000  0.02820000  0.37109000  1.0
  H  H35  1  0.69222000  0.47180000  0.62891000  1.0
  H  H36  1  0.78358000  0.43636000  0.01560000  1.0
  H  H37  1  0.28357000  0.06364000  0.98440000  1.0
  H  H38  1  0.21643000  0.93636000  0.48440000  1.0
  H  H39  1  0.71642000  0.56364000  0.51560000  1.0
  H  H40  1  0.49090000  0.78365000  0.06495000  1.0
  H  H41  1  0.99090000  0.71635000  0.93505000  1.0
  H  H42  1  0.50910000  0.28365000  0.43505000  1.0
  H  H43  1  0.00910000  0.21635000  0.56495000  1.0
  H  H44  1  0.64202000  0.72507000  0.15673000  1.0
  H  H45  1  0.14202000  0.77493000  0.84327000  1.0
  H  H46  1  0.35798000  0.22506000  0.34327000  1.0
  H  H47  1  0.85798000  0.27493000  0.65673000  1.0
  H  H48  1  0.57685000  0.52530000  0.25025000  1.0
  H  H49  1  0.07685000  0.97470000  0.74975000  1.0
  H  H50  1  0.42315000  0.02530000  0.24975000  1.0
  H  H51  1  0.92315000  0.47470000  0.75025000  1.0
  H  H52  1  0.37987000  0.43513000  0.22552000  1.0
  H  H53  1  0.87986000  0.06487000  0.77448000  1.0
  H  H54  1  0.62014000  0.93513000  0.27448000  1.0
  H  H55  1  0.12014000  0.56487000  0.72552000  1.0
  C  C56  1  0.26805000  0.58535000  0.07862000  1.0
  C  C57  1  0.76804000  0.91464000  0.92138000  1.0
  C  C58  1  0.73196000  0.08536000  0.42138000  1.0
  C  C59  1  0.23195000  0.41464000  0.57862000  1.0
  C  C60  1  0.53565000  0.58668000  0.93624000  1.0
  C  C61  1  0.03565000  0.91332000  0.06376000  1.0
  C  C62  1  0.46435000  0.08668000  0.56376000  1.0
  C  C63  1  0.96435000  0.41332000  0.43624000  1.0
  C  C64  1  0.46207000  0.35242000  0.04384000  1.0
  C  C65  1  0.96207000  0.14758000  0.95616000  1.0
  C  C66  1  0.53793000  0.85242000  0.45616000  1.0
  C  C67  1  0.03793000  0.64758000  0.54384000  1.0
  C  C68  1  0.71565000  0.49670000  0.07140000  1.0
  C  C69  1  0.21565000  0.00330000  0.92860000  1.0
  C  C70  1  0.28435000  0.99670000  0.42860000  1.0
  C  C71  1  0.78435000  0.50330000  0.57140000  1.0
  C  C72  1  0.54923000  0.69470000  0.09935000  1.0
  C  C73  1  0.04923000  0.80530000  0.90065000  1.0
  C  C74  1  0.45077000  0.19470000  0.40065000  1.0
  C  C75  1  0.95077000  0.30530000  0.59935000  1.0
  C  C76  1  0.48465000  0.49468000  0.19281000  1.0
  C  C77  1  0.98465000  0.00532000  0.80719000  1.0
  C  C78  1  0.51535000  0.99468000  0.30719000  1.0
  C  C79  1  0.01535000  0.50532000  0.69281000  1.0
  N  N80  1  0.58774000  0.27991000  0.79471000  1.0
  N  N81  1  0.08774000  0.22009000  0.20529000  1.0
  N  N82  1  0.41226000  0.77991000  0.70529000  1.0
  N  N83  1  0.91226000  0.72009000  0.29471000  1.0
  N  N84  1  0.40878000  0.61827000  0.15000000  1.0
  N  N85  1  0.90878000  0.88173000  0.85000000  1.0
  N  N86  1  0.59122000  0.11827000  0.35000000  1.0
  N  N87  1  0.09122000  0.38173000  0.65000000  1.0
  N  N88  1  0.64254000  0.61643000  0.02495000  1.0
  N  N89  1  0.14254000  0.88357000  0.97505000  1.0
  N  N90  1  0.35746000  0.11643000  0.47505000  1.0
  N  N91  1  0.85746000  0.38357000  0.52495000  1.0
  N  N92  1  0.58071000  0.41156000  0.11982000  1.0
  N  N93  1  0.08071000  0.08844000  0.88018000  1.0
  N  N94  1  0.41930000  0.91156000  0.38018000  1.0
  N  N95  1  0.91929000  0.58844000  0.61982000  1.0
  O  O96  1  0.21464000  0.44679000  0.90125000  1.0
  O  O97  1  0.71465000  0.05321000  0.09875000  1.0
  O  O98  1  0.78536000  0.94679000  0.59875000  1.0
  O  O99  1  0.28536000  0.55321000  0.40125000  1.0
  O  O100  1  0.49775000  0.33629000  0.72757000  1.0
  O  O101  1  0.99775000  0.16371000  0.27243000  1.0
  O  O102  1  0.50225000  0.83629000  0.77243000  1.0
  O  O103  1  0.00225000  0.66371000  0.22757000  1.0
  O  O104  1  0.52451000  0.18348000  0.84389000  1.0
  O  O105  1  0.02451000  0.31652000  0.15611000  1.0
  O  O106  1  0.47549000  0.68348000  0.65611000  1.0
  O  O107  1  0.97549000  0.81652000  0.34389000  1.0
  O  O108  1  0.74001000  0.32209000  0.81270000  1.0
  O  O109  1  0.24001000  0.17791000  0.18730000  1.0
  O  O110  1  0.25999000  0.82209000  0.68730000  1.0
  O  O111  1  0.75999000  0.67791000  0.31270000  1.0
