# generated using pymatgen
data_CuH16C22(NO2)2
_symmetry_space_group_name_H-M   'P 1'
_cell_length_a   9.94041000
_cell_length_b   10.17140000
_cell_length_c   19.05390000
_cell_angle_alpha   89.99840000
_cell_angle_beta   89.40560000
_cell_angle_gamma   89.99990000
_symmetry_Int_Tables_number   1
_chemical_formula_structural   CuH16C22(NO2)2
_chemical_formula_sum   'Cu4 H64 C88 N8 O16'
_cell_volume   1926.39588489
_cell_formula_units_Z   4
loop_
 _symmetry_equiv_pos_site_id
 _symmetry_equiv_pos_as_xyz
  1  'x, y, z'
loop_
 _atom_site_type_symbol
 _atom_site_label
 _atom_site_symmetry_multiplicity
 _atom_site_fract_x
 _atom_site_fract_y
 _atom_site_fract_z
 _atom_site_occupancy
  Cu  Cu0  1  0.24914000  0.72228000  0.04856000  1.0
  Cu  Cu1  1  0.25083000  0.22236000  0.45145000  1.0
  Cu  Cu2  1  0.75090000  0.27769000  0.95144000  1.0
  Cu  Cu3  1  0.74909000  0.77766000  0.54855000  1.0
  H  H4  1  0.02907000  0.04085000  0.92891000  1.0
  H  H5  1  0.47091000  0.54093000  0.57109000  1.0
  H  H6  1  0.97100000  0.95912000  0.07109000  1.0
  H  H7  1  0.52903000  0.45910000  0.42890000  1.0
  H  H8  1  0.16157000  0.03574000  0.86406000  1.0
  H  H9  1  0.33843000  0.53581000  0.63595000  1.0
  H  H10  1  0.83846000  0.96421000  0.13591000  1.0
  H  H11  1  0.66156000  0.46422000  0.36407000  1.0
  H  H12  1  0.82592000  0.93792000  0.90278000  1.0
  H  H13  1  0.67407000  0.43795000  0.59719000  1.0
  H  H14  1  0.17410000  0.06210000  0.09721000  1.0
  H  H15  1  0.32590000  0.56207000  0.40279000  1.0
  H  H16  1  0.69226000  0.77701000  0.83523000  1.0
  H  H17  1  0.80772000  0.27699000  0.66473000  1.0
  H  H18  1  0.30774000  0.22305000  0.16475000  1.0
  H  H19  1  0.19225000  0.72303000  0.33525000  1.0
  H  H20  1  0.05309000  0.63090000  0.73701000  1.0
  H  H21  1  0.44689000  0.13099000  0.76301000  1.0
  H  H22  1  0.94688000  0.36906000  0.26299000  1.0
  H  H23  1  0.55310000  0.86906000  0.23700000  1.0
  H  H24  1  0.18693000  0.79849000  0.80103000  1.0
  H  H25  1  0.31307000  0.29859000  0.69898000  1.0
  H  H26  1  0.81308000  0.20145000  0.19897000  1.0
  H  H27  1  0.68691000  0.70145000  0.30103000  1.0
  H  H28  1  0.68948000  0.56654000  0.77012000  1.0
  H  H29  1  0.81050000  0.06655000  0.72987000  1.0
  H  H30  1  0.31049000  0.43348000  0.22988000  1.0
  H  H31  1  0.18949000  0.93347000  0.27012000  1.0
  H  H32  1  0.83767000  0.50847000  0.72645000  1.0
  H  H33  1  0.66230000  0.00850000  0.77353000  1.0
  H  H34  1  0.16229000  0.49155000  0.27353000  1.0
  H  H35  1  0.33767000  0.99153000  0.22645000  1.0
  H  H36  1  0.03769000  0.66417000  0.93148000  1.0
  H  H37  1  0.46235000  0.16428000  0.56852000  1.0
  H  H38  1  0.96238000  0.33575000  0.06852000  1.0
  H  H39  1  0.53760000  0.83575000  0.43147000  1.0
  H  H40  1  0.97768000  0.46027000  0.86286000  1.0
  H  H41  1  0.52241000  0.96037000  0.63712000  1.0
  H  H42  1  0.02242000  0.53965000  0.13713000  1.0
  H  H43  1  0.47755000  0.03966000  0.36286000  1.0
  H  H44  1  0.09887000  0.25332000  0.88497000  1.0
  H  H45  1  0.40124000  0.75341000  0.61503000  1.0
  H  H46  1  0.90125000  0.74661000  0.11504000  1.0
  H  H47  1  0.59873000  0.24662000  0.38496000  1.0
  H  H48  1  0.29614000  0.13610000  0.95104000  1.0
  H  H49  1  0.20393000  0.63618000  0.54900000  1.0
  H  H50  1  0.70396000  0.86385000  0.04899000  1.0
  H  H51  1  0.79604000  0.36384000  0.45101000  1.0
  H  H52  1  0.47597000  0.14893000  0.03869000  1.0
  H  H53  1  0.02408000  0.64900000  0.46134000  1.0
  H  H54  1  0.52414000  0.85104000  0.96132000  1.0
  H  H55  1  0.97588000  0.35101000  0.53866000  1.0
  H  H56  1  0.60196000  0.28250000  0.12948000  1.0
  H  H57  1  0.89807000  0.78255000  0.37056000  1.0
  H  H58  1  0.39813000  0.71750000  0.87053000  1.0
  H  H59  1  0.10187000  0.21745000  0.62945000  1.0
  H  H60  1  0.63097000  0.50189000  0.19020000  1.0
  H  H61  1  0.86904000  0.00192000  0.30982000  1.0
  H  H62  1  0.36910000  0.49812000  0.80982000  1.0
  H  H63  1  0.13089000  0.99807000  0.69017000  1.0
  H  H64  1  0.48427000  0.69097000  0.15498000  1.0
  H  H65  1  0.01572000  0.19102000  0.34502000  1.0
  H  H66  1  0.51575000  0.30902000  0.84504000  1.0
  H  H67  1  0.98423000  0.80899000  0.65496000  1.0
  C  C68  1  0.18791000  0.89968000  0.94831000  1.0
  C  C69  1  0.31206000  0.39975000  0.55171000  1.0
  C  C70  1  0.81217000  0.10031000  0.05168000  1.0
  C  C71  1  0.68784000  0.60030000  0.44831000  1.0
  C  C72  1  0.09673000  0.97634000  0.89871000  1.0
  C  C73  1  0.40324000  0.47641000  0.60129000  1.0
  C  C74  1  0.90332000  0.02363000  0.10128000  1.0
  C  C75  1  0.59670000  0.52362000  0.39871000  1.0
  C  C76  1  0.01543000  0.88031000  0.85625000  1.0
  C  C77  1  0.48457000  0.38037000  0.64375000  1.0
  C  C78  1  0.98459000  0.11967000  0.14375000  1.0
  C  C79  1  0.51540000  0.61965000  0.35624000  1.0
  C  C80  1  0.87613000  0.87126000  0.86619000  1.0
  C  C81  1  0.62386000  0.37129000  0.63379000  1.0
  C  C82  1  0.12389000  0.12874000  0.13380000  1.0
  C  C83  1  0.37611000  0.62873000  0.36620000  1.0
  C  C84  1  0.80117000  0.77962000  0.82883000  1.0
  C  C85  1  0.69882000  0.27962000  0.67115000  1.0
  C  C86  1  0.19884000  0.22041000  0.17116000  1.0
  C  C87  1  0.30115000  0.72040000  0.32884000  1.0
  C  C88  1  0.86307000  0.69123000  0.78239000  1.0
  C  C89  1  0.63691000  0.19127000  0.71760000  1.0
  C  C90  1  0.13691000  0.30877000  0.21760000  1.0
  C  C91  1  0.36307000  0.80876000  0.28240000  1.0
  C  C92  1  0.00309000  0.69934000  0.77295000  1.0
  C  C93  1  0.49690000  0.19941000  0.72706000  1.0
  C  C94  1  0.99689000  0.30063000  0.22704000  1.0
  C  C95  1  0.50308000  0.80063000  0.27295000  1.0
  C  C96  1  0.07799000  0.79354000  0.80873000  1.0
  C  C97  1  0.42201000  0.29360000  0.69128000  1.0
  C  C98  1  0.92201000  0.20642000  0.19127000  1.0
  C  C99  1  0.57797000  0.70642000  0.30873000  1.0
  C  C100  1  0.77954000  0.59637000  0.74044000  1.0
  C  C101  1  0.72044000  0.09640000  0.75956000  1.0
  C  C102  1  0.22042000  0.40364000  0.25956000  1.0
  C  C103  1  0.27955000  0.90363000  0.24043000  1.0
  C  C104  1  0.73333000  0.66723000  0.67382000  1.0
  C  C105  1  0.76665000  0.16726000  0.82618000  1.0
  C  C106  1  0.26661000  0.33278000  0.32618000  1.0
  C  C107  1  0.23335000  0.83275000  0.17382000  1.0
  C  C108  1  0.09116000  0.57183000  0.93889000  1.0
  C  C109  1  0.40887000  0.07193000  0.56111000  1.0
  C  C110  1  0.90890000  0.42810000  0.06111000  1.0
  C  C111  1  0.59108000  0.92810000  0.43888000  1.0
  C  C112  1  0.05863000  0.45788000  0.90087000  1.0
  C  C113  1  0.44144000  0.95798000  0.59912000  1.0
  C  C114  1  0.94145000  0.54205000  0.09913000  1.0
  C  C115  1  0.55852000  0.04206000  0.40087000  1.0
  C  C116  1  0.12731000  0.34197000  0.91324000  1.0
  C  C117  1  0.37278000  0.84207000  0.58676000  1.0
  C  C118  1  0.87279000  0.65795000  0.08677000  1.0
  C  C119  1  0.62719000  0.15796000  0.41323000  1.0
  C  C120  1  0.23111000  0.33992000  0.96343000  1.0
  C  C121  1  0.26895000  0.84001000  0.53658000  1.0
  C  C122  1  0.76897000  0.66002000  0.03659000  1.0
  C  C123  1  0.73101000  0.16002000  0.46341000  1.0
  C  C124  1  0.31271000  0.22773000  0.97925000  1.0
  C  C125  1  0.18734000  0.72780000  0.52077000  1.0
  C  C126  1  0.68737000  0.77222000  0.02077000  1.0
  C  C127  1  0.81262000  0.27221000  0.47923000  1.0
  C  C128  1  0.41269000  0.23385000  0.02797000  1.0
  C  C129  1  0.08736000  0.73392000  0.47206000  1.0
  C  C130  1  0.58740000  0.76612000  0.97205000  1.0
  C  C131  1  0.91260000  0.26609000  0.52794000  1.0
  C  C132  1  0.43869000  0.35319000  0.06560000  1.0
  C  C133  1  0.06136000  0.85325000  0.43442000  1.0
  C  C134  1  0.56140000  0.64678000  0.93442000  1.0
  C  C135  1  0.93860000  0.14675000  0.56558000  1.0
  C  C136  1  0.53873000  0.36696000  0.11742000  1.0
  C  C137  1  0.96130000  0.86701000  0.38261000  1.0
  C  C138  1  0.46135000  0.63304000  0.88259000  1.0
  C  C139  1  0.03865000  0.13299000  0.61739000  1.0
  C  C140  1  0.55506000  0.48736000  0.15011000  1.0
  C  C141  1  0.94495000  0.98741000  0.34991000  1.0
  C  C142  1  0.44501000  0.51264000  0.84990000  1.0
  C  C143  1  0.05499000  0.01259000  0.65008000  1.0
  C  C144  1  0.47332000  0.59432000  0.13113000  1.0
  C  C145  1  0.02668000  0.09438000  0.36888000  1.0
  C  C146  1  0.52672000  0.40566000  0.86888000  1.0
  C  C147  1  0.97326000  0.90562000  0.63111000  1.0
  C  C148  1  0.35965000  0.46528000  0.05088000  1.0
  C  C149  1  0.14038000  0.96536000  0.44914000  1.0
  C  C150  1  0.64041000  0.53468000  0.94914000  1.0
  C  C151  1  0.85957000  0.03465000  0.55085000  1.0
  C  C152  1  0.25642000  0.45910000  0.99935000  1.0
  C  C153  1  0.24362000  0.95918000  0.50066000  1.0
  C  C154  1  0.74364000  0.54084000  0.00067000  1.0
  C  C155  1  0.75634000  0.04083000  0.49933000  1.0
  N  N156  1  0.18745000  0.57204000  0.98704000  1.0
  N  N157  1  0.31257000  0.07213000  0.51297000  1.0
  N  N158  1  0.81260000  0.42790000  0.01298000  1.0
  N  N159  1  0.68738000  0.92789000  0.48702000  1.0
  N  N160  1  0.37780000  0.58314000  0.08305000  1.0
  N  N161  1  0.12221000  0.08321000  0.41696000  1.0
  N  N162  1  0.62224000  0.41683000  0.91697000  1.0
  N  N163  1  0.87774000  0.91680000  0.58303000  1.0
  O  O164  1  0.12757000  0.84757000  0.00228000  1.0
  O  O165  1  0.37237000  0.34768000  0.49772000  1.0
  O  O166  1  0.87251000  0.15238000  0.99769000  1.0
  O  O167  1  0.62751000  0.65234000  0.50230000  1.0
  O  O168  1  0.31006000  0.88521000  0.93386000  1.0
  O  O169  1  0.18992000  0.38524000  0.56618000  1.0
  O  O170  1  0.69003000  0.11486000  0.06614000  1.0
  O  O171  1  0.80998000  0.61488000  0.43384000  1.0
  O  O172  1  0.81219000  0.65204000  0.61953000  1.0
  O  O173  1  0.68781000  0.15206000  0.88047000  1.0
  O  O174  1  0.18775000  0.34798000  0.38047000  1.0
  O  O175  1  0.31221000  0.84792000  0.11953000  1.0
  O  O176  1  0.63139000  0.73921000  0.67481000  1.0
  O  O177  1  0.86858000  0.23927000  0.82517000  1.0
  O  O178  1  0.36854000  0.26077000  0.32519000  1.0
  O  O179  1  0.13141000  0.76075000  0.17482000  1.0
