# generated using pymatgen
data_CuH6C8NO2
_symmetry_space_group_name_H-M   'P 1'
_cell_length_a   5.21817000
_cell_length_b   15.31720000
_cell_length_c   20.14900000
_cell_angle_alpha   90.00000000
_cell_angle_beta   90.00000000
_cell_angle_gamma   90.00000000
_symmetry_Int_Tables_number   1
_chemical_formula_structural   CuH6C8NO2
_chemical_formula_sum   'Cu8 H48 C64 N8 O16'
_cell_volume   1610.46430576
_cell_formula_units_Z   8
loop_
 _symmetry_equiv_pos_site_id
 _symmetry_equiv_pos_as_xyz
  1  'x, y, z'
loop_
 _atom_site_type_symbol
 _atom_site_label
 _atom_site_symmetry_multiplicity
 _atom_site_fract_x
 _atom_site_fract_y
 _atom_site_fract_z
 _atom_site_occupancy
  Cu  Cu0  1  0.20517000  0.61945000  0.48230000  1.0
  Cu  Cu1  1  0.29482000  0.11945000  0.01770000  1.0
  Cu  Cu2  1  0.29483000  0.38055000  0.98231000  1.0
  Cu  Cu3  1  0.20517000  0.88055000  0.51769000  1.0
  Cu  Cu4  1  0.79483000  0.38056000  0.51769000  1.0
  Cu  Cu5  1  0.70517000  0.88055000  0.98231000  1.0
  Cu  Cu6  1  0.70518000  0.61945000  0.01770000  1.0
  Cu  Cu7  1  0.79482000  0.11945000  0.48230000  1.0
  H  H8  1  0.48221000  0.72646000  0.54909000  1.0
  H  H9  1  0.01779000  0.22646000  0.95091000  1.0
  H  H10  1  0.01780000  0.27354000  0.04911000  1.0
  H  H11  1  0.48221000  0.77354000  0.45090000  1.0
  H  H12  1  0.51780000  0.27354000  0.45089000  1.0
  H  H13  1  0.98220000  0.77354000  0.04910000  1.0
  H  H14  1  0.98221000  0.72646000  0.95091000  1.0
  H  H15  1  0.51779000  0.22646000  0.54909000  1.0
  H  H16  1  0.26973000  0.54673000  0.59488000  1.0
  H  H17  1  0.23027000  0.04673000  0.90512000  1.0
  H  H18  1  0.23027000  0.45327000  0.09490000  1.0
  H  H19  1  0.26973000  0.95327000  0.40511000  1.0
  H  H20  1  0.73028000  0.45327000  0.40511000  1.0
  H  H21  1  0.76973000  0.95327000  0.09489000  1.0
  H  H22  1  0.76973000  0.54673000  0.90511000  1.0
  H  H23  1  0.73027000  0.04673000  0.59488000  1.0
  H  H24  1  0.02709000  0.60583000  0.65988000  1.0
  H  H25  1  0.47291000  0.10583000  0.84012000  1.0
  H  H26  1  0.47293000  0.39417000  0.15989000  1.0
  H  H27  1  0.02708000  0.89417000  0.34011000  1.0
  H  H28  1  0.97292000  0.39417000  0.34011000  1.0
  H  H29  1  0.52707000  0.89417000  0.15989000  1.0
  H  H30  1  0.52710000  0.60583000  0.84012000  1.0
  H  H31  1  0.97291000  0.10583000  0.65988000  1.0
  H  H32  1  0.67915000  0.67877000  0.72343000  1.0
  H  H33  1  0.82085000  0.17877000  0.77657000  1.0
  H  H34  1  0.82088000  0.32123000  0.22343000  1.0
  H  H35  1  0.67913000  0.82123000  0.27656000  1.0
  H  H36  1  0.32087000  0.32123000  0.27656000  1.0
  H  H37  1  0.17913000  0.82123000  0.22343000  1.0
  H  H38  1  0.17915000  0.67877000  0.77657000  1.0
  H  H39  1  0.32085000  0.17877000  0.72343000  1.0
  H  H40  1  0.58439000  0.83758000  0.70045000  1.0
  H  H41  1  0.91561000  0.33757000  0.79955000  1.0
  H  H42  1  0.91563000  0.16242000  0.20046000  1.0
  H  H43  1  0.58437000  0.66242000  0.29954000  1.0
  H  H44  1  0.41563000  0.16242000  0.29954000  1.0
  H  H45  1  0.08437000  0.66242000  0.20046000  1.0
  H  H46  1  0.08439000  0.83757000  0.79955000  1.0
  H  H47  1  0.41562000  0.33758000  0.70045000  1.0
  H  H48  1  0.84201000  0.91332000  0.61300000  1.0
  H  H49  1  0.65799000  0.41331000  0.88699000  1.0
  H  H50  1  0.65799000  0.08669000  0.11302000  1.0
  H  H51  1  0.84201000  0.58669000  0.38699000  1.0
  H  H52  1  0.15799000  0.08669000  0.38698000  1.0
  H  H53  1  0.34202000  0.58668000  0.11302000  1.0
  H  H54  1  0.34200000  0.91331000  0.88699000  1.0
  H  H55  1  0.15799000  0.41332000  0.61301000  1.0
  C  C56  1  0.33333333  0.68153000  0.56608000  1.0
  C  C57  1  0.16665000  0.18153000  0.93392000  1.0
  C  C58  1  0.16666000  0.31847000  0.06610000  1.0
  C  C59  1  0.33333333  0.81847000  0.43391000  1.0
  C  C60  1  0.66666667  0.31847000  0.43390000  1.0
  C  C61  1  0.83334000  0.81847000  0.06609000  1.0
  C  C62  1  0.83334000  0.68153000  0.93392000  1.0
  C  C63  1  0.66666667  0.18153000  0.56608000  1.0
  C  C64  1  0.12218000  0.72109000  0.60319000  1.0
  C  C65  1  0.37781000  0.22109000  0.89681000  1.0
  C  C66  1  0.37782000  0.27891000  0.10320000  1.0
  C  C67  1  0.12218000  0.77891000  0.39680000  1.0
  C  C68  1  0.87782000  0.27891000  0.39680000  1.0
  C  C69  1  0.62218000  0.77891000  0.10320000  1.0
  C  C70  1  0.62218000  0.72109000  0.89681000  1.0
  C  C71  1  0.87782000  0.22109000  0.60319000  1.0
  C  C72  1  0.39112000  0.59232000  0.56771000  1.0
  C  C73  1  0.10887000  0.09231000  0.93229000  1.0
  C  C74  1  0.10888000  0.40769000  0.06772000  1.0
  C  C75  1  0.39113000  0.90769000  0.43228000  1.0
  C  C76  1  0.60888000  0.40769000  0.43228000  1.0
  C  C77  1  0.89113000  0.90769000  0.06772000  1.0
  C  C78  1  0.89112000  0.59232000  0.93229000  1.0
  C  C79  1  0.60887000  0.09232000  0.56771000  1.0
  C  C80  1  0.98262000  0.67432000  0.65117000  1.0
  C  C81  1  0.51738000  0.17432000  0.84883000  1.0
  C  C82  1  0.51740000  0.32568000  0.15118000  1.0
  C  C83  1  0.98261000  0.82568000  0.34882000  1.0
  C  C84  1  0.01739000  0.32568000  0.34882000  1.0
  C  C85  1  0.48260000  0.82568000  0.15118000  1.0
  C  C86  1  0.48262000  0.67432000  0.84883000  1.0
  C  C87  1  0.01739000  0.17432000  0.65117000  1.0
  C  C88  1  0.87892000  0.84553000  0.62592000  1.0
  C  C89  1  0.62109000  0.34553000  0.87408000  1.0
  C  C90  1  0.62109000  0.15447000  0.12593000  1.0
  C  C91  1  0.87891000  0.65447000  0.37407000  1.0
  C  C92  1  0.12109000  0.15447000  0.37407000  1.0
  C  C93  1  0.37891000  0.65447000  0.12593000  1.0
  C  C94  1  0.37891000  0.84553000  0.87408000  1.0
  C  C95  1  0.12108000  0.34553000  0.62592000  1.0
  C  C96  1  0.78826000  0.71499000  0.68647000  1.0
  C  C97  1  0.71174000  0.21499000  0.81354000  1.0
  C  C98  1  0.71176000  0.28501000  0.18647000  1.0
  C  C99  1  0.78824000  0.78501000  0.31352000  1.0
  C  C100  1  0.21176000  0.28501000  0.31352000  1.0
  C  C101  1  0.28824000  0.78501000  0.18647000  1.0
  C  C102  1  0.28826000  0.71499000  0.81354000  1.0
  C  C103  1  0.21174000  0.21499000  0.68647000  1.0
  C  C104  1  0.73574000  0.80291000  0.67420000  1.0
  C  C105  1  0.76426000  0.30291000  0.82580000  1.0
  C  C106  1  0.76427000  0.19709000  0.17420000  1.0
  C  C107  1  0.73573000  0.69709000  0.32580000  1.0
  C  C108  1  0.26427000  0.19709000  0.32580000  1.0
  C  C109  1  0.23573000  0.69709000  0.17420000  1.0
  C  C110  1  0.23574000  0.80291000  0.82580000  1.0
  C  C111  1  0.26426000  0.30291000  0.67420000  1.0
  C  C112  1  0.65030000  0.55816000  0.54915000  1.0
  C  C113  1  0.84969000  0.05816000  0.95085000  1.0
  C  C114  1  0.84970000  0.44184000  0.04916000  1.0
  C  C115  1  0.65030000  0.94184000  0.45084000  1.0
  C  C116  1  0.34971000  0.44184000  0.45084000  1.0
  C  C117  1  0.15030000  0.94184000  0.04916000  1.0
  C  C118  1  0.15030000  0.55816000  0.95085000  1.0
  C  C119  1  0.34968000  0.05816000  0.54915000  1.0
  N  N120  1  0.06674000  0.80631000  0.59095000  1.0
  N  N121  1  0.43327000  0.30631000  0.90905000  1.0
  N  N122  1  0.43326000  0.19369000  0.09096000  1.0
  N  N123  1  0.06674000  0.69369000  0.40904000  1.0
  N  N124  1  0.93326000  0.19369000  0.40904000  1.0
  N  N125  1  0.56674000  0.69369000  0.09096000  1.0
  N  N126  1  0.56673000  0.80631000  0.90905000  1.0
  N  N127  1  0.93326000  0.30631000  0.59095000  1.0
  O  O128  1  0.70592000  0.48263000  0.57365000  1.0
  O  O129  1  0.79408000  0.98263000  0.92635000  1.0
  O  O130  1  0.79406000  0.51736000  0.07365000  1.0
  O  O131  1  0.70594000  0.01736000  0.42634000  1.0
  O  O132  1  0.29407000  0.51736000  0.42635000  1.0
  O  O133  1  0.20594000  0.01736000  0.07366000  1.0
  O  O134  1  0.20592000  0.48263000  0.92635000  1.0
  O  O135  1  0.29407000  0.98263000  0.57364000  1.0
  O  O136  1  0.78975000  0.60388000  0.51187000  1.0
  O  O137  1  0.71024000  0.10388000  0.98813000  1.0
  O  O138  1  0.71025000  0.39612000  0.01188000  1.0
  O  O139  1  0.78976000  0.89612000  0.48812000  1.0
  O  O140  1  0.21025000  0.39612000  0.48812000  1.0
  O  O141  1  0.28975000  0.89612000  0.01188000  1.0
  O  O142  1  0.28975000  0.60387000  0.98813000  1.0
  O  O143  1  0.21025000  0.10388000  0.51187000  1.0
