# generated using pymatgen
data_ZnH49C41NO5
_symmetry_space_group_name_H-M   'P 1'
_cell_length_a   10.83890000
_cell_length_b   18.44950000
_cell_length_c   19.38340000
_cell_angle_alpha   90.82830000
_cell_angle_beta   93.88200000
_cell_angle_gamma   92.58830000
_symmetry_Int_Tables_number   1
_chemical_formula_structural   ZnH49C41NO5
_chemical_formula_sum   'Zn2 H98 C82 N2 O10'
_cell_volume   3862.70758089
_cell_formula_units_Z   2
loop_
 _symmetry_equiv_pos_site_id
 _symmetry_equiv_pos_as_xyz
  1  'x, y, z'
loop_
 _atom_site_type_symbol
 _atom_site_label
 _atom_site_symmetry_multiplicity
 _atom_site_fract_x
 _atom_site_fract_y
 _atom_site_fract_z
 _atom_site_occupancy
  Zn  Zn0  1  0.50322000  0.41596000  0.49944000  1.0
  Zn  Zn1  1  0.51877000  0.57330000  0.50291000  1.0
  H  H2  1  0.55860000  0.15632000  0.59627000  1.0
  H  H3  1  0.33491000  0.59554000  0.15880000  1.0
  H  H4  1  0.42699000  0.39967000  0.70811000  1.0
  H  H5  1  0.53843000  0.39566000  0.27944000  1.0
  H  H6  1  0.59758000  0.50036000  0.93935000  1.0
  H  H7  1  0.59747000  0.49214000  0.06762000  1.0
  H  H8  1  0.25587000  0.68989000  0.65029000  1.0
  H  H9  1  0.22046000  0.68007000  0.55957000  1.0
  H  H10  1  0.10240000  0.69993000  0.61545000  1.0
  H  H11  1  0.11521000  0.57957000  0.66836000  1.0
  H  H12  1  0.25219000  0.56327000  0.62894000  1.0
  H  H13  1  0.43288000  0.16198000  0.38146000  1.0
  H  H14  1  0.96921000  0.69369000  0.53325000  1.0
  H  H15  1  0.81823000  0.66077000  0.50360000  1.0
  H  H16  1  0.83978000  0.71713000  0.57934000  1.0
  H  H17  1  0.79924000  0.58624000  0.60745000  1.0
  H  H18  1  0.94484000  0.61959000  0.64324000  1.0
  H  H19  1  0.75543000  0.23932000  0.62809000  1.0
  H  H20  1  0.76928000  0.32380000  0.58483000  1.0
  H  H21  1  0.76039000  0.32253000  0.67591000  1.0
  H  H22  1  0.55700000  0.35489000  0.61927000  1.0
  H  H23  1  0.54260000  0.27109000  0.66152000  1.0
  H  H24  1  0.62245000  0.82002000  0.39858000  1.0
  H  H25  1  0.21982000  0.23129000  0.36056000  1.0
  H  H26  1  0.24464000  0.29583000  0.29544000  1.0
  H  H27  1  0.33620000  0.21904000  0.30149000  1.0
  H  H28  1  0.33411000  0.34818000  0.40481000  1.0
  H  H29  1  0.45334000  0.33266000  0.35171000  1.0
  H  H30  1  0.17945000  0.97127000  0.49549000  1.0
  H  H31  1  0.22119000  0.05453000  0.53923000  1.0
  H  H32  1  0.09690000  0.04990000  0.47426000  1.0
  H  H33  1  0.28571000  0.10971000  0.43039000  1.0
  H  H34  1  0.24529000  0.02945000  0.38313000  1.0
  H  H35  1  0.42437000  0.82678000  0.58435000  1.0
  H  H36  1  0.84750000  0.00071000  0.47536000  1.0
  H  H37  1  0.79492000  0.07344000  0.42440000  1.0
  H  H38  1  0.91822000  0.08890000  0.48903000  1.0
  H  H39  1  0.72233000  0.13552000  0.52834000  1.0
  H  H40  1  0.77436000  0.06602000  0.58222000  1.0
  H  H41  1  0.36306000  0.95006000  0.30908000  1.0
  H  H42  1  0.45198000  0.87335000  0.32688000  1.0
  H  H43  1  0.29306000  0.86090000  0.29864000  1.0
  H  H44  1  0.32301000  0.84216000  0.42644000  1.0
  H  H45  1  0.23111000  0.91626000  0.40830000  1.0
  H  H46  1  0.61934000  0.68419000  0.40894000  1.0
  H  H47  1  0.74700000  0.90910000  0.67980000  1.0
  H  H48  1  0.66468000  0.98790000  0.65833000  1.0
  H  H49  1  0.58792000  0.90103000  0.65073000  1.0
  H  H50  1  0.71982000  0.86702000  0.55462000  1.0
  H  H51  1  0.80341000  0.95064000  0.56416000  1.0
  H  H52  1  0.11156000  0.23606000  0.60033000  1.0
  H  H53  1  0.96784000  0.19576000  0.56761000  1.0
  H  H54  1  0.10183000  0.14309000  0.57368000  1.0
  H  H55  1  0.05936000  0.17974000  0.45009000  1.0
  H  H56  1  0.19853000  0.22339000  0.48508000  1.0
  H  H57  1  0.44048000  0.69155000  0.59052000  1.0
  H  H58  1  0.86382000  0.26992000  0.30988000  1.0
  H  H59  1  0.97351000  0.20877000  0.34285000  1.0
  H  H60  1  0.81823000  0.17708000  0.32087000  1.0
  H  H61  1  0.84991000  0.19258000  0.44896000  1.0
  H  H62  1  0.74409000  0.25502000  0.41599000  1.0
  H  H63  1  0.68854000  0.61765000  0.70972000  1.0
  H  H64  1  0.66375000  0.65963000  0.79131000  1.0
  H  H65  1  0.65920000  0.73160000  0.64956000  1.0
  H  H66  1  0.61091000  0.77433000  0.72482000  1.0
  H  H67  1  0.82204000  0.76436000  0.78445000  1.0
  H  H68  1  0.21739000  0.34883000  0.51044000  1.0
  H  H69  1  0.83674000  0.80772000  0.70406000  1.0
  H  H70  1  0.87141000  0.71533000  0.71259000  1.0
  H  H71  1  0.27193000  0.57117000  0.36857000  1.0
  H  H72  1  0.17427000  0.59545000  0.29484000  1.0
  H  H73  1  0.32930000  0.70053000  0.39342000  1.0
  H  H74  1  0.23620000  0.72662000  0.32035000  1.0
  H  H75  1  0.04489000  0.67438000  0.37423000  1.0
  H  H76  1  0.12453000  0.74065000  0.42991000  1.0
  H  H77  1  0.13915000  0.64700000  0.44673000  1.0
  H  H78  1  0.23904000  0.32719000  0.76765000  1.0
  H  H79  1  0.77324000  0.37526000  0.44513000  1.0
  H  H80  1  0.38913000  0.29659000  0.75604000  1.0
  H  H81  1  0.30486000  0.26239000  0.82466000  1.0
  H  H82  1  0.46840000  0.35522000  0.86947000  1.0
  H  H83  1  0.31998000  0.38024000  0.88610000  1.0
  H  H84  1  0.42432000  0.28587000  0.21312000  1.0
  H  H85  1  0.32421000  0.30525000  0.14027000  1.0
  H  H86  1  0.45105000  0.24906000  0.13043000  1.0
  H  H87  1  0.50061000  0.37288000  0.08716000  1.0
  H  H88  1  0.60070000  0.35361000  0.15938000  1.0
  H  H89  1  0.12345000  0.38192000  0.04036000  1.0
  H  H90  1  0.44605000  0.62616000  0.84751000  1.0
  H  H91  1  0.19807000  0.39929000  0.12373000  1.0
  H  H92  1  0.03900000  0.41699000  0.10812000  1.0
  H  H93  1  0.17146000  0.53174000  0.11127000  1.0
  H  H94  1  0.09003000  0.51766000  0.03042000  1.0
  H  H95  1  0.13559000  0.42150000  0.85755000  1.0
  H  H96  1  0.05823000  0.42772000  0.93516000  1.0
  H  H97  1  0.00338000  0.47438000  0.86038000  1.0
  H  H98  1  0.11540000  0.56398000  0.94005000  1.0
  H  H99  1  0.19734000  0.55331000  0.86567000  1.0
  C  C100  1  0.49278000  0.49907000  0.36794000  1.0
  C  C101  1  0.45732000  0.49760000  0.29171000  1.0
  C  C102  1  0.51101000  0.50114000  0.96495000  1.0
  C  C103  1  0.51070000  0.49558000  0.03612000  1.0
  C  C104  1  0.39924000  0.49472000  0.06887000  1.0
  C  C105  1  0.39984000  0.50823000  0.92502000  1.0
  C  C106  1  0.28589000  0.50201000  0.02941000  1.0
  C  C107  1  0.28683000  0.51094000  0.95684000  1.0
  C  C108  1  0.53203000  0.26084000  0.55236000  1.0
  C  C109  1  0.44676000  0.26286000  0.43812000  1.0
  C  C110  1  0.53096000  0.18504000  0.54937000  1.0
  C  C111  1  0.49860000  0.50826000  0.63474000  1.0
  C  C112  1  0.45886000  0.18813000  0.43131000  1.0
  C  C113  1  0.49940000  0.14649000  0.48761000  1.0
  C  C114  1  0.27670000  0.49628000  0.51158000  1.0
  C  C115  1  0.74623000  0.49435000  0.51093000  1.0
  C  C116  1  0.40636000  0.02156000  0.45439000  1.0
  C  C117  1  0.61484000  0.03411000  0.51293000  1.0
  C  C118  1  0.41755000  0.94570000  0.45047000  1.0
  C  C119  1  0.61480000  0.95826000  0.52044000  1.0
  C  C120  1  0.51851000  0.91489000  0.48672000  1.0
  C  C121  1  0.50705000  0.06613000  0.48389000  1.0
  C  C122  1  0.41058000  0.51007000  0.84886000  1.0
  C  C123  1  0.57945000  0.79359000  0.44139000  1.0
  C  C124  1  0.47005000  0.79738000  0.54491000  1.0
  C  C125  1  0.57971000  0.71861000  0.44713000  1.0
  C  C126  1  0.47692000  0.72252000  0.54833000  1.0
  C  C127  1  0.52265000  0.83451000  0.49076000  1.0
  C  C128  1  0.12056000  0.35520000  0.49443000  1.0
  C  C129  1  0.87080000  0.36946000  0.46012000  1.0
  C  C130  1  0.04708000  0.29443000  0.47454000  1.0
  C  C131  1  0.92096000  0.30301000  0.45061000  1.0
  C  C132  1  0.94030000  0.42915000  0.49296000  1.0
  C  C133  1  0.41069000  0.49028000  0.14562000  1.0
  C  C134  1  0.07141000  0.42471000  0.50243000  1.0
  C  C135  1  0.14404000  0.48740000  0.52859000  1.0
  C  C136  1  0.88462000  0.49139000  0.51926000  1.0
  C  C137  1  0.08672000  0.54156000  0.56514000  1.0
  C  C138  1  0.95480000  0.54461000  0.55856000  1.0
  C  C139  1  0.47264000  0.57799000  0.74870000  1.0
  C  C140  1  0.39660000  0.55421000  0.25648000  1.0
  C  C141  1  0.44158000  0.57551000  0.81745000  1.0
  C  C142  1  0.37598000  0.54945000  0.18470000  1.0
  C  C143  1  0.16243000  0.58752000  0.62008000  1.0
  C  C144  1  0.40563000  0.44455000  0.80986000  1.0
  C  C145  1  0.18560000  0.66917000  0.61037000  1.0
  C  C146  1  0.89204000  0.60523000  0.59407000  1.0
  C  C147  1  0.87942000  0.67348000  0.54988000  1.0
  C  C148  1  0.58426000  0.29849000  0.61793000  1.0
  C  C149  1  0.72589000  0.29559000  0.62702000  1.0
  C  C150  1  0.38283000  0.30436000  0.38093000  1.0
  C  C151  1  0.29139000  0.25962000  0.33216000  1.0
  C  C152  1  0.28066000  0.05063000  0.43440000  1.0
  C  C153  1  0.18892000  0.03022000  0.48876000  1.0
  C  C154  1  0.73582000  0.07710000  0.52964000  1.0
  C  C155  1  0.46749000  0.43217000  0.18014000  1.0
  C  C156  1  0.82967000  0.05881000  0.47668000  1.0
  C  C157  1  0.32549000  0.89758000  0.40646000  1.0
  C  C158  1  0.36013000  0.89533000  0.33084000  1.0
  C  C159  1  0.71143000  0.92445000  0.56843000  1.0
  C  C160  1  0.67605000  0.93091000  0.64373000  1.0
  C  C161  1  0.09749000  0.22070000  0.48853000  1.0
  C  C162  1  0.06810000  0.19703000  0.56169000  1.0
  C  C163  1  0.84193000  0.24115000  0.41716000  1.0
  C  C164  1  0.87618000  0.22301000  0.34352000  1.0
  C  C165  1  0.63901000  0.66052000  0.73500000  1.0
  C  C166  1  0.43181000  0.44845000  0.74061000  1.0
  C  C167  1  0.67360000  0.73409000  0.70626000  1.0
  C  C168  1  0.80822000  0.75666000  0.72805000  1.0
  C  C169  1  0.25749000  0.61211000  0.32854000  1.0
  C  C170  1  0.24369000  0.68611000  0.36147000  1.0
  C  C171  1  0.13198000  0.68706000  0.40541000  1.0
  C  C172  1  0.38068000  0.37231000  0.84369000  1.0
  C  C173  1  0.32552000  0.31139000  0.79521000  1.0
  C  C174  1  0.50386000  0.36432000  0.14313000  1.0
  C  C175  1  0.42123000  0.29728000  0.15762000  1.0
  C  C176  1  0.16500000  0.49705000  0.06451000  1.0
  C  C177  1  0.48987000  0.43825000  0.25190000  1.0
  C  C178  1  0.12919000  0.41925000  0.08528000  1.0
  C  C179  1  0.17008000  0.52549000  0.91246000  1.0
  C  C180  1  0.08723000  0.45832000  0.89035000  1.0
  C  C181  1  0.46833000  0.51323000  0.70899000  1.0
  N  N182  1  0.48952000  0.29969000  0.49733000  1.0
  N  N183  1  0.52976000  0.68400000  0.49986000  1.0
  O  O184  1  0.53426000  0.44174000  0.39542000  1.0
  O  O185  1  0.36272000  0.61757000  0.28667000  1.0
  O  O186  1  0.46661000  0.44865000  0.60316000  1.0
  O  O187  1  0.47856000  0.55822000  0.40035000  1.0
  O  O188  1  0.55218000  0.56283000  0.60775000  1.0
  O  O189  1  0.32513000  0.44306000  0.48171000  1.0
  O  O190  1  0.68400000  0.43791000  0.52871000  1.0
  O  O191  1  0.33192000  0.55839000  0.52179000  1.0
  O  O192  1  0.70068000  0.55183000  0.48744000  1.0
  O  O193  1  0.50728000  0.64512000  0.72326000  1.0
