# generated using pymatgen
data_Zn2H16C15(N6O)2
_symmetry_space_group_name_H-M   'P 1'
_cell_length_a   10.93310000
_cell_length_b   12.31500000
_cell_length_c   16.74100000
_cell_angle_alpha   89.99970000
_cell_angle_beta   94.78090000
_cell_angle_gamma   90.00000000
_symmetry_Int_Tables_number   1
_chemical_formula_structural   Zn2H16C15(N6O)2
_chemical_formula_sum   'Zn8 H64 C60 N48 O8'
_cell_volume   2246.18465895
_cell_formula_units_Z   4
loop_
 _symmetry_equiv_pos_site_id
 _symmetry_equiv_pos_as_xyz
  1  'x, y, z'
loop_
 _atom_site_type_symbol
 _atom_site_label
 _atom_site_symmetry_multiplicity
 _atom_site_fract_x
 _atom_site_fract_y
 _atom_site_fract_z
 _atom_site_occupancy
  Zn  Zn0  1  0.72488000  0.73647000  0.59563000  1.0
  Zn  Zn1  1  0.77512000  0.23647000  0.90437000  1.0
  Zn  Zn2  1  0.27513000  0.26353000  0.40437000  1.0
  Zn  Zn3  1  0.22487000  0.76353000  0.09563000  1.0
  Zn  Zn4  1  0.20766000  0.74575000  0.46152000  1.0
  Zn  Zn5  1  0.29234000  0.24574000  0.03848000  1.0
  Zn  Zn6  1  0.79234000  0.25425000  0.53848000  1.0
  Zn  Zn7  1  0.70766000  0.75425000  0.96152000  1.0
  H  H8  1  0.06436000  0.63431000  0.20378000  1.0
  H  H9  1  0.43564000  0.13431000  0.29621000  1.0
  H  H10  1  0.93564000  0.36569000  0.79622000  1.0
  H  H11  1  0.56436000  0.86569000  0.70378000  1.0
  H  H12  1  0.00115000  0.68091000  0.29179000  1.0
  H  H13  1  0.49885000  0.18091000  0.20821000  1.0
  H  H14  1  0.99885000  0.31909000  0.70822000  1.0
  H  H15  1  0.50115000  0.81909000  0.79178000  1.0
  H  H16  1  0.11727000  0.57955000  0.29846000  1.0
  H  H17  1  0.38273000  0.07955000  0.20154000  1.0
  H  H18  1  0.88273000  0.42045000  0.70154000  1.0
  H  H19  1  0.61727000  0.92045000  0.79846000  1.0
  H  H20  1  0.46957000  0.95821000  0.35108000  1.0
  H  H21  1  0.03043000  0.45820000  0.14892000  1.0
  H  H22  1  0.53044000  0.04179000  0.64891000  1.0
  H  H23  1  0.96956000  0.54179000  0.85109000  1.0
  H  H24  1  0.34070000  0.99344000  0.40258000  1.0
  H  H25  1  0.15930000  0.49344000  0.09742000  1.0
  H  H26  1  0.65931000  0.00655000  0.59742000  1.0
  H  H27  1  0.84070000  0.50655000  0.90258000  1.0
  H  H28  1  0.49215000  0.66782000  0.66575000  1.0
  H  H29  1  0.00785000  0.16783000  0.83425000  1.0
  H  H30  1  0.50786000  0.33217000  0.33425000  1.0
  H  H31  1  0.99214000  0.83217000  0.16575000  1.0
  H  H32  1  0.35973000  0.62554000  0.60373000  1.0
  H  H33  1  0.14027000  0.12554000  0.89627000  1.0
  H  H34  1  0.64028000  0.37445000  0.39627000  1.0
  H  H35  1  0.85971000  0.87445000  0.10373000  1.0
  H  H36  1  0.35245000  0.74298000  0.66382000  1.0
  H  H37  1  0.14755000  0.24299000  0.83618000  1.0
  H  H38  1  0.64756000  0.25701000  0.33618000  1.0
  H  H39  1  0.85244000  0.75700000  0.16382000  1.0
  H  H40  1  0.01040000  0.99346000  0.68873000  1.0
  H  H41  1  0.48960000  0.49346000  0.81127000  1.0
  H  H42  1  0.98961000  0.00655000  0.31127000  1.0
  H  H43  1  0.51039000  0.50655000  0.18873000  1.0
  H  H44  1  0.89988000  0.89627000  0.71613000  1.0
  H  H45  1  0.60012000  0.39627000  0.78387000  1.0
  H  H46  1  0.10013000  0.10373000  0.28387000  1.0
  H  H47  1  0.39987000  0.60373000  0.21613000  1.0
  H  H48  1  0.85607000  0.00215000  0.64773000  1.0
  H  H49  1  0.64393000  0.50215000  0.85227000  1.0
  H  H50  1  0.14393000  0.99785000  0.35227000  1.0
  H  H51  1  0.35606000  0.49785000  0.14773000  1.0
  H  H52  1  0.97572000  0.62834000  0.42227000  1.0
  H  H53  1  0.52427000  0.12833000  0.07773000  1.0
  H  H54  1  0.02428000  0.37166000  0.57773000  1.0
  H  H55  1  0.47572000  0.87166000  0.92227000  1.0
  H  H56  1  0.83644000  0.70231000  0.40508000  1.0
  H  H57  1  0.66356000  0.20230000  0.09492000  1.0
  H  H58  1  0.16357000  0.29769000  0.59492000  1.0
  H  H59  1  0.33643000  0.79770000  0.90508000  1.0
  H  H60  1  0.61641000  0.37541000  0.63062000  1.0
  H  H61  1  0.88359000  0.87541000  0.86938000  1.0
  H  H62  1  0.38359000  0.62459000  0.36938000  1.0
  H  H63  1  0.11641000  0.12459000  0.13062000  1.0
  H  H64  1  0.52808000  0.48858000  0.59415000  1.0
  H  H65  1  0.97192000  0.98858000  0.90585000  1.0
  H  H66  1  0.47193000  0.51141000  0.40585000  1.0
  H  H67  1  0.02807000  0.01141000  0.09416000  1.0
  H  H68  1  0.63927000  0.50508000  0.67687000  1.0
  H  H69  1  0.86073000  0.00508000  0.82314000  1.0
  H  H70  1  0.36073000  0.49492000  0.32314000  1.0
  H  H71  1  0.13927000  0.99492000  0.17687000  1.0
  C  C72  1  0.08617000  0.65430000  0.26707000  1.0
  C  C73  1  0.41383000  0.15430000  0.23293000  1.0
  C  C74  1  0.91383000  0.34570000  0.73293000  1.0
  C  C75  1  0.58617000  0.84570000  0.76707000  1.0
  C  C76  1  0.18128000  0.74059000  0.27543000  1.0
  C  C77  1  0.31872000  0.24059000  0.22457000  1.0
  C  C78  1  0.81872000  0.25940000  0.72457000  1.0
  C  C79  1  0.68128000  0.75940000  0.77543000  1.0
  C  C80  1  0.31552000  0.85626000  0.32398000  1.0
  C  C81  1  0.18448000  0.35626000  0.17602000  1.0
  C  C82  1  0.68448000  0.14374000  0.67602000  1.0
  C  C83  1  0.81552000  0.64374000  0.82398000  1.0
  C  C84  1  0.39411000  0.92423000  0.38206000  1.0
  C  C85  1  0.10589000  0.42423000  0.11794000  1.0
  C  C86  1  0.60589000  0.07577000  0.61794000  1.0
  C  C87  1  0.89411000  0.57577000  0.88206000  1.0
  C  C88  1  0.44502000  0.86326000  0.45452000  1.0
  C  C89  1  0.05498000  0.36326000  0.04547000  1.0
  C  C90  1  0.55498000  0.13674000  0.54547000  1.0
  C  C91  1  0.94502000  0.63674000  0.95453000  1.0
  C  C92  1  0.45108000  0.76443000  0.56064000  1.0
  C  C93  1  0.04892000  0.26442000  0.93936000  1.0
  C  C94  1  0.54892000  0.23557000  0.43936000  1.0
  C  C95  1  0.95107000  0.73557000  0.06064000  1.0
  C  C96  1  0.41262000  0.69605000  0.62729000  1.0
  C  C97  1  0.08738000  0.19605000  0.87271000  1.0
  C  C98  1  0.58738000  0.30395000  0.37271000  1.0
  C  C99  1  0.91262000  0.80395000  0.12729000  1.0
  C  C100  1  0.93026000  0.94548000  0.66682000  1.0
  C  C101  1  0.56974000  0.44548000  0.83318000  1.0
  C  C102  1  0.06975000  0.05452000  0.33318000  1.0
  C  C103  1  0.43025000  0.55452000  0.16682000  1.0
  C  C104  1  0.96148000  0.87452000  0.59979000  1.0
  C  C105  1  0.53852000  0.37452000  0.90021000  1.0
  C  C106  1  0.03853000  0.12548000  0.40022000  1.0
  C  C107  1  0.46147000  0.62548000  0.09979000  1.0
  C  C108  1  0.94776000  0.75146000  0.50829000  1.0
  C  C109  1  0.55224000  0.25146000  0.99170000  1.0
  C  C110  1  0.05225000  0.24854000  0.49170000  1.0
  C  C111  1  0.44775000  0.74854000  0.00829000  1.0
  C  C112  1  0.89979000  0.66441000  0.45176000  1.0
  C  C113  1  0.60020000  0.16440000  0.04824000  1.0
  C  C114  1  0.10021000  0.33560000  0.54824000  1.0
  C  C115  1  0.39979000  0.83560000  0.95176000  1.0
  C  C116  1  0.83536000  0.57427000  0.49100000  1.0
  C  C117  1  0.66464000  0.07427000  0.00900000  1.0
  C  C118  1  0.16464000  0.42573000  0.50900000  1.0
  C  C119  1  0.33535000  0.92573000  0.99100000  1.0
  C  C120  1  0.71468000  0.48907000  0.56418000  1.0
  C  C121  1  0.78532000  0.98907000  0.93582000  1.0
  C  C122  1  0.28532000  0.51093000  0.43582000  1.0
  C  C123  1  0.21468000  0.01093000  0.06418000  1.0
  C  C124  1  0.61948000  0.46295000  0.61950000  1.0
  C  C125  1  0.88052000  0.96295000  0.88050000  1.0
  C  C126  1  0.38053000  0.53705000  0.38050000  1.0
  C  C127  1  0.11947000  0.03705000  0.11950000  1.0
  C  C128  1  0.74172000  0.96851000  0.35955000  1.0
  C  C129  1  0.75829000  0.46853000  0.14045000  1.0
  C  C130  1  0.25825000  0.03151000  0.64045000  1.0
  C  C131  1  0.24174000  0.53150000  0.85955000  1.0
  N  N132  1  0.88204000  0.79989000  0.56334000  1.0
  N  N133  1  0.61795000  0.29988000  0.93666000  1.0
  N  N134  1  0.11796000  0.20011000  0.43666000  1.0
  N  N135  1  0.38204000  0.70011000  0.06334000  1.0
  N  N136  1  0.06966000  0.87382000  0.56924000  1.0
  N  N137  1  0.43034000  0.37382000  0.93076000  1.0
  N  N138  1  0.93034000  0.12618000  0.43076000  1.0
  N  N139  1  0.56966000  0.62618000  0.06924000  1.0
  N  N140  1  0.06021000  0.79477000  0.51065000  1.0
  N  N141  1  0.43979000  0.29477000  0.98935000  1.0
  N  N142  1  0.93979000  0.20523000  0.48935000  1.0
  N  N143  1  0.56021000  0.70524000  0.01066000  1.0
  N  N144  1  0.74791000  0.59050000  0.54380000  1.0
  N  N145  1  0.75208000  0.09050000  0.95620000  1.0
  N  N146  1  0.25209000  0.40949000  0.45620000  1.0
  N  N147  1  0.24791000  0.90949000  0.04380000  1.0
  N  N148  1  0.85602000  0.46992000  0.47821000  1.0
  N  N149  1  0.64398000  0.96992000  0.02179000  1.0
  N  N150  1  0.14398000  0.53008000  0.52179000  1.0
  N  N151  1  0.35601000  0.03008000  0.97821000  1.0
  N  N152  1  0.77893000  0.41570000  0.52569000  1.0
  N  N153  1  0.72107000  0.91570000  0.97432000  1.0
  N  N154  1  0.22108000  0.58430000  0.47432000  1.0
  N  N155  1  0.27892000  0.08430000  0.02569000  1.0
  N  N156  1  0.56577000  0.79752000  0.55017000  1.0
  N  N157  1  0.93424000  0.29752000  0.94983000  1.0
  N  N158  1  0.43424000  0.20248000  0.44983000  1.0
  N  N159  1  0.06576000  0.70248000  0.05017000  1.0
  N  N160  1  0.56248000  0.86081000  0.48174000  1.0
  N  N161  1  0.93752000  0.36081000  0.01826000  1.0
  N  N162  1  0.43752000  0.13918000  0.51826000  1.0
  N  N163  1  0.06248000  0.63918000  0.98174000  1.0
  N  N164  1  0.37243000  0.80460000  0.50139000  1.0
  N  N165  1  0.12757000  0.30460000  0.99861000  1.0
  N  N166  1  0.62758000  0.19540000  0.49861000  1.0
  N  N167  1  0.87242000  0.69540000  0.00139000  1.0
  N  N168  1  0.22828000  0.78432000  0.34573000  1.0
  N  N169  1  0.27172000  0.28432000  0.15427000  1.0
  N  N170  1  0.77172000  0.21567000  0.65427000  1.0
  N  N171  1  0.72828000  0.71567000  0.84573000  1.0
  N  N172  1  0.32229000  0.85923000  0.24525000  1.0
  N  N173  1  0.17771000  0.35923000  0.25475000  1.0
  N  N174  1  0.67771000  0.14077000  0.75475000  1.0
  N  N175  1  0.82230000  0.64077000  0.74525000  1.0
  N  N176  1  0.23604000  0.78517000  0.21449000  1.0
  N  N177  1  0.26396000  0.28517000  0.28551000  1.0
  N  N178  1  0.76396000  0.21483000  0.78551000  1.0
  N  N179  1  0.73604000  0.71483000  0.71449000  1.0
  O  O180  1  0.81361000  0.89771000  0.36872000  1.0
  O  O181  1  0.68639000  0.39773000  0.13129000  1.0
  O  O182  1  0.18635000  0.10231000  0.63128000  1.0
  O  O183  1  0.31365000  0.60230000  0.86872000  1.0
  O  O184  1  0.66837000  0.03749000  0.34681000  1.0
  O  O185  1  0.83164000  0.53751000  0.15320000  1.0
  O  O186  1  0.33159000  0.96253000  0.65320000  1.0
  O  O187  1  0.16840000  0.46253000  0.84680000  1.0
