# generated using pymatgen
data_NiMo8H22C16(N2O7)4
_symmetry_space_group_name_H-M   'P 1'
_cell_length_a   9.83839000
_cell_length_b   10.19750000
_cell_length_c   10.52440000
_cell_angle_alpha   107.92200000
_cell_angle_beta   91.14560000
_cell_angle_gamma   116.20600000
_symmetry_Int_Tables_number   1
_chemical_formula_structural   NiMo8H22C16(N2O7)4
_chemical_formula_sum   'Ni1 Mo8 H22 C16 N8 O28'
_cell_volume   886.22559301
_cell_formula_units_Z   1
loop_
 _symmetry_equiv_pos_site_id
 _symmetry_equiv_pos_as_xyz
  1  'x, y, z'
loop_
 _atom_site_type_symbol
 _atom_site_label
 _atom_site_symmetry_multiplicity
 _atom_site_fract_x
 _atom_site_fract_y
 _atom_site_fract_z
 _atom_site_occupancy
  Ni  Ni0  1  0.00000000  0.00000000  0.00000000  1.0
  Mo  Mo1  1  0.80906000  0.71881000  0.63661000  1.0
  Mo  Mo2  1  0.19094000  0.28119000  0.36339000  1.0
  Mo  Mo3  1  0.48633000  0.52891000  0.78277000  1.0
  Mo  Mo4  1  0.51367000  0.47109000  0.21723000  1.0
  Mo  Mo5  1  0.26955000  0.15863000  0.59596000  1.0
  Mo  Mo6  1  0.73045000  0.84138000  0.40404000  1.0
  Mo  Mo7  1  0.58442000  0.36452000  0.45727000  1.0
  Mo  Mo8  1  0.41558000  0.63548000  0.54273000  1.0
  H  H9  1  0.53745000  0.22405000  0.92955000  1.0
  H  H10  1  0.46255000  0.77595000  0.07045000  1.0
  H  H11  1  0.50326000  0.06378000  0.77904000  1.0
  H  H12  1  0.49673000  0.93622000  0.22096000  1.0
  H  H13  1  0.79380000  0.10956000  0.21975000  1.0
  H  H14  1  0.20620000  0.89044000  0.78025000  1.0
  H  H15  1  0.67341000  0.10055000  0.60713000  1.0
  H  H16  1  0.32659000  0.89945000  0.39287000  1.0
  H  H17  1  0.01767000  0.64236000  0.90648000  1.0
  H  H18  1  0.98233000  0.35764000  0.09352000  1.0
  H  H19  1  0.79278000  0.47620000  0.99121000  1.0
  H  H20  1  0.20722000  0.52380000  0.00879000  1.0
  H  H21  1  0.06739000  0.52038000  0.67445000  1.0
  H  H22  1  0.93260000  0.47961000  0.32555000  1.0
  H  H23  1  0.77223000  0.00713000  0.79700000  1.0
  H  H24  1  0.22777000  0.99286000  0.20301000  1.0
  H  H25  1  0.89395000  0.26611000  0.54467000  1.0
  H  H26  1  0.10605000  0.73388000  0.45533000  1.0
  H  H27  1  0.79949000  0.74815000  0.02782000  1.0
  H  H28  1  0.20051000  0.25185000  0.97218000  1.0
  H  H29  1  0.90727000  0.83749000  0.17504000  1.0
  H  H30  1  0.09273000  0.16251000  0.82496000  1.0
  C  C31  1  0.59184000  0.16473000  0.86174000  1.0
  C  C32  1  0.40816000  0.83527000  0.13826000  1.0
  C  C33  1  0.76375000  0.09822000  0.11558000  1.0
  C  C34  1  0.23625000  0.90179000  0.88442000  1.0
  C  C35  1  0.74590000  0.21770000  0.67973000  1.0
  C  C36  1  0.25410000  0.78230000  0.32027000  1.0
  C  C37  1  0.71687000  0.27424000  0.80826000  1.0
  C  C38  1  0.28313000  0.72576000  0.19175000  1.0
  C  C39  1  0.94152000  0.52141000  0.84427000  1.0
  C  C40  1  0.05848000  0.47859000  0.15572000  1.0
  C  C41  1  0.81536000  0.42940000  0.89062000  1.0
  C  C42  1  0.18464000  0.57060000  0.10938000  1.0
  C  C43  1  0.96959000  0.45794000  0.71728000  1.0
  C  C44  1  0.03041000  0.54205000  0.28272000  1.0
  C  C45  1  0.75440000  0.04413000  0.90068000  1.0
  C  C46  1  0.24560000  0.95587000  0.09932000  1.0
  N  N47  1  0.66843000  0.14572000  0.07890000  1.0
  N  N48  1  0.33157000  0.85429000  0.92110000  1.0
  N  N49  1  0.87051000  0.30968000  0.63948000  1.0
  N  N50  1  0.12949000  0.69032000  0.36052000  1.0
  N  N51  1  0.81977000  0.03539000  0.00827000  1.0
  N  N52  1  0.18023000  0.96461000  0.99173000  1.0
  N  N53  1  0.66451000  0.11047000  0.94248000  1.0
  N  N54  1  0.33549000  0.88953000  0.05752000  1.0
  O  O55  1  0.95626000  0.69713000  0.56516000  1.0
  O  O56  1  0.04374000  0.30287000  0.43484000  1.0
  O  O57  1  0.11898000  0.17615000  0.66816000  1.0
  O  O58  1  0.88102000  0.82386000  0.33184000  1.0
  O  O59  1  0.62591000  0.62155000  0.92736000  1.0
  O  O60  1  0.37410000  0.37845000  0.07263000  1.0
  O  O61  1  0.47996000  0.19484000  0.49745000  1.0
  O  O62  1  0.52004000  0.80516000  0.50255000  1.0
  O  O63  1  0.25492000  0.98701000  0.60281000  1.0
  O  O64  1  0.74508000  0.01299000  0.39719000  1.0
  O  O65  1  0.32534000  0.53260000  0.83676000  1.0
  O  O66  1  0.67466000  0.46740000  0.16324000  1.0
  O  O67  1  0.55762000  0.69630000  0.70543000  1.0
  O  O68  1  0.44238000  0.30370000  0.29456000  1.0
  O  O69  1  0.88605000  0.82058000  0.80846000  1.0
  O  O70  1  0.11395000  0.17942000  0.19154000  1.0
  O  O71  1  0.73566000  0.34543000  0.39478000  1.0
  O  O72  1  0.26435000  0.65457000  0.60523000  1.0
  O  O73  1  0.62852000  0.58637000  0.44776000  1.0
  O  O74  1  0.37148000  0.41362000  0.55224000  1.0
  O  O75  1  0.68280000  0.50886000  0.64304000  1.0
  O  O76  1  0.31720000  0.49114000  0.35696000  1.0
  O  O77  1  0.43281000  0.31515000  0.74453000  1.0
  O  O78  1  0.56719000  0.68485000  0.25547000  1.0
  O  O79  1  0.90763000  0.82093000  0.07675000  1.0
  O  O80  1  0.09237000  0.17907000  0.92325000  1.0
  O  O81  1  0.80799000  0.88489000  0.58968000  1.0
  O  O82  1  0.19201000  0.11510000  0.41032000  1.0
