# generated using pymatgen
data_ZnH12C9N4O3
_symmetry_space_group_name_H-M   'P 1'
_cell_length_a   5.43377000
_cell_length_b   13.75570000
_cell_length_c   15.40480000
_cell_angle_alpha   90.39760000
_cell_angle_beta   89.99800000
_cell_angle_gamma   89.83280000
_symmetry_Int_Tables_number   1
_chemical_formula_structural   ZnH12C9N4O3
_chemical_formula_sum   'Zn4 H48 C36 N16 O12'
_cell_volume   1151.40392297
_cell_formula_units_Z   4
loop_
 _symmetry_equiv_pos_site_id
 _symmetry_equiv_pos_as_xyz
  1  'x, y, z'
loop_
 _atom_site_type_symbol
 _atom_site_label
 _atom_site_symmetry_multiplicity
 _atom_site_fract_x
 _atom_site_fract_y
 _atom_site_fract_z
 _atom_site_occupancy
  Zn  Zn0  1  0.01998000  0.25041000  0.77856000  1.0
  Zn  Zn1  1  0.51821000  0.75045000  0.72158000  1.0
  Zn  Zn2  1  0.98036000  0.74700000  0.22080000  1.0
  Zn  Zn3  1  0.48124000  0.25111000  0.27903000  1.0
  H  H4  1  0.68060000  0.43918000  0.78274000  1.0
  H  H5  1  0.18274000  0.56083000  0.71564000  1.0
  H  H6  1  0.31919000  0.93459000  0.21551000  1.0
  H  H7  1  0.81859000  0.06144000  0.28369000  1.0
  H  H8  1  0.32350000  0.55876000  0.21650000  1.0
  H  H9  1  0.82504000  0.43745000  0.28345000  1.0
  H  H10  1  0.67718000  0.06343000  0.78457000  1.0
  H  H11  1  0.17277000  0.93714000  0.71723000  1.0
  H  H12  1  0.84496000  0.61298000  0.85830000  1.0
  H  H13  1  0.35374000  0.38787000  0.63992000  1.0
  H  H14  1  0.15008000  0.10849000  0.14285000  1.0
  H  H15  1  0.64774000  0.88882000  0.35734000  1.0
  H  H16  1  0.16276000  0.38528000  0.13942000  1.0
  H  H17  1  0.66562000  0.61212000  0.35952000  1.0
  H  H18  1  0.84148000  0.89018000  0.85969000  1.0
  H  H19  1  0.33278000  0.11095000  0.64249000  1.0
  H  H20  1  0.36671000  0.38774000  0.90126000  1.0
  H  H21  1  0.87045000  0.61446000  0.59962000  1.0
  H  H22  1  0.63087000  0.88314000  0.09853000  1.0
  H  H23  1  0.13278000  0.11695000  0.40171000  1.0
  H  H24  1  0.63664000  0.60916000  0.09804000  1.0
  H  H25  1  0.13717000  0.39062000  0.40178000  1.0
  H  H26  1  0.36652000  0.11391000  0.90124000  1.0
  H  H27  1  0.86006000  0.88762000  0.59819000  1.0
  H  H28  1  0.48506000  0.56845000  0.94149000  1.0
  H  H29  1  0.99289000  0.44010000  0.55286000  1.0
  H  H30  1  0.50935000  0.06084000  0.05791000  1.0
  H  H31  1  0.00883000  0.94100000  0.44381000  1.0
  H  H32  1  0.52315000  0.43113000  0.05341000  1.0
  H  H33  1  0.02552000  0.57018000  0.44498000  1.0
  H  H34  1  0.48158000  0.93845000  0.94678000  1.0
  H  H35  1  0.97331000  0.06985000  0.56005000  1.0
  H  H36  1  0.23392000  0.59287000  0.01399000  1.0
  H  H37  1  0.73484000  0.40045000  0.48946000  1.0
  H  H38  1  0.76457000  0.09422000  0.99073000  1.0
  H  H39  1  0.26464000  0.90552000  0.51002000  1.0
  H  H40  1  0.78010000  0.40193000  0.98498000  1.0
  H  H41  1  0.28192000  0.59744000  0.51412000  1.0
  H  H42  1  0.22211000  0.90233000  0.01062000  1.0
  H  H43  1  0.72372000  0.08980000  0.48617000  1.0
  H  H44  1  0.26674000  0.66089000  0.91510000  1.0
  H  H45  1  0.80241000  0.34367000  0.59158000  1.0
  H  H46  1  0.71305000  0.15518000  0.09297000  1.0
  H  H47  1  0.20783000  0.84487000  0.40808000  1.0
  H  H48  1  0.73266000  0.33743000  0.08493000  1.0
  H  H49  1  0.23850000  0.66228000  0.41400000  1.0
  H  H50  1  0.28483000  0.84338000  0.90829000  1.0
  H  H51  1  0.74819000  0.16056000  0.58475000  1.0
  C  C52  1  0.51344000  0.25057000  0.74536000  1.0
  C  C53  1  0.01162000  0.75070000  0.75481000  1.0
  C  C54  1  0.48681000  0.74817000  0.25405000  1.0
  C  C55  1  0.98786000  0.25023000  0.24583000  1.0
  C  C56  1  0.84483000  0.45417000  0.82031000  1.0
  C  C57  1  0.34839000  0.54643000  0.67854000  1.0
  C  C58  1  0.15385000  0.94959000  0.17864000  1.0
  C  C59  1  0.65332000  0.04748000  0.32084000  1.0
  C  C60  1  0.15964000  0.54366000  0.17875000  1.0
  C  C61  1  0.66133000  0.45348000  0.32107000  1.0
  C  C62  1  0.84211000  0.04839000  0.82167000  1.0
  C  C63  1  0.33655000  0.95244000  0.67973000  1.0
  C  C64  1  0.91997000  0.53949000  0.85891000  1.0
  C  C65  1  0.42712000  0.46145000  0.63989000  1.0
  C  C66  1  0.07607000  0.03500000  0.14161000  1.0
  C  C67  1  0.57472000  0.96264000  0.35842000  1.0
  C  C68  1  0.08659000  0.45856000  0.13925000  1.0
  C  C69  1  0.58891000  0.53912000  0.36001000  1.0
  C  C70  1  0.91715000  0.96338000  0.86007000  1.0
  C  C71  1  0.40915000  0.03770000  0.64149000  1.0
  C  C72  1  0.19872000  0.42449000  0.88201000  1.0
  C  C73  1  0.70307000  0.57721000  0.61819000  1.0
  C  C74  1  0.79888000  0.91986000  0.11771000  1.0
  C  C75  1  0.29978000  0.07926000  0.38232000  1.0
  C  C76  1  0.80532000  0.57281000  0.11712000  1.0
  C  C77  1  0.30645000  0.42611000  0.38269000  1.0
  C  C78  1  0.19769000  0.07760000  0.88237000  1.0
  C  C79  1  0.69108000  0.92374000  0.61774000  1.0
  C  C80  1  0.29116000  0.58975000  0.94572000  1.0
  C  C81  1  0.80472000  0.41222000  0.55553000  1.0
  C  C82  1  0.70042000  0.08569000  0.05780000  1.0
  C  C83  1  0.19887000  0.91450000  0.44318000  1.0
  C  C84  1  0.71588000  0.40781000  0.05233000  1.0
  C  C85  1  0.21897000  0.59204000  0.44659000  1.0
  C  C86  1  0.29169000  0.91239000  0.94442000  1.0
  C  C87  1  0.77822000  0.08896000  0.55473000  1.0
  N  N88  1  0.01979000  0.38313000  0.83522000  1.0
  N  N89  1  0.52163000  0.61797000  0.66449000  1.0
  N  N90  1  0.97982000  0.87847000  0.16329000  1.0
  N  N91  1  0.48066000  0.11952000  0.33621000  1.0
  N  N92  1  0.98306000  0.61427000  0.16442000  1.0
  N  N93  1  0.48400000  0.38366000  0.33571000  1.0
  N  N94  1  0.01823000  0.11898000  0.83606000  1.0
  N  N95  1  0.51356000  0.88204000  0.66445000  1.0
  N  N96  1  0.14369000  0.51925000  0.89761000  1.0
  N  N97  1  0.65135000  0.48241000  0.60207000  1.0
  N  N98  1  0.85167000  0.01472000  0.10336000  1.0
  N  N99  1  0.35118000  0.98424000  0.39696000  1.0
  N  N100  1  0.86249000  0.47845000  0.10065000  1.0
  N  N101  1  0.36450000  0.52038000  0.39866000  1.0
  N  N102  1  0.14199000  0.98331000  0.89814000  1.0
  N  N103  1  0.63332000  0.01811000  0.60258000  1.0
  O  O104  1  0.72278000  0.25072000  0.70222000  1.0
  O  O105  1  0.22103000  0.75016000  0.79792000  1.0
  O  O106  1  0.27746000  0.74931000  0.29720000  1.0
  O  O107  1  0.77847000  0.24949000  0.20271000  1.0
  O  O108  1  0.50652000  0.25035000  0.82789000  1.0
  O  O109  1  0.00476000  0.75077000  0.67228000  1.0
  O  O110  1  0.49362000  0.74575000  0.17153000  1.0
  O  O111  1  0.99474000  0.25269000  0.32835000  1.0
  O  O112  1  0.31037000  0.25061000  0.69814000  1.0
  O  O113  1  0.80860000  0.75114000  0.80204000  1.0
  O  O114  1  0.68990000  0.74983000  0.30122000  1.0
  O  O115  1  0.19088000  0.24828000  0.19862000  1.0
