# generated using pymatgen
data_FeH10Au2(C8N5)2
_symmetry_space_group_name_H-M   'P 1'
_cell_length_a   12.68050000
_cell_length_b   16.72470000
_cell_length_c   30.16570000
_cell_angle_alpha   78.26470000
_cell_angle_beta   78.02810000
_cell_angle_gamma   68.09840000
_symmetry_Int_Tables_number   1
_chemical_formula_structural   FeH10Au2(C8N5)2
_chemical_formula_sum   'Fe8 H80 Au16 C128 N80'
_cell_volume   5750.39401617
_cell_formula_units_Z   8
loop_
 _symmetry_equiv_pos_site_id
 _symmetry_equiv_pos_as_xyz
  1  'x, y, z'
loop_
 _atom_site_type_symbol
 _atom_site_label
 _atom_site_symmetry_multiplicity
 _atom_site_fract_x
 _atom_site_fract_y
 _atom_site_fract_z
 _atom_site_occupancy
  Fe  Fe0  1  0.19563000  0.33816000  0.27214000  1.0
  Fe  Fe1  1  0.80437000  0.66184000  0.72786000  1.0
  Fe  Fe2  1  0.69733000  0.08821000  0.51718000  1.0
  Fe  Fe3  1  0.30268000  0.91179000  0.48282000  1.0
  Fe  Fe4  1  0.20123000  0.83823000  0.76210000  1.0
  Fe  Fe5  1  0.79877000  0.16177000  0.23790000  1.0
  Fe  Fe6  1  0.69776000  0.58832000  0.01705000  1.0
  Fe  Fe7  1  0.30224000  0.41168000  0.98295000  1.0
  H  H8  1  0.82385000  0.72858000  0.36292000  1.0
  H  H9  1  0.17615000  0.27142000  0.63709000  1.0
  H  H10  1  0.84335000  0.65429000  0.40863000  1.0
  H  H11  1  0.15665000  0.34571000  0.59137000  1.0
  H  H12  1  0.58734000  0.47572000  0.61007000  1.0
  H  H13  1  0.41266000  0.52427000  0.38993000  1.0
  H  H14  1  0.59358000  0.40330000  0.65658000  1.0
  H  H15  1  0.40642000  0.59670000  0.34342000  1.0
  H  H16  1  0.83261000  0.21996000  0.85947000  1.0
  H  H17  1  0.16739000  0.78004000  0.14053000  1.0
  H  H18  1  0.85663000  0.14595000  0.90511000  1.0
  H  H19  1  0.14337000  0.85405000  0.09489000  1.0
  H  H20  1  0.57588000  0.98219000  0.11519000  1.0
  H  H21  1  0.42412000  0.01781000  0.88481000  1.0
  H  H22  1  0.58600000  0.90966000  0.16166000  1.0
  H  H23  1  0.41400000  0.09034000  0.83834000  1.0
  H  H24  1  0.30964000  0.44810000  0.28869000  1.0
  H  H25  1  0.69036000  0.55190000  0.71130000  1.0
  H  H26  1  0.25893000  0.57611000  0.32825000  1.0
  H  H27  1  0.74107000  0.42390000  0.67175000  1.0
  H  H28  1  0.90852000  0.57730000  0.35713000  1.0
  H  H29  1  0.09148000  0.42270000  0.64287000  1.0
  H  H30  1  0.97236000  0.45364000  0.31670000  1.0
  H  H31  1  0.02764000  0.54636000  0.68330000  1.0
  H  H32  1  0.05381000  0.85107000  0.46182000  1.0
  H  H33  1  0.94619000  0.14892000  0.53818000  1.0
  H  H34  1  0.93547000  0.97439000  0.50384000  1.0
  H  H35  1  0.06453000  0.02561000  0.49616000  1.0
  H  H36  1  0.63553000  0.97662000  0.46859000  1.0
  H  H37  1  0.36447000  0.02338000  0.53141000  1.0
  H  H38  1  0.74096000  0.85338000  0.42463000  1.0
  H  H39  1  0.25904000  0.14662000  0.57537000  1.0
  H  H40  1  0.45783000  0.19639000  0.53337000  1.0
  H  H41  1  0.54217000  0.80361000  0.46663000  1.0
  H  H42  1  0.34060000  0.32285000  0.57359000  1.0
  H  H43  1  0.65940000  0.67715000  0.42641000  1.0
  H  H44  1  0.65838000  0.32601000  0.60457000  1.0
  H  H45  1  0.34162000  0.67398000  0.39544000  1.0
  H  H46  1  0.75909000  0.20384000  0.56331000  1.0
  H  H47  1  0.24091000  0.79616000  0.43669000  1.0
  H  H48  1  0.13559000  0.60032000  0.70645000  1.0
  H  H49  1  0.86441000  0.39968000  0.29355000  1.0
  H  H50  1  0.08905000  0.72482000  0.74776000  1.0
  H  H51  1  0.91095000  0.27518000  0.25224000  1.0
  H  H52  1  0.42209000  0.72650000  0.71435000  1.0
  H  H53  1  0.57791000  0.27350000  0.28565000  1.0
  H  H54  1  0.48331000  0.60202000  0.67114000  1.0
  H  H55  1  0.51669000  0.39798000  0.32886000  1.0
  H  H56  1  0.31636000  0.94803000  0.77836000  1.0
  H  H57  1  0.68364000  0.05197000  0.22164000  1.0
  H  H58  1  0.26802000  0.07364000  0.81954000  1.0
  H  H59  1  0.73197000  0.92636000  0.18046000  1.0
  H  H60  1  0.91803000  0.07378000  0.85050000  1.0
  H  H61  1  0.08197000  0.92622000  0.14950000  1.0
  H  H62  1  0.97939000  0.95277000  0.80834000  1.0
  H  H63  1  0.02061000  0.04723000  0.19166000  1.0
  H  H64  1  0.06162000  0.33562000  0.96320000  1.0
  H  H65  1  0.93838000  0.66438000  0.03680000  1.0
  H  H66  1  0.94046000  0.45765000  0.00612000  1.0
  H  H67  1  0.05954000  0.54235000  0.99388000  1.0
  H  H68  1  0.64725000  0.47363000  0.95934000  1.0
  H  H69  1  0.35275000  0.52636000  0.04066000  1.0
  H  H70  1  0.75546000  0.35236000  0.91407000  1.0
  H  H71  1  0.24454000  0.64764000  0.08593000  1.0
  H  H72  1  0.45123000  0.71146000  0.03221000  1.0
  H  H73  1  0.54877000  0.28854000  0.96779000  1.0
  H  H74  1  0.33144000  0.83577000  0.07448000  1.0
  H  H75  1  0.66856000  0.16423000  0.92552000  1.0
  H  H76  1  0.64630000  0.82941000  0.11313000  1.0
  H  H77  1  0.35370000  0.17060000  0.88687000  1.0
  H  H78  1  0.74878000  0.70979000  0.06997000  1.0
  H  H79  1  0.25122000  0.29021000  0.93003000  1.0
  H  H80  1  0.12959000  0.09895000  0.21768000  1.0
  H  H81  1  0.87041000  0.90105000  0.78232000  1.0
  H  H82  1  0.08477000  0.22177000  0.26007000  1.0
  H  H83  1  0.91523000  0.77823000  0.73993000  1.0
  H  H84  1  0.41570000  0.22719000  0.22329000  1.0
  H  H85  1  0.58430000  0.77281000  0.77670000  1.0
  H  H86  1  0.47504000  0.10468000  0.17881000  1.0
  H  H87  1  0.52496000  0.89532000  0.82119000  1.0
  Au  Au88  1  0.93483000  0.46284000  0.15317000  1.0
  Au  Au89  1  0.06516000  0.53715000  0.84683000  1.0
  Au  Au90  1  0.95517000  0.21446000  0.40046000  1.0
  Au  Au91  1  0.04483000  0.78554000  0.59954000  1.0
  Au  Au92  1  0.45864000  0.21706000  0.39022000  1.0
  Au  Au93  1  0.54137000  0.78294000  0.60978000  1.0
  Au  Au94  1  0.43389000  0.46567000  0.14477000  1.0
  Au  Au95  1  0.56613000  0.53432000  0.85524000  1.0
  Au  Au96  1  0.93490000  0.96438000  0.64503000  1.0
  Au  Au97  1  0.06510000  0.03562000  0.35497000  1.0
  Au  Au98  1  0.43776000  0.96625000  0.63475000  1.0
  Au  Au99  1  0.56224000  0.03375000  0.36525000  1.0
  Au  Au100  1  0.95805000  0.71589000  0.89000000  1.0
  Au  Au101  1  0.04195000  0.28411000  0.11000000  1.0
  Au  Au102  1  0.46081000  0.71809000  0.88114000  1.0
  Au  Au103  1  0.53919000  0.28191000  0.11885000  1.0
  C  C104  1  0.02167000  0.41740000  0.20526000  1.0
  C  C105  1  0.97833000  0.58260000  0.79474000  1.0
  C  C106  1  0.04668000  0.26417000  0.34960000  1.0
  C  C107  1  0.95331000  0.73583000  0.65040000  1.0
  C  C108  1  0.36779000  0.26368000  0.33946000  1.0
  C  C109  1  0.63221000  0.73632000  0.66054000  1.0
  C  C110  1  0.34271000  0.41796000  0.19688000  1.0
  C  C111  1  0.65730000  0.58204000  0.80312000  1.0
  C  C112  1  0.22207000  0.47924000  0.30438000  1.0
  C  C113  1  0.77793000  0.52076000  0.69562000  1.0
  C  C114  1  0.19321000  0.55033000  0.32665000  1.0
  C  C115  1  0.80678000  0.44967000  0.67335000  1.0
  C  C116  1  0.07974000  0.58926000  0.34757000  1.0
  C  C117  1  0.92026000  0.41074000  0.65243000  1.0
  C  C118  1  0.99897000  0.55350000  0.34293000  1.0
  C  C119  1  0.00103000  0.44650000  0.65707000  1.0
  C  C120  1  0.03448000  0.48209000  0.31957000  1.0
  C  C121  1  0.96552000  0.51791000  0.68043000  1.0
  C  C122  1  0.05952000  0.66048000  0.37275000  1.0
  C  C123  1  0.94048000  0.33952000  0.62725000  1.0
  C  C124  1  0.98421000  0.77074000  0.41288000  1.0
  C  C125  1  0.01579000  0.22926000  0.58712000  1.0
  C  C126  1  0.90856000  0.84109000  0.43869000  1.0
  C  C127  1  0.09144000  0.15891000  0.56131000  1.0
  C  C128  1  0.96150000  0.87691000  0.46208000  1.0
  C  C129  1  0.03850000  0.12309000  0.53792000  1.0
  C  C130  1  0.89598000  0.94617000  0.48553000  1.0
  C  C131  1  0.10402000  0.05383000  0.51447000  1.0
  C  C132  1  0.72845000  0.94697000  0.46620000  1.0
  C  C133  1  0.27155000  0.05303000  0.53380000  1.0
  C  C134  1  0.78838000  0.87753000  0.44159000  1.0
  C  C135  1  0.21161000  0.12247000  0.55842000  1.0
  C  C136  1  0.85935000  0.16864000  0.45122000  1.0
  C  C137  1  0.14065000  0.83136000  0.54878000  1.0
  C  C138  1  0.84337000  0.01392000  0.59453000  1.0
  C  C139  1  0.15663000  0.98608000  0.40547000  1.0
  C  C140  1  0.53238000  0.01252000  0.58371000  1.0
  C  C141  1  0.46762000  0.98748000  0.41629000  1.0
  C  C142  1  0.54763000  0.16910000  0.44152000  1.0
  C  C143  1  0.45238000  0.83090000  0.55848000  1.0
  C  C144  1  0.49792000  0.22760000  0.54967000  1.0
  C  C145  1  0.50208000  0.77240000  0.45033000  1.0
  C  C146  1  0.43318000  0.29792000  0.57231000  1.0
  C  C147  1  0.56682000  0.70208000  0.42769000  1.0
  C  C148  1  0.48598000  0.33700000  0.59398000  1.0
  C  C149  1  0.51402000  0.66300000  0.40602000  1.0
  C  C150  1  0.60653000  0.30214000  0.58974000  1.0
  C  C151  1  0.39347000  0.69786000  0.41026000  1.0
  C  C152  1  0.66610000  0.23149000  0.56593000  1.0
  C  C153  1  0.33390000  0.76851000  0.43407000  1.0
  C  C154  1  0.40974000  0.40771000  0.61923000  1.0
  C  C155  1  0.59025000  0.59229000  0.38077000  1.0
  C  C156  1  0.33457000  0.51856000  0.65898000  1.0
  C  C157  1  0.66543000  0.48145000  0.34102000  1.0
  C  C158  1  0.31405000  0.58971000  0.68443000  1.0
  C  C159  1  0.68595000  0.41029000  0.31557000  1.0
  C  C160  1  0.20198000  0.62618000  0.70703000  1.0
  C  C161  1  0.79802000  0.37382000  0.29297000  1.0
  C  C162  1  0.17506000  0.69608000  0.73013000  1.0
  C  C163  1  0.82494000  0.30392000  0.26987000  1.0
  C  C164  1  0.36112000  0.69659000  0.71181000  1.0
  C  C165  1  0.63888000  0.30341000  0.28819000  1.0
  C  C166  1  0.39494000  0.62646000  0.68760000  1.0
  C  C167  1  0.60506000  0.37354000  0.31240000  1.0
  C  C168  1  0.02633000  0.91867000  0.69562000  1.0
  C  C169  1  0.97366000  0.08133000  0.30438000  1.0
  C  C170  1  0.04977000  0.76451000  0.83855000  1.0
  C  C171  1  0.95023000  0.23549000  0.16145000  1.0
  C  C172  1  0.37416000  0.76306000  0.82901000  1.0
  C  C173  1  0.62585000  0.23694000  0.17099000  1.0
  C  C174  1  0.34595000  0.91884000  0.68646000  1.0
  C  C175  1  0.65405000  0.08115000  0.31354000  1.0
  C  C176  1  0.22944000  0.97836000  0.79493000  1.0
  C  C177  1  0.77056000  0.02164000  0.20506000  1.0
  C  C178  1  0.20190000  0.04815000  0.81808000  1.0
  C  C179  1  0.79810000  0.95185000  0.18192000  1.0
  C  C180  1  0.08927000  0.08593000  0.84013000  1.0
  C  C181  1  0.91072000  0.91407000  0.15987000  1.0
  C  C182  1  0.00795000  0.05067000  0.83553000  1.0
  C  C183  1  0.99204000  0.94933000  0.16447000  1.0
  C  C184  1  0.04206000  0.98071000  0.81119000  1.0
  C  C185  1  0.95794000  0.01929000  0.18881000  1.0
  C  C186  1  0.07000000  0.15576000  0.86616000  1.0
  C  C187  1  0.93000000  0.84424000  0.13384000  1.0
  C  C188  1  0.99564000  0.26400000  0.90766000  1.0
  C  C189  1  0.00436000  0.73600000  0.09234000  1.0
  C  C190  1  0.91966000  0.33311000  0.93424000  1.0
  C  C191  1  0.08034000  0.66688000  0.06576000  1.0
  C  C192  1  0.97026000  0.36429000  0.96112000  1.0
  C  C193  1  0.02974000  0.63571000  0.03888000  1.0
  C  C194  1  0.90280000  0.43270000  0.98512000  1.0
  C  C195  1  0.09720000  0.56730000  0.01488000  1.0
  C  C196  1  0.73944000  0.44118000  0.95932000  1.0
  C  C197  1  0.26055000  0.55882000  0.04068000  1.0
  C  C198  1  0.80059000  0.37299000  0.93394000  1.0
  C  C199  1  0.19941000  0.62700000  0.06606000  1.0
  C  C200  1  0.86667000  0.67178000  0.94330000  1.0
  C  C201  1  0.13334000  0.32822000  0.05670000  1.0
  C  C202  1  0.85060000  0.51190000  0.10054000  1.0
  C  C203  1  0.14939000  0.48810000  0.89946000  1.0
  C  C204  1  0.52413000  0.51142000  0.09161000  1.0
  C  C205  1  0.47588000  0.48857000  0.90839000  1.0
  C  C206  1  0.54178000  0.67252000  0.93474000  1.0
  C  C207  1  0.45822000  0.32748000  0.06526000  1.0
  C  C208  1  0.49002000  0.74026000  0.05075000  1.0
  C  C209  1  0.50998000  0.25974000  0.94925000  1.0
  C  C210  1  0.42372000  0.80912000  0.07444000  1.0
  C  C211  1  0.57628000  0.19087000  0.92556000  1.0
  C  C212  1  0.47552000  0.84465000  0.09873000  1.0
  C  C213  1  0.52448000  0.15535000  0.90127000  1.0
  C  C214  1  0.59575000  0.80805000  0.09616000  1.0
  C  C215  1  0.40425000  0.19195000  0.90384000  1.0
  C  C216  1  0.65594000  0.73903000  0.07126000  1.0
  C  C217  1  0.34406000  0.26097000  0.92874000  1.0
  C  C218  1  0.39953000  0.91357000  0.12523000  1.0
  C  C219  1  0.60047000  0.08643000  0.87477000  1.0
  C  C220  1  0.32578000  0.02148000  0.16702000  1.0
  C  C221  1  0.67421000  0.97852000  0.83298000  1.0
  C  C222  1  0.30653000  0.09089000  0.19353000  1.0
  C  C223  1  0.69347000  0.90911000  0.80647000  1.0
  C  C224  1  0.19580000  0.12539000  0.21765000  1.0
  C  C225  1  0.80420000  0.87461000  0.78235000  1.0
  C  C226  1  0.16984000  0.19437000  0.24134000  1.0
  C  C227  1  0.83016000  0.80564000  0.75865000  1.0
  C  C228  1  0.35470000  0.19701000  0.22115000  1.0
  C  C229  1  0.64530000  0.80299000  0.77885000  1.0
  C  C230  1  0.38751000  0.12795000  0.19626000  1.0
  C  C231  1  0.61249000  0.87205000  0.80374000  1.0
  N  N232  1  0.08014000  0.38838000  0.23414000  1.0
  N  N233  1  0.91986000  0.61162000  0.76586000  1.0
  N  N234  1  0.10045000  0.29336000  0.31870000  1.0
  N  N235  1  0.89955000  0.70665000  0.68130000  1.0
  N  N236  1  0.31068000  0.28897000  0.31014000  1.0
  N  N237  1  0.68932000  0.71103000  0.68986000  1.0
  N  N238  1  0.29017000  0.38460000  0.22626000  1.0
  N  N239  1  0.70983000  0.61541000  0.77373000  1.0
  N  N240  1  0.14419000  0.44409000  0.30089000  1.0
  N  N241  1  0.85581000  0.55591000  0.69911000  1.0
  N  N242  1  0.14452000  0.68227000  0.38055000  1.0
  N  N243  1  0.85548000  0.31773000  0.61945000  1.0
  N  N244  1  0.09810000  0.75023000  0.40516000  1.0
  N  N245  1  0.90190000  0.24977000  0.59484000  1.0
  N  N246  1  0.95651000  0.71525000  0.39284000  1.0
  N  N247  1  0.04349000  0.28475000  0.60716000  1.0
  N  N248  1  0.84491000  0.71516000  0.39523000  1.0
  N  N249  1  0.15508000  0.28484000  0.60477000  1.0
  N  N250  1  0.78068000  0.98231000  0.48746000  1.0
  N  N251  1  0.21932000  0.01769000  0.51254000  1.0
  N  N252  1  0.80057000  0.13945000  0.47983000  1.0
  N  N253  1  0.19943000  0.86055000  0.52017000  1.0
  N  N254  1  0.79055000  0.04309000  0.56386000  1.0
  N  N255  1  0.20945000  0.95692000  0.43614000  1.0
  N  N256  1  0.59372000  0.03797000  0.55455000  1.0
  N  N257  1  0.40628000  0.96203000  0.44545000  1.0
  N  N258  1  0.60331000  0.13511000  0.47106000  1.0
  N  N259  1  0.39669000  0.86489000  0.52894000  1.0
  N  N260  1  0.61387000  0.19336000  0.54650000  1.0
  N  N261  1  0.38613000  0.80664000  0.45350000  1.0
  N  N262  1  0.29569000  0.42878000  0.62666000  1.0
  N  N263  1  0.70431000  0.57122000  0.37334000  1.0
  N  N264  1  0.24949000  0.49709000  0.65105000  1.0
  N  N265  1  0.75051000  0.50291000  0.34894000  1.0
  N  N266  1  0.43745000  0.46324000  0.63938000  1.0
  N  N267  1  0.56255000  0.53676000  0.36062000  1.0
  N  N268  1  0.54616000  0.46369000  0.64229000  1.0
  N  N269  1  0.45384000  0.53631000  0.35771000  1.0
  N  N270  1  0.25253000  0.73228000  0.73244000  1.0
  N  N271  1  0.74747000  0.26772000  0.26756000  1.0
  N  N272  1  0.08523000  0.88943000  0.72435000  1.0
  N  N273  1  0.91477000  0.11057000  0.27565000  1.0
  N  N274  1  0.10554000  0.79315000  0.80826000  1.0
  N  N275  1  0.89446000  0.20685000  0.19174000  1.0
  N  N276  1  0.31662000  0.78823000  0.79983000  1.0
  N  N277  1  0.68338000  0.21177000  0.20017000  1.0
  N  N278  1  0.29492000  0.88507000  0.71626000  1.0
  N  N279  1  0.70508000  0.11493000  0.28374000  1.0
  N  N280  1  0.15108000  0.94349000  0.79159000  1.0
  N  N281  1  0.84891000  0.05651000  0.20841000  1.0
  N  N282  1  0.15517000  0.17778000  0.87355000  1.0
  N  N283  1  0.84483000  0.82222000  0.12645000  1.0
  N  N284  1  0.10929000  0.24456000  0.89906000  1.0
  N  N285  1  0.89071000  0.75544000  0.10094000  1.0
  N  N286  1  0.96743000  0.20906000  0.88739000  1.0
  N  N287  1  0.03257000  0.79094000  0.11261000  1.0
  N  N288  1  0.85620000  0.20715000  0.89131000  1.0
  N  N289  1  0.14380000  0.79285000  0.10869000  1.0
  N  N290  1  0.78887000  0.47171000  0.98433000  1.0
  N  N291  1  0.21113000  0.52829000  0.01567000  1.0
  N  N292  1  0.81412000  0.64459000  0.97552000  1.0
  N  N293  1  0.18588000  0.35540000  0.02448000  1.0
  N  N294  1  0.80290000  0.54039000  0.06844000  1.0
  N  N295  1  0.19709000  0.45961000  0.93156000  1.0
  N  N296  1  0.57916000  0.53495000  0.05902000  1.0
  N  N297  1  0.42084000  0.46506000  0.94098000  1.0
  N  N298  1  0.59079000  0.64003000  0.96629000  1.0
  N  N299  1  0.40922000  0.35998000  0.03371000  1.0
  N  N300  1  0.60520000  0.70445000  0.04912000  1.0
  N  N301  1  0.39480000  0.29555000  0.95088000  1.0
  N  N302  1  0.28562000  0.93382000  0.13358000  1.0
  N  N303  1  0.71438000  0.06618000  0.86642000  1.0
  N  N304  1  0.24030000  0.00029000  0.15930000  1.0
  N  N305  1  0.75970000  0.99971000  0.84070000  1.0
  N  N306  1  0.42803000  0.96786000  0.14603000  1.0
  N  N307  1  0.57197000  0.03214000  0.85397000  1.0
  N  N308  1  0.53676000  0.96972000  0.14775000  1.0
  N  N309  1  0.46324000  0.03028000  0.85225000  1.0
  N  N310  1  0.24698000  0.23147000  0.24285000  1.0
  N  N311  1  0.75302000  0.76853000  0.75714000  1.0
