# generated using pymatgen
data_CuBH10(C3N2)3
_symmetry_space_group_name_H-M   'P 1'
_cell_length_a   8.03799000
_cell_length_b   9.99956000
_cell_length_c   13.75590000
_cell_angle_alpha   89.99990000
_cell_angle_beta   89.99980000
_cell_angle_gamma   93.70330000
_symmetry_Int_Tables_number   1
_chemical_formula_structural   CuBH10(C3N2)3
_chemical_formula_sum   'Cu4 B4 H40 C36 N24'
_cell_volume   1103.34050937
_cell_formula_units_Z   4
loop_
 _symmetry_equiv_pos_site_id
 _symmetry_equiv_pos_as_xyz
  1  'x, y, z'
loop_
 _atom_site_type_symbol
 _atom_site_label
 _atom_site_symmetry_multiplicity
 _atom_site_fract_x
 _atom_site_fract_y
 _atom_site_fract_z
 _atom_site_occupancy
  Cu  Cu0  1  0.05658000  0.95213000  0.09028000  1.0
  Cu  Cu1  1  0.94343000  0.54787000  0.59028000  1.0
  Cu  Cu2  1  0.94342000  0.04787000  0.90972000  1.0
  Cu  Cu3  1  0.05658000  0.45213000  0.40972000  1.0
  B  B4  1  0.54970000  0.35936000  0.14341000  1.0
  B  B5  1  0.45030000  0.14064000  0.64341000  1.0
  B  B6  1  0.45030000  0.64063000  0.85659000  1.0
  B  B7  1  0.54970000  0.85936000  0.35659000  1.0
  H  H8  1  0.52602000  0.47583000  0.12927000  1.0
  H  H9  1  0.47398000  0.02417000  0.62927000  1.0
  H  H10  1  0.47399000  0.52417000  0.87074000  1.0
  H  H11  1  0.52601000  0.97583000  0.37074000  1.0
  H  H12  1  0.42037000  0.08734000  0.08076000  1.0
  H  H13  1  0.57963000  0.41266000  0.58076000  1.0
  H  H14  1  0.57963000  0.91266000  0.91924000  1.0
  H  H15  1  0.42037000  0.58734000  0.41924000  1.0
  H  H16  1  0.23691000  0.42817000  0.21522000  1.0
  H  H17  1  0.76309000  0.07183000  0.71523000  1.0
  H  H18  1  0.76309000  0.57184000  0.78478000  1.0
  H  H19  1  0.23691000  0.92817000  0.28477000  1.0
  H  H20  1  0.97780000  0.23418000  0.18943000  1.0
  H  H21  1  0.02220000  0.26582000  0.68943000  1.0
  H  H22  1  0.02220000  0.76582000  0.81057000  1.0
  H  H23  1  0.97779000  0.73418000  0.31056000  1.0
  H  H24  1  0.70211000  0.10573000  0.09251000  1.0
  H  H25  1  0.29789000  0.39427000  0.59251000  1.0
  H  H26  1  0.29789000  0.89427000  0.90749000  1.0
  H  H27  1  0.70211000  0.60573000  0.40749000  1.0
  H  H28  1  0.69842000  0.50088000  0.98427000  1.0
  H  H29  1  0.30158000  0.99912000  0.48427000  1.0
  H  H30  1  0.30158000  0.49912000  0.01573000  1.0
  H  H31  1  0.69841000  0.00088000  0.51573000  1.0
  H  H32  1  0.90781000  0.35428000  0.87073000  1.0
  H  H33  1  0.09219000  0.14572000  0.37074000  1.0
  H  H34  1  0.09219000  0.64572000  0.12927000  1.0
  H  H35  1  0.90781000  0.85428000  0.62927000  1.0
  H  H36  1  0.82649000  0.51014000  0.22481000  1.0
  H  H37  1  0.17351000  0.98986000  0.72482000  1.0
  H  H38  1  0.17351000  0.48986000  0.77519000  1.0
  H  H39  1  0.82649000  0.01014000  0.27519000  1.0
  H  H40  1  0.76326000  0.22571000  0.44992000  1.0
  H  H41  1  0.23674000  0.27428000  0.94992000  1.0
  H  H42  1  0.23674000  0.77428000  0.55008000  1.0
  H  H43  1  0.76326000  0.72572000  0.05008000  1.0
  H  H44  1  0.51333000  0.17659000  0.31208000  1.0
  H  H45  1  0.48666000  0.32341000  0.81208000  1.0
  H  H46  1  0.48667000  0.82340000  0.68792000  1.0
  H  H47  1  0.51333000  0.67660000  0.18792000  1.0
  C  C48  1  0.33515000  0.15236000  0.11513000  1.0
  C  C49  1  0.66486000  0.34764000  0.61513000  1.0
  C  C50  1  0.66486000  0.84764000  0.88487000  1.0
  C  C51  1  0.33514000  0.65236000  0.38487000  1.0
  C  C52  1  0.23543000  0.32892000  0.18341000  1.0
  C  C53  1  0.76457000  0.17109000  0.68341000  1.0
  C  C54  1  0.76457000  0.67108000  0.81659000  1.0
  C  C55  1  0.23543000  0.82891000  0.31659000  1.0
  C  C56  1  0.10870000  0.23149000  0.17141000  1.0
  C  C57  1  0.89130000  0.26851000  0.67141000  1.0
  C  C58  1  0.89131000  0.76851000  0.82859000  1.0
  C  C59  1  0.10869000  0.73149000  0.32859000  1.0
  C  C60  1  0.72649000  0.19226000  0.04590000  1.0
  C  C61  1  0.27351000  0.30774000  0.54591000  1.0
  C  C62  1  0.27351000  0.80774000  0.95410000  1.0
  C  C63  1  0.72649000  0.69226000  0.45410000  1.0
  C  C64  1  0.72977000  0.39753000  0.98899000  1.0
  C  C65  1  0.27023000  0.10248000  0.48899000  1.0
  C  C66  1  0.27023000  0.60247000  0.01101000  1.0
  C  C67  1  0.72977000  0.89752000  0.51101000  1.0
  C  C68  1  0.83281000  0.32417000  0.93340000  1.0
  C  C69  1  0.16719000  0.17583000  0.43341000  1.0
  C  C70  1  0.16719000  0.67583000  0.06659000  1.0
  C  C71  1  0.83281000  0.82417000  0.56659000  1.0
  C  C72  1  0.77742000  0.42619000  0.26847000  1.0
  C  C73  1  0.22258000  0.07380000  0.76847000  1.0
  C  C74  1  0.22258000  0.57380000  0.73153000  1.0
  C  C75  1  0.77742000  0.92620000  0.23153000  1.0
  C  C76  1  0.74000000  0.27712000  0.38247000  1.0
  C  C77  1  0.26000000  0.22288000  0.88247000  1.0
  C  C78  1  0.26000000  0.72287000  0.61753000  1.0
  C  C79  1  0.74000000  0.77713000  0.11753000  1.0
  C  C80  1  0.61654000  0.25171000  0.31426000  1.0
  C  C81  1  0.38346000  0.24829000  0.81426000  1.0
  C  C82  1  0.38346000  0.74829000  0.68574000  1.0
  C  C83  1  0.61654000  0.75171000  0.18574000  1.0
  N  N84  1  0.37922000  0.27835000  0.14696000  1.0
  N  N85  1  0.62078000  0.22165000  0.64696000  1.0
  N  N86  1  0.62078000  0.72165000  0.85304000  1.0
  N  N87  1  0.37922000  0.77834000  0.35304000  1.0
  N  N88  1  0.17223000  0.12062000  0.12815000  1.0
  N  N89  1  0.82777000  0.37938000  0.62815000  1.0
  N  N90  1  0.82777000  0.87939000  0.87185000  1.0
  N  N91  1  0.17222000  0.62061000  0.37185000  1.0
  N  N92  1  0.66202000  0.31332000  0.06031000  1.0
  N  N93  1  0.33798000  0.18669000  0.56031000  1.0
  N  N94  1  0.33798000  0.68668000  0.93969000  1.0
  N  N95  1  0.66202000  0.81331000  0.43969000  1.0
  N  N96  1  0.82961000  0.19488000  0.96957000  1.0
  N  N97  1  0.17039000  0.30512000  0.46958000  1.0
  N  N98  1  0.17039000  0.80512000  0.03043000  1.0
  N  N99  1  0.82961000  0.69488000  0.53042000  1.0
  N  N100  1  0.64182000  0.34661000  0.24196000  1.0
  N  N101  1  0.35818000  0.15339000  0.74196000  1.0
  N  N102  1  0.35818000  0.65338000  0.75804000  1.0
  N  N103  1  0.64182000  0.84662000  0.25804000  1.0
  N  N104  1  0.84097000  0.38718000  0.35314000  1.0
  N  N105  1  0.15903000  0.11282000  0.85314000  1.0
  N  N106  1  0.15904000  0.61282000  0.64686000  1.0
  N  N107  1  0.84096000  0.88718000  0.14686000  1.0
