# generated using pymatgen
data_BaH12C7O5
_symmetry_space_group_name_H-M   'P 1'
_cell_length_a   4.94071000
_cell_length_b   7.74355000
_cell_length_c   13.37580000
_cell_angle_alpha   105.53200000
_cell_angle_beta   98.72850000
_cell_angle_gamma   96.53580000
_symmetry_Int_Tables_number   1
_chemical_formula_structural   BaH12C7O5
_chemical_formula_sum   'Ba2 H24 C14 O10'
_cell_volume   480.88854408
_cell_formula_units_Z   2
loop_
 _symmetry_equiv_pos_site_id
 _symmetry_equiv_pos_as_xyz
  1  'x, y, z'
loop_
 _atom_site_type_symbol
 _atom_site_label
 _atom_site_symmetry_multiplicity
 _atom_site_fract_x
 _atom_site_fract_y
 _atom_site_fract_z
 _atom_site_occupancy
  Ba  Ba0  1  0.73201000  0.73223000  0.46438000  1.0
  Ba  Ba1  1  0.26799000  0.26776000  0.53562000  1.0
  H  H2  1  0.83444000  0.74848000  0.19802000  1.0
  H  H3  1  0.36314000  0.44924000  0.19801000  1.0
  H  H4  1  0.16556000  0.25152000  0.80198000  1.0
  H  H5  1  0.63686000  0.55076000  0.80200000  1.0
  H  H6  1  0.93088000  0.97455000  0.20534000  1.0
  H  H7  1  0.27310000  0.23072000  0.20553000  1.0
  H  H8  1  0.06912000  0.02545000  0.79466000  1.0
  H  H9  1  0.72691000  0.76928000  0.79446000  1.0
  H  H10  1  0.31068000  0.89586000  0.10263000  1.0
  H  H11  1  0.79121000  0.20713000  0.10256000  1.0
  H  H12  1  0.68933000  0.10415000  0.89737000  1.0
  H  H13  1  0.20879000  0.79287000  0.89744000  1.0
  H  H14  1  0.23118000  0.66804000  0.09958000  1.0
  H  H15  1  0.86820000  0.43179000  0.09933000  1.0
  H  H16  1  0.76882000  0.33197000  0.90042000  1.0
  H  H17  1  0.13180000  0.56822000  0.90067000  1.0
  H  H18  1  0.83118000  0.87865000  0.99979000  1.0
  H  H19  1  0.16882000  0.12135000  0.00021000  1.0
  H  H20  1  0.74609000  0.65238000  0.99996000  1.0
  H  H21  1  0.25391000  0.34763000  0.00004000  1.0
  H  H22  1  0.28842000  0.71424000  0.63557000  1.0
  H  H23  1  0.34736000  0.92130000  0.63558000  1.0
  H  H24  1  0.71158000  0.28576000  0.36443000  1.0
  H  H25  1  0.65264000  0.07870000  0.36442000  1.0
  C  C26  1  0.21453000  0.87584000  0.30370000  1.0
  C  C27  1  0.08831000  0.42823000  0.30368000  1.0
  C  C28  1  0.78547000  0.12416000  0.69630000  1.0
  C  C29  1  0.91169000  0.57177000  0.69632000  1.0
  C  C30  1  0.01566000  0.84738000  0.20015000  1.0
  C  C31  1  0.18368000  0.35283000  0.20020000  1.0
  C  C32  1  0.98434000  0.15262000  0.79985000  1.0
  C  C33  1  0.81632000  0.64717000  0.79980000  1.0
  C  C34  1  0.13780000  0.79078000  0.10064000  1.0
  C  C35  1  0.96235000  0.31006000  0.10060000  1.0
  C  C36  1  0.86220000  0.20923000  0.89936000  1.0
  C  C37  1  0.03765000  0.68994000  0.89940000  1.0
  C  C38  1  0.92121000  0.75464000  0.99994000  1.0
  C  C39  1  0.07879000  0.24536000  0.00006000  1.0
  O  O40  1  0.46536000  0.85327000  0.30215000  1.0
  O  O41  1  0.83597000  0.44934000  0.30212000  1.0
  O  O42  1  0.53464000  0.14673000  0.69785000  1.0
  O  O43  1  0.16403000  0.55065000  0.69788000  1.0
  O  O44  1  0.12214000  0.92474000  0.38983000  1.0
  O  O45  1  0.26689000  0.46547000  0.38985000  1.0
  O  O46  1  0.87786000  0.07526000  0.61017000  1.0
  O  O47  1  0.73311000  0.53453000  0.61014000  1.0
  O  O48  1  0.29459000  0.79462000  0.58906000  1.0
  O  O49  1  0.70540000  0.20538000  0.41094000  1.0
