# generated using pymatgen
data_CdH8(C5O3)2
_symmetry_space_group_name_H-M   'P 1'
_cell_length_a   6.03810000
_cell_length_b   8.17637000
_cell_length_c   19.42890000
_cell_angle_alpha   89.75780000
_cell_angle_beta   89.99990000
_cell_angle_gamma   89.99980000
_symmetry_Int_Tables_number   1
_chemical_formula_structural   CdH8(C5O3)2
_chemical_formula_sum   'Cd4 H32 C40 O24'
_cell_volume   959.19116558
_cell_formula_units_Z   4
loop_
 _symmetry_equiv_pos_site_id
 _symmetry_equiv_pos_as_xyz
  1  'x, y, z'
loop_
 _atom_site_type_symbol
 _atom_site_label
 _atom_site_symmetry_multiplicity
 _atom_site_fract_x
 _atom_site_fract_y
 _atom_site_fract_z
 _atom_site_occupancy
  Cd  Cd0  1  0.56454000  0.28860000  0.25826000  1.0
  Cd  Cd1  1  0.93546000  0.28861000  0.75826000  1.0
  Cd  Cd2  1  0.43546000  0.71140000  0.74174000  1.0
  Cd  Cd3  1  0.06454000  0.71140000  0.24174000  1.0
  H  H4  1  0.64485000  0.04560000  0.08435000  1.0
  H  H5  1  0.85517000  0.04561000  0.58435000  1.0
  H  H6  1  0.35516000  0.95440000  0.91565000  1.0
  H  H7  1  0.14483000  0.95439000  0.41565000  1.0
  H  H8  1  0.43904000  0.90448000  0.11649000  1.0
  H  H9  1  0.06096000  0.90449000  0.61649000  1.0
  H  H10  1  0.56096000  0.09552000  0.88351000  1.0
  H  H11  1  0.93903000  0.09551000  0.38351000  1.0
  H  H12  1  0.35423000  0.08658000  0.01283000  1.0
  H  H13  1  0.14578000  0.08659000  0.51283000  1.0
  H  H14  1  0.64578000  0.91342000  0.98717000  1.0
  H  H15  1  0.85422000  0.91341000  0.48717000  1.0
  H  H16  1  0.04107000  0.19965000  0.94432000  1.0
  H  H17  1  0.45894000  0.19966000  0.44432000  1.0
  H  H18  1  0.95894000  0.80035000  0.05568000  1.0
  H  H19  1  0.54106000  0.80034000  0.55568000  1.0
  H  H20  1  0.75162000  0.36454000  0.99825000  1.0
  H  H21  1  0.74838000  0.36454000  0.49825000  1.0
  H  H22  1  0.24838000  0.63546000  0.00175000  1.0
  H  H23  1  0.25161000  0.63546000  0.50175000  1.0
  H  H24  1  0.06993000  0.29786000  0.19590000  1.0
  H  H25  1  0.43008000  0.29786000  0.69590000  1.0
  H  H26  1  0.93007000  0.70214000  0.80410000  1.0
  H  H27  1  0.56992000  0.70214000  0.30410000  1.0
  H  H28  1  0.47719000  0.43433000  0.06709000  1.0
  H  H29  1  0.02282000  0.43434000  0.56709000  1.0
  H  H30  1  0.52281000  0.56567000  0.93291000  1.0
  H  H31  1  0.97718000  0.56566000  0.43291000  1.0
  H  H32  1  0.63658000  0.61803000  0.07756000  1.0
  H  H33  1  0.86342000  0.61803000  0.57756000  1.0
  H  H34  1  0.36341000  0.38197000  0.92244000  1.0
  H  H35  1  0.13657000  0.38197000  0.42244000  1.0
  C  C36  1  0.70485000  0.96273000  0.18612000  1.0
  C  C37  1  0.79515000  0.96274000  0.68612000  1.0
  C  C38  1  0.29516000  0.03727000  0.81388000  1.0
  C  C39  1  0.20484000  0.03727000  0.31388000  1.0
  C  C40  1  0.54329000  0.01011000  0.12922000  1.0
  C  C41  1  0.95672000  0.01011000  0.62922000  1.0
  C  C42  1  0.45671000  0.98989000  0.87078000  1.0
  C  C43  1  0.04328000  0.98989000  0.37078000  1.0
  C  C44  1  0.23367000  0.18911000  0.10867000  1.0
  C  C45  1  0.26633000  0.18912000  0.60867000  1.0
  C  C46  1  0.76634000  0.81089000  0.89133000  1.0
  C  C47  1  0.73366000  0.81088000  0.39133000  1.0
  C  C48  1  0.22544000  0.15769000  0.03783000  1.0
  C  C49  1  0.27457000  0.15770000  0.53784000  1.0
  C  C50  1  0.77457000  0.84231000  0.96217000  1.0
  C  C51  1  0.72543000  0.84230000  0.46216000  1.0
  C  C52  1  0.04908000  0.22110000  0.99963000  1.0
  C  C53  1  0.45092000  0.22111000  0.49963000  1.0
  C  C54  1  0.95092000  0.77890000  0.00037000  1.0
  C  C55  1  0.54907000  0.77889000  0.50037000  1.0
  C  C56  1  0.88226000  0.31409000  0.03036000  1.0
  C  C57  1  0.61775000  0.31409000  0.53037000  1.0
  C  C58  1  0.11774000  0.68591000  0.96964000  1.0
  C  C59  1  0.38225000  0.68590000  0.46963000  1.0
  C  C60  1  0.89167000  0.33991000  0.10146000  1.0
  C  C61  1  0.60833000  0.33991000  0.60147000  1.0
  C  C62  1  0.10833000  0.66009000  0.89853000  1.0
  C  C63  1  0.39167000  0.66008000  0.39853000  1.0
  C  C64  1  0.06579000  0.27708000  0.14069000  1.0
  C  C65  1  0.43422000  0.27708000  0.64069000  1.0
  C  C66  1  0.93421000  0.72292000  0.85931000  1.0
  C  C67  1  0.56578000  0.72292000  0.35931000  1.0
  C  C68  1  0.56576000  0.51171000  0.10443000  1.0
  C  C69  1  0.93425000  0.51171000  0.60443000  1.0
  C  C70  1  0.43424000  0.48829000  0.89557000  1.0
  C  C71  1  0.06574000  0.48829000  0.39556000  1.0
  C  C72  1  0.39759000  0.57156000  0.15655000  1.0
  C  C73  1  0.10242000  0.57157000  0.65655000  1.0
  C  C74  1  0.60242000  0.42843000  0.84346000  1.0
  C  C75  1  0.89758000  0.42843000  0.34345000  1.0
  O  O76  1  0.75761000  0.06259000  0.23283000  1.0
  O  O77  1  0.74239000  0.06260000  0.73283000  1.0
  O  O78  1  0.24240000  0.93741000  0.76717000  1.0
  O  O79  1  0.25761000  0.93740000  0.26717000  1.0
  O  O80  1  0.78454000  0.81955000  0.17894000  1.0
  O  O81  1  0.71546000  0.81956000  0.67894000  1.0
  O  O82  1  0.21545000  0.18044000  0.82107000  1.0
  O  O83  1  0.28454000  0.18044000  0.32107000  1.0
  O  O84  1  0.40767000  0.14430000  0.15051000  1.0
  O  O85  1  0.09234000  0.14430000  0.65052000  1.0
  O  O86  1  0.59234000  0.85571000  0.84948000  1.0
  O  O87  1  0.90766000  0.85570000  0.34948000  1.0
  O  O88  1  0.73529000  0.42289000  0.13925000  1.0
  O  O89  1  0.76471000  0.42290000  0.63925000  1.0
  O  O90  1  0.26471000  0.57710000  0.86075000  1.0
  O  O91  1  0.23528000  0.57710000  0.36075000  1.0
  O  O92  1  0.39516000  0.51633000  0.21826000  1.0
  O  O93  1  0.10485000  0.51634000  0.71826000  1.0
  O  O94  1  0.60484000  0.48366000  0.78174000  1.0
  O  O95  1  0.89516000  0.48366000  0.28173000  1.0
  O  O96  1  0.25826000  0.67649000  0.13616000  1.0
  O  O97  1  0.24175000  0.67650000  0.63616000  1.0
  O  O98  1  0.74174000  0.32351000  0.86384000  1.0
  O  O99  1  0.75825000  0.32351000  0.36384000  1.0
