# generated using pymatgen
data_CdNiH16C10(N3O)2
_symmetry_space_group_name_H-M   'P 1'
_cell_length_a   7.52713000
_cell_length_b   7.52711000
_cell_length_c   14.15250000
_cell_angle_alpha   77.29450000
_cell_angle_beta   77.29430000
_cell_angle_gamma   87.63910000
_symmetry_Int_Tables_number   1
_chemical_formula_structural   CdNiH16C10(N3O)2
_chemical_formula_sum   'Cd2 Ni2 H32 C20 N12 O4'
_cell_volume   763.03533238
_cell_formula_units_Z   2
loop_
 _symmetry_equiv_pos_site_id
 _symmetry_equiv_pos_as_xyz
  1  'x, y, z'
loop_
 _atom_site_type_symbol
 _atom_site_label
 _atom_site_symmetry_multiplicity
 _atom_site_fract_x
 _atom_site_fract_y
 _atom_site_fract_z
 _atom_site_occupancy
  Cd  Cd0  1  0.89045000  0.10954000  0.25000000  1.0
  Cd  Cd1  1  0.10954000  0.89046000  0.75000000  1.0
  Ni  Ni2  1  0.00002000  0.49999000  0.49999000  1.0
  Ni  Ni3  1  0.50000000  0.00000000  0.99999000  1.0
  H  H4  1  0.41678000  0.11112000  0.27795000  1.0
  H  H5  1  0.88886000  0.58322000  0.22205000  1.0
  H  H6  1  0.58321000  0.88889000  0.72205000  1.0
  H  H7  1  0.11113000  0.41679000  0.77795000  1.0
  H  H8  1  0.31775000  0.06023000  0.40663000  1.0
  H  H9  1  0.93977000  0.68223000  0.09337000  1.0
  H  H10  1  0.68225000  0.93977000  0.59337000  1.0
  H  H11  1  0.06024000  0.31777000  0.90664000  1.0
  H  H12  1  0.31624000  0.79266000  0.33140000  1.0
  H  H13  1  0.20732000  0.68377000  0.16860000  1.0
  H  H14  1  0.68376000  0.20734000  0.66860000  1.0
  H  H15  1  0.79268000  0.31623000  0.83141000  1.0
  H  H16  1  0.55993000  0.80475000  0.29229000  1.0
  H  H17  1  0.19523000  0.44008000  0.20772000  1.0
  H  H18  1  0.44007000  0.19526000  0.70770000  1.0
  H  H19  1  0.80475000  0.55991000  0.79230000  1.0
  H  H20  1  0.61972000  0.52637000  0.39448000  1.0
  H  H21  1  0.47363000  0.38028000  0.10553000  1.0
  H  H22  1  0.38029000  0.47364000  0.60551000  1.0
  H  H23  1  0.52636000  0.61968000  0.89450000  1.0
  H  H24  1  0.37801000  0.48345000  0.42796000  1.0
  H  H25  1  0.51655000  0.62199000  0.07205000  1.0
  H  H26  1  0.62200000  0.51656000  0.57204000  1.0
  H  H27  1  0.48345000  0.37798000  0.92798000  1.0
  H  H28  1  0.64357000  0.99071000  0.42443000  1.0
  H  H29  1  0.00930000  0.35641000  0.07557000  1.0
  H  H30  1  0.35642000  0.00930000  0.57557000  1.0
  H  H31  1  0.99071000  0.64360000  0.92443000  1.0
  H  H32  1  0.59122000  0.20378000  0.39873000  1.0
  H  H33  1  0.79623000  0.40877000  0.10126000  1.0
  H  H34  1  0.40878000  0.79622000  0.60126000  1.0
  H  H35  1  0.20379000  0.59124000  0.89873000  1.0
  C  C36  1  0.95529000  0.69172000  0.40324000  1.0
  C  C37  1  0.30828000  0.04472000  0.09675000  1.0
  C  C38  1  0.04473000  0.30827000  0.59675000  1.0
  C  C39  1  0.69172000  0.95527000  0.90324000  1.0
  C  C40  1  0.00854000  0.65676000  0.58170000  1.0
  C  C41  1  0.34322000  0.99148000  0.91829000  1.0
  C  C42  1  0.99148000  0.34322000  0.41828000  1.0
  C  C43  1  0.65677000  0.00852000  0.08171000  1.0
  C  C44  1  0.43649000  0.03387000  0.35026000  1.0
  C  C45  1  0.96613000  0.56351000  0.14973000  1.0
  C  C46  1  0.56350000  0.96613000  0.64973000  1.0
  C  C47  1  0.03388000  0.43650000  0.85027000  1.0
  C  C48  1  0.44231000  0.83341000  0.34881000  1.0
  C  C49  1  0.16659000  0.55769000  0.15119000  1.0
  C  C50  1  0.55769000  0.16659000  0.65119000  1.0
  C  C51  1  0.83341000  0.44231000  0.84882000  1.0
  C  C52  1  0.49224000  0.54537000  0.44763000  1.0
  C  C53  1  0.45464000  0.50776000  0.05238000  1.0
  C  C54  1  0.50777000  0.45464000  0.55236000  1.0
  C  C55  1  0.54536000  0.49222000  0.94765000  1.0
  N  N56  1  0.92736000  0.81355000  0.34088000  1.0
  N  N57  1  0.18645000  0.07266000  0.15911000  1.0
  N  N58  1  0.07265000  0.18645000  0.65911000  1.0
  N  N59  1  0.81354000  0.92734000  0.84088000  1.0
  N  N60  1  0.01287000  0.75527000  0.63484000  1.0
  N  N61  1  0.24471000  0.98715000  0.86514000  1.0
  N  N62  1  0.98714000  0.24471000  0.36515000  1.0
  N  N63  1  0.75526000  0.01286000  0.13485000  1.0
  N  N64  1  0.60897000  0.09006000  0.36946000  1.0
  N  N65  1  0.90994000  0.39104000  0.13054000  1.0
  N  N66  1  0.39102000  0.90995000  0.63054000  1.0
  N  N67  1  0.09006000  0.60898000  0.86946000  1.0
  O  O68  1  0.46047000  0.73343000  0.44503000  1.0
  O  O69  1  0.26658000  0.53954000  0.05497000  1.0
  O  O70  1  0.53954000  0.26658000  0.55496000  1.0
  O  O71  1  0.73343000  0.46047000  0.94505000  1.0
