# generated using pymatgen
data_CdH38C30(N2O3)2
_symmetry_space_group_name_H-M   'P 1'
_cell_length_a   8.80996000
_cell_length_b   9.38430000
_cell_length_c   10.84006866
_cell_angle_alpha   98.42712171
_cell_angle_beta   113.92780643
_cell_angle_gamma   90.00210000
_symmetry_Int_Tables_number   1
_chemical_formula_structural   CdH38C30(N2O3)2
_chemical_formula_sum   'Cd1 H38 C30 N4 O6'
_cell_volume   808.58394901
_cell_formula_units_Z   1
loop_
 _symmetry_equiv_pos_site_id
 _symmetry_equiv_pos_as_xyz
  1  'x, y, z'
loop_
 _atom_site_type_symbol
 _atom_site_label
 _atom_site_symmetry_multiplicity
 _atom_site_fract_x
 _atom_site_fract_y
 _atom_site_fract_z
 _atom_site_occupancy
  Cd  Cd0  1  0.86672000  0.99990000  0.99992000  1.0
  H  H1  1  0.43267000  0.39946000  0.33564000  1.0
  H  H2  1  0.09712000  0.60069000  0.66424000  1.0
  H  H3  1  0.76740000  0.50698000  0.23531000  1.0
  H  H4  1  0.53195000  0.49307000  0.76500000  1.0
  H  H5  1  0.87509000  0.32369000  0.10455000  1.0
  H  H6  1  0.77013000  0.67619000  0.89623000  1.0
  H  H7  1  0.59151000  0.99036000  0.13547000  1.0
  H  H8  1  0.45604000  0.00979000  0.86492000  1.0
  H  H9  1  0.45728000  0.15919000  0.25413000  1.0
  H  H10  1  0.20329000  0.84108000  0.74591000  1.0
  H  H11  1  0.39432000  0.59419000  0.45919000  1.0
  H  H12  1  0.93557000  0.40572000  0.54074000  1.0
  H  H13  1  0.52172000  0.80786000  0.60350000  1.0
  H  H14  1  0.91966000  0.19210000  0.39649000  1.0
  H  H15  1  0.62443000  0.84860000  0.50286000  1.0
  H  H16  1  0.12257000  0.15140000  0.49757000  1.0
  H  H17  1  0.33758000  0.98816000  0.50778000  1.0
  H  H18  1  0.83025000  0.01195000  0.49190000  1.0
  H  H19  1  0.40721000  0.98710000  0.37731000  1.0
  H  H20  1  0.02986000  0.01277000  0.62253000  1.0
  H  H21  1  0.44576000  0.82832000  0.21448000  1.0
  H  H22  1  0.23080000  0.17140000  0.78548000  1.0
  H  H23  1  0.25112000  0.76110000  0.08015000  1.0
  H  H24  1  0.17013000  0.23866000  0.91973000  1.0
  H  H25  1  0.41714000  0.64584000  0.13305000  1.0
  H  H26  1  0.28365000  0.35386000  0.86704000  1.0
  H  H27  1  0.22528000  0.47292000  0.15064000  1.0
  H  H28  1  0.07456000  0.52694000  0.84936000  1.0
  H  H29  1  0.05679000  0.58453000  0.12681000  1.0
  H  H30  1  0.92967000  0.41552000  0.87318000  1.0
  H  H31  1  0.14335000  0.50418000  0.27737000  1.0
  H  H32  1  0.86620000  0.49596000  0.72269000  1.0
  H  H33  1  0.99932000  0.70286000  0.33043000  1.0
  H  H34  1  0.66886000  0.29729000  0.66908000  1.0
  H  H35  1  0.07039000  0.86292000  0.45133000  1.0
  H  H36  1  0.61922000  0.13721000  0.54824000  1.0
  H  H37  1  0.18483000  0.70706000  0.48194000  1.0
  H  H38  1  0.70336000  0.29294000  0.51765000  1.0
  C  C39  1  0.72449000  0.39399000  0.21401000  1.0
  C  C40  1  0.51033000  0.60607000  0.78632000  1.0
  C  C41  1  0.78573000  0.29184000  0.14320000  1.0
  C  C42  1  0.64224000  0.70814000  0.85737000  1.0
  C  C43  1  0.62550000  0.10603000  0.15816000  1.0
  C  C44  1  0.46732000  0.89411000  0.84216000  1.0
  C  C45  1  0.55297000  0.19999000  0.22605000  1.0
  C  C46  1  0.32697000  0.80021000  0.77411000  1.0
  C  C47  1  0.60504000  0.34766000  0.25742000  1.0
  C  C48  1  0.34760000  0.65250000  0.74272000  1.0
  C  C49  1  0.57775000  0.58699000  0.37879000  1.0
  C  C50  1  0.19925000  0.41319000  0.62128000  1.0
  C  C51  1  0.44344000  0.66446000  0.40888000  1.0
  C  C52  1  0.03498000  0.33557000  0.59117000  1.0
  C  C53  1  0.50312000  0.81375000  0.49819000  1.0
  C  C54  1  0.00578000  0.18627000  0.50191000  1.0
  C  C55  1  0.36762000  0.91641000  0.43234000  1.0
  C  C56  1  0.93561000  0.08360000  0.56744000  1.0
  C  C57  1  0.21476000  0.81942000  0.32985000  1.0
  C  C58  1  0.88491000  0.18053000  0.66990000  1.0
  C  C59  1  0.29362000  0.68861000  0.27286000  1.0
  C  C60  1  0.02064000  0.31135000  0.72709000  1.0
  C  C61  1  0.35616000  0.73406000  0.16979000  1.0
  C  C62  1  0.18587000  0.26572000  0.83017000  1.0
  C  C63  1  0.17337000  0.55433000  0.20375000  1.0
  C  C64  1  0.96952000  0.44565000  0.79626000  1.0
  C  C65  1  0.11104000  0.76916000  0.40215000  1.0
  C  C66  1  0.70905000  0.23091000  0.59745000  1.0
  C  C67  1  0.10115000  0.89342000  0.21198000  1.0
  C  C68  1  0.88870000  0.10639000  0.78761000  1.0
  N  N69  1  0.74017000  0.15001000  0.11691000  1.0
  N  N70  1  0.62311000  0.85000000  0.88366000  1.0
  N  N71  1  0.53333000  0.44119000  0.32633000  1.0
  N  N72  1  0.20712000  0.55900000  0.67363000  1.0
  O  O73  1  0.71013000  0.64502000  0.39232000  1.0
  O  O74  1  0.31824000  0.35520000  0.60785000  1.0
  O  O75  1  0.96728000  0.81986000  0.12603000  1.0
  O  O76  1  0.84036000  0.17980000  0.87345000  1.0
  O  O77  1  0.13852000  0.01976000  0.19995000  1.0
  O  O78  1  0.93821000  0.98010000  0.79967000  1.0
