# generated using pymatgen
data_Al2H18C25(SO5)2
_symmetry_space_group_name_H-M   'P 1'
_cell_length_a   6.87046000
_cell_length_b   12.57960000
_cell_length_c   15.16320000
_cell_angle_alpha   72.73080000
_cell_angle_beta   79.36110000
_cell_angle_gamma   77.05750000
_symmetry_Int_Tables_number   1
_chemical_formula_structural   Al2H18C25(SO5)2
_chemical_formula_sum   'Al2 H18 C25 S2 O10'
_cell_volume   1209.78449243
_cell_formula_units_Z   1
loop_
 _symmetry_equiv_pos_site_id
 _symmetry_equiv_pos_as_xyz
  1  'x, y, z'
loop_
 _atom_site_type_symbol
 _atom_site_label
 _atom_site_symmetry_multiplicity
 _atom_site_fract_x
 _atom_site_fract_y
 _atom_site_fract_z
 _atom_site_occupancy
  Al  Al0  1  0.49737000  0.49724000  0.50277000  1.0
  Al  Al1  1  0.99716000  0.49808000  0.50245000  1.0
  H  H2  1  0.27153000  0.36180000  0.57874000  1.0
  H  H3  1  0.75958000  0.58067000  0.38780000  1.0
  H  H4  1  0.81468000  0.55425000  0.93647000  1.0
  H  H5  1  0.24057000  0.40714000  0.07372000  1.0
  H  H6  1  0.58729000  0.60434000  0.21734000  1.0
  H  H7  1  0.67718000  0.61611000  0.05003000  1.0
  H  H8  1  0.34761000  0.46155000  0.77139000  1.0
  H  H9  1  0.24010000  0.47144000  0.93382000  1.0
  H  H10  1  0.60595000  0.11984000  0.52601000  1.0
  H  H11  1  0.04030000  0.58970000  0.80911000  1.0
  H  H12  1  0.95441000  0.63335000  0.69774000  1.0
  H  H13  1  0.06918000  0.49292000  0.73955000  1.0
  H  H14  1  0.94891000  0.44418000  0.26704000  1.0
  H  H15  1  0.12934000  0.32869000  0.31608000  1.0
  H  H16  1  0.05321000  0.33813000  0.20740000  1.0
  H  H17  1  0.52072000  0.79543000  0.47006000  1.0
  H  H18  1  0.48792000  0.88480000  0.54468000  1.0
  H  H19  1  0.50544000  0.94512000  0.42246000  1.0
  C  C20  1  0.82516000  0.29776000  0.51380000  1.0
  C  C21  1  0.68260000  0.49542000  0.66348000  1.0
  C  C22  1  0.17078000  0.69543000  0.49359000  1.0
  C  C23  1  0.31041000  0.50706000  0.33848000  1.0
  C  C24  1  0.63583000  0.50398000  0.76140000  1.0
  C  C25  1  0.35575000  0.50637000  0.23860000  1.0
  C  C26  1  0.76891000  0.53343000  0.80752000  1.0
  C  C27  1  0.70860000  0.53492000  0.90059000  1.0
  C  C28  1  0.25259000  0.45152000  0.19757000  1.0
  C  C29  1  0.31346000  0.45432000  0.10379000  1.0
  C  C30  1  0.50999000  0.56268000  0.18426000  1.0
  C  C31  1  0.56192000  0.56780000  0.09043000  1.0
  C  C32  1  0.44809000  0.48173000  0.80911000  1.0
  C  C33  1  0.38987000  0.48632000  0.90054000  1.0
  C  C34  1  0.52150000  0.51147000  0.94928000  1.0
  C  C35  1  0.46528000  0.51198000  0.04812000  1.0
  C  C36  1  0.22570000  0.89463000  0.48944000  1.0
  C  C37  1  0.76966000  0.10040000  0.51679000  1.0
  C  C38  1  0.11104000  0.81381000  0.49740000  1.0
  C  C39  1  0.88696000  0.17937000  0.51022000  1.0
  C  C40  1  0.89153000  0.99557000  0.51004000  1.0
  C  C41  1  0.09900000  0.99780000  0.49698000  1.0
  C  C42  1  0.96905000  0.56398000  0.76166000  1.0
  C  C43  1  0.08775000  0.38706000  0.24979000  1.0
  C  C44  1  0.44731000  0.87837000  0.47981000  1.0
  S  S45  1  0.85469000  0.86320000  0.51369000  1.0
  S  S46  1  0.14473000  0.12740000  0.49532000  1.0
  O  O47  1  0.63862000  0.34159000  0.51511000  1.0
  O  O48  1  0.86422000  0.49225000  0.62488000  1.0
  O  O49  1  0.02534000  0.64806000  0.49191000  1.0
  O  O50  1  0.45904000  0.50958000  0.37732000  1.0
  O  O51  1  0.35596000  0.64958000  0.49218000  1.0
  O  O52  1  0.12859000  0.50720000  0.37690000  1.0
  O  O53  1  0.97041000  0.34566000  0.51523000  1.0
  O  O54  1  0.53577000  0.48978000  0.62514000  1.0
  O  O55  1  0.25167000  0.44212000  0.54777000  1.0
  O  O56  1  0.74472000  0.55022000  0.45491000  1.0
