# generated using pymatgen
data_SmCuH13C17S(NO3)3
_symmetry_space_group_name_H-M   'P 1'
_cell_length_a   6.28699000
_cell_length_b   12.10410000
_cell_length_c   13.20810000
_cell_angle_alpha   97.09750000
_cell_angle_beta   93.49110000
_cell_angle_gamma   94.24060000
_symmetry_Int_Tables_number   1
_chemical_formula_structural   SmCuH13C17S(NO3)3
_chemical_formula_sum   'Sm2 Cu2 H26 C34 S2 N6 O18'
_cell_volume   992.18862528
_cell_formula_units_Z   2
loop_
 _symmetry_equiv_pos_site_id
 _symmetry_equiv_pos_as_xyz
  1  'x, y, z'
loop_
 _atom_site_type_symbol
 _atom_site_label
 _atom_site_symmetry_multiplicity
 _atom_site_fract_x
 _atom_site_fract_y
 _atom_site_fract_z
 _atom_site_occupancy
  Sm  Sm0  1  0.67169000  0.62167000  0.42726000  1.0
  Sm  Sm1  1  0.32831000  0.37833000  0.57275000  1.0
  Cu  Cu2  1  0.74180000  0.77068000  0.05026000  1.0
  Cu  Cu3  1  0.25820000  0.22932000  0.94974000  1.0
  H  H4  1  0.49051000  0.39077000  0.33367000  1.0
  H  H5  1  0.50948000  0.60923000  0.66634000  1.0
  H  H6  1  0.72488000  0.42094000  0.30374000  1.0
  H  H7  1  0.27512000  0.57905000  0.69626000  1.0
  H  H8  1  0.78447000  0.05992000  0.34856000  1.0
  H  H9  1  0.21553000  0.94008000  0.65144000  1.0
  H  H10  1  0.78993000  0.15308000  0.53008000  1.0
  H  H11  1  0.21007000  0.84692000  0.46991000  1.0
  H  H12  1  0.72870000  0.03268000  0.66981000  1.0
  H  H13  1  0.27130000  0.96732000  0.33019000  1.0
  H  H14  1  0.44406000  0.69101000  0.18880000  1.0
  H  H15  1  0.55594000  0.30899000  0.81119000  1.0
  H  H16  1  0.10860000  0.57331000  0.17399000  1.0
  H  H17  1  0.89141000  0.42669000  0.82602000  1.0
  H  H18  1  0.16672000  0.52130000  0.84592000  1.0
  H  H19  1  0.83327000  0.47869000  0.15408000  1.0
  H  H20  1  0.49745000  0.64499000  0.87425000  1.0
  H  H21  1  0.50254000  0.35500000  0.12574000  1.0
  H  H22  1  0.07006000  0.88863000  0.18413000  1.0
  H  H23  1  0.92995000  0.11137000  0.81586000  1.0
  H  H24  1  0.40855000  0.99996000  0.17157000  1.0
  H  H25  1  0.59145000  0.00005000  0.82842000  1.0
  H  H26  1  0.32005000  0.91209000  0.84302000  1.0
  H  H27  1  0.67994000  0.08791000  0.15698000  1.0
  H  H28  1  0.97865000  0.80864000  0.86958000  1.0
  H  H29  1  0.02134000  0.19137000  0.13041000  1.0
  C  C30  1  0.73468000  0.82816000  0.28847000  1.0
  C  C31  1  0.26532000  0.17184000  0.71153000  1.0
  C  C32  1  0.73613000  0.89510000  0.39299000  1.0
  C  C33  1  0.26387000  0.10490000  0.60702000  1.0
  C  C34  1  0.76417000  0.01149000  0.41198000  1.0
  C  C35  1  0.23582000  0.98851000  0.58802000  1.0
  C  C36  1  0.76526000  0.06260000  0.51272000  1.0
  C  C37  1  0.23475000  0.93740000  0.48728000  1.0
  C  C38  1  0.73304000  0.99631000  0.59049000  1.0
  C  C39  1  0.26696000  0.00369000  0.40951000  1.0
  C  C40  1  0.70153000  0.88052000  0.56525000  1.0
  C  C41  1  0.29846000  0.11948000  0.43475000  1.0
  C  C42  1  0.65016000  0.80024000  0.64142000  1.0
  C  C43  1  0.34983000  0.19976000  0.35859000  1.0
  C  C44  1  0.37513000  0.65359000  0.11396000  1.0
  C  C45  1  0.62487000  0.34642000  0.88604000  1.0
  C  C46  1  0.18570000  0.58584000  0.10421000  1.0
  C  C47  1  0.81431000  0.41416000  0.89579000  1.0
  C  C48  1  0.10088000  0.53624000  0.00701000  1.0
  C  C49  1  0.89913000  0.46376000  0.99299000  1.0
  C  C50  1  0.21834000  0.55842000  0.92355000  1.0
  C  C51  1  0.78167000  0.44158000  0.07645000  1.0
  C  C52  1  0.40644000  0.62749000  0.93882000  1.0
  C  C53  1  0.59356000  0.37251000  0.06117000  1.0
  C  C54  1  0.13343000  0.89546000  0.11027000  1.0
  C  C55  1  0.86658000  0.10454000  0.88973000  1.0
  C  C56  1  0.32391000  0.95716000  0.10206000  1.0
  C  C57  1  0.67609000  0.04284000  0.89793000  1.0
  C  C58  1  0.39932000  0.96644000  0.00543000  1.0
  C  C59  1  0.60068000  0.03357000  0.99456000  1.0
  C  C60  1  0.27275000  0.90983000  0.92057000  1.0
  C  C61  1  0.72725000  0.09017000  0.07942000  1.0
  C  C62  1  0.08166000  0.85047000  0.93455000  1.0
  C  C63  1  0.91834000  0.14953000  0.06545000  1.0
  S  S64  1  0.16276000  0.60634000  0.41859000  1.0
  S  S65  1  0.83725000  0.39366000  0.58141000  1.0
  N  N66  1  0.70665000  0.83246000  0.46861000  1.0
  N  N67  1  0.29335000  0.16753000  0.53139000  1.0
  N  N68  1  0.48611000  0.67551000  0.03300000  1.0
  N  N69  1  0.51389000  0.32449000  0.96699000  1.0
  N  N70  1  0.00993000  0.84286000  0.02839000  1.0
  N  N71  1  0.99007000  0.15715000  0.97160000  1.0
  O  O72  1  0.04620000  0.67497000  0.49505000  1.0
  O  O73  1  0.95381000  0.32503000  0.50495000  1.0
  O  O74  1  0.99722000  0.53927000  0.34679000  1.0
  O  O75  1  0.00279000  0.46074000  0.65321000  1.0
  O  O76  1  0.74524000  0.72256000  0.28759000  1.0
  O  O77  1  0.25474000  0.27743000  0.71241000  1.0
  O  O78  1  0.72171000  0.87837000  0.21068000  1.0
  O  O79  1  0.27830000  0.12162000  0.78932000  1.0
  O  O80  1  0.62554000  0.69600000  0.60138000  1.0
  O  O81  1  0.37445000  0.30400000  0.39863000  1.0
  O  O82  1  0.63017000  0.83572000  0.73243000  1.0
  O  O83  1  0.36982000  0.16428000  0.26757000  1.0
  O  O84  1  0.31411000  0.67673000  0.36614000  1.0
  O  O85  1  0.68590000  0.32327000  0.63386000  1.0
  O  O86  1  0.30397000  0.53226000  0.47097000  1.0
  O  O87  1  0.69603000  0.46774000  0.52903000  1.0
  O  O88  1  0.58379000  0.44964000  0.30445000  1.0
  O  O89  1  0.41620000  0.55036000  0.69556000  1.0
