# generated using pymatgen
data_Co3H46C66(N10O7)2
_symmetry_space_group_name_H-M   'P 1'
_cell_length_a   10.00760000
_cell_length_b   17.78080000
_cell_length_c   17.94660000
_cell_angle_alpha   67.13950000
_cell_angle_beta   75.13650000
_cell_angle_gamma   81.38920000
_symmetry_Int_Tables_number   1
_chemical_formula_structural   Co3H46C66(N10O7)2
_chemical_formula_sum   'Co3 H46 C66 N20 O14'
_cell_volume   2839.67849886
_cell_formula_units_Z   1
loop_
 _symmetry_equiv_pos_site_id
 _symmetry_equiv_pos_as_xyz
  1  'x, y, z'
loop_
 _atom_site_type_symbol
 _atom_site_label
 _atom_site_symmetry_multiplicity
 _atom_site_fract_x
 _atom_site_fract_y
 _atom_site_fract_z
 _atom_site_occupancy
  Co  Co0  1  0.70158000  0.43297000  0.48495000  1.0
  Co  Co1  1  0.29843000  0.56705000  0.51504000  1.0
  Co  Co2  1  0.50001000  0.00000000  0.50000000  1.0
  H  H3  1  0.06616000  0.23095000  0.45704000  1.0
  H  H4  1  0.46526000  0.24864000  0.49574000  1.0
  H  H5  1  0.13364000  0.42520000  0.52837000  1.0
  H  H6  1  0.76942000  0.55814000  0.28091000  1.0
  H  H7  1  0.67871000  0.31118000  0.39486000  1.0
  H  H8  1  0.80943000  0.39881000  0.12294000  1.0
  H  H9  1  0.85198000  0.46913000  0.96963000  1.0
  H  H10  1  0.74718000  0.70147000  0.99907000  1.0
  H  H11  1  0.70364000  0.63132000  0.15132000  1.0
  H  H12  1  0.82509000  0.73731000  0.73372000  1.0
  H  H13  1  0.97572000  0.85135000  0.65375000  1.0
  H  H14  1  0.15858000  0.79831000  0.86297000  1.0
  H  H15  1  0.00715000  0.68214000  0.94443000  1.0
  H  H16  1  0.25293000  0.86338000  0.59343000  1.0
  H  H17  1  0.35980000  0.03424000  0.67363000  1.0
  H  H18  1  0.99958000  0.59507000  0.75929000  1.0
  H  H19  1  0.94150000  0.52168000  0.68102000  1.0
  H  H20  1  0.52719000  0.49540000  0.83365000  1.0
  H  H21  1  0.58697000  0.57028000  0.91160000  1.0
  H  H22  1  0.86300000  0.48442000  0.59904000  1.0
  H  H23  1  0.48104000  0.37877000  0.66640000  1.0
  H  H24  1  0.31720000  0.04982000  0.41632000  1.0
  H  H25  1  0.31248000  0.95224000  0.44238000  1.0
  H  H26  1  0.93385000  0.76904000  0.54296000  1.0
  H  H27  1  0.53475000  0.75134000  0.50428000  1.0
  H  H28  1  0.86637000  0.57479000  0.47163000  1.0
  H  H29  1  0.23058000  0.44187000  0.71909000  1.0
  H  H30  1  0.32127000  0.68881000  0.60515000  1.0
  H  H31  1  0.19058000  0.60119000  0.87706000  1.0
  H  H32  1  0.14802000  0.53088000  0.03037000  1.0
  H  H33  1  0.25282000  0.29853000  0.00093000  1.0
  H  H34  1  0.29636000  0.36868000  0.84868000  1.0
  H  H35  1  0.17492000  0.26269000  0.26627000  1.0
  H  H36  1  0.02428000  0.14864000  0.34625000  1.0
  H  H37  1  0.84142000  0.20169000  0.13702000  1.0
  H  H38  1  0.99285000  0.31786000  0.05557000  1.0
  H  H39  1  0.74708000  0.13662000  0.40657000  1.0
  H  H40  1  0.64020000  0.96577000  0.32637000  1.0
  H  H41  1  0.00042000  0.40493000  0.24071000  1.0
  H  H42  1  0.05850000  0.47832000  0.31898000  1.0
  H  H43  1  0.47281000  0.50460000  0.16636000  1.0
  H  H44  1  0.41303000  0.42972000  0.08840000  1.0
  H  H45  1  0.13702000  0.51558000  0.40095000  1.0
  H  H46  1  0.51893000  0.62123000  0.33360000  1.0
  H  H47  1  0.68280000  0.95018000  0.58369000  1.0
  H  H48  1  0.68753000  0.04776000  0.55762000  1.0
  C  C49  1  0.94222000  0.36780000  0.48664000  1.0
  C  C50  1  0.08524000  0.33209000  0.49155000  1.0
  C  C51  1  0.13402000  0.26212000  0.47303000  1.0
  C  C52  1  0.27101000  0.23176000  0.47479000  1.0
  C  C53  1  0.35869000  0.27215000  0.49456000  1.0
  C  C54  1  0.31027000  0.34234000  0.51310000  1.0
  C  C55  1  0.17260000  0.37137000  0.51273000  1.0
  C  C56  1  0.32218000  0.15551000  0.45657000  1.0
  C  C57  1  0.40566000  0.38928000  0.52833000  1.0
  C  C58  1  0.74626000  0.49664000  0.29200000  1.0
  C  C59  1  0.70171000  0.37091000  0.34761000  1.0
  C  C60  1  0.75880000  0.51072000  0.14591000  1.0
  C  C61  1  0.79644000  0.46500000  0.09483000  1.0
  C  C62  1  0.81969000  0.50458000  0.00954000  1.0
  C  C63  1  0.80470000  0.59024000  0.97367000  1.0
  C  C64  1  0.76322000  0.63526000  0.02590000  1.0
  C  C65  1  0.74052000  0.59593000  0.11155000  1.0
  C  C66  1  0.90877000  0.69891000  0.84415000  1.0
  C  C67  1  0.89939000  0.74888000  0.76243000  1.0
  C  C68  1  0.98554000  0.81327000  0.71680000  1.0
  C  C69  1  0.08078000  0.82949000  0.75285000  1.0
  C  C70  1  0.08538000  0.78387000  0.83550000  1.0
  C  C71  1  0.00017000  0.71898000  0.88077000  1.0
  C  C72  1  0.25557000  0.90142000  0.62771000  1.0
  C  C73  1  0.30835000  0.98581000  0.67160000  1.0
  C  C74  1  0.79737000  0.58726000  0.84075000  1.0
  C  C75  1  0.89638000  0.57281000  0.77588000  1.0
  C  C76  1  0.86343000  0.53142000  0.73189000  1.0
  C  C77  1  0.73013000  0.50341000  0.75339000  1.0
  C  C78  1  0.63071000  0.51663000  0.81852000  1.0
  C  C79  1  0.66453000  0.55870000  0.86159000  1.0
  C  C80  1  0.76151000  0.46114000  0.63217000  1.0
  C  C81  1  0.56706000  0.40767000  0.66859000  1.0
  C  C82  1  0.05779000  0.63221000  0.51335000  1.0
  C  C83  1  0.91475000  0.66792000  0.50845000  1.0
  C  C84  1  0.86596000  0.73789000  0.52697000  1.0
  C  C85  1  0.72898000  0.76825000  0.52522000  1.0
  C  C86  1  0.64131000  0.72785000  0.50545000  1.0
  C  C87  1  0.68973000  0.65766000  0.48690000  1.0
  C  C88  1  0.82741000  0.62863000  0.48726000  1.0
  C  C89  1  0.67781000  0.84449000  0.54344000  1.0
  C  C90  1  0.59431000  0.61073000  0.47169000  1.0
  C  C91  1  0.25374000  0.50336000  0.70799000  1.0
  C  C92  1  0.29827000  0.62908000  0.65239000  1.0
  C  C93  1  0.24120000  0.48928000  0.85408000  1.0
  C  C94  1  0.20357000  0.53500000  0.90517000  1.0
  C  C95  1  0.18032000  0.49542000  0.99046000  1.0
  C  C96  1  0.19530000  0.40976000  0.02633000  1.0
  C  C97  1  0.23678000  0.36473000  0.97410000  1.0
  C  C98  1  0.25948000  0.40407000  0.88845000  1.0
  C  C99  1  0.09123000  0.30109000  0.15585000  1.0
  C  C100  1  0.10061000  0.25112000  0.23757000  1.0
  C  C101  1  0.01446000  0.18673000  0.28320000  1.0
  C  C102  1  0.91922000  0.17051000  0.24715000  1.0
  C  C103  1  0.91462000  0.21613000  0.16450000  1.0
  C  C104  1  0.99982000  0.28102000  0.11923000  1.0
  C  C105  1  0.74444000  0.09857000  0.37229000  1.0
  C  C106  1  0.69165000  0.01420000  0.32840000  1.0
  C  C107  1  0.20263000  0.41275000  0.15925000  1.0
  C  C108  1  0.10362000  0.42719000  0.22412000  1.0
  C  C109  1  0.13657000  0.46858000  0.26811000  1.0
  C  C110  1  0.26987000  0.49659000  0.24662000  1.0
  C  C111  1  0.36929000  0.48337000  0.18148000  1.0
  C  C112  1  0.33547000  0.44130000  0.13841000  1.0
  C  C113  1  0.23849000  0.53887000  0.36783000  1.0
  C  C114  1  0.43293000  0.59234000  0.33142000  1.0
  N  N115  1  0.72210000  0.43590000  0.36542000  1.0
  N  N116  1  0.73946000  0.46900000  0.23261000  1.0
  N  N117  1  0.71146000  0.38799000  0.26773000  1.0
  N  N118  1  0.83063000  0.62902000  0.88653000  1.0
  N  N119  1  0.17748000  0.89034000  0.70444000  1.0
  N  N120  1  0.21113000  0.94373000  0.73376000  1.0
  N  N121  1  0.33908000  0.96181000  0.60504000  1.0
  N  N122  1  0.68263000  0.42659000  0.60603000  1.0
  N  N123  1  0.69336000  0.46408000  0.70695000  1.0
  N  N124  1  0.56836000  0.42957000  0.73098000  1.0
  N  N125  1  0.27789000  0.56410000  0.63459000  1.0
  N  N126  1  0.26054000  0.53100000  0.76739000  1.0
  N  N127  1  0.28853000  0.61200000  0.73227000  1.0
  N  N128  1  0.16936000  0.37098000  0.11346000  1.0
  N  N129  1  0.82252000  0.10966000  0.29555000  1.0
  N  N130  1  0.78887000  0.05627000  0.26624000  1.0
  N  N131  1  0.66093000  0.03819000  0.39496000  1.0
  N  N132  1  0.31737000  0.57341000  0.39397000  1.0
  N  N133  1  0.30663000  0.53592000  0.29305000  1.0
  N  N134  1  0.43163000  0.57043000  0.26903000  1.0
  O  O135  1  0.84174000  0.32284000  0.50654000  1.0
  O  O136  1  0.92264000  0.44619000  0.46175000  1.0
  O  O137  1  0.25020000  0.13044000  0.42275000  1.0
  O  O138  1  0.43565000  0.12059000  0.47764000  1.0
  O  O139  1  0.35460000  0.44847000  0.55280000  1.0
  O  O140  1  0.53390000  0.36751000  0.51620000  1.0
  O  O141  1  0.37631000  0.99583000  0.41953000  1.0
  O  O142  1  0.15828000  0.67717000  0.49345000  1.0
  O  O143  1  0.07739000  0.55382000  0.53823000  1.0
  O  O144  1  0.74981000  0.86955000  0.57725000  1.0
  O  O145  1  0.56435000  0.87941000  0.52235000  1.0
  O  O146  1  0.64537000  0.55154000  0.44722000  1.0
  O  O147  1  0.46605000  0.63248000  0.48382000  1.0
  O  O148  1  0.62370000  0.00417000  0.58048000  1.0
