# generated using pymatgen
data_CdH14C11N2ClO3
_symmetry_space_group_name_H-M   'P 1'
_cell_length_a   7.29460000
_cell_length_b   9.48910000
_cell_length_c   10.25860000
_cell_angle_alpha   83.13250000
_cell_angle_beta   81.28900000
_cell_angle_gamma   89.13190000
_symmetry_Int_Tables_number   1
_chemical_formula_structural   CdH14C11N2ClO3
_chemical_formula_sum   'Cd2 H28 C22 N4 Cl2 O6'
_cell_volume   696.86186158
_cell_formula_units_Z   2
loop_
 _symmetry_equiv_pos_site_id
 _symmetry_equiv_pos_as_xyz
  1  'x, y, z'
loop_
 _atom_site_type_symbol
 _atom_site_label
 _atom_site_symmetry_multiplicity
 _atom_site_fract_x
 _atom_site_fract_y
 _atom_site_fract_z
 _atom_site_occupancy
  Cd  Cd0  1  0.34630000  0.03618000  0.87351000  1.0
  Cd  Cd1  1  0.65371000  0.96382000  0.12648000  1.0
  H  H2  1  0.74024000  0.24513000  0.41314000  1.0
  H  H3  1  0.25976000  0.75488000  0.58686000  1.0
  H  H4  1  0.99635000  0.17996000  0.92265000  1.0
  H  H5  1  0.00365000  0.82003000  0.07735000  1.0
  H  H6  1  0.41162000  0.38009000  0.89257000  1.0
  H  H7  1  0.58838000  0.61990000  0.10743000  1.0
  H  H8  1  0.53389000  0.63052000  0.84240000  1.0
  H  H9  1  0.46611000  0.36948000  0.15760000  1.0
  H  H10  1  0.73267000  0.70943000  0.63218000  1.0
  H  H11  1  0.26733000  0.29057000  0.36782000  1.0
  H  H12  1  0.81562000  0.54616000  0.45767000  1.0
  H  H13  1  0.18437000  0.45385000  0.54233000  1.0
  H  H14  1  0.55357000  0.92214000  0.62936000  1.0
  H  H15  1  0.44643000  0.07787000  0.37064000  1.0
  H  H16  1  0.71097000  0.97905000  0.48211000  1.0
  H  H17  1  0.28903000  0.02095000  0.51789000  1.0
  H  H18  1  0.04443000  0.60584000  0.76061000  1.0
  H  H19  1  0.95557000  0.39416000  0.23938000  1.0
  H  H20  1  0.90314000  0.65997000  0.90366000  1.0
  H  H21  1  0.09687000  0.34002000  0.09634000  1.0
  H  H22  1  0.11264000  0.56646000  0.92123000  1.0
  H  H23  1  0.88736000  0.43354000  0.07877000  1.0
  H  H24  1  0.91041000  0.27571000  0.71980000  1.0
  H  H25  1  0.08958000  0.72429000  0.28020000  1.0
  H  H26  1  0.94342000  0.08756000  0.72289000  1.0
  H  H27  1  0.05658000  0.91244000  0.27711000  1.0
  H  H28  1  0.12234000  0.20807000  0.63936000  1.0
  H  H29  1  0.87766000  0.79192000  0.36064000  1.0
  C  C30  1  0.54573000  0.32483000  0.70218000  1.0
  C  C31  1  0.45426000  0.67517000  0.29782000  1.0
  C  C32  1  0.49778000  0.41692000  0.79862000  1.0
  C  C33  1  0.50222000  0.58308000  0.20138000  1.0
  C  C34  1  0.56658000  0.55507000  0.77007000  1.0
  C  C35  1  0.43342000  0.44493000  0.22994000  1.0
  C  C36  1  0.68045000  0.60069000  0.64896000  1.0
  C  C37  1  0.31955000  0.39931000  0.35104000  1.0
  C  C38  1  0.72824000  0.51061000  0.55139000  1.0
  C  C39  1  0.27176000  0.48939000  0.44861000  1.0
  C  C40  1  0.65871000  0.37221000  0.57989000  1.0
  C  C41  1  0.34128000  0.62780000  0.42011000  1.0
  C  C42  1  0.58930000  0.14415000  0.58792000  1.0
  C  C43  1  0.41069000  0.85585000  0.41208000  1.0
  C  C44  1  0.57883000  0.00242000  0.54237000  1.0
  C  C45  1  0.42117000  0.99758000  0.45763000  1.0
  C  C46  1  0.14865000  0.78436000  0.84128000  1.0
  C  C47  1  0.85135000  0.21564000  0.15872000  1.0
  C  C48  1  0.04639000  0.64531000  0.85634000  1.0
  C  C49  1  0.95362000  0.35469000  0.14365000  1.0
  C  C50  1  0.01220000  0.18954000  0.72527000  1.0
  C  C51  1  0.98780000  0.81046000  0.27473000  1.0
  N  N52  1  0.50483000  0.18178000  0.70330000  1.0
  N  N53  1  0.49517000  0.81822000  0.29670000  1.0
  N  N54  1  0.68240000  0.25485000  0.51112000  1.0
  N  N55  1  0.31760000  0.74516000  0.48888000  1.0
  Cl  Cl56  1  0.35121000  0.11888000  0.10248000  1.0
  Cl  Cl57  1  0.64879000  0.88112000  0.89751000  1.0
  O  O58  1  0.15621000  0.84364000  0.94709000  1.0
  O  O59  1  0.84380000  0.15636000  0.05291000  1.0
  O  O60  1  0.22697000  0.84059000  0.72903000  1.0
  O  O61  1  0.77303000  0.15942000  0.27096000  1.0
  O  O62  1  0.09660000  0.18968000  0.84262000  1.0
  O  O63  1  0.90340000  0.81032000  0.15738000  1.0
