# generated using pymatgen
data_FeH4C8O5
_symmetry_space_group_name_H-M   'P 1'
_cell_length_a   6.56215000
_cell_length_b   11.10580000
_cell_length_c   11.10580000
_cell_angle_alpha   93.22780000
_cell_angle_beta   104.31400000
_cell_angle_gamma   104.31400000
_symmetry_Int_Tables_number   1
_chemical_formula_structural   FeH4C8O5
_chemical_formula_sum   'Fe2 H8 C16 O10'
_cell_volume   753.92722519
_cell_formula_units_Z   2
loop_
 _symmetry_equiv_pos_site_id
 _symmetry_equiv_pos_as_xyz
  1  'x, y, z'
loop_
 _atom_site_type_symbol
 _atom_site_label
 _atom_site_symmetry_multiplicity
 _atom_site_fract_x
 _atom_site_fract_y
 _atom_site_fract_z
 _atom_site_occupancy
  Fe  Fe0  1  0.49238000  0.99835000  0.99834000  1.0
  Fe  Fe1  1  0.99403000  0.00068000  0.00068000  1.0
  H  H2  1  0.87899000  0.60499000  0.99419000  1.0
  H  H3  1  0.12313000  0.00728000  0.39457000  1.0
  H  H4  1  0.12314000  0.39458000  0.00729000  1.0
  H  H5  1  0.87898000  0.99420000  0.60499000  1.0
  H  H6  1  0.76158000  0.37148000  0.99562000  1.0
  H  H7  1  0.24039000  0.00558000  0.62797000  1.0
  H  H8  1  0.24041000  0.62798000  0.00561000  1.0
  H  H9  1  0.76160000  0.99563000  0.37148000  1.0
  C  C10  1  0.56638000  0.62905000  0.99988000  1.0
  C  C11  1  0.43552000  0.00112000  0.37044000  1.0
  C  C12  1  0.43552000  0.37044000  0.00112000  1.0
  C  C13  1  0.56637000  0.99988000  0.62905000  1.0
  C  C14  1  0.71430000  0.55758000  0.99718000  1.0
  C  C15  1  0.28775000  0.00414000  0.44198000  1.0
  C  C16  1  0.28775000  0.44198000  0.00415000  1.0
  C  C17  1  0.71430000  0.99718000  0.55758000  1.0
  C  C18  1  0.64918000  0.42861000  0.99774000  1.0
  C  C19  1  0.35280000  0.00347000  0.57085000  1.0
  C  C20  1  0.35280000  0.57086000  0.00348000  1.0
  C  C21  1  0.64919000  0.99775000  0.42861000  1.0
  C  C22  1  0.63784000  0.76772000  0.99825000  1.0
  C  C23  1  0.36187000  0.00193000  0.23174000  1.0
  C  C24  1  0.36187000  0.23175000  0.00193000  1.0
  C  C25  1  0.63783000  0.99826000  0.76772000  1.0
  O  O26  1  0.48944000  0.82428000  0.99693000  1.0
  O  O27  1  0.50826000  0.00183000  0.17359000  1.0
  O  O28  1  0.50826000  0.17360000  0.00185000  1.0
  O  O29  1  0.48944000  0.99695000  0.82427000  1.0
  O  O30  1  0.83460000  0.81495000  0.99731000  1.0
  O  O31  1  0.16560000  0.00339000  0.18571000  1.0
  O  O32  1  0.16559000  0.18571000  0.00338000  1.0
  O  O33  1  0.83458000  0.99729000  0.81495000  1.0
  O  O34  1  0.20653000  0.94997000  0.94997000  1.0
  O  O35  1  0.79184000  0.04959000  0.04958000  1.0
