# generated using pymatgen
data_Zn2H7C13N2Cl7O9
_symmetry_space_group_name_H-M   'P 1'
_cell_length_a   7.49883000
_cell_length_b   8.00619000
_cell_length_c   11.26510000
_cell_angle_alpha   76.28000000
_cell_angle_beta   87.03220000
_cell_angle_gamma   71.50170000
_symmetry_Int_Tables_number   1
_chemical_formula_structural   Zn2H7C13N2Cl7O9
_chemical_formula_sum   'Zn2 H7 C13 N2 Cl7 O9'
_cell_volume   622.87668903
_cell_formula_units_Z   1
loop_
 _symmetry_equiv_pos_site_id
 _symmetry_equiv_pos_as_xyz
  1  'x, y, z'
loop_
 _atom_site_type_symbol
 _atom_site_label
 _atom_site_symmetry_multiplicity
 _atom_site_fract_x
 _atom_site_fract_y
 _atom_site_fract_z
 _atom_site_occupancy
  Zn  Zn0  1  0.52631000  0.28977000  0.57006000  1.0
  Zn  Zn1  1  0.47749000  0.67749000  0.49802000  1.0
  H  H2  1  0.86245000  0.81795000  0.21765000  1.0
  H  H3  1  0.05295000  0.88586000  0.25828000  1.0
  H  H4  1  0.21184000  0.82389000  0.06538000  1.0
  H  H5  1  0.02135000  0.76160000  0.02469000  1.0
  H  H6  1  0.80403000  0.07786000  0.01072000  1.0
  H  H7  1  0.00136000  0.08399000  0.91842000  1.0
  H  H8  1  0.98798000  0.14070000  0.06196000  1.0
  C  C9  1  0.15965000  0.58094000  0.47558000  1.0
  C  C10  1  0.06524000  0.54705000  0.37174000  1.0
  C  C11  1  0.01327000  0.80234000  0.20611000  1.0
  C  C12  1  0.05928000  0.85059000  0.07257000  1.0
  C  C13  1  0.95726000  0.04888000  0.01305000  1.0
  C  C14  1  0.96968000  0.42509000  0.39128000  1.0
  C  C15  1  0.48042000  0.47316000  0.75888000  1.0
  C  C16  1  0.84724000  0.39691000  0.49940000  1.0
  C  C17  1  0.51247000  0.48140000  0.30719000  1.0
  C  C18  1  0.55600000  0.56481000  0.07542000  1.0
  C  C19  1  0.52928000  0.45019000  0.18009000  1.0
  C  C20  1  0.57674000  0.52620000  0.95342000  1.0
  C  C21  1  0.45277000  0.48754000  0.89021000  1.0
  N  N22  1  0.53789000  0.92305000  0.50861000  1.0
  N  N23  1  0.45131000  0.04488000  0.56220000  1.0
  Cl  Cl24  1  0.57641000  0.77417000  0.07427000  1.0
  Cl  Cl25  1  0.52492000  0.23892000  0.17350000  1.0
  Cl  Cl26  1  0.78183000  0.54524000  0.88020000  1.0
  Cl  Cl27  1  0.24293000  0.46452000  0.94455000  1.0
  Cl  Cl28  1  0.95560000  0.31839000  0.27792000  1.0
  Cl  Cl29  1  0.75644000  0.92980000  0.46792000  1.0
  Cl  Cl30  1  0.22979000  0.04395000  0.59881000  1.0
  O  O31  1  0.21765000  0.45067000  0.56790000  1.0
  O  O32  1  0.20148000  0.72923000  0.45389000  1.0
  O  O33  1  0.52767000  0.31491000  0.73923000  1.0
  O  O34  1  0.44560000  0.62343000  0.68214000  1.0
  O  O35  1  0.81405000  0.24603000  0.53364000  1.0
  O  O36  1  0.76402000  0.53622000  0.54062000  1.0
  O  O37  1  0.48213000  0.35360000  0.38926000  1.0
  O  O38  1  0.53336000  0.62410000  0.32662000  1.0
  O  O39  1  0.11937000  0.61168000  0.25703000  1.0
