# generated using pymatgen
data_H12PbC12(SO)4
_symmetry_space_group_name_H-M   'P 1'
_cell_length_a   12.24660000
_cell_length_b   16.95990000
_cell_length_c   16.95970000
_cell_angle_alpha   110.29100000
_cell_angle_beta   99.22580000
_cell_angle_gamma   99.22730000
_symmetry_Int_Tables_number   1
_chemical_formula_structural   H12PbC12(SO)4
_chemical_formula_sum   'H72 Pb6 C72 S24 O24'
_cell_volume   3171.25272395
_cell_formula_units_Z   6
loop_
 _symmetry_equiv_pos_site_id
 _symmetry_equiv_pos_as_xyz
  1  'x, y, z'
loop_
 _atom_site_type_symbol
 _atom_site_label
 _atom_site_symmetry_multiplicity
 _atom_site_fract_x
 _atom_site_fract_y
 _atom_site_fract_z
 _atom_site_occupancy
  H  H0  1  0.11713000  0.79124000  0.50094000  1.0
  H  H1  1  0.88288000  0.49906000  0.20875000  1.0
  H  H2  1  0.88287000  0.20876000  0.49906000  1.0
  H  H3  1  0.11712000  0.50093000  0.79124000  1.0
  H  H4  1  0.02053000  0.68885000  0.44188000  1.0
  H  H5  1  0.97947000  0.55812000  0.31114000  1.0
  H  H6  1  0.97947000  0.31115000  0.55811000  1.0
  H  H7  1  0.02053000  0.44188000  0.68885000  1.0
  H  H8  1  0.98709000  0.76422000  0.53380000  1.0
  H  H9  1  0.01292000  0.46621000  0.23578000  1.0
  H  H10  1  0.01291000  0.23578000  0.46620000  1.0
  H  H11  1  0.98708000  0.53379000  0.76421000  1.0
  H  H12  1  0.29835000  0.14853000  0.54559000  1.0
  H  H13  1  0.70168000  0.45441000  0.85147000  1.0
  H  H14  1  0.70167000  0.85146000  0.45441000  1.0
  H  H15  1  0.29833000  0.54558000  0.14853000  1.0
  H  H16  1  0.34221000  0.16256000  0.45457000  1.0
  H  H17  1  0.65781000  0.54543000  0.83743000  1.0
  H  H18  1  0.65781000  0.83743000  0.54544000  1.0
  H  H19  1  0.34219000  0.45456000  0.16256000  1.0
  H  H20  1  0.30040000  0.05558000  0.45282000  1.0
  H  H21  1  0.69962000  0.54718000  0.94442000  1.0
  H  H22  1  0.69960000  0.94441000  0.54718000  1.0
  H  H23  1  0.30039000  0.45281000  0.05558000  1.0
  H  H24  1  0.99235000  0.84988000  0.03334000  1.0
  H  H25  1  0.00765000  0.96664000  0.15010000  1.0
  H  H26  1  0.00764000  0.15011000  0.96666000  1.0
  H  H27  1  0.99233000  0.03337000  0.84989000  1.0
  H  H28  1  0.89875000  0.75730000  0.94960000  1.0
  H  H29  1  0.10126000  0.05038000  0.24269000  1.0
  H  H30  1  0.10124000  0.24270000  0.05040000  1.0
  H  H31  1  0.89874000  0.94962000  0.75730000  1.0
  H  H32  1  0.91405000  0.86027000  0.93953000  1.0
  H  H33  1  0.08597000  0.06044000  0.13971000  1.0
  H  H34  1  0.08594000  0.13973000  0.06048000  1.0
  H  H35  1  0.91402000  0.93955000  0.86028000  1.0
  H  H36  1  0.32113000  0.13081000  0.22682000  1.0
  H  H37  1  0.67889000  0.77316000  0.86918000  1.0
  H  H38  1  0.67888000  0.86919000  0.77317000  1.0
  H  H39  1  0.32111000  0.22685000  0.13083000  1.0
  H  H40  1  0.42271000  0.10338000  0.29552000  1.0
  H  H41  1  0.57731000  0.70448000  0.89661000  1.0
  H  H42  1  0.57730000  0.89661000  0.70448000  1.0
  H  H43  1  0.42269000  0.29552000  0.10339000  1.0
  H  H44  1  0.28990000  0.02734000  0.23645000  1.0
  H  H45  1  0.71012000  0.76354000  0.97266000  1.0
  H  H46  1  0.71011000  0.97266000  0.76355000  1.0
  H  H47  1  0.28988000  0.23646000  0.02735000  1.0
  H  H48  1  0.46567000  0.74809000  0.48365000  1.0
  H  H49  1  0.53432000  0.51636000  0.25192000  1.0
  H  H50  1  0.53433000  0.25192000  0.51635000  1.0
  H  H51  1  0.46565000  0.48367000  0.74808000  1.0
  H  H52  1  0.49745000  0.75293000  0.38473000  1.0
  H  H53  1  0.50256000  0.61528000  0.24707000  1.0
  H  H54  1  0.50256000  0.24707000  0.61527000  1.0
  H  H55  1  0.49744000  0.38475000  0.75292000  1.0
  H  H56  1  0.37763000  0.67477000  0.38101000  1.0
  H  H57  1  0.62237000  0.61901000  0.32523000  1.0
  H  H58  1  0.62237000  0.32523000  0.61899000  1.0
  H  H59  1  0.37762000  0.38103000  0.67477000  1.0
  H  H60  1  0.80348000  0.06647000  0.45717000  1.0
  H  H61  1  0.19653000  0.54283000  0.93352000  1.0
  H  H62  1  0.19653000  0.93353000  0.54283000  1.0
  H  H63  1  0.80347000  0.45717000  0.06646000  1.0
  H  H64  1  0.80410000  0.05689000  0.34781000  1.0
  H  H65  1  0.19591000  0.65218000  0.94310000  1.0
  H  H66  1  0.19592000  0.94311000  0.65219000  1.0
  H  H67  1  0.80409000  0.34781000  0.05688000  1.0
  H  H68  1  0.73818000  0.96565000  0.36719000  1.0
  H  H69  1  0.26182000  0.63281000  0.03434000  1.0
  H  H70  1  0.26184000  0.03434000  0.63281000  1.0
  H  H71  1  0.73817000  0.36719000  0.96565000  1.0
  Pb  Pb72  1  0.49999000  0.85626000  0.14370000  1.0
  Pb  Pb73  1  0.49998000  0.14373000  0.85629000  1.0
  Pb  Pb74  1  0.19111000  0.80680000  0.22084000  1.0
  Pb  Pb75  1  0.80890000  0.77917000  0.19320000  1.0
  Pb  Pb76  1  0.80889000  0.19321000  0.77917000  1.0
  Pb  Pb77  1  0.19110000  0.22081000  0.80680000  1.0
  C  C78  1  0.08429000  0.92118000  0.34740000  1.0
  C  C79  1  0.91576000  0.65262000  0.07883000  1.0
  C  C80  1  0.91572000  0.07882000  0.65261000  1.0
  C  C81  1  0.08423000  0.34737000  0.92117000  1.0
  C  C82  1  0.97872000  0.90885000  0.45950000  1.0
  C  C83  1  0.02130000  0.54050000  0.09115000  1.0
  C  C84  1  0.02130000  0.09116000  0.54051000  1.0
  C  C85  1  0.97869000  0.45948000  0.90884000  1.0
  C  C86  1  0.03865000  0.96263000  0.42551000  1.0
  C  C87  1  0.96137000  0.57449000  0.03737000  1.0
  C  C88  1  0.96137000  0.03737000  0.57450000  1.0
  C  C89  1  0.03863000  0.42550000  0.96262000  1.0
  C  C90  1  0.06148000  0.05309000  0.46591000  1.0
  C  C91  1  0.93852000  0.53408000  0.94691000  1.0
  C  C92  1  0.93853000  0.94691000  0.53409000  1.0
  C  C93  1  0.06148000  0.46591000  0.05309000  1.0
  C  C94  1  0.02710000  0.75755000  0.47919000  1.0
  C  C95  1  0.97291000  0.52081000  0.24245000  1.0
  C  C96  1  0.97290000  0.24245000  0.52080000  1.0
  C  C97  1  0.02709000  0.47919000  0.75754000  1.0
  C  C98  1  0.28495000  0.12072000  0.47501000  1.0
  C  C99  1  0.71507000  0.52499000  0.87927000  1.0
  C  C100  1  0.71507000  0.87926000  0.52500000  1.0
  C  C101  1  0.28493000  0.47499000  0.12072000  1.0
  C  C102  1  0.23704000  0.87159000  0.08016000  1.0
  C  C103  1  0.76300000  0.91983000  0.12839000  1.0
  C  C104  1  0.76297000  0.12840000  0.91984000  1.0
  C  C105  1  0.23695000  0.08021000  0.87167000  1.0
  C  C106  1  0.16326000  0.89295000  0.94370000  1.0
  C  C107  1  0.83674000  0.05630000  0.10704000  1.0
  C  C108  1  0.83672000  0.10705000  0.05630000  1.0
  C  C109  1  0.16324000  0.94371000  0.89296000  1.0
  C  C110  1  0.24164000  0.92389000  0.02405000  1.0
  C  C111  1  0.75838000  0.97594000  0.07609000  1.0
  C  C112  1  0.75835000  0.07610000  0.97594000  1.0
  C  C113  1  0.24161000  0.02407000  0.92392000  1.0
  C  C114  1  0.32215000  0.00315000  0.05393000  1.0
  C  C115  1  0.67786000  0.94607000  0.99684000  1.0
  C  C116  1  0.67785000  0.99685000  0.94607000  1.0
  C  C117  1  0.32213000  0.05393000  0.00316000  1.0
  C  C118  1  0.95804000  0.81877000  0.96353000  1.0
  C  C119  1  0.04196000  0.03645000  0.18122000  1.0
  C  C120  1  0.04195000  0.18123000  0.03647000  1.0
  C  C121  1  0.95802000  0.96356000  0.81878000  1.0
  C  C122  1  0.35645000  0.07805000  0.23534000  1.0
  C  C123  1  0.64357000  0.76465000  0.92194000  1.0
  C  C124  1  0.64356000  0.92195000  0.76466000  1.0
  C  C125  1  0.35643000  0.23535000  0.07806000  1.0
  C  C126  1  0.48014000  0.89401000  0.32147000  1.0
  C  C127  1  0.51985000  0.67852000  0.10599000  1.0
  C  C128  1  0.51988000  0.10598000  0.67853000  1.0
  C  C129  1  0.48012000  0.32148000  0.89402000  1.0
  C  C130  1  0.42913000  0.91526000  0.46481000  1.0
  C  C131  1  0.57088000  0.53520000  0.08474000  1.0
  C  C132  1  0.57088000  0.08474000  0.53519000  1.0
  C  C133  1  0.42913000  0.46481000  0.91527000  1.0
  C  C134  1  0.48855000  0.94790000  0.41435000  1.0
  C  C135  1  0.51145000  0.58565000  0.05209000  1.0
  C  C136  1  0.51146000  0.05209000  0.58565000  1.0
  C  C137  1  0.48854000  0.41435000  0.94791000  1.0
  C  C138  1  0.55891000  0.03192000  0.44788000  1.0
  C  C139  1  0.44110000  0.55212000  0.96807000  1.0
  C  C140  1  0.44111000  0.96807000  0.55212000  1.0
  C  C141  1  0.55890000  0.44789000  0.03193000  1.0
  C  C142  1  0.42989000  0.74071000  0.41721000  1.0
  C  C143  1  0.57011000  0.58280000  0.25929000  1.0
  C  C144  1  0.57011000  0.25929000  0.58279000  1.0
  C  C145  1  0.42988000  0.41722000  0.74071000  1.0
  C  C146  1  0.75633000  0.03623000  0.38951000  1.0
  C  C147  1  0.24368000  0.61049000  0.96376000  1.0
  C  C148  1  0.24369000  0.96376000  0.61049000  1.0
  C  C149  1  0.75632000  0.38951000  0.03623000  1.0
  S  S150  1  0.95136000  0.79498000  0.40332000  1.0
  S  S151  1  0.04866000  0.59668000  0.20502000  1.0
  S  S152  1  0.04865000  0.20502000  0.59668000  1.0
  S  S153  1  0.95134000  0.40331000  0.79497000  1.0
  S  S154  1  0.14219000  0.11805000  0.42292000  1.0
  S  S155  1  0.85783000  0.57708000  0.88195000  1.0
  S  S156  1  0.85782000  0.88196000  0.57709000  1.0
  S  S157  1  0.14217000  0.42291000  0.11804000  1.0
  S  S158  1  0.06873000  0.78962000  0.90771000  1.0
  S  S159  1  0.93129000  0.09229000  0.21037000  1.0
  S  S160  1  0.93126000  0.21038000  0.09229000  1.0
  S  S161  1  0.06870000  0.90772000  0.78963000  1.0
  S  S162  1  0.42984000  0.03548000  0.15068000  1.0
  S  S163  1  0.57018000  0.84931000  0.96450000  1.0
  S  S164  1  0.57016000  0.96451000  0.84931000  1.0
  S  S165  1  0.42982000  0.15069000  0.03551000  1.0
  S  S166  1  0.33368000  0.81133000  0.41622000  1.0
  S  S167  1  0.66633000  0.58378000  0.18868000  1.0
  S  S168  1  0.66633000  0.18867000  0.58377000  1.0
  S  S169  1  0.33367000  0.41622000  0.81133000  1.0
  S  S170  1  0.62388000  0.07021000  0.37729000  1.0
  S  S171  1  0.37614000  0.62271000  0.92979000  1.0
  S  S172  1  0.37613000  0.92978000  0.62270000  1.0
  S  S173  1  0.62388000  0.37730000  0.07022000  1.0
  O  O174  1  0.01805000  0.88668000  0.27278000  1.0
  O  O175  1  0.98200000  0.72722000  0.11331000  1.0
  O  O176  1  0.98195000  0.11331000  0.72722000  1.0
  O  O177  1  0.01799000  0.27276000  0.88669000  1.0
  O  O178  1  0.28845000  0.81105000  0.06975000  1.0
  O  O179  1  0.71157000  0.93023000  0.18892000  1.0
  O  O180  1  0.71155000  0.18894000  0.93024000  1.0
  O  O181  1  0.28839000  0.06983000  0.81111000  1.0
  O  O182  1  0.17945000  0.89454000  0.13764000  1.0
  O  O183  1  0.82059000  0.86235000  0.10544000  1.0
  O  O184  1  0.82057000  0.10547000  0.86237000  1.0
  O  O185  1  0.17936000  0.13767000  0.89461000  1.0
  O  O186  1  0.56008000  0.85848000  0.30235000  1.0
  O  O187  1  0.43992000  0.69763000  0.14153000  1.0
  O  O188  1  0.43994000  0.14151000  0.69764000  1.0
  O  O189  1  0.56006000  0.30236000  0.85849000  1.0
  O  O190  1  0.39443000  0.89216000  0.26491000  1.0
  O  O191  1  0.60557000  0.73508000  0.10785000  1.0
  O  O192  1  0.60558000  0.10783000  0.73508000  1.0
  O  O193  1  0.39442000  0.26493000  0.89219000  1.0
  O  O194  1  0.18937000  0.91994000  0.36137000  1.0
  O  O195  1  0.81068000  0.63866000  0.08008000  1.0
  O  O196  1  0.81064000  0.08007000  0.63863000  1.0
  O  O197  1  0.18931000  0.36133000  0.91991000  1.0
