# generated using pymatgen
data_NiH4C7O5
_symmetry_space_group_name_H-M   'P 1'
_cell_length_a   8.91395000
_cell_length_b   8.91395000
_cell_length_c   21.16630000
_cell_angle_alpha   90.00000000
_cell_angle_beta   90.00000000
_cell_angle_gamma   119.97200000
_symmetry_Int_Tables_number   1
_chemical_formula_structural   NiH4C7O5
_chemical_formula_sum   'Ni6 H24 C42 O30'
_cell_volume   1456.92914769
_cell_formula_units_Z   6
loop_
 _symmetry_equiv_pos_site_id
 _symmetry_equiv_pos_as_xyz
  1  'x, y, z'
loop_
 _atom_site_type_symbol
 _atom_site_label
 _atom_site_symmetry_multiplicity
 _atom_site_fract_x
 _atom_site_fract_y
 _atom_site_fract_z
 _atom_site_occupancy
  Ni  Ni0  1  0.98273000  0.01769000  0.91702000  1.0
  Ni  Ni1  1  0.03373000  0.01679000  0.58353000  1.0
  Ni  Ni2  1  0.98277000  0.96522000  0.25018000  1.0
  Ni  Ni3  1  0.01680000  0.03373000  0.41645000  1.0
  Ni  Ni4  1  0.96522000  0.98277000  0.74981000  1.0
  Ni  Ni5  1  0.01768000  0.98273000  0.08298000  1.0
  H  H6  1  0.46096000  0.07590000  0.93178000  1.0
  H  H7  1  0.61371000  0.53789000  0.59819000  1.0
  H  H8  1  0.92479000  0.38565000  0.26466000  1.0
  H  H9  1  0.53789000  0.61372000  0.40181000  1.0
  H  H10  1  0.38565000  0.92479000  0.73533000  1.0
  H  H11  1  0.07591000  0.46097000  0.06821000  1.0
  H  H12  1  0.50098000  0.59692000  0.90419000  1.0
  H  H13  1  0.09609000  0.49950000  0.57073000  1.0
  H  H14  1  0.40363000  0.90485000  0.23757000  1.0
  H  H15  1  0.49951000  0.09610000  0.42926000  1.0
  H  H16  1  0.90487000  0.40364000  0.76243000  1.0
  H  H17  1  0.59691000  0.50096000  0.09580000  1.0
  H  H18  1  0.23406000  0.34088000  0.85668000  1.0
  H  H19  1  0.10599000  0.76603000  0.52320000  1.0
  H  H20  1  0.65937000  0.89355000  0.19002000  1.0
  H  H21  1  0.76603000  0.10599000  0.47679000  1.0
  H  H22  1  0.89357000  0.65939000  0.80997000  1.0
  H  H23  1  0.34088000  0.23404000  0.14331000  1.0
  H  H24  1  0.72463000  0.08603000  0.97902000  1.0
  H  H25  1  0.36053000  0.27459000  0.64538000  1.0
  H  H26  1  0.91414000  0.63883000  0.31180000  1.0
  H  H27  1  0.27460000  0.36054000  0.35462000  1.0
  H  H28  1  0.63883000  0.91414000  0.68819000  1.0
  H  H29  1  0.08602000  0.72463000  0.02097000  1.0
  C  C30  1  0.72325000  0.00067000  0.83357000  1.0
  C  C31  1  0.27619000  0.27617000  0.50000000  1.0
  C  C32  1  0.00068000  0.72325000  0.16642000  1.0
  C  C33  1  0.24165000  0.00026000  0.83345000  1.0
  C  C34  1  0.75741000  0.75742000  0.50000000  1.0
  C  C35  1  0.00027000  0.24166000  0.16654000  1.0
  C  C36  1  0.73086000  0.73087000  1.00000000  1.0
  C  C37  1  0.00012000  0.26935000  0.66657000  1.0
  C  C38  1  0.26934000  0.00011000  0.33342000  1.0
  C  C39  1  0.24925000  0.24924000  0.00000000  1.0
  C  C40  1  0.99983000  0.75105000  0.66660000  1.0
  C  C41  1  0.75106000  0.99984000  0.33333333  1.0
  C  C42  1  0.56411000  0.56411000  0.00000000  1.0
  C  C43  1  0.00059000  0.43646000  0.66659000  1.0
  C  C44  1  0.43645000  0.00058000  0.33333333  1.0
  C  C45  1  0.30235000  0.35908000  0.94670000  1.0
  C  C46  1  0.05657000  0.69801000  0.61327000  1.0
  C  C47  1  0.64141000  0.94365000  0.28005000  1.0
  C  C48  1  0.69801000  0.05657000  0.38673000  1.0
  C  C49  1  0.94365000  0.64141000  0.71994000  1.0
  C  C50  1  0.35908000  0.30234000  0.05329000  1.0
  C  C51  1  0.50728000  0.04261000  0.88922000  1.0
  C  C52  1  0.53411000  0.49179000  0.55564000  1.0
  C  C53  1  0.95827000  0.46525000  0.22210000  1.0
  C  C54  1  0.49179000  0.53411000  0.44436000  1.0
  C  C55  1  0.46525000  0.95827000  0.77789000  1.0
  C  C56  1  0.04261000  0.50729000  0.11076000  1.0
  C  C57  1  0.45932000  0.51300000  0.94570000  1.0
  C  C58  1  0.05400000  0.54124000  0.61227000  1.0
  C  C59  1  0.48761000  0.94702000  0.27907000  1.0
  C  C60  1  0.54124000  0.05401000  0.38772000  1.0
  C  C61  1  0.94701000  0.48761000  0.72093000  1.0
  C  C62  1  0.51298000  0.45932000  0.05430000  1.0
  C  C63  1  0.66483000  0.04669000  0.88825000  1.0
  C  C64  1  0.38069000  0.33435000  0.55463000  1.0
  C  C65  1  0.95434000  0.61877000  0.22107000  1.0
  C  C66  1  0.33436000  0.38069000  0.44537000  1.0
  C  C67  1  0.61876000  0.95434000  0.77892000  1.0
  C  C68  1  0.04670000  0.66484000  0.11174000  1.0
  C  C69  1  0.40841000  0.00045000  0.83354000  1.0
  C  C70  1  0.59082000  0.59081000  0.50000000  1.0
  C  C71  1  0.00046000  0.40842000  0.16645000  1.0
  O  O72  1  0.10018000  0.10019000  1.00000000  1.0
  O  O73  1  0.99934000  0.89994000  0.66666667  1.0
  O  O74  1  0.89995000  0.99936000  0.33333333  1.0
  O  O75  1  0.80957000  0.77919000  0.94688000  1.0
  O  O76  1  0.96884000  0.19031000  0.61349000  1.0
  O  O77  1  0.22115000  0.03096000  0.28035000  1.0
  O  O78  1  0.19031000  0.96883000  0.38650000  1.0
  O  O79  1  0.03096000  0.22116000  0.71965000  1.0
  O  O80  1  0.77920000  0.80958000  0.05312000  1.0
  O  O81  1  0.87240000  0.00079000  0.83348000  1.0
  O  O82  1  0.12715000  0.12715000  0.50000000  1.0
  O  O83  1  0.00082000  0.87241000  0.16651000  1.0
  O  O84  1  0.18100000  0.30109000  0.89813000  1.0
  O  O85  1  0.11935000  0.81921000  0.56464000  1.0
  O  O86  1  0.69948000  0.88038000  0.23144000  1.0
  O  O87  1  0.81922000  0.11936000  0.43535000  1.0
  O  O88  1  0.88037000  0.69947000  0.76856000  1.0
  O  O89  1  0.30110000  0.18099000  0.10186000  1.0
  O  O90  1  0.15281000  0.95060000  0.88450000  1.0
  O  O91  1  0.79635000  0.84650000  0.55101000  1.0
  O  O92  1  0.04966000  0.20246000  0.21767000  1.0
  O  O93  1  0.84649000  0.79635000  0.44899000  1.0
  O  O94  1  0.20244000  0.04965000  0.78232000  1.0
  O  O95  1  0.95060000  0.15282000  0.11549000  1.0
  O  O96  1  0.78128000  0.10016000  0.93830000  1.0
  O  O97  1  0.31780000  0.21789000  0.60467000  1.0
  O  O98  1  0.90079000  0.68190000  0.27107000  1.0
  O  O99  1  0.21790000  0.31780000  0.39532000  1.0
  O  O100  1  0.68189000  0.90078000  0.72892000  1.0
  O  O101  1  0.10017000  0.78128000  0.06169000  1.0
