# generated using pymatgen
data_CoPH10C9NO5
_symmetry_space_group_name_H-M   'P 1'
_cell_length_a   8.52860000
_cell_length_b   9.85226000
_cell_length_c   12.50520000
_cell_angle_alpha   89.99850000
_cell_angle_beta   89.99720000
_cell_angle_gamma   89.99010000
_symmetry_Int_Tables_number   1
_chemical_formula_structural   CoPH10C9NO5
_chemical_formula_sum   'Co4 P4 H40 C36 N4 O20'
_cell_volume   1050.76172577
_cell_formula_units_Z   4
loop_
 _symmetry_equiv_pos_site_id
 _symmetry_equiv_pos_as_xyz
  1  'x, y, z'
loop_
 _atom_site_type_symbol
 _atom_site_label
 _atom_site_symmetry_multiplicity
 _atom_site_fract_x
 _atom_site_fract_y
 _atom_site_fract_z
 _atom_site_occupancy
  Co  Co0  1  0.81318000  0.92262000  0.87945000  1.0
  Co  Co1  1  0.31272000  0.07731000  0.12054000  1.0
  Co  Co2  1  0.81334000  0.42251000  0.12062000  1.0
  Co  Co3  1  0.31294000  0.57711000  0.87930000  1.0
  P  P4  1  0.66580000  0.14684000  0.02398000  1.0
  P  P5  1  0.16594000  0.85307000  0.97593000  1.0
  P  P6  1  0.66591000  0.64679000  0.97601000  1.0
  P  P7  1  0.16591000  0.35322000  0.02409000  1.0
  H  H8  1  0.71351000  0.88099000  0.08777000  1.0
  H  H9  1  0.21330000  0.11895000  0.91222000  1.0
  H  H10  1  0.71346000  0.38107000  0.91221000  1.0
  H  H11  1  0.21350000  0.61886000  0.08774000  1.0
  H  H12  1  0.64020000  0.93847000  0.20452000  1.0
  H  H13  1  0.14016000  0.06154000  0.79549000  1.0
  H  H14  1  0.64028000  0.43858000  0.79547000  1.0
  H  H15  1  0.14030000  0.56146000  0.20446000  1.0
  H  H16  1  0.91105000  0.07751000  0.10598000  1.0
  H  H17  1  0.41113000  0.92254000  0.89390000  1.0
  H  H18  1  0.91123000  0.57743000  0.89405000  1.0
  H  H19  1  0.41135000  0.42252000  0.10603000  1.0
  H  H20  1  0.77539000  0.13889000  0.20426000  1.0
  H  H21  1  0.27548000  0.86121000  0.79561000  1.0
  H  H22  1  0.77562000  0.63895000  0.79577000  1.0
  H  H23  1  0.27575000  0.36115000  0.20437000  1.0
  H  H24  1  0.97909000  0.87763000  0.17750000  1.0
  H  H25  1  0.47903000  0.12234000  0.82250000  1.0
  H  H26  1  0.97910000  0.37755000  0.82252000  1.0
  H  H27  1  0.47914000  0.62245000  0.17749000  1.0
  H  H28  1  0.84064000  0.74509000  0.19746000  1.0
  H  H29  1  0.34059000  0.25492000  0.80258000  1.0
  H  H30  1  0.84057000  0.24508000  0.80257000  1.0
  H  H31  1  0.34056000  0.75493000  0.19741000  1.0
  H  H32  1  0.03118000  0.04562000  0.32744000  1.0
  H  H33  1  0.53119000  0.95440000  0.67260000  1.0
  H  H34  1  0.03117000  0.54561000  0.67259000  1.0
  H  H35  1  0.53122000  0.45441000  0.32739000  1.0
  H  H36  1  0.03797000  0.07604000  0.52492000  1.0
  H  H37  1  0.53801000  0.92395000  0.47511000  1.0
  H  H38  1  0.03799000  0.57605000  0.47511000  1.0
  H  H39  1  0.53802000  0.42395000  0.52488000  1.0
  H  H40  1  0.72685000  0.73720000  0.56479000  1.0
  H  H41  1  0.22680000  0.26280000  0.43522000  1.0
  H  H42  1  0.72691000  0.23718000  0.43525000  1.0
  H  H43  1  0.22684000  0.76283000  0.56475000  1.0
  H  H44  1  0.71680000  0.70620000  0.36795000  1.0
  H  H45  1  0.21670000  0.29382000  0.63205000  1.0
  H  H46  1  0.71684000  0.20616000  0.63208000  1.0
  H  H47  1  0.21674000  0.79383000  0.36791000  1.0
  C  C48  1  0.78816000  0.07640000  0.13213000  1.0
  C  C49  1  0.28823000  0.92361000  0.86779000  1.0
  C  C50  1  0.78834000  0.57641000  0.86789000  1.0
  C  C51  1  0.28846000  0.42356000  0.13219000  1.0
  C  C52  1  0.86711000  0.85158000  0.21552000  1.0
  C  C53  1  0.36704000  0.14844000  0.78450000  1.0
  C  C54  1  0.86711000  0.35155000  0.78451000  1.0
  C  C55  1  0.36712000  0.64845000  0.21548000  1.0
  C  C56  1  0.87130000  0.87476000  0.33410000  1.0
  C  C57  1  0.37125000  0.12525000  0.66592000  1.0
  C  C58  1  0.87133000  0.37474000  0.66593000  1.0
  C  C59  1  0.37130000  0.62526000  0.33406000  1.0
  C  C60  1  0.96244000  0.97866000  0.37888000  1.0
  C  C61  1  0.46244000  0.02136000  0.62115000  1.0
  C  C62  1  0.96245000  0.47864000  0.62115000  1.0
  C  C63  1  0.46248000  0.52136000  0.37884000  1.0
  C  C64  1  0.96802000  0.99566000  0.48937000  1.0
  C  C65  1  0.46804000  0.00434000  0.51066000  1.0
  C  C66  1  0.96804000  0.49566000  0.51066000  1.0
  C  C67  1  0.46807000  0.50435000  0.48932000  1.0
  C  C68  1  0.88300000  0.90943000  0.55686000  1.0
  C  C69  1  0.38300000  0.09056000  0.44316000  1.0
  C  C70  1  0.88304000  0.40942000  0.44318000  1.0
  C  C71  1  0.38303000  0.59058000  0.55681000  1.0
  C  C72  1  0.79252000  0.80474000  0.51240000  1.0
  C  C73  1  0.29250000  0.19526000  0.48761000  1.0
  C  C74  1  0.79258000  0.30472000  0.48764000  1.0
  C  C75  1  0.29253000  0.69529000  0.51236000  1.0
  C  C76  1  0.78697000  0.78800000  0.40202000  1.0
  C  C77  1  0.28691000  0.21202000  0.59800000  1.0
  C  C78  1  0.78701000  0.28797000  0.59802000  1.0
  C  C79  1  0.28695000  0.71203000  0.40198000  1.0
  C  C80  1  0.88689000  0.93286000  0.67441000  1.0
  C  C81  1  0.38690000  0.06706000  0.32562000  1.0
  C  C82  1  0.88693000  0.43286000  0.32563000  1.0
  C  C83  1  0.38685000  0.56712000  0.67435000  1.0
  N  N84  1  0.74250000  0.93354000  0.15842000  1.0
  N  N85  1  0.24245000  0.06649000  0.84159000  1.0
  N  N86  1  0.74255000  0.43359000  0.84157000  1.0
  N  N87  1  0.24262000  0.56642000  0.15839000  1.0
  O  O88  1  0.73365000  0.10362000  0.91507000  1.0
  O  O89  1  0.23429000  0.89594000  0.08477000  1.0
  O  O90  1  0.73359000  0.60352000  0.08496000  1.0
  O  O91  1  0.23437000  0.39584000  0.91520000  1.0
  O  O92  1  0.50163000  0.08855000  0.03857000  1.0
  O  O93  1  0.00194000  0.91196000  0.96162000  1.0
  O  O94  1  0.50178000  0.58848000  0.96125000  1.0
  O  O95  1  0.00225000  0.41282000  0.03851000  1.0
  O  O96  1  0.67211000  0.30277000  0.03494000  1.0
  O  O97  1  0.17135000  0.69718000  0.96467000  1.0
  O  O98  1  0.67211000  0.80273000  0.96509000  1.0
  O  O99  1  0.17072000  0.19729000  0.03540000  1.0
  O  O100  1  0.78979000  0.86239000  0.73234000  1.0
  O  O101  1  0.28971000  0.13746000  0.26770000  1.0
  O  O102  1  0.78991000  0.36231000  0.26772000  1.0
  O  O103  1  0.28973000  0.63763000  0.73223000  1.0
  O  O104  1  0.97715000  0.02001000  0.71541000  1.0
  O  O105  1  0.47724000  0.97992000  0.28467000  1.0
  O  O106  1  0.97712000  0.52007000  0.28461000  1.0
  O  O107  1  0.47702000  0.47989000  0.71539000  1.0
