# generated using pymatgen
data_Cd2H16C12N3Cl5O
_symmetry_space_group_name_H-M   'P 1'
_cell_length_a   9.48422000
_cell_length_b   10.43380000
_cell_length_c   10.89560000
_cell_angle_alpha   103.45300000
_cell_angle_beta   110.64700000
_cell_angle_gamma   101.29100000
_symmetry_Int_Tables_number   1
_chemical_formula_structural   Cd2H16C12N3Cl5O
_chemical_formula_sum   'Cd4 H32 C24 N6 Cl10 O2'
_cell_volume   934.41444025
_cell_formula_units_Z   2
loop_
 _symmetry_equiv_pos_site_id
 _symmetry_equiv_pos_as_xyz
  1  'x, y, z'
loop_
 _atom_site_type_symbol
 _atom_site_label
 _atom_site_symmetry_multiplicity
 _atom_site_fract_x
 _atom_site_fract_y
 _atom_site_fract_z
 _atom_site_occupancy
  Cd  Cd0  1  0.05327000  0.65778000  0.43191000  1.0
  Cd  Cd1  1  0.94673000  0.34222000  0.56810000  1.0
  Cd  Cd2  1  0.01233000  0.72555000  0.80713000  1.0
  Cd  Cd3  1  0.98767000  0.27445000  0.19288000  1.0
  H  H4  1  0.91752000  0.98733000  0.81946000  1.0
  H  H5  1  0.08248000  0.01268000  0.18055000  1.0
  H  H6  1  0.99647000  0.98187000  0.71371000  1.0
  H  H7  1  0.00353000  0.01813000  0.28629000  1.0
  H  H8  1  0.49050000  0.70472000  0.13308000  1.0
  H  H9  1  0.50949000  0.29528000  0.86692000  1.0
  H  H10  1  0.68625000  0.79157000  0.22543000  1.0
  H  H11  1  0.31375000  0.20842000  0.77457000  1.0
  H  H12  1  0.84722000  0.85289000  0.00042000  1.0
  H  H13  1  0.15276000  0.14713000  0.99958000  1.0
  H  H14  1  0.69038000  0.47942000  0.68479000  1.0
  H  H15  1  0.30966000  0.52058000  0.31524000  1.0
  H  H16  1  0.42486000  0.41911000  0.69276000  1.0
  H  H17  1  0.57516000  0.58088000  0.30724000  1.0
  H  H18  1  0.37084000  0.58610000  0.86216000  1.0
  H  H19  1  0.62916000  0.41388000  0.13785000  1.0
  H  H20  1  0.67374000  0.93994000  0.08794000  1.0
  H  H21  1  0.32623000  0.06006000  0.91205000  1.0
  H  H22  1  0.46484000  0.85662000  0.99287000  1.0
  H  H23  1  0.53513000  0.14336000  0.00712000  1.0
  H  H24  1  0.43373000  0.92811000  0.19679000  1.0
  H  H25  1  0.56628000  0.07189000  0.80322000  1.0
  H  H26  1  0.63999000  0.99681000  0.31158000  1.0
  H  H27  1  0.36002000  0.00319000  0.68842000  1.0
  H  H28  1  0.24595000  0.80180000  0.26483000  1.0
  H  H29  1  0.75404000  0.19818000  0.73517000  1.0
  H  H30  1  0.39878000  0.69715000  0.62401000  1.0
  H  H31  1  0.60123000  0.30286000  0.37598000  1.0
  H  H32  1  0.68371000  0.78881000  0.66794000  1.0
  H  H33  1  0.31629000  0.21119000  0.33205000  1.0
  H  H34  1  0.74816000  0.88789000  0.50100000  1.0
  H  H35  1  0.25186000  0.11211000  0.49901000  1.0
  C  C36  1  0.60747000  0.73207000  0.94794000  1.0
  C  C37  1  0.39253000  0.26794000  0.05206000  1.0
  C  C38  1  0.75170000  0.75666000  0.93612000  1.0
  C  C39  1  0.24829000  0.24335000  0.06388000  1.0
  C  C40  1  0.66386000  0.54726000  0.76018000  1.0
  C  C41  1  0.33614000  0.45275000  0.23981000  1.0
  C  C42  1  0.51779000  0.51341000  0.76683000  1.0
  C  C43  1  0.48222000  0.48659000  0.23317000  1.0
  C  C44  1  0.48801000  0.60774000  0.86095000  1.0
  C  C45  1  0.51199000  0.39225000  0.13903000  1.0
  C  C46  1  0.57935000  0.84102000  0.04558000  1.0
  C  C47  1  0.42063000  0.15897000  0.95441000  1.0
  C  C48  1  0.53594000  0.90459000  0.26298000  1.0
  C  C49  1  0.46405000  0.09542000  0.73702000  1.0
  C  C50  1  0.50155000  0.84975000  0.36818000  1.0
  C  C51  1  0.49846000  0.15026000  0.63182000  1.0
  C  C52  1  0.34578000  0.80014000  0.35316000  1.0
  C  C53  1  0.65422000  0.19986000  0.64684000  1.0
  C  C54  1  0.43209000  0.74267000  0.55424000  1.0
  C  C55  1  0.56790000  0.25732000  0.44576000  1.0
  C  C56  1  0.58944000  0.79232000  0.57786000  1.0
  C  C57  1  0.41055000  0.20768000  0.42214000  1.0
  C  C58  1  0.62535000  0.84803000  0.48455000  1.0
  C  C59  1  0.37465000  0.15197000  0.51546000  1.0
  N  N60  1  0.77819000  0.66721000  0.84253000  1.0
  N  N61  1  0.22181000  0.33281000  0.15747000  1.0
  N  N62  1  0.57364000  0.79989000  0.16778000  1.0
  N  N63  1  0.42635000  0.20012000  0.83222000  1.0
  N  N64  1  0.31205000  0.74855000  0.44528000  1.0
  N  N65  1  0.68797000  0.25145000  0.55471000  1.0
  Cl  Cl66  1  0.21935000  0.79587000  0.71504000  1.0
  Cl  Cl67  1  0.78065000  0.20413000  0.28495000  1.0
  Cl  Cl68  1  0.83931000  0.56489000  0.52057000  1.0
  Cl  Cl69  1  0.16069000  0.43511000  0.47943000  1.0
  Cl  Cl70  1  0.92246000  0.83823000  0.35015000  1.0
  Cl  Cl71  1  0.07753000  0.16177000  0.64985000  1.0
  Cl  Cl72  1  0.07424000  0.49785000  0.83107000  1.0
  Cl  Cl73  1  0.92576000  0.50216000  0.16893000  1.0
  Cl  Cl74  1  0.17014000  0.89654000  0.05598000  1.0
  Cl  Cl75  1  0.82986000  0.10345000  0.94402000  1.0
  O  O76  1  0.94372000  0.92366000  0.75390000  1.0
  O  O77  1  0.05627000  0.07634000  0.24609000  1.0
