# generated using pymatgen
data_FeH24Pd(C19N3)2
_symmetry_space_group_name_H-M   'P 1'
_cell_length_a   7.19249000
_cell_length_b   13.75190000
_cell_length_c   16.25050000
_cell_angle_alpha   106.00590000
_cell_angle_beta   96.68460000
_cell_angle_gamma   90.04730000
_symmetry_Int_Tables_number   1
_chemical_formula_structural   FeH24Pd(C19N3)2
_chemical_formula_sum   'Fe2 H48 Pd2 C76 N12'
_cell_volume   1533.61625834
_cell_formula_units_Z   2
loop_
 _symmetry_equiv_pos_site_id
 _symmetry_equiv_pos_as_xyz
  1  'x, y, z'
loop_
 _atom_site_type_symbol
 _atom_site_label
 _atom_site_symmetry_multiplicity
 _atom_site_fract_x
 _atom_site_fract_y
 _atom_site_fract_z
 _atom_site_occupancy
  Fe  Fe0  1  0.50000000  0.00000000  0.50000000  1.0
  Fe  Fe1  1  0.50000000  0.50000000  0.50000000  1.0
  H  H2  1  0.55585000  0.97797000  0.67459000  1.0
  H  H3  1  0.44414000  0.02203000  0.32541000  1.0
  H  H4  1  0.57266000  0.08836000  0.82404000  1.0
  H  H5  1  0.42733000  0.91164000  0.17596000  1.0
  H  H6  1  0.50059000  0.34392000  0.71773000  1.0
  H  H7  1  0.49941000  0.65608000  0.28227000  1.0
  H  H8  1  0.49167000  0.22277000  0.57230000  1.0
  H  H9  1  0.50833000  0.77723000  0.42770000  1.0
  H  H10  1  0.78084000  0.50751000  0.38404000  1.0
  H  H11  1  0.21916000  0.49249000  0.61597000  1.0
  H  H12  1  0.78844000  0.47617000  0.22629000  1.0
  H  H13  1  0.21157000  0.52383000  0.77371000  1.0
  H  H14  1  0.19299000  0.40949000  0.19121000  1.0
  H  H15  1  0.80702000  0.59051000  0.80879000  1.0
  H  H16  1  0.20860000  0.44810000  0.35092000  1.0
  H  H17  1  0.79140000  0.55190000  0.64908000  1.0
  H  H18  1  0.48217000  0.08874000  0.97599000  1.0
  H  H19  1  0.51784000  0.91126000  0.02401000  1.0
  H  H20  1  0.79676000  0.14107000  0.95162000  1.0
  H  H21  1  0.20325000  0.85893000  0.04838000  1.0
  H  H22  1  0.02636000  0.23197000  0.07599000  1.0
  H  H23  1  0.97364000  0.76803000  0.92401000  1.0
  H  H24  1  0.94356000  0.27003000  0.22518000  1.0
  H  H25  1  0.05644000  0.72997000  0.77482000  1.0
  H  H26  1  0.71533000  0.26182000  0.32550000  1.0
  H  H27  1  0.28466000  0.73818000  0.67450000  1.0
  H  H28  1  0.40358000  0.20994000  0.35135000  1.0
  H  H29  1  0.59641000  0.79006000  0.64865000  1.0
  H  H30  1  0.17270000  0.11694000  0.22738000  1.0
  H  H31  1  0.82730000  0.88306000  0.77261000  1.0
  H  H32  1  0.25309000  0.07845000  0.07796000  1.0
  H  H33  1  0.74691000  0.92155000  0.92203000  1.0
  H  H34  1  0.14874000  0.16858000  0.95253000  1.0
  H  H35  1  0.85127000  0.83142000  0.04747000  1.0
  H  H36  1  0.17555000  0.98717000  0.87577000  1.0
  H  H37  1  0.82446000  0.01284000  0.12423000  1.0
  H  H38  1  0.12178000  0.92904000  0.71493000  1.0
  H  H39  1  0.87822000  0.07096000  0.28507000  1.0
  H  H40  1  0.03685000  0.05117000  0.63107000  1.0
  H  H41  1  0.96315000  0.94882000  0.36893000  1.0
  H  H42  1  0.97025000  0.22634000  0.62705000  1.0
  H  H43  1  0.02975000  0.77366000  0.37295000  1.0
  H  H44  1  0.93403000  0.40579000  0.70288000  1.0
  H  H45  1  0.06596000  0.59421000  0.29712000  1.0
  H  H46  1  0.98399000  0.46499000  0.86503000  1.0
  H  H47  1  0.01601000  0.53501000  0.13497000  1.0
  H  H48  1  0.07118000  0.34327000  0.94868000  1.0
  H  H49  1  0.92883000  0.65673000  0.05132000  1.0
  Pd  Pd50  1  0.99270000  0.23653000  0.46564000  1.0
  Pd  Pd51  1  0.00730000  0.76347000  0.53437000  1.0
  C  C52  1  0.54583000  0.05943000  0.68695000  1.0
  C  C53  1  0.45416000  0.94057000  0.31305000  1.0
  C  C54  1  0.55521000  0.12170000  0.77033000  1.0
  C  C55  1  0.44479000  0.87830000  0.22967000  1.0
  C  C56  1  0.53674000  0.22686000  0.78416000  1.0
  C  C57  1  0.46326000  0.77314000  0.21584000  1.0
  C  C58  1  0.51457000  0.26345000  0.71096000  1.0
  C  C59  1  0.48543000  0.73655000  0.28904000  1.0
  C  C60  1  0.50843000  0.19616000  0.62970000  1.0
  C  C61  1  0.49158000  0.80384000  0.37030000  1.0
  C  C62  1  0.53516000  0.29070000  0.86830000  1.0
  C  C63  1  0.46485000  0.70930000  0.13170000  1.0
  C  C64  1  0.52483000  0.33832000  0.94342000  1.0
  C  C65  1  0.47517000  0.66168000  0.05658000  1.0
  C  C66  1  0.79223000  0.13804000  0.46424000  1.0
  C  C67  1  0.20776000  0.86196000  0.53576000  1.0
  C  C68  1  0.19597000  0.33549000  0.47231000  1.0
  C  C69  1  0.80403000  0.66451000  0.52770000  1.0
  C  C70  1  0.80704000  0.34437000  0.48451000  1.0
  C  C71  1  0.19296000  0.65563000  0.51549000  1.0
  C  C72  1  0.18094000  0.13102000  0.45827000  1.0
  C  C73  1  0.81906000  0.86898000  0.54174000  1.0
  C  C74  1  0.65359000  0.48671000  0.33919000  1.0
  C  C75  1  0.34641000  0.51329000  0.66081000  1.0
  C  C76  1  0.65717000  0.46880000  0.25140000  1.0
  C  C77  1  0.34284000  0.53120000  0.74860000  1.0
  C  C78  1  0.49086000  0.43935000  0.19429000  1.0
  C  C79  1  0.50915000  0.56064000  0.80571000  1.0
  C  C80  1  0.32581000  0.43269000  0.23171000  1.0
  C  C81  1  0.67420000  0.56731000  0.76829000  1.0
  C  C82  1  0.33348000  0.45356000  0.32046000  1.0
  C  C83  1  0.66652000  0.54643000  0.67954000  1.0
  C  C84  1  0.49482000  0.41281000  0.10454000  1.0
  C  C85  1  0.50519000  0.58718000  0.89546000  1.0
  C  C86  1  0.50954000  0.38173000  0.02719000  1.0
  C  C87  1  0.49046000  0.61827000  0.97281000  1.0
  C  C88  1  0.53128000  0.14925000  0.11510000  1.0
  C  C89  1  0.46872000  0.85075000  0.88489000  1.0
  C  C90  1  0.58321000  0.12823000  0.03044000  1.0
  C  C91  1  0.41678000  0.87177000  0.96956000  1.0
  C  C92  1  0.75790000  0.15746000  0.01682000  1.0
  C  C93  1  0.24211000  0.84253000  0.98318000  1.0
  C  C94  1  0.88825000  0.20963000  0.08736000  1.0
  C  C95  1  0.11175000  0.79037000  0.91264000  1.0
  C  C96  1  0.84243000  0.23113000  0.17041000  1.0
  C  C97  1  0.15757000  0.76887000  0.82958000  1.0
  C  C98  1  0.66413000  0.20178000  0.18663000  1.0
  C  C99  1  0.33587000  0.79822000  0.81337000  1.0
  C  C100  1  0.61374000  0.22242000  0.27134000  1.0
  C  C101  1  0.38625000  0.77758000  0.72866000  1.0
  C  C102  1  0.43991000  0.19318000  0.28574000  1.0
  C  C103  1  0.56008000  0.80681000  0.71426000  1.0
  C  C104  1  0.30897000  0.14103000  0.21539000  1.0
  C  C105  1  0.69103000  0.85897000  0.78461000  1.0
  C  C106  1  0.35369000  0.11949000  0.13205000  1.0
  C  C107  1  0.64630000  0.88051000  0.86794000  1.0
  C  C108  1  0.06973000  0.21404000  0.83623000  1.0
  C  C109  1  0.93028000  0.78596000  0.16377000  1.0
  C  C110  1  0.12077000  0.14228000  0.88234000  1.0
  C  C111  1  0.87924000  0.85772000  0.11766000  1.0
  C  C112  1  0.13712000  0.04160000  0.83952000  1.0
  C  C113  1  0.86289000  0.95840000  0.16048000  1.0
  C  C114  1  0.10560000  0.00845000  0.74830000  1.0
  C  C115  1  0.89440000  0.99156000  0.25170000  1.0
  C  C116  1  0.05910000  0.07634000  0.70136000  1.0
  C  C117  1  0.94090000  0.92366000  0.29864000  1.0
  C  C118  1  0.03992000  0.18025000  0.74368000  1.0
  C  C119  1  0.96008000  0.81975000  0.25632000  1.0
  C  C120  1  0.99255000  0.25214000  0.69739000  1.0
  C  C121  1  0.00745000  0.74786000  0.30260000  1.0
  C  C122  1  0.97335000  0.35242000  0.74008000  1.0
  C  C123  1  0.02665000  0.64757000  0.25992000  1.0
  C  C124  1  0.00066000  0.38561000  0.83135000  1.0
  C  C125  1  0.99933000  0.61440000  0.16865000  1.0
  C  C126  1  0.04837000  0.31781000  0.87833000  1.0
  C  C127  1  0.95163000  0.68218000  0.12167000  1.0
  N  N128  1  0.52143000  0.09497000  0.61694000  1.0
  N  N129  1  0.47857000  0.90503000  0.38305000  1.0
  N  N130  1  0.67588000  0.08275000  0.47172000  1.0
  N  N131  1  0.32412000  0.91725000  0.52828000  1.0
  N  N132  1  0.31730000  0.39546000  0.48040000  1.0
  N  N133  1  0.68270000  0.60454000  0.51960000  1.0
  N  N134  1  0.69188000  0.40527000  0.49479000  1.0
  N  N135  1  0.30812000  0.59474000  0.50521000  1.0
  N  N136  1  0.49447000  0.47936000  0.37453000  1.0
  N  N137  1  0.50554000  0.52064000  0.62547000  1.0
  N  N138  1  0.30133000  0.07630000  0.46729000  1.0
  N  N139  1  0.69867000  0.92370000  0.53271000  1.0
