# generated using pymatgen
data_CoH8(C3N)4
_symmetry_space_group_name_H-M   'P 1'
_cell_length_a   13.33620000
_cell_length_b   13.33620000
_cell_length_c   13.98190000
_cell_angle_alpha   90.00010000
_cell_angle_beta   90.00010000
_cell_angle_gamma   89.99990000
_symmetry_Int_Tables_number   1
_chemical_formula_structural   CoH8(C3N)4
_chemical_formula_sum   'Co4 H32 C48 N16'
_cell_volume   2486.74006458
_cell_formula_units_Z   4
loop_
 _symmetry_equiv_pos_site_id
 _symmetry_equiv_pos_as_xyz
  1  'x, y, z'
loop_
 _atom_site_type_symbol
 _atom_site_label
 _atom_site_symmetry_multiplicity
 _atom_site_fract_x
 _atom_site_fract_y
 _atom_site_fract_z
 _atom_site_occupancy
  Co  Co0  1  0.01067000  0.01067000  0.87500000  1.0
  Co  Co1  1  0.98933000  0.98933000  0.37500000  1.0
  Co  Co2  1  0.01067000  0.98933000  0.12500000  1.0
  Co  Co3  1  0.98933000  0.01067000  0.62500000  1.0
  H  H4  1  0.02556000  0.77601000  0.90310000  1.0
  H  H5  1  0.95753000  0.60189000  0.60120000  1.0
  H  H6  1  0.95725000  0.41868000  0.60121000  1.0
  H  H7  1  0.95167000  0.24443000  0.60192000  1.0
  H  H8  1  0.97444000  0.22399000  0.40310000  1.0
  H  H9  1  0.04247000  0.39811000  0.10120000  1.0
  H  H10  1  0.04275000  0.58132000  0.10121000  1.0
  H  H11  1  0.04833000  0.75557000  0.10192000  1.0
  H  H12  1  0.77601000  0.97444000  0.15310000  1.0
  H  H13  1  0.60189000  0.04247000  0.85120000  1.0
  H  H14  1  0.41868000  0.04275000  0.85121000  1.0
  H  H15  1  0.24443000  0.04833000  0.85192000  1.0
  H  H16  1  0.22399000  0.02556000  0.65310000  1.0
  H  H17  1  0.39811000  0.95753000  0.35120000  1.0
  H  H18  1  0.58132000  0.95726000  0.35121000  1.0
  H  H19  1  0.75557000  0.95167000  0.35192000  1.0
  H  H20  1  0.02556000  0.22399000  0.09690000  1.0
  H  H21  1  0.95753000  0.39811000  0.39880000  1.0
  H  H22  1  0.95725000  0.58131000  0.39879000  1.0
  H  H23  1  0.95167000  0.75557000  0.39808000  1.0
  H  H24  1  0.97444000  0.77601000  0.59690000  1.0
  H  H25  1  0.04247000  0.60189000  0.89880000  1.0
  H  H26  1  0.04275000  0.41868000  0.89879000  1.0
  H  H27  1  0.04833000  0.24443000  0.89808000  1.0
  H  H28  1  0.77601000  0.02556000  0.84690000  1.0
  H  H29  1  0.60189000  0.95753000  0.14880000  1.0
  H  H30  1  0.41868000  0.95725000  0.14879000  1.0
  H  H31  1  0.24443000  0.95167000  0.14808000  1.0
  H  H32  1  0.22399000  0.97444000  0.34690000  1.0
  H  H33  1  0.39811000  0.04247000  0.64880000  1.0
  H  H34  1  0.58132000  0.04275000  0.64879000  1.0
  H  H35  1  0.75557000  0.04833000  0.64808000  1.0
  C  C36  1  0.01370000  0.79241000  0.82788000  1.0
  C  C37  1  0.97640000  0.56233000  0.66708000  1.0
  C  C38  1  0.97629000  0.45820000  0.66708000  1.0
  C  C39  1  0.97518000  0.22811000  0.67463000  1.0
  C  C40  1  0.98631000  0.20759000  0.32788000  1.0
  C  C41  1  0.02360000  0.43767000  0.16708000  1.0
  C  C42  1  0.02371000  0.54179000  0.16708000  1.0
  C  C43  1  0.02482000  0.77189000  0.17463000  1.0
  C  C44  1  0.79241000  0.98631000  0.07788000  1.0
  C  C45  1  0.56233000  0.02360000  0.91708000  1.0
  C  C46  1  0.45820000  0.02371000  0.91708000  1.0
  C  C47  1  0.22811000  0.02482000  0.92463000  1.0
  C  C48  1  0.20759000  0.01370000  0.57788000  1.0
  C  C49  1  0.43767000  0.97640000  0.41708000  1.0
  C  C50  1  0.54179000  0.97629000  0.41708000  1.0
  C  C51  1  0.77189000  0.97518000  0.42463000  1.0
  C  C52  1  0.01370000  0.20759000  0.17212000  1.0
  C  C53  1  0.97640000  0.43767000  0.33292000  1.0
  C  C54  1  0.97629000  0.54179000  0.33292000  1.0
  C  C55  1  0.97518000  0.77189000  0.32537000  1.0
  C  C56  1  0.98630000  0.79241000  0.67212000  1.0
  C  C57  1  0.02360000  0.56233000  0.83292000  1.0
  C  C58  1  0.02371000  0.45821000  0.83292000  1.0
  C  C59  1  0.02482000  0.22811000  0.82537000  1.0
  C  C60  1  0.79241000  0.01370000  0.92212000  1.0
  C  C61  1  0.56233000  0.97640000  0.08292000  1.0
  C  C62  1  0.45821000  0.97629000  0.08292000  1.0
  C  C63  1  0.22811000  0.97518000  0.07537000  1.0
  C  C64  1  0.20759000  0.98631000  0.42212000  1.0
  C  C65  1  0.43767000  0.02360000  0.58292000  1.0
  C  C66  1  0.54180000  0.02371000  0.58292000  1.0
  C  C67  1  0.77189000  0.02482000  0.57537000  1.0
  C  C68  1  0.00000000  0.72688000  0.75000000  1.0
  C  C69  1  0.00000000  0.61740000  0.75000000  1.0
  C  C70  1  0.00000000  0.40317000  0.75000000  1.0
  C  C71  1  0.00000000  0.29367000  0.75000000  1.0
  C  C72  1  0.00000000  0.27312000  0.25000000  1.0
  C  C73  1  0.00000000  0.38260000  0.25000000  1.0
  C  C74  1  0.00000000  0.59683000  0.25000000  1.0
  C  C75  1  0.00000000  0.70633000  0.25000000  1.0
  C  C76  1  0.72688000  1.00000000  0.00000000  1.0
  C  C77  1  0.61740000  0.00000000  0.00000000  1.0
  C  C78  1  0.40317000  1.00000000  0.00000000  1.0
  C  C79  1  0.29367000  0.00000000  0.00000000  1.0
  C  C80  1  0.27312000  0.00000000  0.50000000  1.0
  C  C81  1  0.38260000  0.00000000  0.50000000  1.0
  C  C82  1  0.59683000  0.00000000  0.50000000  1.0
  C  C83  1  0.70633000  0.00000000  0.50000000  1.0
  N  N84  1  0.00867000  0.88846000  0.79811000  1.0
  N  N85  1  0.98458000  0.13198000  0.70342000  1.0
  N  N86  1  0.99133000  0.11153000  0.29812000  1.0
  N  N87  1  0.01542000  0.86802000  0.20342000  1.0
  N  N88  1  0.88846000  0.99133000  0.04812000  1.0
  N  N89  1  0.13198000  0.01542000  0.95342000  1.0
  N  N90  1  0.11154000  0.00867000  0.54812000  1.0
  N  N91  1  0.86802000  0.98458000  0.45342000  1.0
  N  N92  1  0.00867000  0.11153000  0.20188000  1.0
  N  N93  1  0.98458000  0.86802000  0.29658000  1.0
  N  N94  1  0.99133000  0.88846000  0.70188000  1.0
  N  N95  1  0.01542000  0.13198000  0.79658000  1.0
  N  N96  1  0.88847000  0.00867000  0.95188000  1.0
  N  N97  1  0.13198000  0.98458000  0.04658000  1.0
  N  N98  1  0.11154000  0.99133000  0.45189000  1.0
  N  N99  1  0.86802000  0.01542000  0.54658000  1.0
