# generated using pymatgen
data_H26Pd4Pt(C11O8)2
_symmetry_space_group_name_H-M   'P 1'
_cell_length_a   9.30992000
_cell_length_b   9.62127000
_cell_length_c   10.62490000
_cell_angle_alpha   94.08330000
_cell_angle_beta   114.08300000
_cell_angle_gamma   113.85600000
_symmetry_Int_Tables_number   1
_chemical_formula_structural   H26Pd4Pt(C11O8)2
_chemical_formula_sum   'H26 Pd4 Pt1 C22 O16'
_cell_volume   762.16362165
_cell_formula_units_Z   1
loop_
 _symmetry_equiv_pos_site_id
 _symmetry_equiv_pos_as_xyz
  1  'x, y, z'
loop_
 _atom_site_type_symbol
 _atom_site_label
 _atom_site_symmetry_multiplicity
 _atom_site_fract_x
 _atom_site_fract_y
 _atom_site_fract_z
 _atom_site_occupancy
  H  H0  1  0.10644000  0.42974000  0.83066000  1.0
  H  H1  1  0.89356000  0.57026000  0.16934000  1.0
  H  H2  1  0.11232000  0.34615000  0.67771000  1.0
  H  H3  1  0.88768000  0.65385000  0.32229000  1.0
  H  H4  1  0.29455000  0.40714000  0.85365000  1.0
  H  H5  1  0.70545000  0.59286000  0.14635000  1.0
  H  H6  1  0.96858000  0.07303000  0.59427000  1.0
  H  H7  1  0.03142000  0.92697000  0.40573000  1.0
  H  H8  1  0.66686000  0.67034000  0.55638000  1.0
  H  H9  1  0.33314000  0.32966000  0.44362000  1.0
  H  H10  1  0.87246000  0.71980000  0.55682000  1.0
  H  H11  1  0.12754000  0.28020000  0.44318000  1.0
  H  H12  1  0.74129000  0.80841000  0.46319000  1.0
  H  H13  1  0.25871000  0.19159000  0.53681000  1.0
  H  H14  1  0.55523000  0.21538000  0.53777000  1.0
  H  H15  1  0.44478000  0.78462000  0.46223000  1.0
  H  H16  1  0.76992000  0.33133000  0.55164000  1.0
  H  H17  1  0.23008000  0.66867000  0.44836000  1.0
  H  H18  1  0.72758000  0.15954000  0.61271000  1.0
  H  H19  1  0.27242000  0.84047000  0.38729000  1.0
  H  H20  1  0.61931000  0.47971000  0.70041000  1.0
  H  H21  1  0.38069000  0.52028000  0.29959000  1.0
  H  H22  1  0.84375000  0.50752000  0.79826000  1.0
  H  H23  1  0.15625000  0.49247000  0.20173000  1.0
  H  H24  1  0.74789000  0.57218000  0.88713000  1.0
  H  H25  1  0.25211000  0.42782000  0.11287000  1.0
  Pd  Pd26  1  0.31955000  0.95442000  0.06543000  1.0
  Pd  Pd27  1  0.68045000  0.04557000  0.93457000  1.0
  Pd  Pd28  1  0.34264000  0.04262000  0.83753000  1.0
  Pd  Pd29  1  0.65736000  0.95738000  0.16247000  1.0
  Pt  Pt30  1  0.00000000  0.00000000  0.00000000  1.0
  C  C31  1  0.14817000  0.35280000  0.79052000  1.0
  C  C32  1  0.85183000  0.64720000  0.20948000  1.0
  C  C33  1  0.06492000  0.19239000  0.81051000  1.0
  C  C34  1  0.93508000  0.80761000  0.18949000  1.0
  C  C35  1  0.97774000  0.05498000  0.69666000  1.0
  C  C36  1  0.02226000  0.94502000  0.30334000  1.0
  C  C37  1  0.88164000  0.89778000  0.69522000  1.0
  C  C38  1  0.11836000  0.10222000  0.30478000  1.0
  C  C39  1  0.78329000  0.76703000  0.55866000  1.0
  C  C40  1  0.21671000  0.23297000  0.44134000  1.0
  C  C41  1  0.60513000  0.11469000  0.38304000  1.0
  C  C42  1  0.39487000  0.88532000  0.61696000  1.0
  C  C43  1  0.66704000  0.21047000  0.53072000  1.0
  C  C44  1  0.33296000  0.78953000  0.46928000  1.0
  C  C45  1  0.64544000  0.32166000  0.83034000  1.0
  C  C46  1  0.35456000  0.67834000  0.16966000  1.0
  C  C47  1  0.71898000  0.47884000  0.80086000  1.0
  C  C48  1  0.28102000  0.52116000  0.19914000  1.0
  C  C49  1  0.20970000  0.83574000  0.86265000  1.0
  C  C50  1  0.79030000  0.16426000  0.13735000  1.0
  C  C51  1  0.40917000  0.16436000  0.02880000  1.0
  C  C52  1  0.59083000  0.83564000  0.97121000  1.0
  O  O53  1  0.08339000  0.19598000  0.93836000  1.0
  O  O54  1  0.91661000  0.80402000  0.06163000  1.0
  O  O55  1  0.87197000  0.85056000  0.80360000  1.0
  O  O56  1  0.12803000  0.14944000  0.19640000  1.0
  O  O57  1  0.44587000  0.07403000  0.28800000  1.0
  O  O58  1  0.55413000  0.92597000  0.71200000  1.0
  O  O59  1  0.71837000  0.08373000  0.36588000  1.0
  O  O60  1  0.28164000  0.91627000  0.63412000  1.0
  O  O61  1  0.48069000  0.25814000  0.80019000  1.0
  O  O62  1  0.51931000  0.74186000  0.19981000  1.0
  O  O63  1  0.75287000  0.26577000  0.88416000  1.0
  O  O64  1  0.24713000  0.73423000  0.11584000  1.0
  O  O65  1  0.11981000  0.70272000  0.79196000  1.0
  O  O66  1  0.88018000  0.29728000  0.20804000  1.0
  O  O67  1  0.48364000  0.29790000  0.09524000  1.0
  O  O68  1  0.51636000  0.70209000  0.90476000  1.0
