# generated using pymatgen
data_Al4H30C88Br5N12Cl9O28
_symmetry_space_group_name_H-M   'P 1'
_cell_length_a   6.60444000
_cell_length_b   28.21320000
_cell_length_c   31.79670000
_cell_angle_alpha   101.88370000
_cell_angle_beta   89.94840000
_cell_angle_gamma   89.73560000
_symmetry_Int_Tables_number   1
_chemical_formula_structural   Al4H30C88Br5N12Cl9O28
_chemical_formula_sum   'Al4 H30 C88 Br5 N12 Cl9 O28'
_cell_volume   5797.70122493
_cell_formula_units_Z   1
loop_
 _symmetry_equiv_pos_site_id
 _symmetry_equiv_pos_as_xyz
  1  'x, y, z'
loop_
 _atom_site_type_symbol
 _atom_site_label
 _atom_site_symmetry_multiplicity
 _atom_site_fract_x
 _atom_site_fract_y
 _atom_site_fract_z
 _atom_site_occupancy
  Al  Al0  1  0.89399000  0.50058000  0.49947000  1.0
  Al  Al1  1  0.39436000  0.49791000  0.49781000  1.0
  Al  Al2  1  0.30255000  0.99971000  0.99955000  1.0
  Al  Al3  1  0.80115000  0.00048000  0.00121000  1.0
  H  H4  1  0.84587000  0.42353000  0.37259000  1.0
  H  H5  1  0.40987000  0.36647000  0.40939000  1.0
  H  H6  1  0.75638000  0.16455000  0.18339000  1.0
  H  H7  1  0.74244000  0.09965000  0.11617000  1.0
  H  H8  1  0.38221000  0.11391000  0.09829000  1.0
  H  H9  1  0.39434000  0.18132000  0.16360000  1.0
  H  H10  1  0.70890000  0.22355000  0.67050000  1.0
  H  H11  1  0.49504000  0.27519000  0.82821000  1.0
  H  H12  1  0.28607000  0.04670000  0.88136000  1.0
  H  H13  1  0.28973000  0.09870000  0.82616000  1.0
  H  H14  1  0.42760000  0.37755000  0.56058000  1.0
  H  H15  1  0.86920000  0.44614000  0.61151000  1.0
  H  H16  1  0.20039000  0.83404000  0.27477000  1.0
  H  H17  1  0.21619000  0.77836000  0.32815000  1.0
  H  H18  1  0.93951000  0.66340000  0.37894000  1.0
  H  H19  1  0.94051000  0.60867000  0.43169000  1.0
  H  H20  1  0.33357000  0.56404000  0.39467000  1.0
  H  H21  1  0.33404000  0.61684000  0.34042000  1.0
  H  H22  1  0.85242000  0.94134000  0.10829000  1.0
  H  H23  1  0.25696000  0.88846000  0.06934000  1.0
  H  H24  1  0.27312000  0.83330000  0.12166000  1.0
  H  H25  1  0.36470000  0.63842000  0.69723000  1.0
  H  H26  1  0.87334000  0.70741000  0.65022000  1.0
  H  H27  1  0.27365000  0.84332000  0.81116000  1.0
  H  H28  1  0.25406000  0.90799000  0.87818000  1.0
  H  H29  1  0.86560000  0.87487000  0.90915000  1.0
  H  H30  1  0.65107000  0.44141000  0.50981000  1.0
  H  H31  1  0.15083000  0.55923000  0.52668000  1.0
  H  H32  1  0.55141000  0.05820000  0.98925000  1.0
  H  H33  1  0.05233000  0.93666000  0.99755000  1.0
  C  C34  1  0.63455000  0.55198000  0.44866000  1.0
  C  C35  1  0.64664000  0.56180000  0.56433000  1.0
  C  C36  1  0.15175000  0.44492000  0.54935000  1.0
  C  C37  1  0.13386000  0.43779000  0.43421000  1.0
  C  C38  1  0.96598000  0.39646000  0.36623000  1.0
  C  C39  1  0.96193000  0.35990000  0.32942000  1.0
  C  C40  1  0.11274000  0.32362000  0.32152000  1.0
  C  C41  1  0.27239000  0.32642000  0.35118000  1.0
  C  C42  1  0.28392000  0.36409000  0.38703000  1.0
  C  C43  1  0.12839000  0.39863000  0.39472000  1.0
  C  C44  1  0.08497000  0.21575000  0.21582000  1.0
  C  C45  1  0.10270000  0.28409000  0.28297000  1.0
  C  C46  1  0.89193000  0.15353000  0.16425000  1.0
  C  C47  1  0.88452000  0.11744000  0.12717000  1.0
  C  C48  1  0.06173000  0.10320000  0.10351000  1.0
  C  C49  1  0.24615000  0.12576000  0.11699000  1.0
  C  C50  1  0.25305000  0.16279000  0.15326000  1.0
  C  C51  1  0.07605000  0.17677000  0.17728000  1.0
  C  C52  1  0.26269000  0.33621000  0.71018000  1.0
  C  C53  1  0.99382000  0.28714000  0.66576000  1.0
  C  C54  1  0.97002000  0.25979000  0.70045000  1.0
  C  C55  1  0.10767000  0.26590000  0.73527000  1.0
  C  C56  1  0.26447000  0.30109000  0.73921000  1.0
  C  C57  1  0.81284000  0.22718000  0.69754000  1.0
  C  C58  1  0.78633000  0.19865000  0.72862000  1.0
  C  C59  1  0.92499000  0.20125000  0.76243000  1.0
  C  C60  1  0.08548000  0.23552000  0.76569000  1.0
  C  C61  1  0.22745000  0.24080000  0.79969000  1.0
  C  C62  1  0.38634000  0.27293000  0.80213000  1.0
  C  C63  1  0.40730000  0.30289000  0.77209000  1.0
  C  C64  1  0.91415000  0.16880000  0.79382000  1.0
  C  C65  1  0.20902000  0.21249000  0.83374000  1.0
  C  C66  1  0.92045000  0.15685000  0.89264000  1.0
  C  C67  1  0.91437000  0.12686000  0.92289000  1.0
  C  C68  1  0.04562000  0.08670000  0.91821000  1.0
  C  C69  1  0.18222000  0.07724000  0.88379000  1.0
  C  C70  1  0.18468000  0.10603000  0.85321000  1.0
  C  C71  1  0.05337000  0.14548000  0.85760000  1.0
  C  C72  1  0.29584000  0.35121000  0.61335000  1.0
  C  C73  1  0.30387000  0.38116000  0.58363000  1.0
  C  C74  1  0.14836000  0.41466000  0.58277000  1.0
  C  C75  1  0.98978000  0.41996000  0.61255000  1.0
  C  C76  1  0.98986000  0.39191000  0.64385000  1.0
  C  C77  1  0.14011000  0.35665000  0.64407000  1.0
  C  C78  1  0.72135000  0.78796000  0.16619000  1.0
  C  C79  1  0.44534000  0.83548000  0.21021000  1.0
  C  C80  1  0.45672000  0.80105000  0.23943000  1.0
  C  C81  1  0.61221000  0.76553000  0.23510000  1.0
  C  C82  1  0.75528000  0.76043000  0.20098000  1.0
  C  C83  1  0.31570000  0.80587000  0.27248000  1.0
  C  C84  1  0.32520000  0.77548000  0.30199000  1.0
  C  C85  1  0.47749000  0.74078000  0.29895000  1.0
  C  C86  1  0.62493000  0.73522000  0.26582000  1.0
  C  C87  1  0.78298000  0.70010000  0.26301000  1.0
  C  C88  1  0.93185000  0.69809000  0.23129000  1.0
  C  C89  1  0.91876000  0.72858000  0.20036000  1.0
  C  C90  1  0.48043000  0.71024000  0.33150000  1.0
  C  C91  1  0.78076000  0.66615000  0.29350000  1.0
  C  C92  1  0.80775000  0.64133000  0.38232000  1.0
  C  C93  1  0.80834000  0.61099000  0.41172000  1.0
  C  C94  1  0.63685000  0.58337000  0.41634000  1.0
  C  C95  1  0.46583000  0.58564000  0.39072000  1.0
  C  C96  1  0.46595000  0.61509000  0.36061000  1.0
  C  C97  1  0.63644000  0.64306000  0.35693000  1.0
  C  C98  1  0.73039000  0.88879000  0.14188000  1.0
  C  C99  1  0.72535000  0.91792000  0.11151000  1.0
  C  C100  1  0.55504000  0.91756000  0.08530000  1.0
  C  C101  1  0.38994000  0.88787000  0.08944000  1.0
  C  C102  1  0.39863000  0.85732000  0.11864000  1.0
  C  C103  1  0.56840000  0.85753000  0.14475000  1.0
  C  C104  1  0.49261000  0.60131000  0.63682000  1.0
  C  C105  1  0.47998000  0.63876000  0.67283000  1.0
  C  C106  1  0.61660000  0.67732000  0.67752000  1.0
  C  C107  1  0.76696000  0.67752000  0.64648000  1.0
  C  C108  1  0.77636000  0.63994000  0.61049000  1.0
  C  C109  1  0.63855000  0.60096000  0.60435000  1.0
  C  C110  1  0.58334000  0.78561000  0.78259000  1.0
  C  C111  1  0.59954000  0.71809000  0.71458000  1.0
  C  C112  1  0.40211000  0.85057000  0.83295000  1.0
  C  C113  1  0.39143000  0.88657000  0.86998000  1.0
  C  C114  1  0.55984000  0.89576000  0.89712000  1.0
  C  C115  1  0.73637000  0.86794000  0.88755000  1.0
  C  C116  1  0.74397000  0.83097000  0.85105000  1.0
  C  C117  1  0.57823000  0.82250000  0.82272000  1.0
  C  C118  1  0.55137000  0.93464000  0.93692000  1.0
  C  C119  1  0.55494000  0.94875000  0.05271000  1.0
  C  C120  1  0.05698000  0.06448000  0.06375000  1.0
  C  C121  1  0.04562000  0.05301000  0.94897000  1.0
  Br  Br122  1  0.75218000  0.21185000  0.89856000  1.0
  Br  Br123  1  0.78074000  0.40084000  0.68544000  1.0
  Br  Br124  1  0.15637000  0.65569000  0.22659000  1.0
  Br  Br125  1  0.47538000  0.27745000  0.34363000  1.0
  Br  Br126  1  0.30775000  0.54936000  0.63474000  1.0
  N  N127  1  0.25112000  0.28215000  0.25341000  1.0
  N  N128  1  0.24178000  0.24712000  0.21890000  1.0
  N  N129  1  0.93714000  0.21785000  0.24567000  1.0
  N  N130  1  0.94615000  0.25305000  0.28017000  1.0
  N  N131  1  0.13246000  0.32542000  0.67429000  1.0
  N  N132  1  0.06271000  0.17590000  0.82647000  1.0
  N  N133  1  0.57807000  0.82617000  0.17501000  1.0
  N  N134  1  0.63375000  0.67484000  0.32666000  1.0
  N  N135  1  0.74780000  0.75179000  0.72040000  1.0
  N  N136  1  0.73977000  0.78643000  0.75512000  1.0
  N  N137  1  0.42083000  0.75643000  0.77355000  1.0
  N  N138  1  0.42884000  0.72186000  0.73856000  1.0
  Cl  Cl139  1  0.57812000  0.16155000  0.72155000  1.0
  Cl  Cl140  1  0.61527000  0.33998000  0.77844000  1.0
  Cl  Cl141  1  0.75503000  0.14168000  0.96660000  1.0
  Cl  Cl142  1  0.47845000  0.30728000  0.61204000  1.0
  Cl  Cl143  1  0.77114000  0.36043000  0.29239000  1.0
  Cl  Cl144  1  0.10887000  0.72552000  0.16336000  1.0
  Cl  Cl145  1  0.93621000  0.89135000  0.17551000  1.0
  Cl  Cl146  1  0.95840000  0.64485000  0.57235000  1.0
  Cl  Cl147  1  0.95498000  0.79371000  0.84242000  1.0
  O  O148  1  0.48199000  0.55195000  0.54388000  1.0
  O  O149  1  0.79912000  0.54711000  0.46835000  1.0
  O  O150  1  0.96771000  0.45926000  0.44632000  1.0
  O  O151  1  0.81835000  0.54259000  0.55392000  1.0
  O  O152  1  0.98209000  0.45392000  0.53366000  1.0
  O  O153  1  0.46674000  0.53243000  0.45493000  1.0
  O  O154  1  0.64707000  0.46917000  0.49623000  1.0
  O  O155  1  0.32496000  0.45874000  0.53923000  1.0
  O  O156  1  0.30304000  0.44631000  0.45329000  1.0
  O  O157  1  0.14548000  0.52943000  0.50502000  1.0
  O  O158  1  0.36350000  0.37335000  0.71611000  1.0
  O  O159  1  0.89897000  0.27792000  0.63193000  1.0
  O  O160  1  0.78754000  0.13690000  0.79265000  1.0
  O  O161  1  0.31310000  0.21981000  0.86636000  1.0
  O  O162  1  0.80648000  0.77897000  0.13121000  1.0
  O  O163  1  0.32760000  0.87006000  0.21585000  1.0
  O  O164  1  0.35648000  0.71506000  0.36097000  1.0
  O  O165  1  0.89604000  0.63149000  0.29075000  1.0
  O  O166  1  0.72535000  0.96533000  0.04399000  1.0
  O  O167  1  0.37767000  0.95235000  0.94865000  1.0
  O  O168  1  0.21806000  0.04234000  0.96223000  1.0
  O  O169  1  0.38681000  0.95615000  0.03553000  1.0
  O  O170  1  0.22731000  0.04707000  0.04915000  1.0
  O  O171  1  0.71823000  0.94656000  0.95614000  1.0
  O  O172  1  0.55112000  0.02957000  0.00174000  1.0
  O  O173  1  0.88502000  0.05220000  0.04697000  1.0
  O  O174  1  0.87605000  0.03722000  0.95865000  1.0
  O  O175  1  0.05190000  0.97087000  0.99728000  1.0
