# generated using pymatgen
data_H8Pb(C3O)4
_symmetry_space_group_name_H-M   'P 1'
_cell_length_a   5.28498000
_cell_length_b   7.93589000
_cell_length_c   12.87240000
_cell_angle_alpha   94.27040000
_cell_angle_beta   101.75300000
_cell_angle_gamma   90.11560000
_symmetry_Int_Tables_number   1
_chemical_formula_structural   H8Pb(C3O)4
_chemical_formula_sum   'H16 Pb2 C24 O8'
_cell_volume   527.01377087
_cell_formula_units_Z   2
loop_
 _symmetry_equiv_pos_site_id
 _symmetry_equiv_pos_as_xyz
  1  'x, y, z'
loop_
 _atom_site_type_symbol
 _atom_site_label
 _atom_site_symmetry_multiplicity
 _atom_site_fract_x
 _atom_site_fract_y
 _atom_site_fract_z
 _atom_site_occupancy
  H  H0  1  0.32980000  0.98032000  0.80714000  1.0
  H  H1  1  0.52311000  0.51925000  0.19273000  1.0
  H  H2  1  0.67020000  0.01971000  0.19286000  1.0
  H  H3  1  0.47698000  0.48083000  0.80729000  1.0
  H  H4  1  0.55877000  0.18330000  0.65273000  1.0
  H  H5  1  0.90534000  0.31648000  0.34674000  1.0
  H  H6  1  0.44125000  0.81667000  0.34725000  1.0
  H  H7  1  0.09459000  0.68346000  0.65326000  1.0
  H  H8  1  0.95141000  0.94157000  0.68281000  1.0
  H  H9  1  0.26915000  0.55775000  0.31731000  1.0
  H  H10  1  0.04861000  0.05840000  0.31718000  1.0
  H  H11  1  0.73081000  0.44223000  0.68269000  1.0
  H  H12  1  0.38544000  0.15497000  0.47250000  1.0
  H  H13  1  0.91208000  0.34526000  0.52709000  1.0
  H  H14  1  0.61459000  0.84499000  0.52749000  1.0
  H  H15  1  0.08787000  0.65472000  0.47291000  1.0
  Pb  Pb16  1  0.17247000  0.24972000  0.99942000  1.0
  Pb  Pb17  1  0.82752000  0.75031000  0.00058000  1.0
  C  C18  1  0.69670000  0.12518000  0.85073000  1.0
  C  C19  1  0.84570000  0.37445000  0.14862000  1.0
  C  C20  1  0.30329000  0.87485000  0.14927000  1.0
  C  C21  1  0.15431000  0.62558000  0.85139000  1.0
  C  C22  1  0.45760000  0.06355000  0.77668000  1.0
  C  C23  1  0.68122000  0.43628000  0.22303000  1.0
  C  C24  1  0.54240000  0.93646000  0.22332000  1.0
  C  C25  1  0.31880000  0.56374000  0.77698000  1.0
  C  C26  1  0.41079000  0.10527000  0.67467000  1.0
  C  C27  1  0.73589000  0.39450000  0.32500000  1.0
  C  C28  1  0.58923000  0.89471000  0.32531000  1.0
  C  C29  1  0.26408000  0.60549000  0.67501000  1.0
  C  C30  1  0.19624000  0.05352000  0.58865000  1.0
  C  C31  1  0.60739000  0.44626000  0.41119000  1.0
  C  C32  1  0.80379000  0.94645000  0.41134000  1.0
  C  C33  1  0.39258000  0.55373000  0.58881000  1.0
  C  C34  1  0.97443000  0.96716000  0.60318000  1.0
  C  C35  1  0.37149000  0.53237000  0.39690000  1.0
  C  C36  1  0.02559000  0.03281000  0.39681000  1.0
  C  C37  1  0.62847000  0.46762000  0.60311000  1.0
  C  C38  1  0.21559000  0.08662000  0.48414000  1.0
  C  C39  1  0.73098000  0.41354000  0.51567000  1.0
  C  C40  1  0.78444000  0.91335000  0.51585000  1.0
  C  C41  1  0.26898000  0.58645000  0.48433000  1.0
  O  O42  1  0.84614000  0.23207000  0.82295000  1.0
  O  O43  1  0.02317000  0.26827000  0.17643000  1.0
  O  O44  1  0.15386000  0.76795000  0.17704000  1.0
  O  O45  1  0.97681000  0.73172000  0.82356000  1.0
  O  O46  1  0.74877000  0.06995000  0.94478000  1.0
  O  O47  1  0.80278000  0.42858000  0.05427000  1.0
  O  O48  1  0.25121000  0.93009000  0.05522000  1.0
  O  O49  1  0.19729000  0.57149000  0.94575000  1.0
