# generated using pymatgen
data_ZnH10C4SN2O3
_symmetry_space_group_name_H-M   'P 1'
_cell_length_a   7.27440000
_cell_length_b   8.27602000
_cell_length_c   12.13760000
_cell_angle_alpha   90.00000000
_cell_angle_beta   90.00000000
_cell_angle_gamma   90.00000000
_symmetry_Int_Tables_number   1
_chemical_formula_structural   ZnH10C4SN2O3
_chemical_formula_sum   'Zn4 H40 C16 S4 N8 O12'
_cell_volume   730.72090245
_cell_formula_units_Z   4
loop_
 _symmetry_equiv_pos_site_id
 _symmetry_equiv_pos_as_xyz
  1  'x, y, z'
loop_
 _atom_site_type_symbol
 _atom_site_label
 _atom_site_symmetry_multiplicity
 _atom_site_fract_x
 _atom_site_fract_y
 _atom_site_fract_z
 _atom_site_occupancy
  Zn  Zn0  1  0.08841000  0.63659000  0.01358000  1.0
  Zn  Zn1  1  0.41159000  0.36341000  0.51358000  1.0
  Zn  Zn2  1  0.91160000  0.13659000  0.48642000  1.0
  Zn  Zn3  1  0.58841000  0.86341000  0.98643000  1.0
  H  H4  1  0.37268000  0.61237000  0.13168000  1.0
  H  H5  1  0.12732000  0.38763000  0.63167000  1.0
  H  H6  1  0.62732000  0.11237000  0.36833000  1.0
  H  H7  1  0.87268000  0.88763000  0.86833000  1.0
  H  H8  1  0.42129000  0.64989000  0.34878000  1.0
  H  H9  1  0.07871000  0.35011000  0.84878000  1.0
  H  H10  1  0.57871000  0.14989000  0.15122000  1.0
  H  H11  1  0.92129000  0.85011000  0.65122000  1.0
  H  H12  1  0.21518000  0.66962000  0.42535000  1.0
  H  H13  1  0.28482000  0.33038000  0.92535000  1.0
  H  H14  1  0.78482000  0.16962000  0.07465000  1.0
  H  H15  1  0.71517000  0.83038000  0.57465000  1.0
  H  H16  1  0.02557000  0.62114000  0.25976000  1.0
  H  H17  1  0.47443000  0.37886000  0.75976000  1.0
  H  H18  1  0.97443000  0.12114000  0.24024000  1.0
  H  H19  1  0.52557000  0.87886000  0.74024000  1.0
  H  H20  1  0.17835000  0.78744000  0.23670000  1.0
  H  H21  1  0.32165000  0.21256000  0.73671000  1.0
  H  H22  1  0.82165000  0.28744000  0.26329000  1.0
  H  H23  1  0.67835000  0.71256000  0.76329000  1.0
  H  H24  1  0.33096000  0.21742000  0.28553000  1.0
  H  H25  1  0.16905000  0.78258000  0.78553000  1.0
  H  H26  1  0.66904000  0.71742000  0.21447000  1.0
  H  H27  1  0.83096000  0.28258000  0.71447000  1.0
  H  H28  1  0.49474000  0.37659000  0.26616000  1.0
  H  H29  1  0.00526000  0.62341000  0.76616000  1.0
  H  H30  1  0.50526000  0.87659000  0.23384000  1.0
  H  H31  1  0.99474000  0.12341000  0.73384000  1.0
  H  H32  1  0.31549000  0.34050000  0.09769000  1.0
  H  H33  1  0.18451000  0.65950000  0.59769000  1.0
  H  H34  1  0.68451000  0.84050000  0.40231000  1.0
  H  H35  1  0.81549000  0.15950000  0.90231000  1.0
  H  H36  1  0.10372000  0.35394000  0.16901000  1.0
  H  H37  1  0.39628000  0.64606000  0.66901000  1.0
  H  H38  1  0.89628000  0.85394000  0.33099000  1.0
  H  H39  1  0.60372000  0.14606000  0.83099000  1.0
  H  H40  1  0.14630000  0.39749000  0.39063000  1.0
  H  H41  1  0.35370000  0.60251000  0.89063000  1.0
  H  H42  1  0.85370000  0.89749000  0.10937000  1.0
  H  H43  1  0.64630000  0.10251000  0.60937000  1.0
  C  C44  1  0.27737000  0.61033000  0.35373000  1.0
  C  C45  1  0.22263000  0.38967000  0.85373000  1.0
  C  C46  1  0.72263000  0.11033000  0.14627000  1.0
  C  C47  1  0.77737000  0.88967000  0.64627000  1.0
  C  C48  1  0.17078000  0.65649000  0.25068000  1.0
  C  C49  1  0.32922000  0.34351000  0.75068000  1.0
  C  C50  1  0.82922000  0.15649000  0.24932000  1.0
  C  C51  1  0.67078000  0.84351000  0.74932000  1.0
  C  C52  1  0.34750000  0.34789000  0.27291000  1.0
  C  C53  1  0.15250000  0.65211000  0.77291000  1.0
  C  C54  1  0.65250000  0.84789000  0.22709000  1.0
  C  C55  1  0.84750000  0.15211000  0.72709000  1.0
  C  C56  1  0.24652000  0.39686000  0.16816000  1.0
  C  C57  1  0.25348000  0.60314000  0.66816000  1.0
  C  C58  1  0.75348000  0.89686000  0.33184000  1.0
  C  C59  1  0.74652000  0.10314000  0.83184000  1.0
  S  S60  1  0.19654000  0.01164000  0.01340000  1.0
  S  S61  1  0.30346000  0.98836000  0.51340000  1.0
  S  S62  1  0.80346000  0.51164000  0.48660000  1.0
  S  S63  1  0.69654000  0.48836000  0.98660000  1.0
  N  N64  1  0.24154000  0.57421000  0.15075000  1.0
  N  N65  1  0.25846000  0.42579000  0.65075000  1.0
  N  N66  1  0.75846000  0.07421000  0.34925000  1.0
  N  N67  1  0.74154000  0.92579000  0.84925000  1.0
  N  N68  1  0.27922000  0.43315000  0.37238000  1.0
  N  N69  1  0.22078000  0.56685000  0.87238000  1.0
  N  N70  1  0.72078000  0.93315000  0.12762000  1.0
  N  N71  1  0.77923000  0.06685000  0.62762000  1.0
  O  O72  1  0.04753000  0.87241000  0.99826000  1.0
  O  O73  1  0.45247000  0.12759000  0.49826000  1.0
  O  O74  1  0.95247000  0.37241000  0.50174000  1.0
  O  O75  1  0.54753000  0.62759000  0.00174000  1.0
  O  O76  1  0.35584000  0.95900000  0.93512000  1.0
  O  O77  1  0.14416000  0.04100000  0.43512000  1.0
  O  O78  1  0.64416000  0.45900000  0.56488000  1.0
  O  O79  1  0.85584000  0.54099000  0.06488000  1.0
  O  O80  1  0.26724000  0.99650000  0.12895000  1.0
  O  O81  1  0.23276000  0.00350000  0.62895000  1.0
  O  O82  1  0.73276000  0.49650000  0.37105000  1.0
  O  O83  1  0.76724000  0.50350000  0.87105000  1.0
