# generated using pymatgen
data_NdH21(C6O5)2
_symmetry_space_group_name_H-M   'P 1'
_cell_length_a   8.62028000
_cell_length_b   9.84757000
_cell_length_c   11.80430000
_cell_angle_alpha   74.96830000
_cell_angle_beta   69.29120000
_cell_angle_gamma   86.59190000
_symmetry_Int_Tables_number   1
_chemical_formula_structural   NdH21(C6O5)2
_chemical_formula_sum   'Nd2 H42 C24 O20'
_cell_volume   904.66010985
_cell_formula_units_Z   2
loop_
 _symmetry_equiv_pos_site_id
 _symmetry_equiv_pos_as_xyz
  1  'x, y, z'
loop_
 _atom_site_type_symbol
 _atom_site_label
 _atom_site_symmetry_multiplicity
 _atom_site_fract_x
 _atom_site_fract_y
 _atom_site_fract_z
 _atom_site_occupancy
  Nd  Nd0  1  0.75169000  0.48597000  0.50169000  1.0
  Nd  Nd1  1  0.24831000  0.51403000  0.49831000  1.0
  H  H2  1  0.22987000  0.27575000  0.86118000  1.0
  H  H3  1  0.77013000  0.72425000  0.13882000  1.0
  H  H4  1  0.19269000  0.45578000  0.83587000  1.0
  H  H5  1  0.80731000  0.54422000  0.16413000  1.0
  H  H6  1  0.39495000  0.47393000  0.95171000  1.0
  H  H7  1  0.60504000  0.52606000  0.04830000  1.0
  H  H8  1  0.39244000  0.28908000  0.99484000  1.0
  H  H9  1  0.60756000  0.71092000  0.00516000  1.0
  H  H10  1  0.08964000  0.47337000  0.05861000  1.0
  H  H11  1  0.91035000  0.52662000  0.94139000  1.0
  H  H12  1  0.07830000  0.28817000  0.10390000  1.0
  H  H13  1  0.92170000  0.71183000  0.89611000  1.0
  H  H14  1  0.29575000  0.46739000  0.17256000  1.0
  H  H15  1  0.70424000  0.53261000  0.82744000  1.0
  H  H16  1  0.25309000  0.28489000  0.23281000  1.0
  H  H17  1  0.74690000  0.71511000  0.76720000  1.0
  H  H18  1  0.70546000  0.97252000  0.55204000  1.0
  H  H19  1  0.29454000  0.02749000  0.44796000  1.0
  H  H20  1  0.69896000  0.97850000  0.70217000  1.0
  H  H21  1  0.30103000  0.02150000  0.29782000  1.0
  H  H22  1  0.95236000  0.86085000  0.60137000  1.0
  H  H23  1  0.04763000  0.13916000  0.39863000  1.0
  H  H24  1  0.00662000  0.01973000  0.62303000  1.0
  H  H25  1  0.99338000  0.98028000  0.37697000  1.0
  H  H26  1  0.96967000  0.69836000  0.25695000  1.0
  H  H27  1  0.03033000  0.30163000  0.74305000  1.0
  H  H28  1  0.52716000  0.74774000  0.52166000  1.0
  H  H29  1  0.47283000  0.25226000  0.47834000  1.0
  H  H30  1  0.55366000  0.70057000  0.64995000  1.0
  H  H31  1  0.44634000  0.29943000  0.35005000  1.0
  H  H32  1  0.98028000  0.73965000  0.37163000  1.0
  H  H33  1  0.01972000  0.26035000  0.62836000  1.0
  H  H34  1  0.74832000  0.94297000  0.98235000  1.0
  H  H35  1  0.25169000  0.05703000  0.01765000  1.0
  H  H36  1  0.65452000  0.02267000  0.10488000  1.0
  H  H37  1  0.34549000  0.97734000  0.89512000  1.0
  H  H38  1  0.94566000  0.10846000  0.07853000  1.0
  H  H39  1  0.05435000  0.89153000  0.92148000  1.0
  H  H40  1  0.90353000  0.92532000  0.13771000  1.0
  H  H41  1  0.09647000  0.07468000  0.86229000  1.0
  H  H42  1  0.62860000  0.26261000  0.82918000  1.0
  H  H43  1  0.37141000  0.73740000  0.17082000  1.0
  C  C44  1  0.43530000  0.40882000  0.73475000  1.0
  C  C45  1  0.56469000  0.59117000  0.26525000  1.0
  C  C46  1  0.28444000  0.37805000  0.85252000  1.0
  C  C47  1  0.71556000  0.62195000  0.14748000  1.0
  C  C48  1  0.31812000  0.37941000  0.97078000  1.0
  C  C49  1  0.68187000  0.62059000  0.02922000  1.0
  C  C50  1  0.16000000  0.38024000  0.08230000  1.0
  C  C51  1  0.84000000  0.61976000  0.91771000  1.0
  C  C52  1  0.20063000  0.38480000  0.19680000  1.0
  C  C53  1  0.79936000  0.61520000  0.80320000  1.0
  C  C54  1  0.05558000  0.41303000  0.30461000  1.0
  C  C55  1  0.94441000  0.58697000  0.69539000  1.0
  C  C56  1  0.74949000  0.17587000  0.57175000  1.0
  C  C57  1  0.25050000  0.82414000  0.42825000  1.0
  C  C58  1  0.76790000  0.01822000  0.60080000  1.0
  C  C59  1  0.23210000  0.98178000  0.39920000  1.0
  C  C60  1  0.94909000  0.97583000  0.56995000  1.0
  C  C61  1  0.05092000  0.02418000  0.43005000  1.0
  C  C62  1  0.76099000  0.16646000  0.92854000  1.0
  C  C63  1  0.23904000  0.83355000  0.07145000  1.0
  C  C64  1  0.76648000  0.02900000  0.02085000  1.0
  C  C65  1  0.23354000  0.97100000  0.97915000  1.0
  C  C66  1  0.92370000  0.01280000  0.05356000  1.0
  C  C67  1  0.07631000  0.98720000  0.94644000  1.0
  O  O68  1  0.58189000  0.39787000  0.73939000  1.0
  O  O69  1  0.41810000  0.60213000  0.26061000  1.0
  O  O70  1  0.41938000  0.45067000  0.62779000  1.0
  O  O71  1  0.58061000  0.54933000  0.37221000  1.0
  O  O72  1  0.90820000  0.40512000  0.30726000  1.0
  O  O73  1  0.09179000  0.59488000  0.69274000  1.0
  O  O74  1  0.08395000  0.44659000  0.39404000  1.0
  O  O75  1  0.91605000  0.55342000  0.60596000  1.0
  O  O76  1  0.85060000  0.25226000  0.58836000  1.0
  O  O77  1  0.14940000  0.74775000  0.41164000  1.0
  O  O78  1  0.63547000  0.23461000  0.53268000  1.0
  O  O79  1  0.36452000  0.76539000  0.46732000  1.0
  O  O80  1  0.89884000  0.70708000  0.34081000  1.0
  O  O81  1  0.10117000  0.29292000  0.65918000  1.0
  O  O82  1  0.61247000  0.71358000  0.56066000  1.0
  O  O83  1  0.38753000  0.28642000  0.43934000  1.0
  O  O84  1  0.63687000  0.16679000  0.88594000  1.0
  O  O85  1  0.36314000  0.83321000  0.11407000  1.0
  O  O86  1  0.85813000  0.26800000  0.89733000  1.0
  O  O87  1  0.14188000  0.73199000  0.10268000  1.0
