# generated using pymatgen
data_SmH16C24N2O7
_symmetry_space_group_name_H-M   'P 1'
_cell_length_a   10.21430000
_cell_length_b   10.84160000
_cell_length_c   11.38470000
_cell_angle_alpha   107.64000000
_cell_angle_beta   92.85300000
_cell_angle_gamma   111.82500000
_symmetry_Int_Tables_number   1
_chemical_formula_structural   SmH16C24N2O7
_chemical_formula_sum   'Sm2 H32 C48 N4 O14'
_cell_volume   1096.37654905
_cell_formula_units_Z   2
loop_
 _symmetry_equiv_pos_site_id
 _symmetry_equiv_pos_as_xyz
  1  'x, y, z'
loop_
 _atom_site_type_symbol
 _atom_site_label
 _atom_site_symmetry_multiplicity
 _atom_site_fract_x
 _atom_site_fract_y
 _atom_site_fract_z
 _atom_site_occupancy
  Sm  Sm0  1  0.58611000  0.49614000  0.32609000  1.0
  Sm  Sm1  1  0.41388000  0.50386000  0.67391000  1.0
  H  H2  1  0.39828000  0.42984000  0.06650000  1.0
  H  H3  1  0.60172000  0.57016000  0.93350000  1.0
  H  H4  1  0.53422000  0.57797000  0.11089000  1.0
  H  H5  1  0.46578000  0.42203000  0.88911000  1.0
  H  H6  1  0.97393000  0.86354000  0.39571000  1.0
  H  H7  1  0.02607000  0.13646000  0.60430000  1.0
  H  H8  1  0.84755000  0.93920000  0.06783000  1.0
  H  H9  1  0.15245000  0.06081000  0.93218000  1.0
  H  H10  1  0.62079000  0.08169000  0.33649000  1.0
  H  H11  1  0.37921000  0.91831000  0.66351000  1.0
  H  H12  1  0.42608000  0.16311000  0.65990000  1.0
  H  H13  1  0.57392000  0.83689000  0.34010000  1.0
  H  H14  1  0.18682000  0.09648000  0.46553000  1.0
  H  H15  1  0.81318000  0.90352000  0.53448000  1.0
  H  H16  1  0.06439000  0.16792000  0.13292000  1.0
  H  H17  1  0.93560000  0.83208000  0.86708000  1.0
  H  H18  1  0.39594000  0.20042000  0.07038000  1.0
  H  H19  1  0.60406000  0.79957000  0.92962000  1.0
  H  H20  1  0.41494000  0.04537000  0.86467000  1.0
  H  H21  1  0.58506000  0.95463000  0.13533000  1.0
  H  H22  1  0.65950000  0.08080000  0.81173000  1.0
  H  H23  1  0.34050000  0.91920000  0.18827000  1.0
  H  H24  1  0.92654000  0.21108000  0.87947000  1.0
  H  H25  1  0.07347000  0.78892000  0.12054000  1.0
  H  H26  1  0.13706000  0.38523000  0.04417000  1.0
  H  H27  1  0.86294000  0.61478000  0.95584000  1.0
  H  H28  1  0.23656000  0.55984000  0.26446000  1.0
  H  H29  1  0.76344000  0.44017000  0.73554000  1.0
  H  H30  1  0.18618000  0.68824000  0.46968000  1.0
  H  H31  1  0.81382000  0.31176000  0.53032000  1.0
  H  H32  1  0.93253000  0.64651000  0.49180000  1.0
  H  H33  1  0.06747000  0.35349000  0.50819000  1.0
  C  C34  1  0.76596000  0.75143000  0.19401000  1.0
  C  C35  1  0.23404000  0.24857000  0.80599000  1.0
  C  C36  1  0.89633000  0.88846000  0.22928000  1.0
  C  C37  1  0.10367000  0.11154000  0.77072000  1.0
  C  C38  1  0.99398000  0.93204000  0.33984000  1.0
  C  C39  1  0.00603000  0.06797000  0.66016000  1.0
  C  C40  1  0.92239000  0.97409000  0.15470000  1.0
  C  C41  1  0.07761000  0.02591000  0.84530000  1.0
  C  C42  1  0.55122000  0.27946000  0.49544000  1.0
  C  C43  1  0.44878000  0.72054000  0.50456000  1.0
  C  C44  1  0.52540000  0.13482000  0.49753000  1.0
  C  C45  1  0.47460000  0.86517000  0.50247000  1.0
  C  C46  1  0.56771000  0.04401000  0.40725000  1.0
  C  C47  1  0.43229000  0.95599000  0.59275000  1.0
  C  C48  1  0.45767000  0.09040000  0.59059000  1.0
  C  C49  1  0.54233000  0.90960000  0.40941000  1.0
  C  C50  1  0.26694000  0.28576000  0.34742000  1.0
  C  C51  1  0.73306000  0.71424000  0.65258000  1.0
  C  C52  1  0.13773000  0.14719000  0.30417000  1.0
  C  C53  1  0.86227000  0.85281000  0.69583000  1.0
  C  C54  1  0.11266000  0.06107000  0.37811000  1.0
  C  C55  1  0.88734000  0.93893000  0.62189000  1.0
  C  C56  1  0.04339000  0.10166000  0.19104000  1.0
  C  C57  1  0.95661000  0.89833000  0.80896000  1.0
  C  C58  1  0.50041000  0.21098000  0.04572000  1.0
  C  C59  1  0.49959000  0.78901000  0.95428000  1.0
  C  C60  1  0.51221000  0.12484000  0.93003000  1.0
  C  C61  1  0.48779000  0.87515000  0.06997000  1.0
  C  C62  1  0.64663000  0.14446000  0.90147000  1.0
  C  C63  1  0.35337000  0.85553000  0.09853000  1.0
  C  C64  1  0.76946000  0.24786000  0.99076000  1.0
  C  C65  1  0.23054000  0.75215000  0.00924000  1.0
  C  C66  1  0.74731000  0.32799000  0.10639000  1.0
  C  C67  1  0.25269000  0.67201000  0.89361000  1.0
  C  C68  1  0.91248000  0.27255000  0.96956000  1.0
  C  C69  1  0.08752000  0.72746000  0.03044000  1.0
  C  C70  1  0.02845000  0.36875000  0.06043000  1.0
  C  C71  1  0.97155000  0.63125000  0.93957000  1.0
  C  C72  1  0.01019000  0.44783000  0.17974000  1.0
  C  C73  1  0.98981000  0.55217000  0.82026000  1.0
  C  C74  1  0.86951000  0.42897000  0.20288000  1.0
  C  C75  1  0.13049000  0.57103000  0.79712000  1.0
  C  C76  1  0.12713000  0.54402000  0.27797000  1.0
  C  C77  1  0.87287000  0.45597000  0.72203000  1.0
  C  C78  1  0.09994000  0.61481000  0.39081000  1.0
  C  C79  1  0.90006000  0.38520000  0.60919000  1.0
  C  C80  1  0.95749000  0.59086000  0.40461000  1.0
  C  C81  1  0.04251000  0.40914000  0.59539000  1.0
  N  N82  1  0.61379000  0.31087000  0.13075000  1.0
  N  N83  1  0.38621000  0.68913000  0.86925000  1.0
  N  N84  1  0.84515000  0.50103000  0.31395000  1.0
  N  N85  1  0.15485000  0.49897000  0.68605000  1.0
  O  O86  1  0.68875000  0.70097000  0.08557000  1.0
  O  O87  1  0.31125000  0.29903000  0.91444000  1.0
  O  O88  1  0.73912000  0.69465000  0.27811000  1.0
  O  O89  1  0.26088000  0.30535000  0.72190000  1.0
  O  O90  1  0.58668000  0.30798000  0.39831000  1.0
  O  O91  1  0.41332000  0.69201000  0.60168000  1.0
  O  O92  1  0.53639000  0.36491000  0.59307000  1.0
  O  O93  1  0.46361000  0.63509000  0.40692000  1.0
  O  O94  1  0.34133000  0.31766000  0.26653000  1.0
  O  O95  1  0.65867000  0.68234000  0.73347000  1.0
  O  O96  1  0.29492000  0.36103000  0.46325000  1.0
  O  O97  1  0.70509000  0.63898000  0.53674000  1.0
  O  O98  1  0.46006000  0.51030000  0.14109000  1.0
  O  O99  1  0.53994000  0.48970000  0.85891000  1.0
