# generated using pymatgen
data_Fe3H14C12(NO4)4
_symmetry_space_group_name_H-M   'P 1'
_cell_length_a   7.36682000
_cell_length_b   8.51336000
_cell_length_c   8.92807000
_cell_angle_alpha   114.79600000
_cell_angle_beta   107.37000000
_cell_angle_gamma   95.74650000
_symmetry_Int_Tables_number   1
_chemical_formula_structural   Fe3H14C12(NO4)4
_chemical_formula_sum   'Fe3 H14 C12 N4 O16'
_cell_volume   468.43886802
_cell_formula_units_Z   1
loop_
 _symmetry_equiv_pos_site_id
 _symmetry_equiv_pos_as_xyz
  1  'x, y, z'
loop_
 _atom_site_type_symbol
 _atom_site_label
 _atom_site_symmetry_multiplicity
 _atom_site_fract_x
 _atom_site_fract_y
 _atom_site_fract_z
 _atom_site_occupancy
  Fe  Fe0  1  0.12496000  0.24747000  0.77154000  1.0
  Fe  Fe1  1  0.87433000  0.75181000  0.23640000  1.0
  Fe  Fe2  1  0.00395000  0.00101000  0.00151000  1.0
  H  H3  1  0.33683000  0.61288000  0.51224000  1.0
  H  H4  1  0.65739000  0.39277000  0.48671000  1.0
  H  H5  1  0.52717000  0.36574000  0.84856000  1.0
  H  H6  1  0.48803000  0.63216000  0.15267000  1.0
  H  H7  1  0.48882000  0.25198000  0.94398000  1.0
  H  H8  1  0.52786000  0.74506000  0.05666000  1.0
  H  H9  1  0.74517000  0.28573000  0.70707000  1.0
  H  H10  1  0.23665000  0.69934000  0.28331000  1.0
  H  H11  1  0.76010000  0.11213000  0.54763000  1.0
  H  H12  1  0.23001000  0.87732000  0.44628000  1.0
  H  H13  1  0.25909000  0.90680000  0.17616000  1.0
  H  H14  1  0.73730000  0.08128000  0.81771000  1.0
  H  H15  1  0.31108000  0.87892000  0.00637000  1.0
  H  H16  1  0.70019000  0.12318000  0.99752000  1.0
  C  C17  1  0.25647000  0.57941000  0.78808000  1.0
  C  C18  1  0.74159000  0.42814000  0.21371000  1.0
  C  C19  1  0.20244000  0.44711000  0.59844000  1.0
  C  C20  1  0.78204000  0.56084000  0.39844000  1.0
  C  C21  1  0.24823000  0.48298000  0.47519000  1.0
  C  C22  1  0.74428000  0.52366000  0.52449000  1.0
  C  C23  1  0.17917000  0.34293000  0.30232000  1.0
  C  C24  1  0.82117000  0.66015000  0.69916000  1.0
  C  C25  1  0.22027000  0.37050000  0.16294000  1.0
  C  C26  1  0.78388000  0.63053000  0.84077000  1.0
  C  C27  1  0.01807000  0.15283000  0.37784000  1.0
  C  C28  1  0.98054000  0.84866000  0.61958000  1.0
  N  N29  1  0.09977000  0.28226000  0.55205000  1.0
  N  N30  1  0.88392000  0.72662000  0.44191000  1.0
  N  N31  1  0.06402000  0.17821000  0.24957000  1.0
  N  N32  1  0.94031000  0.82161000  0.74921000  1.0
  O  O33  1  0.18463000  0.52401000  0.87722000  1.0
  O  O34  1  0.81930000  0.48955000  0.12993000  1.0
  O  O35  1  0.36710000  0.73458000  0.85195000  1.0
  O  O36  1  0.64454000  0.26755000  0.14825000  1.0
  O  O37  1  0.32072000  0.52049000  0.20092000  1.0
  O  O38  1  0.68050000  0.48038000  0.79801000  1.0
  O  O39  1  0.14325000  0.23325000  0.00453000  1.0
  O  O40  1  0.86409000  0.76509000  0.00117000  1.0
  O  O41  1  0.89406000  0.01360000  0.34174000  1.0
  O  O42  1  0.11031000  0.98539000  0.65901000  1.0
  O  O43  1  0.42959000  0.26879000  0.83850000  1.0
  O  O44  1  0.58244000  0.73428000  0.16684000  1.0
  O  O45  1  0.79194000  0.17380000  0.67677000  1.0
  O  O46  1  0.18559000  0.80999000  0.31586000  1.0
  O  O47  1  0.27022000  0.96378000  0.10206000  1.0
  O  O48  1  0.73665000  0.03346000  0.90121000  1.0
