# generated using pymatgen
data_CuP2H18C20(NO2)4
_symmetry_space_group_name_H-M   'P 1'
_cell_length_a   7.79965000
_cell_length_b   10.98470000
_cell_length_c   14.31800000
_cell_angle_alpha   90.00000000
_cell_angle_beta   90.00000000
_cell_angle_gamma   90.66100000
_symmetry_Int_Tables_number   1
_chemical_formula_structural   CuP2H18C20(NO2)4
_chemical_formula_sum   'Cu2 P4 H36 C40 N8 O16'
_cell_volume   1226.63900873
_cell_formula_units_Z   2
loop_
 _symmetry_equiv_pos_site_id
 _symmetry_equiv_pos_as_xyz
  1  'x, y, z'
loop_
 _atom_site_type_symbol
 _atom_site_label
 _atom_site_symmetry_multiplicity
 _atom_site_fract_x
 _atom_site_fract_y
 _atom_site_fract_z
 _atom_site_occupancy
  Cu  Cu0  1  0.99999000  0.50000000  0.00000000  1.0
  Cu  Cu1  1  0.50000000  0.00000000  0.50000000  1.0
  P  P2  1  0.81679000  0.54427000  0.19066000  1.0
  P  P3  1  0.68320000  0.95573000  0.69065000  1.0
  P  P4  1  0.18320000  0.45573000  0.80935000  1.0
  P  P5  1  0.31680000  0.04427000  0.30935000  1.0
  H  H6  1  0.98088000  0.67446000  0.26574000  1.0
  H  H7  1  0.51912000  0.82553000  0.76575000  1.0
  H  H8  1  0.01912000  0.32555000  0.73425000  1.0
  H  H9  1  0.48089000  0.17447000  0.23426000  1.0
  H  H10  1  0.69703000  0.79921000  0.22380000  1.0
  H  H11  1  0.80297000  0.70079000  0.72379000  1.0
  H  H12  1  0.30297000  0.20079000  0.77620000  1.0
  H  H13  1  0.19703000  0.29921000  0.27621000  1.0
  H  H14  1  0.51731000  0.93809000  0.12688000  1.0
  H  H15  1  0.98269000  0.56192000  0.62689000  1.0
  H  H16  1  0.48269000  0.06191000  0.87310000  1.0
  H  H17  1  0.01731000  0.43809000  0.37311000  1.0
  H  H18  1  0.42255000  0.86490000  0.96742000  1.0
  H  H19  1  0.07745000  0.63510000  0.46741000  1.0
  H  H20  1  0.57745000  0.13509000  0.03258000  1.0
  H  H21  1  0.92255000  0.36490000  0.53259000  1.0
  H  H22  1  0.50691000  0.65413000  0.91484000  1.0
  H  H23  1  0.99308000  0.84586000  0.41484000  1.0
  H  H24  1  0.49308000  0.34585000  0.08516000  1.0
  H  H25  1  0.00692000  0.15414000  0.58516000  1.0
  H  H26  1  0.09541000  0.31554000  0.13410000  1.0
  H  H27  1  0.40460000  0.18446000  0.63411000  1.0
  H  H28  1  0.90459000  0.68446000  0.86590000  1.0
  H  H29  1  0.59540000  0.81554000  0.36589000  1.0
  H  H30  1  0.11814000  0.09009000  0.13664000  1.0
  H  H31  1  0.38188000  0.40991000  0.63664000  1.0
  H  H32  1  0.88188000  0.90991000  0.86336000  1.0
  H  H33  1  0.61813000  0.59009000  0.36336000  1.0
  H  H34  1  0.85204000  0.08798000  0.86941000  1.0
  H  H35  1  0.64797000  0.41201000  0.36942000  1.0
  H  H36  1  0.14798000  0.91202000  0.13059000  1.0
  H  H37  1  0.35204000  0.58798000  0.63059000  1.0
  H  H38  1  0.83428000  0.31081000  0.88358000  1.0
  H  H39  1  0.66572000  0.18919000  0.38358000  1.0
  H  H40  1  0.16571000  0.68919000  0.11643000  1.0
  H  H41  1  0.33428000  0.81081000  0.61642000  1.0
  C  C42  1  0.69670000  0.65617000  0.12299000  1.0
  C  C43  1  0.80328000  0.84383000  0.62298000  1.0
  C  C44  1  0.30328000  0.34383000  0.87702000  1.0
  C  C45  1  0.19672000  0.15617000  0.37702000  1.0
  C  C46  1  0.65218000  0.77129000  0.15503000  1.0
  C  C47  1  0.84782000  0.72872000  0.65503000  1.0
  C  C48  1  0.34781000  0.22872000  0.84497000  1.0
  C  C49  1  0.15219000  0.27129000  0.34497000  1.0
  C  C50  1  0.55389000  0.84907000  0.10050000  1.0
  C  C51  1  0.94611000  0.65094000  0.60050000  1.0
  C  C52  1  0.44610000  0.15093000  0.89949000  1.0
  C  C53  1  0.05390000  0.34907000  0.39950000  1.0
  C  C54  1  0.50043000  0.80832000  0.01267000  1.0
  C  C55  1  0.99957000  0.69168000  0.51266000  1.0
  C  C56  1  0.49956000  0.19167000  0.98733000  1.0
  C  C57  1  0.00044000  0.30833000  0.48734000  1.0
  C  C58  1  0.54557000  0.69411000  0.98126000  1.0
  C  C59  1  0.95443000  0.80589000  0.48125000  1.0
  C  C60  1  0.45443000  0.30589000  0.01874000  1.0
  C  C61  1  0.04558000  0.19411000  0.51874000  1.0
  C  C62  1  0.04317000  0.25955000  0.07801000  1.0
  C  C63  1  0.45684000  0.24045000  0.57801000  1.0
  C  C64  1  0.95683000  0.74046000  0.92199000  1.0
  C  C65  1  0.54316000  0.75954000  0.42199000  1.0
  C  C66  1  0.05473000  0.13375000  0.07818000  1.0
  C  C67  1  0.44528000  0.36625000  0.57818000  1.0
  C  C68  1  0.94529000  0.86625000  0.92182000  1.0
  C  C69  1  0.55472000  0.63375000  0.42182000  1.0
  C  C70  1  0.99018000  0.06670000  0.00227000  1.0
  C  C71  1  0.50983000  0.43330000  0.50228000  1.0
  C  C72  1  0.00984000  0.93330000  0.99772000  1.0
  C  C73  1  0.49017000  0.56670000  0.49773000  1.0
  C  C74  1  0.90704000  0.13156000  0.93119000  1.0
  C  C75  1  0.59296000  0.36844000  0.43119000  1.0
  C  C76  1  0.09296000  0.86844000  0.06881000  1.0
  C  C77  1  0.40704000  0.63156000  0.56881000  1.0
  C  C78  1  0.89786000  0.25730000  0.93704000  1.0
  C  C79  1  0.60214000  0.24269000  0.43705000  1.0
  C  C80  1  0.10214000  0.74270000  0.06296000  1.0
  C  C81  1  0.39786000  0.75730000  0.56296000  1.0
  N  N82  1  0.64490000  0.62029000  0.03514000  1.0
  N  N83  1  0.85509000  0.87971000  0.53513000  1.0
  N  N84  1  0.35509000  0.37970000  0.96487000  1.0
  N  N85  1  0.14491000  0.12029000  0.46486000  1.0
  N  N86  1  0.96891000  0.32079000  0.00779000  1.0
  N  N87  1  0.53109000  0.17921000  0.50779000  1.0
  N  N88  1  0.03108000  0.67921000  0.99221000  1.0
  N  N89  1  0.46890000  0.82079000  0.49221000  1.0
  O  O90  1  0.87851000  0.62624000  0.28045000  1.0
  O  O91  1  0.62149000  0.87375000  0.78044000  1.0
  O  O92  1  0.12149000  0.37376000  0.71956000  1.0
  O  O93  1  0.37852000  0.12625000  0.21956000  1.0
  O  O94  1  0.98278000  0.51271000  0.13996000  1.0
  O  O95  1  0.51719000  0.98729000  0.63996000  1.0
  O  O96  1  0.01720000  0.48729000  0.86003000  1.0
  O  O97  1  0.48280000  0.01271000  0.36003000  1.0
  O  O98  1  0.69761000  0.44766000  0.22593000  1.0
  O  O99  1  0.80237000  0.05235000  0.72592000  1.0
  O  O100  1  0.30238000  0.55235000  0.77409000  1.0
  O  O101  1  0.19763000  0.94767000  0.27407000  1.0
  O  O102  1  0.69491000  0.51599000  0.00219000  1.0
  O  O103  1  0.80509000  0.98400000  0.50217000  1.0
  O  O104  1  0.30508000  0.48399000  0.99782000  1.0
  O  O105  1  0.19492000  0.01600000  0.49782000  1.0
