# generated using pymatgen
data_ZnH12C17NO5
_symmetry_space_group_name_H-M   'P 1'
_cell_length_a   10.30090000
_cell_length_b   10.30290000
_cell_length_c   15.34400000
_cell_angle_alpha   75.38420000
_cell_angle_beta   75.38140000
_cell_angle_gamma   84.63720000
_symmetry_Int_Tables_number   1
_chemical_formula_structural   ZnH12C17NO5
_chemical_formula_sum   'Zn4 H48 C68 N4 O20'
_cell_volume   1523.96598682
_cell_formula_units_Z   4
loop_
 _symmetry_equiv_pos_site_id
 _symmetry_equiv_pos_as_xyz
  1  'x, y, z'
loop_
 _atom_site_type_symbol
 _atom_site_label
 _atom_site_symmetry_multiplicity
 _atom_site_fract_x
 _atom_site_fract_y
 _atom_site_fract_z
 _atom_site_occupancy
  Zn  Zn0  1  0.82182000  0.51253000  0.03126000  1.0
  Zn  Zn1  1  0.48748000  0.17818000  0.46874000  1.0
  Zn  Zn2  1  0.17818000  0.48747000  0.96874000  1.0
  Zn  Zn3  1  0.51252000  0.82182000  0.53126000  1.0
  H  H4  1  0.71453000  0.39786000  0.90286000  1.0
  H  H5  1  0.60214000  0.28548000  0.59714000  1.0
  H  H6  1  0.28547000  0.60214000  0.09715000  1.0
  H  H7  1  0.39786000  0.71453000  0.40286000  1.0
  H  H8  1  0.54149000  0.23321000  0.92132000  1.0
  H  H9  1  0.76680000  0.45851000  0.57868000  1.0
  H  H10  1  0.45851000  0.76679000  0.07868000  1.0
  H  H11  1  0.23320000  0.54149000  0.42132000  1.0
  H  H12  1  0.41976000  0.24019000  0.21138000  1.0
  H  H13  1  0.75981000  0.58024000  0.28862000  1.0
  H  H14  1  0.58024000  0.75982000  0.78862000  1.0
  H  H15  1  0.24019000  0.41976000  0.71138000  1.0
  H  H16  1  0.58737000  0.41527000  0.17818000  1.0
  H  H17  1  0.58473000  0.41263000  0.32182000  1.0
  H  H18  1  0.41263000  0.58473000  0.82182000  1.0
  H  H19  1  0.41527000  0.58737000  0.67818000  1.0
  H  H20  1  0.24262000  0.94608000  0.35418000  1.0
  H  H21  1  0.05392000  0.75738000  0.14582000  1.0
  H  H22  1  0.75738000  0.05392000  0.64582000  1.0
  H  H23  1  0.94608000  0.24262000  0.85418000  1.0
  H  H24  1  0.22639000  0.93032000  0.07901000  1.0
  H  H25  1  0.06968000  0.77361000  0.42099000  1.0
  H  H26  1  0.77361000  0.06967000  0.92099000  1.0
  H  H27  1  0.93032000  0.22639000  0.57901000  1.0
  H  H28  1  0.27641000  0.15745000  0.06574000  1.0
  H  H29  1  0.84254000  0.72358000  0.43426000  1.0
  H  H30  1  0.72359000  0.84255000  0.93426000  1.0
  H  H31  1  0.15746000  0.27642000  0.56574000  1.0
  H  H32  1  0.41149000  0.03967000  0.04395000  1.0
  H  H33  1  0.96034000  0.58852000  0.45605000  1.0
  H  H34  1  0.58851000  0.96033000  0.95605000  1.0
  H  H35  1  0.03966000  0.41149000  0.54395000  1.0
  H  H36  1  0.60762000  0.78223000  0.27055000  1.0
  H  H37  1  0.21778000  0.39238000  0.22945000  1.0
  H  H38  1  0.39238000  0.21777000  0.72945000  1.0
  H  H39  1  0.78222000  0.60762000  0.77055000  1.0
  H  H40  1  0.89361000  0.93263000  0.01493000  1.0
  H  H41  1  0.06738000  0.10639000  0.48506000  1.0
  H  H42  1  0.10639000  0.06737000  0.98507000  1.0
  H  H43  1  0.93262000  0.89360000  0.51494000  1.0
  H  H44  1  0.89336000  0.15224000  0.05868000  1.0
  H  H45  1  0.84776000  0.10664000  0.44132000  1.0
  H  H46  1  0.10664000  0.84776000  0.94132000  1.0
  H  H47  1  0.15224000  0.89336000  0.55868000  1.0
  H  H48  1  0.75227000  0.18210000  0.20816000  1.0
  H  H49  1  0.81789000  0.24773000  0.29184000  1.0
  H  H50  1  0.24773000  0.81790000  0.79184000  1.0
  H  H51  1  0.18211000  0.75227000  0.70816000  1.0
  C  C52  1  0.64476000  0.36174000  0.96943000  1.0
  C  C53  1  0.63826000  0.35524000  0.53057000  1.0
  C  C54  1  0.35524000  0.63826000  0.03057000  1.0
  C  C55  1  0.36174000  0.64476000  0.46943000  1.0
  C  C56  1  0.54945000  0.26809000  0.98111000  1.0
  C  C57  1  0.73191000  0.45055000  0.51889000  1.0
  C  C58  1  0.45055000  0.73192000  0.01889000  1.0
  C  C59  1  0.26808000  0.54945000  0.48111000  1.0
  C  C60  1  0.48078000  0.27323000  0.14151000  1.0
  C  C61  1  0.72676000  0.51921000  0.35849000  1.0
  C  C62  1  0.51922000  0.72677000  0.85849000  1.0
  C  C63  1  0.27324000  0.48079000  0.64151000  1.0
  C  C64  1  0.57541000  0.36935000  0.12426000  1.0
  C  C65  1  0.63065000  0.42458000  0.37574000  1.0
  C  C66  1  0.42459000  0.63065000  0.87574000  1.0
  C  C67  1  0.36935000  0.57542000  0.62426000  1.0
  C  C68  1  0.46773000  0.21934000  0.06946000  1.0
  C  C69  1  0.78066000  0.53227000  0.43054000  1.0
  C  C70  1  0.53227000  0.78066000  0.93054000  1.0
  C  C71  1  0.21934000  0.46773000  0.56946000  1.0
  C  C72  1  0.24407000  0.95088000  0.21306000  1.0
  C  C73  1  0.04912000  0.75593000  0.28694000  1.0
  C  C74  1  0.75593000  0.04912000  0.78694000  1.0
  C  C75  1  0.95088000  0.24407000  0.71306000  1.0
  C  C76  1  0.20014000  0.90468000  0.30907000  1.0
  C  C77  1  0.09532000  0.79986000  0.19093000  1.0
  C  C78  1  0.79986000  0.09532000  0.69093000  1.0
  C  C79  1  0.90468000  0.20014000  0.80907000  1.0
  C  C80  1  0.19220000  0.89742000  0.15394000  1.0
  C  C81  1  0.10258000  0.80780000  0.34606000  1.0
  C  C82  1  0.80781000  0.10258000  0.84606000  1.0
  C  C83  1  0.89742000  0.19219000  0.65394000  1.0
  C  C84  1  0.36895000  0.11228000  0.08667000  1.0
  C  C85  1  0.88772000  0.63105000  0.41333000  1.0
  C  C86  1  0.63105000  0.88772000  0.91333000  1.0
  C  C87  1  0.11228000  0.36895000  0.58667000  1.0
  C  C88  1  0.74858000  0.84583000  0.13912000  1.0
  C  C89  1  0.15417000  0.25142000  0.36088000  1.0
  C  C90  1  0.25142000  0.15417000  0.86088000  1.0
  C  C91  1  0.84583000  0.74858000  0.63912000  1.0
  C  C92  1  0.66997000  0.86339000  0.22441000  1.0
  C  C93  1  0.13662000  0.33003000  0.27559000  1.0
  C  C94  1  0.33003000  0.13661000  0.77559000  1.0
  C  C95  1  0.86338000  0.66997000  0.72440000  1.0
  C  C96  1  0.83053000  0.94938000  0.07992000  1.0
  C  C97  1  0.05063000  0.16947000  0.42008000  1.0
  C  C98  1  0.16947000  0.05062000  0.92008000  1.0
  C  C99  1  0.94938000  0.83053000  0.57992000  1.0
  C  C100  1  0.83067000  0.07072000  0.10445000  1.0
  C  C101  1  0.92927000  0.16933000  0.39554000  1.0
  C  C102  1  0.16933000  0.92928000  0.89555000  1.0
  C  C103  1  0.07073000  0.83067000  0.60446000  1.0
  C  C104  1  0.75196000  0.08751000  0.18938000  1.0
  C  C105  1  0.91249000  0.24803000  0.31062000  1.0
  C  C106  1  0.24804000  0.91249000  0.81062000  1.0
  C  C107  1  0.08751000  0.75197000  0.68938000  1.0
  C  C108  1  0.67309000  0.98334000  0.25081000  1.0
  C  C109  1  0.01665000  0.32691000  0.24919000  1.0
  C  C110  1  0.32691000  0.01666000  0.74919000  1.0
  C  C111  1  0.98335000  0.67309000  0.75081000  1.0
  C  C112  1  0.59668000  0.99864000  0.34472000  1.0
  C  C113  1  0.00136000  0.40331000  0.15528000  1.0
  C  C114  1  0.40332000  0.00136000  0.65528000  1.0
  C  C115  1  0.99864000  0.59669000  0.84472000  1.0
  C  C116  1  0.74735000  0.71499000  0.11352000  1.0
  C  C117  1  0.28501000  0.25265000  0.38648000  1.0
  C  C118  1  0.25265000  0.28501000  0.88648000  1.0
  C  C119  1  0.71499000  0.74735000  0.61352000  1.0
  N  N120  1  0.65890000  0.41061000  0.04016000  1.0
  N  N121  1  0.58939000  0.34110000  0.45984000  1.0
  N  N122  1  0.34110000  0.58939000  0.95984000  1.0
  N  N123  1  0.41061000  0.65890000  0.54016000  1.0
  O  O124  1  0.66577000  0.62720000  0.16255000  1.0
  O  O125  1  0.37281000  0.33423000  0.33746000  1.0
  O  O126  1  0.33423000  0.37280000  0.83745000  1.0
  O  O127  1  0.62719000  0.66577000  0.66254000  1.0
  O  O128  1  0.83537000  0.69921000  0.03878000  1.0
  O  O129  1  0.30079000  0.16464000  0.46121000  1.0
  O  O130  1  0.16463000  0.30079000  0.96122000  1.0
  O  O131  1  0.69922000  0.83536000  0.53879000  1.0
  O  O132  1  0.52201000  0.90305000  0.39669000  1.0
  O  O133  1  0.09695000  0.47799000  0.10331000  1.0
  O  O134  1  0.47799000  0.09695000  0.60331000  1.0
  O  O135  1  0.90305000  0.52201000  0.89669000  1.0
  O  O136  1  0.61215000  0.10582000  0.36800000  1.0
  O  O137  1  0.89416000  0.38784000  0.13200000  1.0
  O  O138  1  0.38785000  0.89418000  0.63200000  1.0
  O  O139  1  0.10584000  0.61216000  0.86800000  1.0
  O  O140  1  0.33930000  0.04772000  0.18283000  1.0
  O  O141  1  0.95228000  0.66071000  0.31717000  1.0
  O  O142  1  0.66070000  0.95228000  0.81717000  1.0
  O  O143  1  0.04772000  0.33929000  0.68283000  1.0
