# generated using pymatgen
data_TbH14C24O10F9
_symmetry_space_group_name_H-M   'P 1'
_cell_length_a   8.80617000
_cell_length_b   11.92910000
_cell_length_c   13.64370000
_cell_angle_alpha   114.17900000
_cell_angle_beta   96.60160000
_cell_angle_gamma   99.74960000
_symmetry_Int_Tables_number   1
_chemical_formula_structural   TbH14C24O10F9
_chemical_formula_sum   'Tb2 H28 C48 O20 F18'
_cell_volume   1261.27042545
_cell_formula_units_Z   2
loop_
 _symmetry_equiv_pos_site_id
 _symmetry_equiv_pos_as_xyz
  1  'x, y, z'
loop_
 _atom_site_type_symbol
 _atom_site_label
 _atom_site_symmetry_multiplicity
 _atom_site_fract_x
 _atom_site_fract_y
 _atom_site_fract_z
 _atom_site_occupancy
  Tb  Tb0  1  0.22908000  0.07101000  0.03251000  1.0
  Tb  Tb1  1  0.77091000  0.92899000  0.96749000  1.0
  H  H2  1  0.12013000  0.25012000  0.41745000  1.0
  H  H3  1  0.87986000  0.74989000  0.58254000  1.0
  H  H4  1  0.37750000  0.15274000  0.30012000  1.0
  H  H5  1  0.62251000  0.84725000  0.69988000  1.0
  H  H6  1  0.15383000  0.30926000  0.86444000  1.0
  H  H7  1  0.84617000  0.69074000  0.13557000  1.0
  H  H8  1  0.46453000  0.30568000  0.76190000  1.0
  H  H9  1  0.53547000  0.69432000  0.23810000  1.0
  H  H10  1  0.39368000  0.44227000  0.83771000  1.0
  H  H11  1  0.60632000  0.55773000  0.16229000  1.0
  H  H12  1  0.44999000  0.34664000  0.90240000  1.0
  H  H13  1  0.55000000  0.65336000  0.09760000  1.0
  H  H14  1  0.99150000  0.06041000  0.62648000  1.0
  H  H15  1  0.00851000  0.93960000  0.37353000  1.0
  H  H16  1  0.80398000  0.06507000  0.66637000  1.0
  H  H17  1  0.19603000  0.93494000  0.33363000  1.0
  H  H18  1  0.90804000  0.19237000  0.64310000  1.0
  H  H19  1  0.09196000  0.80764000  0.35691000  1.0
  H  H20  1  0.44829000  0.47724000  0.30166000  1.0
  H  H21  1  0.55171000  0.52277000  0.69834000  1.0
  H  H22  1  0.61522000  0.55157000  0.41369000  1.0
  H  H23  1  0.38478000  0.44843000  0.58631000  1.0
  H  H24  1  0.46999000  0.41683000  0.40081000  1.0
  H  H25  1  0.53001000  0.58318000  0.59919000  1.0
  H  H26  1  0.49352000  0.30013000  0.14039000  1.0
  H  H27  1  0.50648000  0.69986000  0.85961000  1.0
  H  H28  1  0.36414000  0.35174000  0.09241000  1.0
  H  H29  1  0.63586000  0.64826000  0.90759000  1.0
  C  C30  1  0.04878000  0.17500000  0.19782000  1.0
  C  C31  1  0.95120000  0.82499000  0.80217000  1.0
  C  C32  1  0.96032000  0.24395000  0.28089000  1.0
  C  C33  1  0.03967000  0.75605000  0.71911000  1.0
  C  C34  1  0.82676000  0.27996000  0.25130000  1.0
  C  C35  1  0.17323000  0.72004000  0.74869000  1.0
  C  C36  1  0.74255000  0.34813000  0.32780000  1.0
  C  C37  1  0.25744000  0.65187000  0.67220000  1.0
  C  C38  1  0.79699000  0.37504000  0.43767000  1.0
  C  C39  1  0.20301000  0.62496000  0.56233000  1.0
  C  C40  1  0.93105000  0.33866000  0.46763000  1.0
  C  C41  1  0.06894000  0.66134000  0.53236000  1.0
  C  C42  1  0.01483000  0.27583000  0.39189000  1.0
  C  C43  1  0.98517000  0.72417000  0.60810000  1.0
  C  C44  1  0.56647000  0.05548000  0.28496000  1.0
  C  C45  1  0.43354000  0.94453000  0.71504000  1.0
  C  C46  1  0.46586000  0.12558000  0.34295000  1.0
  C  C47  1  0.53415000  0.87442000  0.65705000  1.0
  C  C48  1  0.48293000  0.16219000  0.45403000  1.0
  C  C49  1  0.51707000  0.83781000  0.54597000  1.0
  C  C50  1  0.59843000  0.13262000  0.51215000  1.0
  C  C51  1  0.40158000  0.86739000  0.48786000  1.0
  C  C52  1  0.69935000  0.06081000  0.45728000  1.0
  C  C53  1  0.30066000  0.93919000  0.54272000  1.0
  C  C54  1  0.67759000  0.02229000  0.34282000  1.0
  C  C55  1  0.32242000  0.97772000  0.65718000  1.0
  C  C56  1  0.94868000  0.17551000  0.92660000  1.0
  C  C57  1  0.05129000  0.82448000  0.07339000  1.0
  C  C58  1  0.92086000  0.27950000  0.89650000  1.0
  C  C59  1  0.07914000  0.72050000  0.10350000  1.0
  C  C60  1  0.78053000  0.31981000  0.89944000  1.0
  C  C61  1  0.21947000  0.68018000  0.10056000  1.0
  C  C62  1  0.75885000  0.41736000  0.87060000  1.0
  C  C63  1  0.24115000  0.58264000  0.12941000  1.0
  C  C64  1  0.88330000  0.47262000  0.83688000  1.0
  C  C65  1  0.11670000  0.52738000  0.16313000  1.0
  C  C66  1  0.02419000  0.43414000  0.83513000  1.0
  C  C67  1  0.97580000  0.56586000  0.16488000  1.0
  C  C68  1  0.04392000  0.33945000  0.86521000  1.0
  C  C69  1  0.95608000  0.66055000  0.13480000  1.0
  C  C70  1  0.55941000  0.03151000  0.16703000  1.0
  C  C71  1  0.44061000  0.96848000  0.83297000  1.0
  C  C72  1  0.47453000  0.38378000  0.84299000  1.0
  C  C73  1  0.52547000  0.61622000  0.15701000  1.0
  C  C74  1  0.88202000  0.09007000  0.61754000  1.0
  C  C75  1  0.11798000  0.90994000  0.38246000  1.0
  C  C76  1  0.53346000  0.46166000  0.35687000  1.0
  C  C77  1  0.46653000  0.53834000  0.64313000  1.0
  O  O78  1  0.19777000  0.20330000  0.22107000  1.0
  O  O79  1  0.80223000  0.79670000  0.77893000  1.0
  O  O80  1  0.46133000  0.07610000  0.12719000  1.0
  O  O81  1  0.53865000  0.92390000  0.87280000  1.0
  O  O82  1  0.09161000  0.18362000  0.96342000  1.0
  O  O83  1  0.90840000  0.81637000  0.03658000  1.0
  O  O84  1  0.83035000  0.08871000  0.91074000  1.0
  O  O85  1  0.16966000  0.91129000  0.08925000  1.0
  O  O86  1  0.81295000  0.02198000  0.50141000  1.0
  O  O87  1  0.18706000  0.97803000  0.49859000  1.0
  O  O88  1  0.63055000  0.46846000  0.87875000  1.0
  O  O89  1  0.36945000  0.53154000  0.12125000  1.0
  O  O90  1  0.61632000  0.37760000  0.28582000  1.0
  O  O91  1  0.38367000  0.62240000  0.71418000  1.0
  O  O92  1  0.97322000  0.08920000  0.10360000  1.0
  O  O93  1  0.02679000  0.91081000  0.89640000  1.0
  O  O94  1  0.65644000  0.97547000  0.11678000  1.0
  O  O95  1  0.34356000  0.02454000  0.88323000  1.0
  O  O96  1  0.40181000  0.27559000  0.08133000  1.0
  O  O97  1  0.59818000  0.72441000  0.91866000  1.0
  F  F98  1  0.14202000  0.49084000  0.80265000  1.0
  F  F99  1  0.85798000  0.50915000  0.19736000  1.0
  F  F100  1  0.86549000  0.56515000  0.80696000  1.0
  F  F101  1  0.13451000  0.43484000  0.19304000  1.0
  F  F102  1  0.66257000  0.26951000  0.93570000  1.0
  F  F103  1  0.33743000  0.73049000  0.06431000  1.0
  F  F104  1  0.97725000  0.36740000  0.57561000  1.0
  F  F105  1  0.02275000  0.63259000  0.42439000  1.0
  F  F106  1  0.72180000  0.43569000  0.51814000  1.0
  F  F107  1  0.27819000  0.56430000  0.48185000  1.0
  F  F108  1  0.60779000  0.17292000  0.62192000  1.0
  F  F109  1  0.39223000  0.82709000  0.37808000  1.0
  F  F110  1  0.38668000  0.23067000  0.51186000  1.0
  F  F111  1  0.61332000  0.76932000  0.48814000  1.0
  F  F112  1  0.77479000  0.95101000  0.29190000  1.0
  F  F113  1  0.22522000  0.04899000  0.70810000  1.0
  F  F114  1  0.77278000  0.25274000  0.14515000  1.0
  F  F115  1  0.22721000  0.74726000  0.85485000  1.0
