# generated using pymatgen
data_CaH12C8(NO4)2
_symmetry_space_group_name_H-M   'P 1'
_cell_length_a   5.56089000
_cell_length_b   7.61579000
_cell_length_c   13.15590000
_cell_angle_alpha   95.79750000
_cell_angle_beta   89.99950000
_cell_angle_gamma   89.99950000
_symmetry_Int_Tables_number   1
_chemical_formula_structural   CaH12C8(NO4)2
_chemical_formula_sum   'Ca2 H24 C16 N4 O16'
_cell_volume   554.31006239
_cell_formula_units_Z   2
loop_
 _symmetry_equiv_pos_site_id
 _symmetry_equiv_pos_as_xyz
  1  'x, y, z'
loop_
 _atom_site_type_symbol
 _atom_site_label
 _atom_site_symmetry_multiplicity
 _atom_site_fract_x
 _atom_site_fract_y
 _atom_site_fract_z
 _atom_site_occupancy
  Ca  Ca0  1  0.00001000  0.49998000  0.99999000  1.0
  Ca  Ca1  1  0.50000000  0.99999000  0.49999000  1.0
  H  H2  1  0.85815000  0.99565000  0.07869000  1.0
  H  H3  1  0.35814000  0.50435000  0.42131000  1.0
  H  H4  1  0.14185000  0.00435000  0.92131000  1.0
  H  H5  1  0.64185000  0.49564000  0.57869000  1.0
  H  H6  1  0.69036000  0.18187000  0.12658000  1.0
  H  H7  1  0.19037000  0.31814000  0.37342000  1.0
  H  H8  1  0.30965000  0.81813000  0.87342000  1.0
  H  H9  1  0.80964000  0.68188000  0.62658000  1.0
  H  H10  1  0.55532000  0.22368000  0.78651000  1.0
  H  H11  1  0.05536000  0.27632000  0.71348000  1.0
  H  H12  1  0.44467000  0.77632000  0.21348000  1.0
  H  H13  1  0.94467000  0.72368000  0.28652000  1.0
  H  H14  1  0.35200000  0.04659000  0.75616000  1.0
  H  H15  1  0.85203000  0.45342000  0.74383000  1.0
  H  H16  1  0.64799000  0.95342000  0.24383000  1.0
  H  H17  1  0.14799000  0.54659000  0.25617000  1.0
  H  H18  1  0.25808000  0.27486000  0.13832000  1.0
  H  H19  1  0.75809000  0.22514000  0.36168000  1.0
  H  H20  1  0.74191000  0.72514000  0.86167000  1.0
  H  H21  1  0.24191000  0.77486000  0.63832000  1.0
  H  H22  1  0.45655000  0.41648000  0.11187000  1.0
  H  H23  1  0.95656000  0.08352000  0.38813000  1.0
  H  H24  1  0.54346000  0.58352000  0.88813000  1.0
  H  H25  1  0.04344000  0.91647000  0.61187000  1.0
  C  C26  1  0.68447000  0.06321000  0.07178000  1.0
  C  C27  1  0.18446000  0.43679000  0.42823000  1.0
  C  C28  1  0.31553000  0.93679000  0.92822000  1.0
  C  C29  1  0.81552000  0.56321000  0.57178000  1.0
  C  C30  1  0.67490000  0.11975000  0.96584000  1.0
  C  C31  1  0.17491000  0.38024000  0.53416000  1.0
  C  C32  1  0.32510000  0.88024000  0.03416000  1.0
  C  C33  1  0.82508000  0.61975000  0.46585000  1.0
  C  C34  1  0.52391000  0.08335000  0.79342000  1.0
  C  C35  1  0.02393000  0.41666000  0.70658000  1.0
  C  C36  1  0.47608000  0.91666000  0.20658000  1.0
  C  C37  1  0.97608000  0.58335000  0.29342000  1.0
  C  C38  1  0.72434000  0.97477000  0.73645000  1.0
  C  C39  1  0.22435000  0.52524000  0.76355000  1.0
  C  C40  1  0.27565000  0.02524000  0.26355000  1.0
  C  C41  1  0.77565000  0.47477000  0.23645000  1.0
  N  N42  1  0.50815000  0.05187000  0.90034000  1.0
  N  N43  1  0.00817000  0.44813000  0.59966000  1.0
  N  N44  1  0.49184000  0.94812000  0.09966000  1.0
  N  N45  1  0.99186000  0.55187000  0.40034000  1.0
  O  O46  1  0.83367000  0.22487000  0.94020000  1.0
  O  O47  1  0.33369000  0.27513000  0.55979000  1.0
  O  O48  1  0.16631000  0.77514000  0.05980000  1.0
  O  O49  1  0.66630000  0.72486000  0.44020000  1.0
  O  O50  1  0.84520000  0.86627000  0.78084000  1.0
  O  O51  1  0.34522000  0.63375000  0.71916000  1.0
  O  O52  1  0.15479000  0.13375000  0.21916000  1.0
  O  O53  1  0.65478000  0.36626000  0.28085000  1.0
  O  O54  1  0.75682000  0.00533000  0.64311000  1.0
  O  O55  1  0.25683000  0.49466000  0.85689000  1.0
  O  O56  1  0.24318000  0.99466000  0.35689000  1.0
  O  O57  1  0.74317000  0.50534000  0.14311000  1.0
  O  O58  1  0.29575000  0.36689000  0.09169000  1.0
  O  O59  1  0.79575000  0.13312000  0.40831000  1.0
  O  O60  1  0.70425000  0.63312000  0.90831000  1.0
  O  O61  1  0.20424000  0.86686000  0.59168000  1.0
