# generated using pymatgen
data_CdH3C6S(NO)3
_symmetry_space_group_name_H-M   'P 1'
_cell_length_a   6.19223000
_cell_length_b   10.44370000
_cell_length_c   13.15150000
_cell_angle_alpha   96.95430000
_cell_angle_beta   89.99920000
_cell_angle_gamma   89.99950000
_symmetry_Int_Tables_number   1
_chemical_formula_structural   CdH3C6S(NO)3
_chemical_formula_sum   'Cd4 H12 C24 S4 N12 O12'
_cell_volume   844.24764634
_cell_formula_units_Z   4
loop_
 _symmetry_equiv_pos_site_id
 _symmetry_equiv_pos_as_xyz
  1  'x, y, z'
loop_
 _atom_site_type_symbol
 _atom_site_label
 _atom_site_symmetry_multiplicity
 _atom_site_fract_x
 _atom_site_fract_y
 _atom_site_fract_z
 _atom_site_occupancy
  Cd  Cd0  1  0.31560000  0.47865000  0.25555000  1.0
  Cd  Cd1  1  0.81560000  0.02134000  0.24445000  1.0
  Cd  Cd2  1  0.68440000  0.52135000  0.74445000  1.0
  Cd  Cd3  1  0.18441000  0.97866000  0.75555000  1.0
  H  H4  1  0.89940000  0.44611000  0.08693000  1.0
  H  H5  1  0.39939000  0.05389000  0.41306000  1.0
  H  H6  1  0.10059000  0.55389000  0.91306000  1.0
  H  H7  1  0.60062000  0.94610000  0.58694000  1.0
  H  H8  1  0.77506000  0.27800000  0.94281000  1.0
  H  H9  1  0.27504000  0.22200000  0.55719000  1.0
  H  H10  1  0.22494000  0.72200000  0.05718000  1.0
  H  H11  1  0.72496000  0.77800000  0.44281000  1.0
  H  H12  1  0.31448000  0.05221000  0.98986000  1.0
  H  H13  1  0.81448000  0.44779000  0.51015000  1.0
  H  H14  1  0.68552000  0.94779000  0.01014000  1.0
  H  H15  1  0.18553000  0.55221000  0.48986000  1.0
  C  C16  1  0.99446000  0.35918000  0.06438000  1.0
  C  C17  1  0.49445000  0.14083000  0.43562000  1.0
  C  C18  1  0.00554000  0.64082000  0.93562000  1.0
  C  C19  1  0.50556000  0.85917000  0.56438000  1.0
  C  C20  1  0.92179000  0.26829000  0.98676000  1.0
  C  C21  1  0.42178000  0.23172000  0.51324000  1.0
  C  C22  1  0.07821000  0.73171000  0.01324000  1.0
  C  C23  1  0.57822000  0.76828000  0.48676000  1.0
  C  C24  1  0.29401000  0.23613000  0.08896000  1.0
  C  C25  1  0.79401000  0.26388000  0.41104000  1.0
  C  C26  1  0.70598000  0.76388000  0.91105000  1.0
  C  C27  1  0.20599000  0.73612000  0.58895000  1.0
  C  C28  1  0.08499000  0.76050000  0.31679000  1.0
  C  C29  1  0.58501000  0.73949000  0.18321000  1.0
  C  C30  1  0.91497000  0.23949000  0.68322000  1.0
  C  C31  1  0.41499000  0.26052000  0.81679000  1.0
  C  C32  1  0.22749000  0.14151000  0.01244000  1.0
  C  C33  1  0.72747000  0.35849000  0.48756000  1.0
  C  C34  1  0.77251000  0.85849000  0.98756000  1.0
  C  C35  1  0.27252000  0.64151000  0.51243000  1.0
  C  C36  1  0.49911000  0.21761000  0.14939000  1.0
  C  C37  1  0.99911000  0.28238000  0.35061000  1.0
  C  C38  1  0.50089000  0.78239000  0.85061000  1.0
  C  C39  1  0.00090000  0.71762000  0.64939000  1.0
  S  S40  1  0.05862000  0.90346000  0.38089000  1.0
  S  S41  1  0.55862000  0.59653000  0.11911000  1.0
  S  S42  1  0.94137000  0.09653000  0.61911000  1.0
  S  S43  1  0.44138000  0.40347000  0.88089000  1.0
  N  N44  1  0.17838000  0.34403000  0.11490000  1.0
  N  N45  1  0.67837000  0.15597000  0.38510000  1.0
  N  N46  1  0.82162000  0.65597000  0.88510000  1.0
  N  N47  1  0.32164000  0.84403000  0.61490000  1.0
  N  N48  1  0.10113000  0.65509000  0.27283000  1.0
  N  N49  1  0.60116000  0.84489000  0.22717000  1.0
  N  N50  1  0.89884000  0.34487000  0.72716000  1.0
  N  N51  1  0.39885000  0.15512000  0.77284000  1.0
  N  N52  1  0.03876000  0.15836000  0.96192000  1.0
  N  N53  1  0.53875000  0.34164000  0.53808000  1.0
  N  N54  1  0.96124000  0.84164000  0.03808000  1.0
  N  N55  1  0.46125000  0.65836000  0.46192000  1.0
  O  O56  1  0.96560000  0.07023000  0.89214000  1.0
  O  O57  1  0.46558000  0.42977000  0.60786000  1.0
  O  O58  1  0.03441000  0.92977000  0.10786000  1.0
  O  O59  1  0.53441000  0.57023000  0.39213000  1.0
  O  O60  1  0.55435000  0.30670000  0.21816000  1.0
  O  O61  1  0.05436000  0.19329000  0.28185000  1.0
  O  O62  1  0.44564000  0.69330000  0.78184000  1.0
  O  O63  1  0.94565000  0.80671000  0.71816000  1.0
  O  O64  1  0.59934000  0.11210000  0.12512000  1.0
  O  O65  1  0.09934000  0.38790000  0.37488000  1.0
  O  O66  1  0.40065000  0.88791000  0.87488000  1.0
  O  O67  1  0.90067000  0.61210000  0.62511000  1.0
