# generated using pymatgen
data_NaZnFePH27C25S(IO)3
_symmetry_space_group_name_H-M   'P 1'
_cell_length_a   8.88321000
_cell_length_b   9.38163000
_cell_length_c   18.25540000
_cell_angle_alpha   91.08340000
_cell_angle_beta   99.66910000
_cell_angle_gamma   95.32810000
_symmetry_Int_Tables_number   1
_chemical_formula_structural   NaZnFePH27C25S(IO)3
_chemical_formula_sum   'Na2 Zn2 Fe2 P2 H54 C50 S2 I6 O6'
_cell_volume   1492.37099932
_cell_formula_units_Z   2
loop_
 _symmetry_equiv_pos_site_id
 _symmetry_equiv_pos_as_xyz
  1  'x, y, z'
loop_
 _atom_site_type_symbol
 _atom_site_label
 _atom_site_symmetry_multiplicity
 _atom_site_fract_x
 _atom_site_fract_y
 _atom_site_fract_z
 _atom_site_occupancy
  Na  Na0  1  0.71502000  0.05704000  0.03500000  1.0
  Na  Na1  1  0.28498000  0.94296000  0.96499000  1.0
  Zn  Zn2  1  0.68462000  0.15975000  0.24245000  1.0
  Zn  Zn3  1  0.31538000  0.84024000  0.75755000  1.0
  Fe  Fe4  1  0.13052000  0.46553000  0.27210000  1.0
  Fe  Fe5  1  0.86949000  0.53448000  0.72790000  1.0
  P  P6  1  0.81977000  0.30176000  0.34829000  1.0
  P  P7  1  0.18023000  0.69824000  0.65171000  1.0
  H  H8  1  0.37745000  0.50378000  0.19558000  1.0
  H  H9  1  0.62255000  0.49622000  0.80442000  1.0
  H  H10  1  0.25399000  0.73894000  0.23938000  1.0
  H  H11  1  0.74602000  0.26106000  0.76062000  1.0
  H  H12  1  0.94565000  0.67989000  0.21600000  1.0
  H  H13  1  0.05436000  0.32012000  0.78400000  1.0
  H  H14  1  0.87821000  0.40855000  0.15646000  1.0
  H  H15  1  0.12179000  0.59147000  0.84354000  1.0
  H  H16  1  0.12117000  0.17592000  0.30700000  1.0
  H  H17  1  0.87884000  0.82408000  0.69300000  1.0
  H  H18  1  0.39034000  0.34234000  0.34100000  1.0
  H  H19  1  0.60966000  0.65767000  0.65900000  1.0
  H  H20  1  0.33157000  0.60103000  0.39259000  1.0
  H  H21  1  0.66843000  0.39898000  0.60742000  1.0
  H  H22  1  0.02651000  0.59343000  0.39245000  1.0
  H  H23  1  0.97350000  0.40657000  0.60755000  1.0
  H  H24  1  0.07702000  0.17691000  0.15632000  1.0
  H  H25  1  0.92298000  0.82310000  0.84368000  1.0
  H  H26  1  0.27055000  0.23646000  0.14727000  1.0
  H  H27  1  0.72945000  0.76354000  0.85274000  1.0
  H  H28  1  0.07607000  0.25377000  0.46844000  1.0
  H  H29  1  0.92392000  0.74623000  0.53155000  1.0
  H  H30  1  0.08475000  0.14465000  0.59104000  1.0
  H  H31  1  0.91525000  0.85535000  0.40896000  1.0
  H  H32  1  0.84314000  0.04335000  0.63081000  1.0
  H  H33  1  0.15685000  0.95665000  0.36918000  1.0
  H  H34  1  0.59497000  0.04472000  0.54563000  1.0
  H  H35  1  0.40503000  0.95528000  0.45437000  1.0
  H  H36  1  0.58475000  0.15060000  0.42083000  1.0
  H  H37  1  0.41525000  0.84940000  0.57917000  1.0
  H  H38  1  0.73332000  0.44021000  0.48108000  1.0
  H  H39  1  0.26669000  0.55979000  0.51892000  1.0
  H  H40  1  0.62474000  0.66850000  0.49912000  1.0
  H  H41  1  0.37526000  0.33150000  0.50088000  1.0
  H  H42  1  0.56309000  0.82684000  0.39084000  1.0
  H  H43  1  0.43690000  0.17315000  0.60917000  1.0
  H  H44  1  0.60766000  0.75265000  0.26687000  1.0
  H  H45  1  0.39234000  0.24735000  0.73313000  1.0
  H  H46  1  0.71287000  0.52023000  0.24767000  1.0
  H  H47  1  0.28713000  0.47978000  0.75233000  1.0
  H  H48  1  0.30469000  0.39615000  0.01637000  1.0
  H  H49  1  0.69532000  0.60385000  0.98362000  1.0
  H  H50  1  0.13734000  0.49078000  0.01768000  1.0
  H  H51  1  0.86266000  0.50922000  0.98232000  1.0
  H  H52  1  0.14924000  0.37889000  0.93786000  1.0
  H  H53  1  0.85076000  0.62111000  0.06214000  1.0
  H  H54  1  0.45545000  0.97433000  0.11879000  1.0
  H  H55  1  0.54454000  0.02567000  0.88121000  1.0
  H  H56  1  0.37137000  0.72881000  0.11034000  1.0
  H  H57  1  0.62862000  0.27119000  0.88965000  1.0
  H  H58  1  0.57503000  0.76306000  0.14197000  1.0
  H  H59  1  0.42496000  0.23694000  0.85803000  1.0
  H  H60  1  0.50185000  0.71323000  0.04658000  1.0
  H  H61  1  0.49814000  0.28677000  0.95342000  1.0
  C  C62  1  0.13298000  0.40784000  0.16455000  1.0
  C  C63  1  0.86701000  0.59216000  0.83545000  1.0
  C  C64  1  0.25607000  0.51678000  0.19137000  1.0
  C  C65  1  0.74393000  0.48322000  0.80863000  1.0
  C  C66  1  0.19055000  0.64015000  0.21471000  1.0
  C  C67  1  0.80945000  0.35985000  0.78529000  1.0
  C  C68  1  0.02723000  0.60852000  0.20239000  1.0
  C  C69  1  0.97277000  0.39149000  0.79761000  1.0
  C  C70  1  0.99167000  0.46552000  0.17145000  1.0
  C  C71  1  0.00833000  0.53449000  0.82855000  1.0
  C  C72  1  0.01644000  0.36659000  0.34745000  1.0
  C  C73  1  0.98357000  0.63341000  0.65255000  1.0
  C  C74  1  0.13693000  0.28437000  0.33075000  1.0
  C  C75  1  0.86307000  0.71563000  0.66925000  1.0
  C  C76  1  0.27935000  0.37251000  0.34957000  1.0
  C  C77  1  0.72066000  0.62750000  0.65044000  1.0
  C  C78  1  0.24804000  0.50918000  0.37680000  1.0
  C  C79  1  0.75197000  0.49083000  0.62321000  1.0
  C  C80  1  0.08665000  0.50611000  0.37583000  1.0
  C  C81  1  0.91335000  0.49389000  0.62417000  1.0
  C  C82  1  0.15100000  0.26240000  0.13547000  1.0
  C  C83  1  0.84900000  0.73761000  0.86453000  1.0
  C  C84  1  0.82986000  0.21099000  0.43646000  1.0
  C  C85  1  0.17015000  0.78900000  0.56353000  1.0
  C  C86  1  0.97018000  0.20752000  0.48465000  1.0
  C  C87  1  0.02982000  0.79248000  0.51534000  1.0
  C  C88  1  0.97498000  0.14633000  0.55403000  1.0
  C  C89  1  0.02501000  0.85367000  0.44597000  1.0
  C  C90  1  0.83991000  0.08877000  0.57610000  1.0
  C  C91  1  0.16008000  0.91123000  0.42390000  1.0
  C  C92  1  0.70002000  0.08996000  0.52796000  1.0
  C  C93  1  0.29997000  0.91003000  0.47204000  1.0
  C  C94  1  0.69436000  0.14983000  0.45823000  1.0
  C  C95  1  0.30563000  0.85017000  0.54177000  1.0
  C  C96  1  0.73065000  0.46487000  0.36331000  1.0
  C  C97  1  0.26935000  0.53513000  0.63669000  1.0
  C  C98  1  0.70460000  0.50727000  0.43378000  1.0
  C  C99  1  0.29540000  0.49273000  0.56622000  1.0
  C  C100  1  0.64404000  0.63691000  0.44387000  1.0
  C  C101  1  0.35596000  0.36308000  0.55613000  1.0
  C  C102  1  0.60991000  0.72507000  0.38379000  1.0
  C  C103  1  0.39009000  0.27493000  0.61622000  1.0
  C  C104  1  0.63460000  0.68276000  0.31333000  1.0
  C  C105  1  0.36539000  0.31724000  0.68667000  1.0
  C  C106  1  0.69433000  0.55308000  0.30281000  1.0
  C  C107  1  0.30567000  0.44692000  0.69719000  1.0
  C  C108  1  0.18024000  0.39347000  0.99842000  1.0
  C  C109  1  0.81977000  0.60652000  0.00158000  1.0
  C  C110  1  0.48075000  0.77291000  0.09546000  1.0
  C  C111  1  0.51923000  0.22709000  0.90454000  1.0
  S  S112  1  0.09352000  0.24005000  0.03619000  1.0
  S  S113  1  0.90649000  0.75996000  0.96381000  1.0
  I  I114  1  0.42428000  0.02801000  0.26544000  1.0
  I  I115  1  0.57572000  0.97199000  0.73456000  1.0
  I  I116  1  0.86834000  0.97727000  0.20801000  1.0
  I  I117  1  0.13166000  0.02273000  0.79199000  1.0
  I  I118  1  0.58518000  0.30798000  0.12271000  1.0
  I  I119  1  0.41481000  0.69201000  0.87729000  1.0
  O  O120  1  0.92684000  0.24027000  0.01794000  1.0
  O  O121  1  0.07316000  0.75972000  0.98206000  1.0
  O  O122  1  0.16070000  0.11500000  0.01223000  1.0
  O  O123  1  0.83932000  0.88500000  0.98777000  1.0
  O  O124  1  0.47485000  0.92058000  0.07503000  1.0
  O  O125  1  0.52514000  0.07942000  0.92496000  1.0
