# generated using pymatgen
data_CuH10C12(SN2)2
_symmetry_space_group_name_H-M   'P 1'
_cell_length_a   8.45022000
_cell_length_b   8.83059000
_cell_length_c   15.26300000
_cell_angle_alpha   92.21430000
_cell_angle_beta   97.06660000
_cell_angle_gamma   115.23800000
_symmetry_Int_Tables_number   1
_chemical_formula_structural   CuH10C12(SN2)2
_chemical_formula_sum   'Cu3 H30 C36 S6 N12'
_cell_volume   1017.11107301
_cell_formula_units_Z   3
loop_
 _symmetry_equiv_pos_site_id
 _symmetry_equiv_pos_as_xyz
  1  'x, y, z'
loop_
 _atom_site_type_symbol
 _atom_site_label
 _atom_site_symmetry_multiplicity
 _atom_site_fract_x
 _atom_site_fract_y
 _atom_site_fract_z
 _atom_site_occupancy
  Cu  Cu0  1  0.17007000  0.17655000  0.16212000  1.0
  Cu  Cu1  1  0.82994000  0.82347000  0.83789000  1.0
  Cu  Cu2  1  0.49999000  0.49997000  0.49999000  1.0
  H  H3  1  0.00522000  0.90926000  0.28462000  1.0
  H  H4  1  0.99478000  0.09075000  0.71537000  1.0
  H  H5  1  0.72096000  0.78161000  0.34760000  1.0
  H  H6  1  0.27905000  0.21840000  0.65241000  1.0
  H  H7  1  0.49347000  0.88979000  0.30938000  1.0
  H  H8  1  0.50652000  0.11020000  0.69063000  1.0
  H  H9  1  0.55982000  0.12289000  0.21052000  1.0
  H  H10  1  0.44015000  0.87709000  0.78948000  1.0
  H  H11  1  0.85176000  0.23866000  0.15423000  1.0
  H  H12  1  0.14820000  0.76133000  0.84576000  1.0
  H  H13  1  0.53037000  0.45427000  0.21124000  1.0
  H  H14  1  0.46966000  0.54574000  0.78876000  1.0
  H  H15  1  0.81451000  0.58514000  0.14729000  1.0
  H  H16  1  0.18551000  0.41485000  0.85272000  1.0
  H  H17  1  0.82490000  0.46541000  0.99737000  1.0
  H  H18  1  0.17511000  0.53458000  0.00262000  1.0
  H  H19  1  0.55364000  0.22250000  0.91750000  1.0
  H  H20  1  0.44636000  0.77750000  0.08250000  1.0
  H  H21  1  0.27984000  0.10909000  0.98989000  1.0
  H  H22  1  0.72016000  0.89091000  0.01012000  1.0
  H  H23  1  0.34025000  0.58002000  0.64459000  1.0
  H  H24  1  0.65979000  0.41993000  0.35538000  1.0
  H  H25  1  0.03883000  0.48259000  0.69112000  1.0
  H  H26  1  0.96122000  0.51745000  0.30887000  1.0
  H  H27  1  0.77884000  0.25428000  0.59360000  1.0
  H  H28  1  0.22118000  0.74576000  0.40641000  1.0
  H  H29  1  0.82778000  0.13550000  0.45357000  1.0
  H  H30  1  0.17217000  0.86448000  0.54643000  1.0
  H  H31  1  0.13619000  0.25018000  0.41547000  1.0
  H  H32  1  0.86375000  0.74975000  0.58451000  1.0
  C  C33  1  0.64410000  0.84704000  0.65559000  1.0
  C  C34  1  0.35593000  0.15305000  0.34444000  1.0
  C  C35  1  0.03266000  0.82077000  0.01902000  1.0
  C  C36  1  0.96735000  0.17922000  0.98098000  1.0
  C  C37  1  0.90316000  0.95311000  0.27042000  1.0
  C  C38  1  0.09683000  0.04690000  0.72957000  1.0
  C  C39  1  0.74502000  0.88259000  0.30491000  1.0
  C  C40  1  0.25498000  0.11741000  0.69509000  1.0
  C  C41  1  0.61848000  0.94287000  0.28362000  1.0
  C  C42  1  0.38151000  0.05712000  0.71638000  1.0
  C  C43  1  0.65534000  0.07279000  0.22886000  1.0
  C  C44  1  0.34463000  0.92720000  0.77113000  1.0
  C  C45  1  0.81676000  0.13763000  0.19735000  1.0
  C  C46  1  0.18321000  0.86236000  0.80265000  1.0
  C  C47  1  0.54248000  0.40748000  0.14655000  1.0
  C  C48  1  0.45753000  0.59252000  0.85346000  1.0
  C  C49  1  0.69900000  0.47876000  0.11079000  1.0
  C  C50  1  0.30101000  0.52123000  0.88921000  1.0
  C  C51  1  0.70473000  0.41233000  0.02743000  1.0
  C  C52  1  0.29528000  0.58765000  0.97256000  1.0
  C  C53  1  0.55347000  0.27740000  0.98260000  1.0
  C  C54  1  0.44653000  0.72259000  0.01740000  1.0
  C  C55  1  0.40166000  0.21329000  0.02257000  1.0
  C  C56  1  0.59835000  0.78670000  0.97744000  1.0
  C  C57  1  0.33502000  0.53126000  0.31452000  1.0
  C  C58  1  0.66498000  0.46879000  0.68549000  1.0
  C  C59  1  0.22253000  0.48249000  0.60449000  1.0
  C  C60  1  0.77749000  0.51747000  0.39549000  1.0
  C  C61  1  0.05589000  0.42748000  0.62989000  1.0
  C  C62  1  0.94413000  0.57253000  0.37009000  1.0
  C  C63  1  0.91110000  0.30090000  0.57559000  1.0
  C  C64  1  0.08890000  0.69911000  0.42441000  1.0
  C  C65  1  0.93783000  0.23446000  0.49742000  1.0
  C  C66  1  0.06215000  0.76552000  0.50257000  1.0
  C  C67  1  0.10824000  0.29686000  0.47597000  1.0
  C  C68  1  0.89173000  0.70309000  0.52401000  1.0
  S  S69  1  0.56925000  0.86271000  0.55561000  1.0
  S  S70  1  0.43078000  0.13749000  0.44444000  1.0
  S  S71  1  0.13334000  0.83752000  0.11836000  1.0
  S  S72  1  0.86665000  0.16243000  0.88165000  1.0
  S  S73  1  0.22463000  0.52904000  0.22002000  1.0
  S  S74  1  0.77536000  0.47080000  0.77996000  1.0
  N  N75  1  0.69312000  0.83168000  0.72965000  1.0
  N  N76  1  0.30686000  0.16827000  0.27037000  1.0
  N  N77  1  0.96184000  0.80543000  0.94491000  1.0
  N  N78  1  0.03818000  0.19459000  0.05510000  1.0
  N  N79  1  0.93812000  0.07836000  0.21753000  1.0
  N  N80  1  0.06186000  0.92165000  0.78246000  1.0
  N  N81  1  0.39718000  0.27700000  0.10321000  1.0
  N  N82  1  0.60284000  0.72299000  0.89679000  1.0
  N  N83  1  0.42250000  0.53724000  0.38288000  1.0
  N  N84  1  0.57752000  0.46305000  0.61718000  1.0
  N  N85  1  0.24751000  0.41798000  0.52899000  1.0
  N  N86  1  0.75248000  0.58195000  0.47099000  1.0
