# generated using pymatgen
data_ZnH6C13NClO4
_symmetry_space_group_name_H-M   'P 1'
_cell_length_a   9.63844000
_cell_length_b   11.06890000
_cell_length_c   16.13350000
_cell_angle_alpha   89.74480000
_cell_angle_beta   90.19140000
_cell_angle_gamma   89.95670000
_symmetry_Int_Tables_number   1
_chemical_formula_structural   ZnH6C13NClO4
_chemical_formula_sum   'Zn2 H12 C26 N2 Cl2 O8'
_cell_volume   1721.20637273
_cell_formula_units_Z   2
loop_
 _symmetry_equiv_pos_site_id
 _symmetry_equiv_pos_as_xyz
  1  'x, y, z'
loop_
 _atom_site_type_symbol
 _atom_site_label
 _atom_site_symmetry_multiplicity
 _atom_site_fract_x
 _atom_site_fract_y
 _atom_site_fract_z
 _atom_site_occupancy
  Zn  Zn0  1  0.64331000  0.50158000  0.49999000  1.0
  Zn  Zn1  1  0.35669000  0.49842000  0.50001000  1.0
  H  H2  1  0.36499000  0.67209000  0.05082000  1.0
  H  H3  1  0.63501000  0.32791000  0.94918000  1.0
  H  H4  1  0.60212000  0.68807000  0.94754000  1.0
  H  H5  1  0.39788000  0.31194000  0.05246000  1.0
  H  H6  1  0.26024000  0.48361000  0.94948000  1.0
  H  H7  1  0.73976000  0.51639000  0.05052000  1.0
  H  H8  1  0.34805000  0.11740000  0.59325000  1.0
  H  H9  1  0.65195000  0.88260000  0.40674000  1.0
  H  H10  1  0.13300000  0.35687000  0.58372000  1.0
  H  H11  1  0.86700000  0.64313000  0.41628000  1.0
  H  H12  1  0.86682000  0.35669000  0.58297000  1.0
  H  H13  1  0.13318000  0.64330000  0.41703000  1.0
  C  C14  1  0.49983000  0.73674000  0.50032000  1.0
  C  C15  1  0.50017000  0.26325000  0.49968000  1.0
  C  C16  1  0.41465000  0.06560000  0.55216000  1.0
  C  C17  1  0.58536000  0.93440000  0.44784000  1.0
  C  C18  1  0.50215000  0.12759000  0.49759000  1.0
  C  C19  1  0.49786000  0.87241000  0.50240000  1.0
  C  C20  1  0.07216000  0.42025000  0.54666000  1.0
  C  C21  1  0.92784000  0.57975000  0.45334000  1.0
  C  C22  1  0.92772000  0.42024000  0.54636000  1.0
  C  C23  1  0.07228000  0.57975000  0.45364000  1.0
  C  C24  1  0.49939000  0.50095000  0.33786000  1.0
  C  C25  1  0.50060000  0.49905000  0.66214000  1.0
  C  C26  1  0.55701000  0.60455000  0.97183000  1.0
  C  C27  1  0.44299000  0.39546000  0.02817000  1.0
  C  C28  1  0.42477000  0.59564000  0.02730000  1.0
  C  C29  1  0.57523000  0.40436000  0.97270000  1.0
  C  C30  1  0.49945000  0.50073000  0.24847000  1.0
  C  C31  1  0.50055000  0.49927000  0.75152000  1.0
  C  C32  1  0.63340000  0.50915000  0.02728000  1.0
  C  C33  1  0.36660000  0.49085000  0.97272000  1.0
  C  C34  1  0.50147000  0.50033000  0.08524000  1.0
  C  C35  1  0.49853000  0.49967000  0.91476000  1.0
  C  C36  1  0.50043000  0.50042000  0.17291000  1.0
  C  C37  1  0.49957000  0.49958000  0.82710000  1.0
  C  C38  1  0.41216000  0.93981000  0.55523000  1.0
  C  C39  1  0.58784000  0.06019000  0.44477000  1.0
  N  N40  1  0.85718000  0.50010000  0.49971000  1.0
  N  N41  1  0.14282000  0.49990000  0.50029000  1.0
  Cl  Cl42  1  0.30608000  0.87098000  0.62771000  1.0
  Cl  Cl43  1  0.69392000  0.12902000  0.37229000  1.0
  O  O44  1  0.61897000  0.68719000  0.49904000  1.0
  O  O45  1  0.38104000  0.31281000  0.50096000  1.0
  O  O46  1  0.38337000  0.68332000  0.49819000  1.0
  O  O47  1  0.61664000  0.31667000  0.50181000  1.0
  O  O48  1  0.61785000  0.50321000  0.37344000  1.0
  O  O49  1  0.38215000  0.49679000  0.62656000  1.0
  O  O50  1  0.38135000  0.49882000  0.37339000  1.0
  O  O51  1  0.61864000  0.50118000  0.62660000  1.0
