# generated using pymatgen
data_CdH12C12(NO)4
_symmetry_space_group_name_H-M   'P 1'
_cell_length_a   15.96690000
_cell_length_b   15.96680000
_cell_length_c   16.51148019
_cell_angle_alpha   118.90324397
_cell_angle_beta   118.90364039
_cell_angle_gamma   90.00590000
_symmetry_Int_Tables_number   1
_chemical_formula_structural   CdH12C12(NO)4
_chemical_formula_sum   'Cd8 H96 C96 N32 O32'
_cell_volume   3072.39209415
_cell_formula_units_Z   8
loop_
 _symmetry_equiv_pos_site_id
 _symmetry_equiv_pos_as_xyz
  1  'x, y, z'
loop_
 _atom_site_type_symbol
 _atom_site_label
 _atom_site_symmetry_multiplicity
 _atom_site_fract_x
 _atom_site_fract_y
 _atom_site_fract_z
 _atom_site_occupancy
  Cd  Cd0  1  0.91137000  0.71379000  0.18005000  1.0
  Cd  Cd1  1  0.26865000  0.46630000  0.17975000  1.0
  Cd  Cd2  1  0.53371000  0.08894000  0.82019000  1.0
  Cd  Cd3  1  0.28636000  0.73137000  0.82007000  1.0
  Cd  Cd4  1  0.33894000  0.28371000  0.32019000  1.0
  Cd  Cd5  1  0.98136000  0.03636000  0.32007000  1.0
  Cd  Cd6  1  0.71630000  0.01865000  0.67975000  1.0
  Cd  Cd7  1  0.96379000  0.66137000  0.68005000  1.0
  H  H8  1  0.21583000  0.81699000  0.65401000  1.0
  H  H9  1  0.43843000  0.83725000  0.65450000  1.0
  H  H10  1  0.16286000  0.78419000  0.34597000  1.0
  H  H11  1  0.18274000  0.56134000  0.34540000  1.0
  H  H12  1  0.03418000  0.91285000  0.84596000  1.0
  H  H13  1  0.81135000  0.93274000  0.84541000  1.0
  H  H14  1  0.08725000  0.18844000  0.15450000  1.0
  H  H15  1  0.06699000  0.96584000  0.15401000  1.0
  H  H16  1  0.08042000  0.69889000  0.42282000  1.0
  H  H17  1  0.34250000  0.72408000  0.42323000  1.0
  H  H18  1  0.27595000  0.91951000  0.57720000  1.0
  H  H19  1  0.30075000  0.65724000  0.57665000  1.0
  H  H20  1  0.16950000  0.02594000  0.07719000  1.0
  H  H21  1  0.90725000  0.05075000  0.07665000  1.0
  H  H22  1  0.97408000  0.09249000  0.92323000  1.0
  H  H23  1  0.94889000  0.83042000  0.92282000  1.0
  H  H24  1  0.96155000  0.44689000  0.35853000  1.0
  H  H25  1  0.39701000  0.91169000  0.35876000  1.0
  H  H26  1  0.08833000  0.03848000  0.64158000  1.0
  H  H27  1  0.55285000  0.60281000  0.64106000  1.0
  H  H28  1  0.28849000  0.83835000  0.14159000  1.0
  H  H29  1  0.85281000  0.30286000  0.14106000  1.0
  H  H30  1  0.16170000  0.14702000  0.85877000  1.0
  H  H31  1  0.69690000  0.71155000  0.85853000  1.0
  H  H32  1  0.01106000  0.47994000  0.29798000  1.0
  H  H33  1  0.28704000  0.81814000  0.29830000  1.0
  H  H34  1  0.18191000  0.98899000  0.70209000  1.0
  H  H35  1  0.51987000  0.71289000  0.70158000  1.0
  H  H36  1  0.23899000  0.93191000  0.20209000  1.0
  H  H37  1  0.96289000  0.26987000  0.20158000  1.0
  H  H38  1  0.06813000  0.03703000  0.79830000  1.0
  H  H39  1  0.72993000  0.76105000  0.79797000  1.0
  H  H40  1  0.85062000  0.56013000  0.33948000  1.0
  H  H41  1  0.48895000  0.77953000  0.33961000  1.0
  H  H42  1  0.22047000  0.14945000  0.66054000  1.0
  H  H43  1  0.43970000  0.51105000  0.66028000  1.0
  H  H44  1  0.39945000  0.97048000  0.16054000  1.0
  H  H45  1  0.76104000  0.18970000  0.16027000  1.0
  H  H46  1  0.02954000  0.23895000  0.83962000  1.0
  H  H47  1  0.81013000  0.60062000  0.83948000  1.0
  H  H48  1  0.82338000  0.45484000  0.21370000  1.0
  H  H49  1  0.39029000  0.75902000  0.21388000  1.0
  H  H50  1  0.24107000  0.17667000  0.78638000  1.0
  H  H51  1  0.54504000  0.60958000  0.78598000  1.0
  H  H52  1  0.42667000  0.99108000  0.28638000  1.0
  H  H53  1  0.85958000  0.29504000  0.28598000  1.0
  H  H54  1  0.00902000  0.14030000  0.71389000  1.0
  H  H55  1  0.70485000  0.57338000  0.71370000  1.0
  H  H56  1  0.96904000  0.43001000  0.65148000  1.0
  H  H57  1  0.68234000  0.22123000  0.65111000  1.0
  H  H58  1  0.77837000  0.03086000  0.34857000  1.0
  H  H59  1  0.57036000  0.31788000  0.34868000  1.0
  H  H60  1  0.28087000  0.52839000  0.84858000  1.0
  H  H61  1  0.56788000  0.32035000  0.84867000  1.0
  H  H62  1  0.47124000  0.43234000  0.15112000  1.0
  H  H63  1  0.68001000  0.71904000  0.15147000  1.0
  H  H64  1  0.05075000  0.30251000  0.54043000  1.0
  H  H65  1  0.48958000  0.23763000  0.53999000  1.0
  H  H66  1  0.76208000  0.94916000  0.45970000  1.0
  H  H67  1  0.69775000  0.51077000  0.46009000  1.0
  H  H68  1  0.19917000  0.51208000  0.95970000  1.0
  H  H69  1  0.76078000  0.44775000  0.96009000  1.0
  H  H70  1  0.48762000  0.23958000  0.03999000  1.0
  H  H71  1  0.55251000  0.80074000  0.04042000  1.0
  H  H72  1  0.13848000  0.44205000  0.44621000  1.0
  H  H73  1  0.30771000  0.00423000  0.44635000  1.0
  H  H74  1  0.99577000  0.86134000  0.55360000  1.0
  H  H75  1  0.55793000  0.69244000  0.55385000  1.0
  H  H76  1  0.11133000  0.74577000  0.05359000  1.0
  H  H77  1  0.94244000  0.30793000  0.05385000  1.0
  H  H78  1  0.25424000  0.05772000  0.94636000  1.0
  H  H79  1  0.69204000  0.88848000  0.94620000  1.0
  H  H80  1  0.07875000  0.31585000  0.38962000  1.0
  H  H81  1  0.31087000  0.07383000  0.38973000  1.0
  H  H82  1  0.92631000  0.92106000  0.61042000  1.0
  H  H83  1  0.68412000  0.68930000  0.61041000  1.0
  H  H84  1  0.17106000  0.67631000  0.11042000  1.0
  H  H85  1  0.93929000  0.43411000  0.11040000  1.0
  H  H86  1  0.32383000  0.06088000  0.88973000  1.0
  H  H87  1  0.56585000  0.82875000  0.88962000  1.0
  H  H88  1  0.22225000  0.31961000  0.54750000  1.0
  H  H89  1  0.32512000  0.22790000  0.54738000  1.0
  H  H90  1  0.77210000  0.77768000  0.45253000  1.0
  H  H91  1  0.68043000  0.67483000  0.45261000  1.0
  H  H92  1  0.02768000  0.52210000  0.95253000  1.0
  H  H93  1  0.92483000  0.43043000  0.95261000  1.0
  H  H94  1  0.47790000  0.07513000  0.04738000  1.0
  H  H95  1  0.56960000  0.97225000  0.04749000  1.0
  H  H96  1  0.28078000  0.44809000  0.61451000  1.0
  H  H97  1  0.33382000  0.16669000  0.61474000  1.0
  H  H98  1  0.83346000  0.71913000  0.38537000  1.0
  H  H99  1  0.55192000  0.66619000  0.38535000  1.0
  H  H100  1  0.96913000  0.58347000  0.88537000  1.0
  H  H101  1  0.91619000  0.30192000  0.88535000  1.0
  H  H102  1  0.41670000  0.08382000  0.11474000  1.0
  H  H103  1  0.69809000  0.03078000  0.11451000  1.0
  C  C104  1  0.09438000  0.59548000  0.55459000  1.0
  C  C105  1  0.46033000  0.95917000  0.55484000  1.0
  C  C106  1  0.04088000  0.90575000  0.44549000  1.0
  C  C107  1  0.40436000  0.53961000  0.44507000  1.0
  C  C108  1  0.15576000  0.79088000  0.94549000  1.0
  C  C109  1  0.78961000  0.15436000  0.94507000  1.0
  C  C110  1  0.20918000  0.21034000  0.05485000  1.0
  C  C111  1  0.84547000  0.84437000  0.05458000  1.0
  C  C112  1  0.16509000  0.74101000  0.59955000  1.0
  C  C113  1  0.43465000  0.85871000  0.59996000  1.0
  C  C114  1  0.14137000  0.83497000  0.40046000  1.0
  C  C115  1  0.25875000  0.56517000  0.39995000  1.0
  C  C116  1  0.08496000  0.89136000  0.90045000  1.0
  C  C117  1  0.81518000  0.00875000  0.89996000  1.0
  C  C118  1  0.10871000  0.18465000  0.09996000  1.0
  C  C119  1  0.99101000  0.91509000  0.09955000  1.0
  C  C120  1  0.09844000  0.68418000  0.48600000  1.0
  C  C121  1  0.38767000  0.80196000  0.48639000  1.0
  C  C122  1  0.19808000  0.90156000  0.51402000  1.0
  C  C123  1  0.31553000  0.61213000  0.51352000  1.0
  C  C124  1  0.15156000  0.94808000  0.01402000  1.0
  C  C125  1  0.86214000  0.06553000  0.01352000  1.0
  C  C126  1  0.05196000  0.13767000  0.98639000  1.0
  C  C127  1  0.93418000  0.84844000  0.98600000  1.0
  C  C128  1  0.97757000  0.50564000  0.34701000  1.0
  C  C129  1  0.36954000  0.84144000  0.34728000  1.0
  C  C130  1  0.15858000  0.02247000  0.65306000  1.0
  C  C131  1  0.49414000  0.63038000  0.65261000  1.0
  C  C132  1  0.27247000  0.90858000  0.15306000  1.0
  C  C133  1  0.88038000  0.24414000  0.15261000  1.0
  C  C134  1  0.09143000  0.11954000  0.84728000  1.0
  C  C135  1  0.75564000  0.72757000  0.84701000  1.0
  C  C136  1  0.88083000  0.52698000  0.28763000  1.0
  C  C137  1  0.40689000  0.76077000  0.28784000  1.0
  C  C138  1  0.23924000  0.11924000  0.71240000  1.0
  C  C139  1  0.47286000  0.59310000  0.71208000  1.0
  C  C140  1  0.36924000  0.98925000  0.21240000  1.0
  C  C141  1  0.84309000  0.22285000  0.21207000  1.0
  C  C142  1  0.01078000  0.15690000  0.78785000  1.0
  C  C143  1  0.77698000  0.63083000  0.78763000  1.0
  C  C144  1  0.89054000  0.59088000  0.24602000  1.0
  C  C145  1  0.35570000  0.65520000  0.24615000  1.0
  C  C146  1  0.34477000  0.10964000  0.75399000  1.0
  C  C147  1  0.40904000  0.64444000  0.75379000  1.0
  C  C148  1  0.35964000  0.09478000  0.25399000  1.0
  C  C149  1  0.89444000  0.15904000  0.25379000  1.0
  C  C150  1  0.90521000  0.10570000  0.74616000  1.0
  C  C151  1  0.84089000  0.64054000  0.74602000  1.0
  C  C152  1  0.06411000  0.51700000  0.56496000  1.0
  C  C153  1  0.50087000  0.04797000  0.56509000  1.0
  C  C154  1  0.95204000  0.93603000  0.43519000  1.0
  C  C155  1  0.48297000  0.49916000  0.43486000  1.0
  C  C156  1  0.18603000  0.70204000  0.93519000  1.0
  C  C157  1  0.74915000  0.23296000  0.93485000  1.0
  C  C158  1  0.29798000  0.25088000  0.06510000  1.0
  C  C159  1  0.76699000  0.81411000  0.06495000  1.0
  C  C160  1  0.00563000  0.44039000  0.61476000  1.0
  C  C161  1  0.60906000  0.17420000  0.61451000  1.0
  C  C162  1  0.82558000  0.99439000  0.38536000  1.0
  C  C163  1  0.55985000  0.39109000  0.38536000  1.0
  C  C164  1  0.24439000  0.57558000  0.88536000  1.0
  C  C165  1  0.64109000  0.30984000  0.88535000  1.0
  C  C166  1  0.42421000  0.35907000  0.11452000  1.0
  C  C167  1  0.69039000  0.75562000  0.11475000  1.0
  C  C168  1  0.04442000  0.37659000  0.55939000  1.0
  C  C169  1  0.51488000  0.18261000  0.55914000  1.0
  C  C170  1  0.81718000  0.95556000  0.44073000  1.0
  C  C171  1  0.62361000  0.48533000  0.44092000  1.0
  C  C172  1  0.20556000  0.56718000  0.94073000  1.0
  C  C173  1  0.73532000  0.37360000  0.94091000  1.0
  C  C174  1  0.43262000  0.26489000  0.05915000  1.0
  C  C175  1  0.62659000  0.79442000  0.05938000  1.0
  C  C176  1  0.12936000  0.38869000  0.46715000  1.0
  C  C177  1  0.33781000  0.07850000  0.46728000  1.0
  C  C178  1  0.92154000  0.87053000  0.53281000  1.0
  C  C179  1  0.61126000  0.66236000  0.53289000  1.0
  C  C180  1  0.12054000  0.67154000  0.03281000  1.0
  C  C181  1  0.91235000  0.36125000  0.03288000  1.0
  C  C182  1  0.32850000  0.08782000  0.96728000  1.0
  C  C183  1  0.63869000  0.87937000  0.96715000  1.0
  C  C184  1  0.23125000  0.37805000  0.53249000  1.0
  C  C185  1  0.30127000  0.15453000  0.53262000  1.0
  C  C186  1  0.84552000  0.76867000  0.46745000  1.0
  C  C187  1  0.62190000  0.69880000  0.46745000  1.0
  C  C188  1  0.01867000  0.59552000  0.96745000  1.0
  C  C189  1  0.94880000  0.37190000  0.96745000  1.0
  C  C190  1  0.40454000  0.05128000  0.03262000  1.0
  C  C191  1  0.62805000  0.98126000  0.03249000  1.0
  C  C192  1  0.28088000  0.34955000  0.46819000  1.0
  C  C193  1  0.18735000  0.11868000  0.46833000  1.0
  C  C194  1  0.88139000  0.71910000  0.53182000  1.0
  C  C195  1  0.65038000  0.81269000  0.53164000  1.0
  C  C196  1  0.96910000  0.63139000  0.03182000  1.0
  C  C197  1  0.06269000  0.40039000  0.03165000  1.0
  C  C198  1  0.36868000  0.93736000  0.96833000  1.0
  C  C199  1  0.59955000  0.03089000  0.96819000  1.0
  N  N200  1  0.16214000  0.68513000  0.64109000  1.0
  N  N201  1  0.47913000  0.95608000  0.64140000  1.0
  N  N202  1  0.04400000  0.83800000  0.35896000  1.0
  N  N203  1  0.31471000  0.52078000  0.35852000  1.0
  N  N204  1  0.08800000  0.79400000  0.85896000  1.0
  N  N205  1  0.77078000  0.06471000  0.85852000  1.0
  N  N206  1  0.20608000  0.22914000  0.14141000  1.0
  N  N207  1  0.93513000  0.91214000  0.14108000  1.0
  N  N208  1  0.05363000  0.59237000  0.45835000  1.0
  N  N209  1  0.40482000  0.86606000  0.45864000  1.0
  N  N210  1  0.13396000  0.94642000  0.54171000  1.0
  N  N211  1  0.40741000  0.59510000  0.54127000  1.0
  N  N212  1  0.19642000  0.88396000  0.04171000  1.0
  N  N213  1  0.84510000  0.15741000  0.04127000  1.0
  N  N214  1  0.11606000  0.15482000  0.95864000  1.0
  N  N215  1  0.84236000  0.80363000  0.95834000  1.0
  N  N216  1  0.01830000  0.52719000  0.61763000  1.0
  N  N217  1  0.59932000  0.09038000  0.61757000  1.0
  N  N218  1  0.90954000  0.98183000  0.38252000  1.0
  N  N219  1  0.47291000  0.40071000  0.38223000  1.0
  N  N220  1  0.23185000  0.65955000  0.88253000  1.0
  N  N221  1  0.65070000  0.22290000  0.88222000  1.0
  N  N222  1  0.34039000  0.34932000  0.11758000  1.0
  N  N223  1  0.77720000  0.76830000  0.11763000  1.0
  N  N224  1  0.08100000  0.42595000  0.52845000  1.0
  N  N225  1  0.44744000  0.10245000  0.52848000  1.0
  N  N226  1  0.89751000  0.91903000  0.47165000  1.0
  N  N227  1  0.57407000  0.55271000  0.47166000  1.0
  N  N228  1  0.16904000  0.64751000  0.97165000  1.0
  N  N229  1  0.80270000  0.32407000  0.97165000  1.0
  N  N230  1  0.35245000  0.19744000  0.02848000  1.0
  N  N231  1  0.67595000  0.83101000  0.02845000  1.0
  O  O232  1  0.82683000  0.63806000  0.22668000  1.0
  O  O233  1  0.40008000  0.58876000  0.22661000  1.0
  O  O234  1  0.41125000  0.17347000  0.77344000  1.0
  O  O235  1  0.36174000  0.60000000  0.77296000  1.0
  O  O236  1  0.42346000  0.16126000  0.27344000  1.0
  O  O237  1  0.84999000  0.11173000  0.27295000  1.0
  O  O238  1  0.83876000  0.15008000  0.72662000  1.0
  O  O239  1  0.88807000  0.57684000  0.72669000  1.0
  O  O240  1  0.96163000  0.59405000  0.23141000  1.0
  O  O241  1  0.27005000  0.63732000  0.23164000  1.0
  O  O242  1  0.36263000  0.03851000  0.76853000  1.0
  O  O243  1  0.40607000  0.73025000  0.76865000  1.0
  O  O244  1  0.28851000  0.11263000  0.26853000  1.0
  O  O245  1  0.98025000  0.15607000  0.26865000  1.0
  O  O246  1  0.88732000  0.02005000  0.73164000  1.0
  O  O247  1  0.84405000  0.71163000  0.73141000  1.0
  O  O248  1  0.23067000  0.33569000  0.37196000  1.0
  O  O249  1  0.14141000  0.03633000  0.37207000  1.0
  O  O250  1  0.96385000  0.76937000  0.62796000  1.0
  O  O251  1  0.66454000  0.85868000  0.62802000  1.0
  O  O252  1  0.01937000  0.71385000  0.12796000  1.0
  O  O253  1  0.10868000  0.41454000  0.12802000  1.0
  O  O254  1  0.28633000  0.89141000  0.87206000  1.0
  O  O255  1  0.58571000  0.98068000  0.87197000  1.0
  O  O256  1  0.36852000  0.34079000  0.51023000  1.0
  O  O257  1  0.14168000  0.16936000  0.51033000  1.0
  O  O258  1  0.83065000  0.63154000  0.49001000  1.0
  O  O259  1  0.65894000  0.85829000  0.48952000  1.0
  O  O260  1  0.88154000  0.58065000  0.99001000  1.0
  O  O261  1  0.10830000  0.40894000  0.98953000  1.0
  O  O262  1  0.41935000  0.89168000  0.01032000  1.0
  O  O263  1  0.59079000  0.11852000  0.01023000  1.0
