# generated using pymatgen
data_CoH5C5(NO)2
_symmetry_space_group_name_H-M   'P 1'
_cell_length_a   8.55579000
_cell_length_b   8.55577000
_cell_length_c   10.39480000
_cell_angle_alpha   107.78600000
_cell_angle_beta   107.78600000
_cell_angle_gamma   104.91800000
_symmetry_Int_Tables_number   1
_chemical_formula_structural   CoH5C5(NO)2
_chemical_formula_sum   'Co4 H20 C20 N8 O8'
_cell_volume   636.20305571
_cell_formula_units_Z   4
loop_
 _symmetry_equiv_pos_site_id
 _symmetry_equiv_pos_as_xyz
  1  'x, y, z'
loop_
 _atom_site_type_symbol
 _atom_site_label
 _atom_site_symmetry_multiplicity
 _atom_site_fract_x
 _atom_site_fract_y
 _atom_site_fract_z
 _atom_site_occupancy
  Co  Co0  1  0.93081000  0.96373000  0.29492000  1.0
  Co  Co1  1  0.66868000  0.63577000  0.70526000  1.0
  Co  Co2  1  0.88578000  0.41868000  0.20526000  1.0
  Co  Co3  1  0.21373000  0.68081000  0.79492000  1.0
  H  H4  1  0.28685000  0.01390000  0.51404000  1.0
  H  H5  1  0.49962000  0.77245000  0.48559000  1.0
  H  H6  1  0.02245000  0.24962000  0.98560000  1.0
  H  H7  1  0.26390000  0.03685000  0.01404000  1.0
  H  H8  1  0.36243000  0.94705000  0.37338000  1.0
  H  H9  1  0.57356000  0.98876000  0.62616000  1.0
  H  H10  1  0.23876000  0.32356000  0.12616000  1.0
  H  H11  1  0.19706000  0.11244000  0.87338000  1.0
  H  H12  1  0.16555000  0.38930000  0.48568000  1.0
  H  H13  1  0.90372000  0.67947000  0.51471000  1.0
  H  H14  1  0.92947000  0.65372000  0.01471000  1.0
  H  H15  1  0.63930000  0.91555000  0.98568000  1.0
  H  H16  1  0.96563000  0.33991000  0.80122000  1.0
  H  H17  1  0.53840000  0.16450000  0.19878000  1.0
  H  H18  1  0.41450000  0.28839000  0.69878000  1.0
  H  H19  1  0.58991000  0.71562000  0.30121000  1.0
  H  H20  1  0.85709000  0.00483000  0.57999000  1.0
  H  H21  1  0.42435000  0.27721000  0.41992000  1.0
  H  H22  1  0.52722000  0.17434000  0.91992000  1.0
  H  H23  1  0.25483000  0.60709000  0.07999000  1.0
  C  C24  1  0.14140000  0.74586000  0.35636000  1.0
  C  C25  1  0.38950000  0.78506000  0.64354000  1.0
  C  C26  1  0.03506000  0.13950000  0.14354000  1.0
  C  C27  1  0.99586000  0.89140000  0.85636000  1.0
  C  C28  1  0.31480000  0.90522000  0.44944000  1.0
  C  C29  1  0.45565000  0.86511000  0.55021000  1.0
  C  C30  1  0.11511000  0.20565000  0.05021000  1.0
  C  C31  1  0.15522000  0.06481000  0.94945000  1.0
  C  C32  1  0.09900000  0.32946000  0.54254000  1.0
  C  C33  1  0.78685000  0.55619000  0.45772000  1.0
  C  C34  1  0.80619000  0.53685000  0.95772000  1.0
  C  C35  1  0.57946000  0.84901000  0.04254000  1.0
  C  C36  1  0.99457000  0.30014000  0.70440000  1.0
  C  C37  1  0.59552000  0.29011000  0.29569000  1.0
  C  C38  1  0.54012000  0.34552000  0.79569000  1.0
  C  C39  1  0.55014000  0.74457000  0.20439000  1.0
  C  C40  1  0.93869000  0.13387000  0.59334000  1.0
  C  C41  1  0.54025000  0.34538000  0.40673000  1.0
  C  C42  1  0.59538000  0.29025000  0.90673000  1.0
  C  C43  1  0.38387000  0.68869000  0.09333000  1.0
  N  N44  1  0.00434000  0.15345000  0.49028000  1.0
  N  N45  1  0.66299000  0.51391000  0.50989000  1.0
  N  N46  1  0.76391000  0.41299000  0.00989000  1.0
  N  N47  1  0.40345000  0.75435000  0.99028000  1.0
  N  N48  1  0.09734000  0.42328000  0.67219000  1.0
  N  N49  1  0.75105000  0.42498000  0.32805000  1.0
  N  N50  1  0.67498000  0.50105000  0.82805000  1.0
  N  N51  1  0.67328000  0.84734000  0.17218000  1.0
  O  O52  1  0.99286000  0.76375000  0.31334000  1.0
  O  O53  1  0.45037000  0.67956000  0.68664000  1.0
  O  O54  1  0.92956000  0.20037000  0.18664000  1.0
  O  O55  1  0.01375000  0.74286000  0.81334000  1.0
  O  O56  1  0.14170000  0.58898000  0.32008000  1.0
  O  O57  1  0.26907000  0.82182000  0.67993000  1.0
  O  O58  1  0.07182000  0.01907000  0.17993000  1.0
  O  O59  1  0.83898000  0.89170000  0.82008000  1.0
