# generated using pymatgen
data_In2H6C5O11
_symmetry_space_group_name_H-M   'P 1'
_cell_length_a   8.63012000
_cell_length_b   10.82540000
_cell_length_c   12.44300000
_cell_angle_alpha   89.99990000
_cell_angle_beta   74.43500000
_cell_angle_gamma   89.99990000
_symmetry_Int_Tables_number   1
_chemical_formula_structural   In2H6C5O11
_chemical_formula_sum   'In8 H24 C20 O44'
_cell_volume   1119.84900413
_cell_formula_units_Z   4
loop_
 _symmetry_equiv_pos_site_id
 _symmetry_equiv_pos_as_xyz
  1  'x, y, z'
loop_
 _atom_site_type_symbol
 _atom_site_label
 _atom_site_symmetry_multiplicity
 _atom_site_fract_x
 _atom_site_fract_y
 _atom_site_fract_z
 _atom_site_occupancy
  In  In0  1  0.13106000  0.11890000  0.21833000  1.0
  In  In1  1  0.36894000  0.61890000  0.28167000  1.0
  In  In2  1  0.86894000  0.88110000  0.78167000  1.0
  In  In3  1  0.63106000  0.38110000  0.71833000  1.0
  In  In4  1  0.76299000  0.24132000  0.17033000  1.0
  In  In5  1  0.73701000  0.74132000  0.32967000  1.0
  In  In6  1  0.23700000  0.75868000  0.82967000  1.0
  In  In7  1  0.26300000  0.25868000  0.67033000  1.0
  H  H8  1  0.85852000  0.01474000  0.20804000  1.0
  H  H9  1  0.64148000  0.51474000  0.29195000  1.0
  H  H10  1  0.14148000  0.98526000  0.79196000  1.0
  H  H11  1  0.35852000  0.48526000  0.70804000  1.0
  H  H12  1  0.00858000  0.83946000  0.44789000  1.0
  H  H13  1  0.49142000  0.33946000  0.05211000  1.0
  H  H14  1  0.99142000  0.16054000  0.55211000  1.0
  H  H15  1  0.50858000  0.66054000  0.94789000  1.0
  H  H16  1  0.18321000  0.39660000  0.97647000  1.0
  H  H17  1  0.31678000  0.89660000  0.52353000  1.0
  H  H18  1  0.81678000  0.60341000  0.02353000  1.0
  H  H19  1  0.68322000  0.10341000  0.47647000  1.0
  H  H20  1  0.91572000  0.40498000  0.42737000  1.0
  H  H21  1  0.58428000  0.90498000  0.07263000  1.0
  H  H22  1  0.08428000  0.59501000  0.57263000  1.0
  H  H23  1  0.41572000  0.09502000  0.92737000  1.0
  H  H24  1  0.08553000  0.90572000  0.05063000  1.0
  H  H25  1  0.41447000  0.40572000  0.44937000  1.0
  H  H26  1  0.91446000  0.09428000  0.94937000  1.0
  H  H27  1  0.58553000  0.59428000  0.55062000  1.0
  H  H28  1  0.36590000  0.07320000  0.37718000  1.0
  H  H29  1  0.13410000  0.57320000  0.12282000  1.0
  H  H30  1  0.63410000  0.92680000  0.62282000  1.0
  H  H31  1  0.86590000  0.42680000  0.87717000  1.0
  C  C32  1  0.00452000  0.90659000  0.38214000  1.0
  C  C33  1  0.49547000  0.40659000  0.11786000  1.0
  C  C34  1  0.99548000  0.09341000  0.61786000  1.0
  C  C35  1  0.50452000  0.59341000  0.88214000  1.0
  C  C36  1  0.11170000  0.33264000  0.03985000  1.0
  C  C37  1  0.38830000  0.83265000  0.46015000  1.0
  C  C38  1  0.88830000  0.66735000  0.96015000  1.0
  C  C39  1  0.61170000  0.16735000  0.53985000  1.0
  C  C40  1  0.91603000  0.33748000  0.36083000  1.0
  C  C41  1  0.58397000  0.83748000  0.13916000  1.0
  C  C42  1  0.08397000  0.66252000  0.63916000  1.0
  C  C43  1  0.41603000  0.16252000  0.86084000  1.0
  C  C44  1  0.21644000  0.90840000  0.04194000  1.0
  C  C45  1  0.28356000  0.40840000  0.45806000  1.0
  C  C46  1  0.78356000  0.09160000  0.95806000  1.0
  C  C47  1  0.71644000  0.59160000  0.54194000  1.0
  C  C48  1  0.43550000  0.12822000  0.30586000  1.0
  C  C49  1  0.06450000  0.62822000  0.19414000  1.0
  C  C50  1  0.56450000  0.87177000  0.69414000  1.0
  C  C51  1  0.93550000  0.37178000  0.80586000  1.0
  O  O52  1  0.58310000  0.14421000  0.30018000  1.0
  O  O53  1  0.91690000  0.64421000  0.19982000  1.0
  O  O54  1  0.41690000  0.85579000  0.69982000  1.0
  O  O55  1  0.08310000  0.35579000  0.80018000  1.0
  O  O56  1  0.19059000  0.25835000  0.08360000  1.0
  O  O57  1  0.30941000  0.75836000  0.41640000  1.0
  O  O58  1  0.80941000  0.74165000  0.91640000  1.0
  O  O59  1  0.69059000  0.24165000  0.58361000  1.0
  O  O60  1  0.91728000  0.08601000  0.16822000  1.0
  O  O61  1  0.58273000  0.58601000  0.33178000  1.0
  O  O62  1  0.08272000  0.91399000  0.83178000  1.0
  O  O63  1  0.41728000  0.41399000  0.66822000  1.0
  O  O64  1  0.89467000  0.89757000  0.33130000  1.0
  O  O65  1  0.60533000  0.39757000  0.16870000  1.0
  O  O66  1  0.10533000  0.10243000  0.66870000  1.0
  O  O67  1  0.39467000  0.60243000  0.83130000  1.0
  O  O68  1  0.11039000  0.99088000  0.36093000  1.0
  O  O69  1  0.38961000  0.49088000  0.13907000  1.0
  O  O70  1  0.88961000  0.00913000  0.63907000  1.0
  O  O71  1  0.61039000  0.50913000  0.86093000  1.0
  O  O72  1  0.30990000  0.84087000  0.96918000  1.0
  O  O73  1  0.19010000  0.34087000  0.53082000  1.0
  O  O74  1  0.69009000  0.15913000  0.03082000  1.0
  O  O75  1  0.80990000  0.65913000  0.46918000  1.0
  O  O76  1  0.26960000  0.98006000  0.10456000  1.0
  O  O77  1  0.23040000  0.48007000  0.39545000  1.0
  O  O78  1  0.73040000  0.01993000  0.89544000  1.0
  O  O79  1  0.76960000  0.51994000  0.60455000  1.0
  O  O80  1  0.36592000  0.17211000  0.23641000  1.0
  O  O81  1  0.13408000  0.67211000  0.26360000  1.0
  O  O82  1  0.63408000  0.82789000  0.76360000  1.0
  O  O83  1  0.86592000  0.32789000  0.73640000  1.0
  O  O84  1  0.80916000  0.35143000  0.30837000  1.0
  O  O85  1  0.69083000  0.85144000  0.19163000  1.0
  O  O86  1  0.19083000  0.64856000  0.69163000  1.0
  O  O87  1  0.30917000  0.14856000  0.80837000  1.0
  O  O88  1  0.96016000  0.34352000  0.05878000  1.0
  O  O89  1  0.53983000  0.84353000  0.44122000  1.0
  O  O90  1  0.03983000  0.65647000  0.94122000  1.0
  O  O91  1  0.46017000  0.15647000  0.55878000  1.0
  O  O92  1  0.02370000  0.25486000  0.34580000  1.0
  O  O93  1  0.47629000  0.75486000  0.15420000  1.0
  O  O94  1  0.97630000  0.74514000  0.65420000  1.0
  O  O95  1  0.52371000  0.24514000  0.84580000  1.0
