# generated using pymatgen
data_NaH4C3N3O4
_symmetry_space_group_name_H-M   'P 1'
_cell_length_a   3.56128000
_cell_length_b   9.15739000
_cell_length_c   9.16309000
_cell_angle_alpha   91.95070000
_cell_angle_beta   91.12240000
_cell_angle_gamma   98.18250000
_symmetry_Int_Tables_number   1
_chemical_formula_structural   NaH4C3N3O4
_chemical_formula_sum   'Na2 H8 C6 N6 O8'
_cell_volume   295.52324018
_cell_formula_units_Z   2
loop_
 _symmetry_equiv_pos_site_id
 _symmetry_equiv_pos_as_xyz
  1  'x, y, z'
loop_
 _atom_site_type_symbol
 _atom_site_label
 _atom_site_symmetry_multiplicity
 _atom_site_fract_x
 _atom_site_fract_y
 _atom_site_fract_z
 _atom_site_occupancy
  Na  Na0  1  0.33192000  0.63567000  0.62264000  1.0
  Na  Na1  1  0.66810000  0.36433000  0.37735000  1.0
  H  H2  1  0.96167000  0.81908000  0.48019000  1.0
  H  H3  1  0.03835000  0.18092000  0.51980000  1.0
  H  H4  1  0.94401000  0.88698000  0.64480000  1.0
  H  H5  1  0.05600000  0.11303000  0.35520000  1.0
  H  H6  1  0.12337000  0.89381000  0.94903000  1.0
  H  H7  1  0.87659000  0.10619000  0.05097000  1.0
  H  H8  1  0.42916000  0.51268000  0.11739000  1.0
  H  H9  1  0.57083000  0.48732000  0.88261000  1.0
  C  C10  1  0.09016000  0.87662000  0.17790000  1.0
  C  C11  1  0.90984000  0.12337000  0.82210000  1.0
  C  C12  1  0.29506000  0.69578000  0.00874000  1.0
  C  C13  1  0.70494000  0.30423000  0.99127000  1.0
  C  C14  1  0.23829000  0.65720000  0.26975000  1.0
  C  C15  1  0.76170000  0.34278000  0.73024000  1.0
  N  N16  1  0.17046000  0.82755000  0.03692000  1.0
  N  N17  1  0.82951000  0.17245000  0.96309000  1.0
  N  N18  1  0.12353000  0.78995000  0.29222000  1.0
  N  N19  1  0.87648000  0.21005000  0.70778000  1.0
  N  N20  1  0.33166000  0.61430000  0.12890000  1.0
  N  N21  1  0.66832000  0.38570000  0.87110000  1.0
  O  O22  1  0.26271000  0.56610000  0.36817000  1.0
  O  O23  1  0.73729000  0.43390000  0.63182000  1.0
  O  O24  1  0.97958000  0.00085000  0.19142000  1.0
  O  O25  1  0.02044000  0.99915000  0.80859000  1.0
  O  O26  1  0.88236000  0.79688000  0.58153000  1.0
  O  O27  1  0.11766000  0.20312000  0.41846000  1.0
  O  O28  1  0.37178000  0.65153000  0.88356000  1.0
  O  O29  1  0.62820000  0.34847000  0.11645000  1.0
