# generated using pymatgen
data_AlH3C8ClO5F
_symmetry_space_group_name_H-M   'P 1'
_cell_length_a   6.66496000
_cell_length_b   8.89025000
_cell_length_c   11.12970000
_cell_angle_alpha   81.91010000
_cell_angle_beta   72.75520000
_cell_angle_gamma   75.57270000
_symmetry_Int_Tables_number   1
_chemical_formula_structural   AlH3C8ClO5F
_chemical_formula_sum   'Al2 H6 C16 Cl2 O10 F2'
_cell_volume   608.36691306
_cell_formula_units_Z   2
loop_
 _symmetry_equiv_pos_site_id
 _symmetry_equiv_pos_as_xyz
  1  'x, y, z'
loop_
 _atom_site_type_symbol
 _atom_site_label
 _atom_site_symmetry_multiplicity
 _atom_site_fract_x
 _atom_site_fract_y
 _atom_site_fract_z
 _atom_site_occupancy
  Al  Al0  1  0.51414000  0.50332000  0.49694000  1.0
  Al  Al1  1  0.01262000  0.50230000  0.50167000  1.0
  H  H2  1  0.77735000  0.65413000  0.37691000  1.0
  H  H3  1  0.29480000  0.31314000  0.56483000  1.0
  H  H4  1  0.14086000  0.31079000  0.24408000  1.0
  H  H5  1  0.35233000  0.32489000  0.77620000  1.0
  H  H6  1  0.81628000  0.59790000  0.87412000  1.0
  H  H7  1  0.70253000  0.59674000  0.10965000  1.0
  C  C8  1  0.38171000  0.49475000  0.27149000  1.0
  C  C9  1  0.16301000  0.77976000  0.50642000  1.0
  C  C10  1  0.64505000  0.49458000  0.72615000  1.0
  C  C11  1  0.86272000  0.22191000  0.49544000  1.0
  C  C12  1  0.91640000  0.04846000  0.49920000  1.0
  C  C13  1  0.10836000  0.95322000  0.50410000  1.0
  C  C14  1  0.45052000  0.47767000  0.13271000  1.0
  C  C15  1  0.34511000  0.40090000  0.07257000  1.0
  C  C16  1  0.62050000  0.54342000  0.06143000  1.0
  C  C17  1  0.18894000  0.31515000  0.14175000  1.0
  C  C18  1  0.09840000  0.23490000  0.08192000  1.0
  C  C19  1  0.57671000  0.48096000  0.86699000  1.0
  C  C20  1  0.68386000  0.54458000  0.92942000  1.0
  C  C21  1  0.40822000  0.40364000  0.93703000  1.0
  C  C22  1  0.30959000  0.32195000  0.87835000  1.0
  C  C23  1  0.15927000  0.23868000  0.94800000  1.0
  Cl  Cl24  1  0.91316000  0.12932000  0.17087000  1.0
  Cl  Cl25  1  0.04987000  0.13806000  0.87113000  1.0
  O  O26  1  0.52984000  0.49090000  0.32348000  1.0
  O  O27  1  0.00966000  0.71253000  0.52129000  1.0
  O  O28  1  0.84509000  0.48461000  0.67311000  1.0
  O  O29  1  0.66666667  0.28649000  0.50550000  1.0
  O  O30  1  0.49934000  0.51510000  0.66924000  1.0
  O  O31  1  0.01604000  0.28835000  0.48403000  1.0
  O  O32  1  0.18058000  0.51762000  0.32701000  1.0
  O  O33  1  0.36048000  0.71624000  0.49156000  1.0
  O  O34  1  0.76977000  0.57093000  0.44320000  1.0
  O  O35  1  0.26362000  0.42606000  0.55195000  1.0
  F  F36  1  0.75181000  0.98680000  0.49900000  1.0
  F  F37  1  0.27345000  0.01478000  0.50419000  1.0
