# generated using pymatgen
data_CoH9C13(NO2)2
_symmetry_space_group_name_H-M   'P 1'
_cell_length_a   7.73967000
_cell_length_b   10.90290000
_cell_length_c   15.92990000
_cell_angle_alpha   73.27200000
_cell_angle_beta   89.99930000
_cell_angle_gamma   89.99950000
_symmetry_Int_Tables_number   1
_chemical_formula_structural   CoH9C13(NO2)2
_chemical_formula_sum   'Co4 H36 C52 N8 O16'
_cell_volume   1287.35648199
_cell_formula_units_Z   4
loop_
 _symmetry_equiv_pos_site_id
 _symmetry_equiv_pos_as_xyz
  1  'x, y, z'
loop_
 _atom_site_type_symbol
 _atom_site_label
 _atom_site_symmetry_multiplicity
 _atom_site_fract_x
 _atom_site_fract_y
 _atom_site_fract_z
 _atom_site_occupancy
  Co  Co0  1  0.49221000  0.30314000  0.81279000  1.0
  Co  Co1  1  0.99221000  0.69688000  0.68721000  1.0
  Co  Co2  1  0.50779000  0.69686000  0.18722000  1.0
  Co  Co3  1  0.00780000  0.30312000  0.31279000  1.0
  H  H4  1  0.65573000  0.52198000  0.78016000  1.0
  H  H5  1  0.15572000  0.47806000  0.71985000  1.0
  H  H6  1  0.34426000  0.47806000  0.21984000  1.0
  H  H7  1  0.84427000  0.52193000  0.28014000  1.0
  H  H8  1  0.51192000  0.50832000  0.85977000  1.0
  H  H9  1  0.01190000  0.49164000  0.64025000  1.0
  H  H10  1  0.48808000  0.49165000  0.14024000  1.0
  H  H11  1  0.98808000  0.50835000  0.35974000  1.0
  H  H12  1  0.12786000  0.30230000  0.06265000  1.0
  H  H13  1  0.62788000  0.69768000  0.43738000  1.0
  H  H14  1  0.87214000  0.69771000  0.93735000  1.0
  H  H15  1  0.37213000  0.30230000  0.56263000  1.0
  H  H16  1  0.60017000  0.42669000  0.01382000  1.0
  H  H17  1  0.10018000  0.57330000  0.48616000  1.0
  H  H18  1  0.39985000  0.57334000  0.98616000  1.0
  H  H19  1  0.89985000  0.42666000  0.51382000  1.0
  H  H20  1  0.92145000  0.39744000  0.80021000  1.0
  H  H21  1  0.42141000  0.60258000  0.69979000  1.0
  H  H22  1  0.07855000  0.60255000  0.19978000  1.0
  H  H23  1  0.57857000  0.39743000  0.30021000  1.0
  H  H24  1  0.75736000  0.14608000  0.76962000  1.0
  H  H25  1  0.25728000  0.85401000  0.73036000  1.0
  H  H26  1  0.24259000  0.85388000  0.23038000  1.0
  H  H27  1  0.74269000  0.14601000  0.26963000  1.0
  H  H28  1  0.01325000  0.03307000  0.84520000  1.0
  H  H29  1  0.51319000  0.96703000  0.65480000  1.0
  H  H30  1  0.98670000  0.96689000  0.15481000  1.0
  H  H31  1  0.48678000  0.03301000  0.34521000  1.0
  H  H32  1  0.77281000  0.03818000  0.08999000  1.0
  H  H33  1  0.27286000  0.96178000  0.41000000  1.0
  H  H34  1  0.22718000  0.96186000  0.91002000  1.0
  H  H35  1  0.72717000  0.03821000  0.58999000  1.0
  H  H36  1  0.52711000  0.15221000  0.00294000  1.0
  H  H37  1  0.02716000  0.84776000  0.49705000  1.0
  H  H38  1  0.47288000  0.84783000  0.99706000  1.0
  H  H39  1  0.97288000  0.15221000  0.50295000  1.0
  C  C40  1  0.04388000  0.34831000  0.92789000  1.0
  C  C41  1  0.54388000  0.65169000  0.57212000  1.0
  C  C42  1  0.95612000  0.65172000  0.07210000  1.0
  C  C43  1  0.45612000  0.34830000  0.42788000  1.0
  C  C44  1  0.02074000  0.33366000  0.01739000  1.0
  C  C45  1  0.52075000  0.66632000  0.48263000  1.0
  C  C46  1  0.97927000  0.66635000  0.98261000  1.0
  C  C47  1  0.47927000  0.33365000  0.51738000  1.0
  C  C48  1  0.86122000  0.36254000  0.04788000  1.0
  C  C49  1  0.36124000  0.63744000  0.45214000  1.0
  C  C50  1  0.13877000  0.63748000  0.95211000  1.0
  C  C51  1  0.63879000  0.36252000  0.54788000  1.0
  C  C52  1  0.72470000  0.40635000  0.98906000  1.0
  C  C53  1  0.22469000  0.59365000  0.51095000  1.0
  C  C54  1  0.27533000  0.59367000  0.01094000  1.0
  C  C55  1  0.77531000  0.40632000  0.48905000  1.0
  C  C56  1  0.74805000  0.42154000  0.89971000  1.0
  C  C57  1  0.24803000  0.57846000  0.60029000  1.0
  C  C58  1  0.25197000  0.57847000  0.10027000  1.0
  C  C59  1  0.75197000  0.42153000  0.39970000  1.0
  C  C60  1  0.90744000  0.39089000  0.86938000  1.0
  C  C61  1  0.40742000  0.60912000  0.63062000  1.0
  C  C62  1  0.09258000  0.60912000  0.13062000  1.0
  C  C63  1  0.59256000  0.39088000  0.36937000  1.0
  C  C64  1  0.21666000  0.32237000  0.89614000  1.0
  C  C65  1  0.71666000  0.67765000  0.60388000  1.0
  C  C66  1  0.78334000  0.67766000  0.10384000  1.0
  C  C67  1  0.28334000  0.32236000  0.39613000  1.0
  C  C68  1  0.83724000  0.35090000  0.14325000  1.0
  C  C69  1  0.33727000  0.64908000  0.35676000  1.0
  C  C70  1  0.16275000  0.64912000  0.85675000  1.0
  C  C71  1  0.66276000  0.35088000  0.64325000  1.0
  C  C72  1  0.76531000  0.11811000  0.84086000  1.0
  C  C73  1  0.26526000  0.88195000  0.65913000  1.0
  C  C74  1  0.23466000  0.88187000  0.15916000  1.0
  C  C75  1  0.73473000  0.11806000  0.34086000  1.0
  C  C76  1  0.90943000  0.05557000  0.88432000  1.0
  C  C77  1  0.40939000  0.94449000  0.61568000  1.0
  C  C78  1  0.09054000  0.94441000  0.11569000  1.0
  C  C79  1  0.59060000  0.05553000  0.38432000  1.0
  C  C80  1  0.92174000  0.02810000  0.97588000  1.0
  C  C81  1  0.42175000  0.97188000  0.52412000  1.0
  C  C82  1  0.07824000  0.97188000  0.02413000  1.0
  C  C83  1  0.57826000  0.02811000  0.47588000  1.0
  C  C84  1  0.77687000  0.05895000  0.01900000  1.0
  C  C85  1  0.27691000  0.94102000  0.48099000  1.0
  C  C86  1  0.22312000  0.94107000  0.98101000  1.0
  C  C87  1  0.72311000  0.05896000  0.51901000  1.0
  C  C88  1  0.63715000  0.12168000  0.97151000  1.0
  C  C89  1  0.13717000  0.87830000  0.52848000  1.0
  C  C90  1  0.36284000  0.87834000  0.02850000  1.0
  C  C91  1  0.86285000  0.12168000  0.47151000  1.0
  N  N92  1  0.61026000  0.46096000  0.83826000  1.0
  N  N93  1  0.11024000  0.53906000  0.66174000  1.0
  N  N94  1  0.38975000  0.53905000  0.16173000  1.0
  N  N95  1  0.88975000  0.46094000  0.33825000  1.0
  N  N96  1  0.63182000  0.15499000  0.88287000  1.0
  N  N97  1  0.13180000  0.84503000  0.61712000  1.0
  N  N98  1  0.36817000  0.84500000  0.11714000  1.0
  N  N99  1  0.86821000  0.15497000  0.38287000  1.0
  O  O100  1  0.23723000  0.32880000  0.81368000  1.0
  O  O101  1  0.73721000  0.67119000  0.68635000  1.0
  O  O102  1  0.76277000  0.67121000  0.18632000  1.0
  O  O103  1  0.26278000  0.32880000  0.31367000  1.0
  O  O104  1  0.34445000  0.29632000  0.94725000  1.0
  O  O105  1  0.84443000  0.70370000  0.55277000  1.0
  O  O106  1  0.65556000  0.70371000  0.05273000  1.0
  O  O107  1  0.15556000  0.29633000  0.44725000  1.0
  O  O108  1  0.96960000  0.30458000  0.19258000  1.0
  O  O109  1  0.46964000  0.69537000  0.30744000  1.0
  O  O110  1  0.03039000  0.69543000  0.80741000  1.0
  O  O111  1  0.53040000  0.30459000  0.69259000  1.0
  O  O112  1  0.69828000  0.38436000  0.17072000  1.0
  O  O113  1  0.19828000  0.61564000  0.32928000  1.0
  O  O114  1  0.30172000  0.61566000  0.82927000  1.0
  O  O115  1  0.80174000  0.38435000  0.67073000  1.0
