# generated using pymatgen
data_ZnH8C13BrNO4
_symmetry_space_group_name_H-M   'P 1'
_cell_length_a   7.65570000
_cell_length_b   9.77353000
_cell_length_c   10.75300000
_cell_angle_alpha   115.25100000
_cell_angle_beta   94.50110000
_cell_angle_gamma   102.97700000
_symmetry_Int_Tables_number   1
_chemical_formula_structural   ZnH8C13BrNO4
_chemical_formula_sum   'Zn2 H16 C26 Br2 N2 O8'
_cell_volume   695.10920913
_cell_formula_units_Z   2
loop_
 _symmetry_equiv_pos_site_id
 _symmetry_equiv_pos_as_xyz
  1  'x, y, z'
loop_
 _atom_site_type_symbol
 _atom_site_label
 _atom_site_symmetry_multiplicity
 _atom_site_fract_x
 _atom_site_fract_y
 _atom_site_fract_z
 _atom_site_occupancy
  Zn  Zn0  1  0.35180000  0.03086000  0.43062000  1.0
  Zn  Zn1  1  0.64820000  0.96913000  0.56938000  1.0
  H  H2  1  0.94968000  0.92475000  0.32413000  1.0
  H  H3  1  0.05033000  0.07525000  0.67586000  1.0
  H  H4  1  0.72688000  0.97207000  0.17474000  1.0
  H  H5  1  0.27312000  0.02793000  0.82527000  1.0
  H  H6  1  0.18135000  0.30856000  0.14979000  1.0
  H  H7  1  0.81865000  0.69145000  0.85022000  1.0
  H  H8  1  0.38571000  0.24500000  0.29922000  1.0
  H  H9  1  0.61430000  0.75500000  0.70077000  1.0
  H  H10  1  0.11737000  0.34091000  0.59785000  1.0
  H  H11  1  0.88264000  0.65909000  0.40216000  1.0
  H  H12  1  0.66954000  0.42239000  0.39868000  1.0
  H  H13  1  0.33047000  0.57760000  0.60132000  1.0
  H  H14  1  0.19792000  0.35359000  0.83700000  1.0
  H  H15  1  0.80208000  0.64640000  0.16299000  1.0
  H  H16  1  0.77399000  0.41338000  0.93178000  1.0
  H  H17  1  0.22601000  0.58662000  0.06820000  1.0
  C  C18  1  0.99568000  0.00714000  0.28198000  1.0
  C  C19  1  0.00433000  0.99287000  0.71802000  1.0
  C  C20  1  0.87193000  0.03357000  0.19898000  1.0
  C  C21  1  0.12808000  0.96643000  0.80102000  1.0
  C  C22  1  0.93879000  0.14295000  0.15067000  1.0
  C  C23  1  0.06121000  0.85706000  0.84934000  1.0
  C  C24  1  0.12517000  0.22248000  0.18589000  1.0
  C  C25  1  0.87483000  0.77753000  0.81412000  1.0
  C  C26  1  0.23875000  0.18805000  0.26876000  1.0
  C  C27  1  0.76125000  0.81195000  0.73124000  1.0
  C  C28  1  0.75129000  0.22584000  0.49545000  1.0
  C  C29  1  0.24871000  0.77415000  0.50455000  1.0
  C  C30  1  0.88016000  0.36773000  0.49820000  1.0
  C  C31  1  0.11985000  0.63227000  0.50181000  1.0
  C  C32  1  0.06659000  0.41152000  0.55607000  1.0
  C  C33  1  0.93343000  0.58847000  0.44394000  1.0
  C  C34  1  0.81474000  0.45711000  0.44254000  1.0
  C  C35  1  0.18527000  0.54289000  0.55746000  1.0
  C  C36  1  0.47108000  0.22645000  0.73622000  1.0
  C  C37  1  0.52892000  0.77354000  0.26377000  1.0
  C  C38  1  0.48465000  0.36885000  0.87153000  1.0
  C  C39  1  0.51535000  0.63115000  0.12846000  1.0
  C  C40  1  0.32965000  0.41765000  0.90889000  1.0
  C  C41  1  0.67035000  0.58235000  0.09110000  1.0
  C  C42  1  0.65487000  0.45258000  0.96299000  1.0
  C  C43  1  0.34513000  0.54742000  0.03701000  1.0
  Br  Br44  1  0.77801000  0.18143000  0.03533000  1.0
  Br  Br45  1  0.22198000  0.81859000  0.96469000  1.0
  N  N46  1  0.17574000  0.08246000  0.31594000  1.0
  N  N47  1  0.82426000  0.91754000  0.68406000  1.0
  O  O48  1  0.58383000  0.19263000  0.44084000  1.0
  O  O49  1  0.41618000  0.80737000  0.55916000  1.0
  O  O50  1  0.81766000  0.14871000  0.54730000  1.0
  O  O51  1  0.18234000  0.85128000  0.45270000  1.0
  O  O52  1  0.34564000  0.19149000  0.63348000  1.0
  O  O53  1  0.65434000  0.80850000  0.36651000  1.0
  O  O54  1  0.58694000  0.15121000  0.73607000  1.0
  O  O55  1  0.41306000  0.84878000  0.26392000  1.0
