# generated using pymatgen
data_H16RuC23N(ClO4)2
_symmetry_space_group_name_H-M   'P 1'
_cell_length_a   9.62908000
_cell_length_b   10.54170000
_cell_length_c   11.92980000
_cell_angle_alpha   94.10970000
_cell_angle_beta   96.35240000
_cell_angle_gamma   101.24000000
_symmetry_Int_Tables_number   1
_chemical_formula_structural   H16RuC23N(ClO4)2
_chemical_formula_sum   'H32 Ru2 C46 N2 Cl4 O16'
_cell_volume   1175.02575698
_cell_formula_units_Z   2
loop_
 _symmetry_equiv_pos_site_id
 _symmetry_equiv_pos_as_xyz
  1  'x, y, z'
loop_
 _atom_site_type_symbol
 _atom_site_label
 _atom_site_symmetry_multiplicity
 _atom_site_fract_x
 _atom_site_fract_y
 _atom_site_fract_z
 _atom_site_occupancy
  H  H0  1  0.55609000  0.41644000  0.23275000  1.0
  H  H1  1  0.44393000  0.58357000  0.76722000  1.0
  H  H2  1  0.70379000  0.48594000  0.33926000  1.0
  H  H3  1  0.29625000  0.51407000  0.66071000  1.0
  H  H4  1  0.56645000  0.35707000  0.37050000  1.0
  H  H5  1  0.43359000  0.64295000  0.62948000  1.0
  H  H6  1  0.34473000  0.31082000  0.30008000  1.0
  H  H7  1  0.65532000  0.68919000  0.69991000  1.0
  H  H8  1  0.96036000  0.44869000  0.34370000  1.0
  H  H9  1  0.03968000  0.55130000  0.65632000  1.0
  H  H10  1  0.10618000  0.66959000  0.40957000  1.0
  H  H11  1  0.89386000  0.33041000  0.59043000  1.0
  H  H12  1  0.70178000  0.77969000  0.36807000  1.0
  H  H13  1  0.29827000  0.22029000  0.63196000  1.0
  H  H14  1  0.77926000  0.69580000  0.19293000  1.0
  H  H15  1  0.22079000  0.30419000  0.80709000  1.0
  H  H16  1  0.02676000  0.78368000  0.14594000  1.0
  H  H17  1  0.97326000  0.21634000  0.85406000  1.0
  H  H18  1  0.19495000  0.94632000  0.28074000  1.0
  H  H19  1  0.80507000  0.05370000  0.71926000  1.0
  H  H20  1  0.18736000  0.01982000  0.95221000  1.0
  H  H21  1  0.81267000  0.98018000  0.04779000  1.0
  H  H22  1  0.08701000  0.03652000  0.06919000  1.0
  H  H23  1  0.91300000  0.96352000  0.93079000  1.0
  H  H24  1  0.18001000  0.17802000  0.01514000  1.0
  H  H25  1  0.82005000  0.82199000  0.98483000  1.0
  H  H26  1  0.38019000  0.16787000  0.92306000  1.0
  H  H27  1  0.61983000  0.83213000  0.07695000  1.0
  H  H28  1  0.82897000  0.25174000  0.04810000  1.0
  H  H29  1  0.17104000  0.74828000  0.95192000  1.0
  H  H30  1  0.77172000  0.16063000  0.22885000  1.0
  H  H31  1  0.22830000  0.83935000  0.77116000  1.0
  Ru  Ru32  1  0.61256000  0.97256000  0.50566000  1.0
  Ru  Ru33  1  0.38748000  0.02744000  0.49434000  1.0
  C  C34  1  0.38225000  0.75260000  0.43204000  1.0
  C  C35  1  0.61778000  0.24741000  0.56796000  1.0
  C  C36  1  0.30771000  0.61773000  0.39297000  1.0
  C  C37  1  0.69233000  0.38228000  0.60703000  1.0
  C  C38  1  0.37711000  0.51593000  0.36038000  1.0
  C  C39  1  0.62293000  0.48408000  0.63961000  1.0
  C  C40  1  0.58943000  0.44343000  0.32400000  1.0
  C  C41  1  0.41060000  0.55658000  0.67598000  1.0
  C  C42  1  0.29519000  0.39171000  0.32289000  1.0
  C  C43  1  0.70485000  0.60830000  0.67710000  1.0
  C  C44  1  0.14717000  0.37011000  0.31765000  1.0
  C  C45  1  0.85288000  0.62990000  0.68236000  1.0
  C  C46  1  0.07618000  0.46804000  0.34881000  1.0
  C  C47  1  0.92387000  0.53196000  0.65121000  1.0
  C  C48  1  0.15785000  0.59035000  0.38589000  1.0
  C  C49  1  0.84218000  0.40965000  0.61411000  1.0
  C  C50  1  0.90270000  0.91263000  0.42602000  1.0
  C  C51  1  0.09736000  0.08737000  0.57400000  1.0
  C  C52  1  0.80902000  0.81659000  0.34836000  1.0
  C  C53  1  0.19103000  0.18340000  0.65166000  1.0
  C  C54  1  0.85335000  0.77011000  0.25041000  1.0
  C  C55  1  0.14671000  0.22989000  0.74960000  1.0
  C  C56  1  0.99266000  0.81893000  0.22454000  1.0
  C  C57  1  0.00738000  0.18109000  0.77546000  1.0
  C  C58  1  0.08787000  0.90848000  0.29998000  1.0
  C  C59  1  0.91216000  0.09153000  0.70003000  1.0
  C  C60  1  0.04827000  0.95423000  0.40445000  1.0
  C  C61  1  0.95178000  0.04577000  0.59556000  1.0
  C  C62  1  0.52333000  0.06631000  0.29165000  1.0
  C  C63  1  0.47668000  0.93369000  0.70835000  1.0
  C  C64  1  0.54584000  0.11599000  0.18084000  1.0
  C  C65  1  0.45418000  0.88400000  0.81916000  1.0
  C  C66  1  0.43314000  0.11977000  0.09474000  1.0
  C  C67  1  0.56686000  0.88022000  0.90526000  1.0
  C  C68  1  0.18257000  0.07725000  0.03187000  1.0
  C  C69  1  0.81746000  0.92276000  0.96812000  1.0
  C  C70  1  0.46435000  0.16795000  0.99183000  1.0
  C  C71  1  0.53567000  0.83205000  0.00817000  1.0
  C  C72  1  0.60626000  0.21370000  0.97650000  1.0
  C  C73  1  0.39376000  0.78629000  0.02350000  1.0
  C  C74  1  0.71892000  0.21397000  0.06098000  1.0
  C  C75  1  0.28110000  0.78603000  0.93902000  1.0
  C  C76  1  0.68655000  0.16338000  0.16160000  1.0
  C  C77  1  0.31348000  0.83662000  0.83841000  1.0
  C  C78  1  0.21970000  0.43949000  0.01759000  1.0
  C  C79  1  0.77977000  0.56045000  0.98240000  1.0
  N  N80  1  0.85344000  0.96250000  0.51915000  1.0
  N  N81  1  0.14661000  0.03749000  0.48087000  1.0
  Cl  Cl82  1  0.04964000  0.21631000  0.27049000  1.0
  Cl  Cl83  1  0.95041000  0.78369000  0.72953000  1.0
  Cl  Cl84  1  0.64353000  0.26961000  0.84798000  1.0
  Cl  Cl85  1  0.35649000  0.73039000  0.15202000  1.0
  O  O86  1  0.51907000  0.78265000  0.45364000  1.0
  O  O87  1  0.48097000  0.21736000  0.54636000  1.0
  O  O88  1  0.30282000  0.83615000  0.44356000  1.0
  O  O89  1  0.69721000  0.16386000  0.55643000  1.0
  O  O90  1  0.52105000  0.54343000  0.36532000  1.0
  O  O91  1  0.47899000  0.45658000  0.63466000  1.0
  O  O92  1  0.62415000  0.01985000  0.34254000  1.0
  O  O93  1  0.37587000  0.98013000  0.65746000  1.0
  O  O94  1  0.40832000  0.07605000  0.33367000  1.0
  O  O95  1  0.59171000  0.92396000  0.66634000  1.0
  O  O96  1  0.29854000  0.07168000  0.11554000  1.0
  O  O97  1  0.70148000  0.92833000  0.88446000  1.0
  O  O98  1  0.33304000  0.45353000  0.98656000  1.0
  O  O99  1  0.66647000  0.54622000  0.01351000  1.0
  O  O100  1  0.10552000  0.42271000  0.04710000  1.0
  O  O101  1  0.89394000  0.57740000  0.95282000  1.0
