# generated using pymatgen
data_DyH8C7N2O9
_symmetry_space_group_name_H-M   'P 1'
_cell_length_a   7.40870000
_cell_length_b   12.46170000
_cell_length_c   13.01900000
_cell_angle_alpha   90.00000000
_cell_angle_beta   90.00000000
_cell_angle_gamma   94.13930000
_symmetry_Int_Tables_number   1
_chemical_formula_structural   DyH8C7N2O9
_chemical_formula_sum   'Dy4 H32 C28 N8 O36'
_cell_volume   1198.84377926
_cell_formula_units_Z   4
loop_
 _symmetry_equiv_pos_site_id
 _symmetry_equiv_pos_as_xyz
  1  'x, y, z'
loop_
 _atom_site_type_symbol
 _atom_site_label
 _atom_site_symmetry_multiplicity
 _atom_site_fract_x
 _atom_site_fract_y
 _atom_site_fract_z
 _atom_site_occupancy
  Dy  Dy0  1  0.90193000  0.83113000  0.83195000  1.0
  Dy  Dy1  1  0.59807000  0.66887000  0.33196000  1.0
  Dy  Dy2  1  0.09807000  0.16887000  0.16804000  1.0
  Dy  Dy3  1  0.40193000  0.33113000  0.66804000  1.0
  H  H4  1  0.66986000  0.78935000  0.07651000  1.0
  H  H5  1  0.83013000  0.71065000  0.57651000  1.0
  H  H6  1  0.33013000  0.21065000  0.92348000  1.0
  H  H7  1  0.16988000  0.28935000  0.42348000  1.0
  H  H8  1  0.76643000  0.41849000  0.98547000  1.0
  H  H9  1  0.73359000  0.08151000  0.48548000  1.0
  H  H10  1  0.23360000  0.58151000  0.01453000  1.0
  H  H11  1  0.26641000  0.91849000  0.51453000  1.0
  H  H12  1  0.20733000  0.70457000  0.90749000  1.0
  H  H13  1  0.29266000  0.79543000  0.40749000  1.0
  H  H14  1  0.79267000  0.29543000  0.09251000  1.0
  H  H15  1  0.70732000  0.20457000  0.59251000  1.0
  H  H16  1  0.18888000  0.81353000  0.96478000  1.0
  H  H17  1  0.31111000  0.68647000  0.46479000  1.0
  H  H18  1  0.81111000  0.18647000  0.03522000  1.0
  H  H19  1  0.68888000  0.31353000  0.53522000  1.0
  H  H20  1  0.24710000  0.86891000  0.70656000  1.0
  H  H21  1  0.25290000  0.63109000  0.20656000  1.0
  H  H22  1  0.75290000  0.13109000  0.29344000  1.0
  H  H23  1  0.74709000  0.36891000  0.79345000  1.0
  H  H24  1  0.22286000  0.74412000  0.73595000  1.0
  H  H25  1  0.27714000  0.75587000  0.23595000  1.0
  H  H26  1  0.77714000  0.25587000  0.26405000  1.0
  H  H27  1  0.72286000  0.24412000  0.76405000  1.0
  H  H28  1  0.52180000  0.88913000  0.77783000  1.0
  H  H29  1  0.97819000  0.61087000  0.27783000  1.0
  H  H30  1  0.47820000  0.11087000  0.22217000  1.0
  H  H31  1  0.02180000  0.38913000  0.72218000  1.0
  H  H32  1  0.50292000  0.76366000  0.80803000  1.0
  H  H33  1  0.99708000  0.73634000  0.30803000  1.0
  H  H34  1  0.49708000  0.23634000  0.19197000  1.0
  H  H35  1  0.00291000  0.26366000  0.69197000  1.0
  C  C36  1  0.69277000  0.70628000  0.05719000  1.0
  C  C37  1  0.80723000  0.79372000  0.55719000  1.0
  C  C38  1  0.30724000  0.29372000  0.94281000  1.0
  C  C39  1  0.19277000  0.20628000  0.44280000  1.0
  C  C40  1  0.69114000  0.52914000  0.10557000  1.0
  C  C41  1  0.80886000  0.97086000  0.60557000  1.0
  C  C42  1  0.30888000  0.47086000  0.89443000  1.0
  C  C43  1  0.19112000  0.02914000  0.39443000  1.0
  C  C44  1  0.74451000  0.50094000  0.00696000  1.0
  C  C45  1  0.75550000  0.99906000  0.50696000  1.0
  C  C46  1  0.25551000  0.49906000  0.99304000  1.0
  C  C47  1  0.24449000  0.00094000  0.49304000  1.0
  C  C48  1  0.77750000  0.58463000  0.93682000  1.0
  C  C49  1  0.72251000  0.91537000  0.43682000  1.0
  C  C50  1  0.22251000  0.41536000  0.06318000  1.0
  C  C51  1  0.27749000  0.08464000  0.56317000  1.0
  C  C52  1  0.85842000  0.56792000  0.83057000  1.0
  C  C53  1  0.64157000  0.93208000  0.33058000  1.0
  C  C54  1  0.14156000  0.43207000  0.16943000  1.0
  C  C55  1  0.35843000  0.06793000  0.66942000  1.0
  C  C56  1  0.65710000  0.44937000  0.19296000  1.0
  C  C57  1  0.84289000  0.05063000  0.69297000  1.0
  C  C58  1  0.34290000  0.55063000  0.80703000  1.0
  C  C59  1  0.15711000  0.94937000  0.30703000  1.0
  C  C60  1  0.09745000  0.01008000  0.97862000  1.0
  C  C61  1  0.40254000  0.48992000  0.47864000  1.0
  C  C62  1  0.90254000  0.98993000  0.02136000  1.0
  C  C63  1  0.59746000  0.51007000  0.52138000  1.0
  N  N64  1  0.74924000  0.68683000  0.96158000  1.0
  N  N65  1  0.75076000  0.81317000  0.46158000  1.0
  N  N66  1  0.25076000  0.31316000  0.03842000  1.0
  N  N67  1  0.24924000  0.18684000  0.53842000  1.0
  N  N68  1  0.66742000  0.63181000  0.13083000  1.0
  N  N69  1  0.83258000  0.86819000  0.63083000  1.0
  N  N70  1  0.33259000  0.36819000  0.86917000  1.0
  N  N71  1  0.16741000  0.13181000  0.36917000  1.0
  O  O72  1  0.88717000  0.65196000  0.77623000  1.0
  O  O73  1  0.61282000  0.84804000  0.27624000  1.0
  O  O74  1  0.11282000  0.34803000  0.22376000  1.0
  O  O75  1  0.38718000  0.15197000  0.72376000  1.0
  O  O76  1  0.89720000  0.47387000  0.80753000  1.0
  O  O77  1  0.60279000  0.02613000  0.30753000  1.0
  O  O78  1  0.10279000  0.52614000  0.19247000  1.0
  O  O79  1  0.39721000  0.97386000  0.69247000  1.0
  O  O80  1  0.62741000  0.48833000  0.27988000  1.0
  O  O81  1  0.87259000  0.01167000  0.77988000  1.0
  O  O82  1  0.37258000  0.51167000  0.72012000  1.0
  O  O83  1  0.12741000  0.98833000  0.22012000  1.0
  O  O84  1  0.65879000  0.34923000  0.17303000  1.0
  O  O85  1  0.84120000  0.15077000  0.67304000  1.0
  O  O86  1  0.34121000  0.65078000  0.82697000  1.0
  O  O87  1  0.15879000  0.84922000  0.32697000  1.0
  O  O88  1  0.14221000  0.94998000  0.90584000  1.0
  O  O89  1  0.35780000  0.55002000  0.40585000  1.0
  O  O90  1  0.85779000  0.05002000  0.09413000  1.0
  O  O91  1  0.64221000  0.44998000  0.59415000  1.0
  O  O92  1  0.19608000  0.08457000  0.02055000  1.0
  O  O93  1  0.30394000  0.41544000  0.52057000  1.0
  O  O94  1  0.80393000  0.91543000  0.97943000  1.0
  O  O95  1  0.69608000  0.58457000  0.47944000  1.0
  O  O96  1  0.12040000  0.74541000  0.94841000  1.0
  O  O97  1  0.37960000  0.75459000  0.44841000  1.0
  O  O98  1  0.87961000  0.25459000  0.05158000  1.0
  O  O99  1  0.62039000  0.24541000  0.55159000  1.0
  O  O100  1  0.15633000  0.80795000  0.72152000  1.0
  O  O101  1  0.34367000  0.69204000  0.22153000  1.0
  O  O102  1  0.84367000  0.19204000  0.27847000  1.0
  O  O103  1  0.65633000  0.30795000  0.77848000  1.0
  O  O104  1  0.58708000  0.82857000  0.80456000  1.0
  O  O105  1  0.91291000  0.67143000  0.30457000  1.0
  O  O106  1  0.41292000  0.17143000  0.19544000  1.0
  O  O107  1  0.08708000  0.32857000  0.69544000  1.0
