# generated using pymatgen
data_ZnH7C10S(NO)3
_symmetry_space_group_name_H-M   'P 1'
_cell_length_a   9.23341000
_cell_length_b   9.23341000
_cell_length_c   14.74700000
_cell_angle_alpha   78.05810000
_cell_angle_beta   78.05790000
_cell_angle_gamma   61.40080000
_symmetry_Int_Tables_number   1
_chemical_formula_structural   ZnH7C10S(NO)3
_chemical_formula_sum   'Zn4 H28 C40 S4 N12 O12'
_cell_volume   1071.42829743
_cell_formula_units_Z   4
loop_
 _symmetry_equiv_pos_site_id
 _symmetry_equiv_pos_as_xyz
  1  'x, y, z'
loop_
 _atom_site_type_symbol
 _atom_site_label
 _atom_site_symmetry_multiplicity
 _atom_site_fract_x
 _atom_site_fract_y
 _atom_site_fract_z
 _atom_site_occupancy
  Zn  Zn0  1  0.66810000  0.17130000  0.68840000  1.0
  Zn  Zn1  1  0.82871000  0.33189000  0.81161000  1.0
  Zn  Zn2  1  0.33190000  0.82870000  0.31160000  1.0
  Zn  Zn3  1  0.17129000  0.66811000  0.18840000  1.0
  H  H4  1  0.12165000  0.41199000  0.59951000  1.0
  H  H5  1  0.58801000  0.87836000  0.90049000  1.0
  H  H6  1  0.87836000  0.58801000  0.40049000  1.0
  H  H7  1  0.41199000  0.12164000  0.09951000  1.0
  H  H8  1  0.38081000  0.37709000  0.49254000  1.0
  H  H9  1  0.62291000  0.61919000  0.00747000  1.0
  H  H10  1  0.61919000  0.62291000  0.50746000  1.0
  H  H11  1  0.37709000  0.38081000  0.99253000  1.0
  H  H12  1  0.08897000  0.03973000  0.48105000  1.0
  H  H13  1  0.96027000  0.91102000  0.01896000  1.0
  H  H14  1  0.91103000  0.96027000  0.51895000  1.0
  H  H15  1  0.03973000  0.08898000  0.98104000  1.0
  H  H16  1  0.69981000  0.78742000  0.26835000  1.0
  H  H17  1  0.21258000  0.30019000  0.23165000  1.0
  H  H18  1  0.30019000  0.21257000  0.73165000  1.0
  H  H19  1  0.78742000  0.69981000  0.76835000  1.0
  H  H20  1  0.61168000  0.95674000  0.18178000  1.0
  H  H21  1  0.04326000  0.38832000  0.31822000  1.0
  H  H22  1  0.38832000  0.04325000  0.81822000  1.0
  H  H23  1  0.95674000  0.61169000  0.68178000  1.0
  H  H24  1  0.61413000  0.16212000  0.35435000  1.0
  H  H25  1  0.83788000  0.38587000  0.14565000  1.0
  H  H26  1  0.38587000  0.83788000  0.64565000  1.0
  H  H27  1  0.16212000  0.61413000  0.85435000  1.0
  H  H28  1  0.78390000  0.04828000  0.19641000  1.0
  H  H29  1  0.95173000  0.21610000  0.30359000  1.0
  H  H30  1  0.21610000  0.95173000  0.80360000  1.0
  H  H31  1  0.04827000  0.78390000  0.69641000  1.0
  C  C32  1  0.94757000  0.24199000  0.61965000  1.0
  C  C33  1  0.75801000  0.05243000  0.88035000  1.0
  C  C34  1  0.05243000  0.75801000  0.38035000  1.0
  C  C35  1  0.24199000  0.94758000  0.11965000  1.0
  C  C36  1  0.09245000  0.22671000  0.54804000  1.0
  C  C37  1  0.77329000  0.90755000  0.95197000  1.0
  C  C38  1  0.90756000  0.77329000  0.45196000  1.0
  C  C39  1  0.22671000  0.09245000  0.04803000  1.0
  C  C40  1  0.17396000  0.32251000  0.54949000  1.0
  C  C41  1  0.67749000  0.82604000  0.95051000  1.0
  C  C42  1  0.82604000  0.67749000  0.45050000  1.0
  C  C43  1  0.32251000  0.17396000  0.04949000  1.0
  C  C44  1  0.31811000  0.30405000  0.49029000  1.0
  C  C45  1  0.69595000  0.68189000  0.00971000  1.0
  C  C46  1  0.68189000  0.69595000  0.50971000  1.0
  C  C47  1  0.30405000  0.31811000  0.99029000  1.0
  C  C48  1  0.37928000  0.18550000  0.42871000  1.0
  C  C49  1  0.81450000  0.62072000  0.07129000  1.0
  C  C50  1  0.62072000  0.81450000  0.57129000  1.0
  C  C51  1  0.18550000  0.37928000  0.92871000  1.0
  C  C52  1  0.29625000  0.09258000  0.42396000  1.0
  C  C53  1  0.90742000  0.70375000  0.07604000  1.0
  C  C54  1  0.70376000  0.90742000  0.57604000  1.0
  C  C55  1  0.09257000  0.29625000  0.92396000  1.0
  C  C56  1  0.15165000  0.11237000  0.48379000  1.0
  C  C57  1  0.88763000  0.84835000  0.01621000  1.0
  C  C58  1  0.84835000  0.88763000  0.51621000  1.0
  C  C59  1  0.11237000  0.15165000  0.98379000  1.0
  C  C60  1  0.52084000  0.01096000  0.32246000  1.0
  C  C61  1  0.98904000  0.47916000  0.17755000  1.0
  C  C62  1  0.47916000  0.98904000  0.67754000  1.0
  C  C63  1  0.01096000  0.52084000  0.82245000  1.0
  C  C64  1  0.65927000  0.92187000  0.24985000  1.0
  C  C65  1  0.07813000  0.34073000  0.25014000  1.0
  C  C66  1  0.34073000  0.07813000  0.75015000  1.0
  C  C67  1  0.92187000  0.65927000  0.74986000  1.0
  C  C68  1  0.39135000  0.52703000  0.63453000  1.0
  C  C69  1  0.47297000  0.60864000  0.86547000  1.0
  C  C70  1  0.60865000  0.47297000  0.36547000  1.0
  C  C71  1  0.52702000  0.39136000  0.13454000  1.0
  S  S72  1  0.26066000  0.70608000  0.58791000  1.0
  S  S73  1  0.29392000  0.73934000  0.91209000  1.0
  S  S74  1  0.73934000  0.29392000  0.41209000  1.0
  S  S75  1  0.70608000  0.26066000  0.08791000  1.0
  N  N76  1  0.38761000  0.98580000  0.35602000  1.0
  N  N77  1  0.01420000  0.61239000  0.14398000  1.0
  N  N78  1  0.61240000  0.01420000  0.64398000  1.0
  N  N79  1  0.98580000  0.38761000  0.85602000  1.0
  N  N80  1  0.51926000  0.13015000  0.36368000  1.0
  N  N81  1  0.86985000  0.48074000  0.13632000  1.0
  N  N82  1  0.48074000  0.86985000  0.63632000  1.0
  N  N83  1  0.13015000  0.51927000  0.86368000  1.0
  N  N84  1  0.48857000  0.39548000  0.66654000  1.0
  N  N85  1  0.60451000  0.51143000  0.83347000  1.0
  N  N86  1  0.51143000  0.60453000  0.33346000  1.0
  N  N87  1  0.39548000  0.48856000  0.16654000  1.0
  O  O88  1  0.89363000  0.35223000  0.67442000  1.0
  O  O89  1  0.64778000  0.10637000  0.82558000  1.0
  O  O90  1  0.10637000  0.64777000  0.32558000  1.0
  O  O91  1  0.35222000  0.89363000  0.17442000  1.0
  O  O92  1  0.88656000  0.14209000  0.62239000  1.0
  O  O93  1  0.85791000  0.11344000  0.87761000  1.0
  O  O94  1  0.11344000  0.85791000  0.37761000  1.0
  O  O95  1  0.14209000  0.88656000  0.12239000  1.0
  O  O96  1  0.79621000  0.95352000  0.24559000  1.0
  O  O97  1  0.04648000  0.20379000  0.25441000  1.0
  O  O98  1  0.20379000  0.04648000  0.75441000  1.0
  O  O99  1  0.95352000  0.79621000  0.74559000  1.0
