# generated using pymatgen
data_Ni2H30C34N4O13
_symmetry_space_group_name_H-M   'P 1'
_cell_length_a   10.48090000
_cell_length_b   15.86270000
_cell_length_c   25.46780000
_cell_angle_alpha   89.99980000
_cell_angle_beta   90.00010000
_cell_angle_gamma   89.99990000
_symmetry_Int_Tables_number   1
_chemical_formula_structural   Ni2H30C34N4O13
_chemical_formula_sum   'Ni8 H120 C136 N16 O52'
_cell_volume   4234.15857393
_cell_formula_units_Z   4
loop_
 _symmetry_equiv_pos_site_id
 _symmetry_equiv_pos_as_xyz
  1  'x, y, z'
loop_
 _atom_site_type_symbol
 _atom_site_label
 _atom_site_symmetry_multiplicity
 _atom_site_fract_x
 _atom_site_fract_y
 _atom_site_fract_z
 _atom_site_occupancy
  Ni  Ni0  1  0.33109000  0.65085000  0.62343000  1.0
  Ni  Ni1  1  0.16891000  0.34915000  0.12343000  1.0
  Ni  Ni2  1  0.83108000  0.84914000  0.37657000  1.0
  Ni  Ni3  1  0.66891000  0.15085000  0.87657000  1.0
  Ni  Ni4  1  0.11934000  0.77425000  0.65623000  1.0
  Ni  Ni5  1  0.38066000  0.22574000  0.15623000  1.0
  Ni  Ni6  1  0.61934000  0.72574000  0.34377000  1.0
  Ni  Ni7  1  0.88066000  0.27426000  0.84377000  1.0
  H  H8  1  0.59708000  0.02621000  0.45581000  1.0
  H  H9  1  0.90291000  0.97380000  0.95582000  1.0
  H  H10  1  0.09707000  0.47379000  0.54419000  1.0
  H  H11  1  0.40293000  0.52621000  0.04419000  1.0
  H  H12  1  0.43249000  0.78516000  0.49146000  1.0
  H  H13  1  0.06750000  0.21485000  0.99146000  1.0
  H  H14  1  0.93249000  0.71484000  0.50854000  1.0
  H  H15  1  0.56751000  0.28516000  0.00854000  1.0
  H  H16  1  0.35160000  0.99818000  0.59063000  1.0
  H  H17  1  0.14841000  0.00182000  0.09064000  1.0
  H  H18  1  0.85160000  0.50182000  0.40937000  1.0
  H  H19  1  0.64840000  0.49818000  0.90937000  1.0
  H  H20  1  0.94771000  0.47839000  0.74908000  1.0
  H  H21  1  0.55230000  0.52161000  0.24908000  1.0
  H  H22  1  0.44770000  0.02161000  0.25092000  1.0
  H  H23  1  0.05230000  0.97838000  0.75092000  1.0
  H  H24  1  0.54536000  0.45253000  0.72092000  1.0
  H  H25  1  0.95464000  0.54747000  0.22092000  1.0
  H  H26  1  0.04536000  0.04747000  0.27908000  1.0
  H  H27  1  0.45465000  0.95253000  0.77908000  1.0
  H  H28  1  0.73870000  0.68348000  0.67972000  1.0
  H  H29  1  0.76130000  0.31652000  0.17972000  1.0
  H  H30  1  0.23869000  0.81652000  0.32028000  1.0
  H  H31  1  0.26131000  0.18348000  0.82028000  1.0
  H  H32  1  0.52329000  0.68057000  0.53782000  1.0
  H  H33  1  0.97671000  0.31943000  0.03782000  1.0
  H  H34  1  0.02328000  0.81943000  0.46218000  1.0
  H  H35  1  0.47672000  0.18057000  0.96218000  1.0
  H  H36  1  0.63247000  0.59334000  0.46837000  1.0
  H  H37  1  0.86753000  0.40666000  0.96837000  1.0
  H  H38  1  0.13247000  0.90666000  0.53163000  1.0
  H  H39  1  0.36753000  0.09334000  0.03163000  1.0
  H  H40  1  0.59043000  0.43800000  0.46591000  1.0
  H  H41  1  0.90956000  0.56200000  0.96591000  1.0
  H  H42  1  0.09044000  0.06199000  0.53409000  1.0
  H  H43  1  0.40957000  0.93800000  0.03409000  1.0
  H  H44  1  0.32019000  0.47567000  0.59184000  1.0
  H  H45  1  0.17981000  0.52434000  0.09184000  1.0
  H  H46  1  0.82018000  0.02433000  0.40816000  1.0
  H  H47  1  0.67981000  0.97567000  0.90816000  1.0
  H  H48  1  0.31797000  0.33964000  0.52964000  1.0
  H  H49  1  0.18203000  0.66037000  0.02964000  1.0
  H  H50  1  0.81797000  0.16036000  0.47036000  1.0
  H  H51  1  0.68204000  0.83964000  0.97036000  1.0
  H  H52  1  0.46347000  0.31819000  0.49634000  1.0
  H  H53  1  0.03652000  0.68181000  0.99633000  1.0
  H  H54  1  0.96347000  0.18181000  0.50366000  1.0
  H  H55  1  0.53653000  0.81819000  0.00366000  1.0
  H  H56  1  0.63875000  0.38595000  0.58822000  1.0
  H  H57  1  0.86124000  0.61406000  0.08821000  1.0
  H  H58  1  0.13874000  0.11405000  0.41178000  1.0
  H  H59  1  0.36125000  0.88595000  0.91178000  1.0
  H  H60  1  0.65615000  0.29719000  0.54586000  1.0
  H  H61  1  0.84384000  0.70281000  0.04586000  1.0
  H  H62  1  0.15615000  0.20281000  0.45414000  1.0
  H  H63  1  0.34385000  0.79719000  0.95414000  1.0
  H  H64  1  0.61985000  0.28528000  0.66574000  1.0
  H  H65  1  0.88015000  0.71472000  0.16573000  1.0
  H  H66  1  0.11985000  0.21471000  0.33426000  1.0
  H  H67  1  0.38015000  0.78529000  0.83426000  1.0
  H  H68  1  0.64217000  0.20040000  0.62099000  1.0
  H  H69  1  0.85782000  0.79960000  0.12099000  1.0
  H  H70  1  0.14216000  0.29959000  0.37900000  1.0
  H  H71  1  0.35783000  0.70041000  0.87901000  1.0
  H  H72  1  0.83084000  0.34575000  0.64250000  1.0
  H  H73  1  0.66915000  0.65424000  0.14250000  1.0
  H  H74  1  0.33084000  0.15424000  0.35750000  1.0
  H  H75  1  0.16915000  0.84576000  0.85750000  1.0
  H  H76  1  0.85843000  0.26532000  0.59644000  1.0
  H  H77  1  0.64156000  0.73468000  0.09644000  1.0
  H  H78  1  0.35842000  0.23467000  0.40356000  1.0
  H  H79  1  0.14157000  0.76533000  0.90356000  1.0
  H  H80  1  0.82523000  0.24556000  0.71657000  1.0
  H  H81  1  0.67477000  0.75443000  0.21657000  1.0
  H  H82  1  0.32524000  0.25443000  0.28343000  1.0
  H  H83  1  0.17476000  0.74557000  0.78343000  1.0
  H  H84  1  0.97118000  0.23836000  0.68179000  1.0
  H  H85  1  0.52881000  0.76163000  0.18178000  1.0
  H  H86  1  0.47119000  0.26163000  0.31822000  1.0
  H  H87  1  0.02881000  0.73837000  0.81822000  1.0
  H  H88  1  0.01811000  0.10699000  0.63473000  1.0
  H  H89  1  0.48189000  0.89301000  0.13472000  1.0
  H  H90  1  0.51811000  0.39300000  0.36528000  1.0
  H  H91  1  0.98189000  0.60700000  0.86528000  1.0
  H  H92  1  0.88547000  0.12803000  0.59307000  1.0
  H  H93  1  0.61453000  0.87197000  0.09307000  1.0
  H  H94  1  0.38547000  0.37197000  0.40693000  1.0
  H  H95  1  0.11453000  0.62803000  0.90693000  1.0
  H  H96  1  0.70431000  0.01550000  0.58702000  1.0
  H  H97  1  0.79570000  0.98449000  0.08702000  1.0
  H  H98  1  0.20431000  0.48449000  0.41299000  1.0
  H  H99  1  0.29569000  0.51551000  0.91299000  1.0
  H  H100  1  0.67222000  0.85950000  0.57962000  1.0
  H  H101  1  0.82779000  0.14050000  0.07962000  1.0
  H  H102  1  0.17222000  0.64049000  0.42039000  1.0
  H  H103  1  0.32778000  0.35951000  0.92038000  1.0
  H  H104  1  0.84831000  0.76311000  0.61032000  1.0
  H  H105  1  0.65170000  0.23689000  0.11033000  1.0
  H  H106  1  0.34831000  0.73689000  0.38968000  1.0
  H  H107  1  0.15170000  0.26311000  0.88968000  1.0
  H  H108  1  0.07251000  0.96283000  0.65691000  1.0
  H  H109  1  0.42750000  0.03717000  0.15691000  1.0
  H  H110  1  0.57250000  0.53716000  0.34309000  1.0
  H  H111  1  0.92750000  0.46283000  0.84309000  1.0
  H  H112  1  0.44122000  0.21483000  0.57263000  1.0
  H  H113  1  0.05877000  0.78517000  0.07263000  1.0
  H  H114  1  0.94122000  0.28517000  0.42737000  1.0
  H  H115  1  0.55878000  0.71483000  0.92737000  1.0
  H  H116  1  0.43069000  0.33161000  0.61057000  1.0
  H  H117  1  0.06930000  0.66839000  0.11057000  1.0
  H  H118  1  0.93068000  0.16839000  0.38943000  1.0
  H  H119  1  0.56931000  0.83161000  0.88943000  1.0
  H  H120  1  0.88233000  0.11092000  0.71268000  1.0
  H  H121  1  0.61767000  0.88908000  0.21268000  1.0
  H  H122  1  0.38232000  0.38908000  0.28732000  1.0
  H  H123  1  0.11767000  0.61092000  0.78733000  1.0
  H  H124  1  0.75276000  0.12186000  0.67262000  1.0
  H  H125  1  0.74724000  0.87813000  0.17262000  1.0
  H  H126  1  0.25276000  0.37813000  0.32738000  1.0
  H  H127  1  0.24724000  0.62187000  0.82738000  1.0
  C  C128  1  0.49612000  0.11415000  0.53370000  1.0
  C  C129  1  0.00387000  0.88586000  0.03371000  1.0
  C  C130  1  0.99612000  0.38585000  0.46630000  1.0
  C  C131  1  0.50389000  0.61415000  0.96630000  1.0
  C  C132  1  0.47371000  0.02240000  0.52346000  1.0
  C  C133  1  0.02628000  0.97760000  0.02346000  1.0
  C  C134  1  0.97372000  0.47760000  0.47654000  1.0
  C  C135  1  0.52629000  0.52240000  0.97654000  1.0
  C  C136  1  0.53572000  0.98694000  0.48007000  1.0
  C  C137  1  0.96427000  0.01306000  0.98007000  1.0
  C  C138  1  0.03571000  0.51305000  0.51993000  1.0
  C  C139  1  0.46429000  0.48695000  0.01993000  1.0
  C  C140  1  0.51952000  0.90175000  0.46820000  1.0
  C  C141  1  0.98047000  0.09826000  0.96820000  1.0
  C  C142  1  0.01952000  0.59825000  0.53180000  1.0
  C  C143  1  0.48048000  0.40175000  0.03180000  1.0
  C  C144  1  0.58984000  0.86094000  0.42382000  1.0
  C  C145  1  0.91015000  0.13905000  0.92382000  1.0
  C  C146  1  0.08985000  0.63904000  0.57618000  1.0
  C  C147  1  0.41015000  0.36095000  0.07618000  1.0
  C  C148  1  0.44386000  0.85167000  0.50057000  1.0
  C  C149  1  0.05614000  0.14833000  0.00057000  1.0
  C  C150  1  0.94386000  0.64833000  0.49943000  1.0
  C  C151  1  0.55614000  0.35167000  0.99943000  1.0
  C  C152  1  0.39791000  0.97153000  0.55614000  1.0
  C  C153  1  0.10209000  0.02848000  0.05614000  1.0
  C  C154  1  0.89792000  0.52847000  0.44386000  1.0
  C  C155  1  0.60209000  0.47153000  0.94386000  1.0
  C  C156  1  0.38527000  0.88539000  0.54511000  1.0
  C  C157  1  0.11472000  0.11462000  0.04511000  1.0
  C  C158  1  0.88527000  0.61461000  0.45489000  1.0
  C  C159  1  0.61473000  0.38539000  0.95489000  1.0
  C  C160  1  0.31296000  0.82555000  0.58004000  1.0
  C  C161  1  0.18705000  0.17445000  0.08004000  1.0
  C  C162  1  0.81295000  0.67444000  0.41996000  1.0
  C  C163  1  0.68705000  0.32556000  0.91995000  1.0
  C  C164  1  0.97935000  0.63497000  0.71214000  1.0
  C  C165  1  0.52065000  0.36503000  0.21214000  1.0
  C  C166  1  0.47935000  0.86503000  0.28786000  1.0
  C  C167  1  0.02066000  0.13497000  0.78786000  1.0
  C  C168  1  0.85614000  0.58643000  0.71466000  1.0
  C  C169  1  0.64386000  0.41357000  0.21466000  1.0
  C  C170  1  0.35613000  0.91357000  0.28534000  1.0
  C  C171  1  0.14387000  0.08643000  0.78534000  1.0
  C  C172  1  0.85785000  0.50491000  0.73552000  1.0
  C  C173  1  0.64215000  0.49509000  0.23552000  1.0
  C  C174  1  0.35784000  0.99509000  0.26448000  1.0
  C  C175  1  0.14216000  0.00491000  0.76448000  1.0
  C  C176  1  0.74635000  0.45680000  0.73819000  1.0
  C  C177  1  0.75365000  0.54320000  0.23819000  1.0
  C  C178  1  0.24635000  0.04320000  0.26181000  1.0
  C  C179  1  0.25365000  0.95680000  0.76181000  1.0
  C  C180  1  0.63209000  0.49032000  0.71933000  1.0
  C  C181  1  0.86791000  0.50969000  0.21933000  1.0
  C  C182  1  0.13208000  0.00969000  0.28067000  1.0
  C  C183  1  0.36792000  0.99031000  0.78067000  1.0
  C  C184  1  0.62970000  0.57190000  0.69843000  1.0
  C  C185  1  0.87030000  0.42810000  0.19843000  1.0
  C  C186  1  0.12969000  0.92811000  0.30156000  1.0
  C  C187  1  0.37031000  0.07189000  0.80156000  1.0
  C  C188  1  0.74144000  0.62015000  0.69615000  1.0
  C  C189  1  0.75856000  0.37985000  0.19615000  1.0
  C  C190  1  0.24144000  0.87985000  0.30385000  1.0
  C  C191  1  0.25857000  0.12015000  0.80385000  1.0
  C  C192  1  0.74795000  0.36927000  0.76145000  1.0
  C  C193  1  0.75205000  0.63073000  0.26145000  1.0
  C  C194  1  0.24795000  0.13073000  0.23855000  1.0
  C  C195  1  0.25206000  0.86926000  0.73855000  1.0
  C  C196  1  0.50963000  0.60465000  0.67544000  1.0
  C  C197  1  0.99037000  0.39536000  0.17545000  1.0
  C  C198  1  0.00962000  0.89536000  0.32456000  1.0
  C  C199  1  0.49038000  0.10464000  0.82455000  1.0
  C  C200  1  0.50525000  0.61340000  0.53348000  1.0
  C  C201  1  0.99475000  0.38661000  0.03348000  1.0
  C  C202  1  0.00525000  0.88660000  0.46652000  1.0
  C  C203  1  0.49475000  0.11340000  0.96652000  1.0
  C  C204  1  0.56630000  0.56433000  0.49583000  1.0
  C  C205  1  0.93369000  0.43567000  0.99583000  1.0
  C  C206  1  0.06630000  0.93567000  0.50417000  1.0
  C  C207  1  0.43370000  0.06433000  0.00417000  1.0
  C  C208  1  0.54031000  0.47823000  0.49394000  1.0
  C  C209  1  0.95968000  0.52177000  0.99394000  1.0
  C  C210  1  0.04032000  0.02177000  0.50606000  1.0
  C  C211  1  0.45969000  0.97823000  0.00606000  1.0
  C  C212  1  0.45096000  0.44352000  0.52848000  1.0
  C  C213  1  0.04903000  0.55649000  0.02848000  1.0
  C  C214  1  0.95096000  0.05648000  0.47152000  1.0
  C  C215  1  0.54904000  0.94351000  0.97152000  1.0
  C  C216  1  0.39173000  0.49794000  0.56404000  1.0
  C  C217  1  0.10827000  0.50206000  0.06403000  1.0
  C  C218  1  0.89172000  0.00206000  0.43597000  1.0
  C  C219  1  0.60828000  0.99795000  0.93596000  1.0
  C  C220  1  0.42170000  0.35041000  0.53054000  1.0
  C  C221  1  0.07830000  0.64960000  0.03053000  1.0
  C  C222  1  0.92170000  0.14960000  0.46946000  1.0
  C  C223  1  0.57830000  0.85040000  0.96946000  1.0
  C  C224  1  0.61372000  0.31889000  0.58300000  1.0
  C  C225  1  0.88627000  0.68111000  0.08299000  1.0
  C  C226  1  0.11372000  0.18111000  0.41700000  1.0
  C  C227  1  0.38628000  0.81889000  0.91700000  1.0
  C  C228  1  0.66591000  0.26715000  0.62847000  1.0
  C  C229  1  0.83408000  0.73285000  0.12847000  1.0
  C  C230  1  0.16590000  0.23284000  0.37153000  1.0
  C  C231  1  0.33409000  0.76716000  0.87153000  1.0
  C  C232  1  0.81009000  0.27906000  0.63397000  1.0
  C  C233  1  0.68990000  0.72093000  0.13397000  1.0
  C  C234  1  0.31009000  0.22093000  0.36603000  1.0
  C  C235  1  0.18990000  0.77907000  0.86603000  1.0
  C  C236  1  0.86775000  0.22838000  0.67874000  1.0
  C  C237  1  0.63224000  0.77162000  0.17873000  1.0
  C  C238  1  0.36776000  0.27162000  0.32126000  1.0
  C  C239  1  0.13224000  0.72838000  0.82127000  1.0
  C  C240  1  0.91587000  0.09499000  0.62885000  1.0
  C  C241  1  0.58413000  0.90501000  0.12885000  1.0
  C  C242  1  0.41587000  0.40501000  0.37115000  1.0
  C  C243  1  0.08413000  0.59499000  0.87115000  1.0
  C  C244  1  0.89008000  0.00214000  0.62386000  1.0
  C  C245  1  0.60992000  0.99786000  0.12386000  1.0
  C  C246  1  0.39008000  0.49785000  0.37614000  1.0
  C  C247  1  0.10992000  0.50215000  0.87614000  1.0
  C  C248  1  0.77697000  0.97192000  0.60145000  1.0
  C  C249  1  0.72303000  0.02808000  0.10145000  1.0
  C  C250  1  0.27698000  0.52808000  0.39856000  1.0
  C  C251  1  0.22302000  0.47192000  0.89856000  1.0
  C  C252  1  0.75926000  0.88527000  0.59662000  1.0
  C  C253  1  0.74075000  0.11473000  0.09662000  1.0
  C  C254  1  0.25926000  0.61473000  0.40338000  1.0
  C  C255  1  0.24075000  0.38527000  0.90338000  1.0
  C  C256  1  0.85609000  0.83136000  0.61359000  1.0
  C  C257  1  0.64392000  0.16865000  0.11360000  1.0
  C  C258  1  0.35609000  0.66864000  0.38641000  1.0
  C  C259  1  0.14392000  0.33136000  0.88640000  1.0
  C  C260  1  0.98173000  0.94338000  0.63976000  1.0
  C  C261  1  0.51828000  0.05661000  0.13976000  1.0
  C  C262  1  0.48173000  0.55661000  0.36024000  1.0
  C  C263  1  0.01827000  0.44339000  0.86024000  1.0
  N  N264  1  0.41914000  0.58039000  0.56675000  1.0
  N  N265  1  0.08086000  0.41961000  0.06675000  1.0
  N  N266  1  0.91914000  0.91961000  0.43325000  1.0
  N  N267  1  0.58086000  0.08039000  0.93325000  1.0
  N  N268  1  0.96539000  0.86006000  0.63448000  1.0
  N  N269  1  0.53462000  0.13994000  0.13448000  1.0
  N  N270  1  0.46538000  0.63994000  0.36552000  1.0
  N  N271  1  0.03462000  0.36006000  0.86552000  1.0
  N  N272  1  0.47422000  0.30799000  0.57769000  1.0
  N  N273  1  0.02578000  0.69202000  0.07769000  1.0
  N  N274  1  0.97421000  0.19201000  0.42230000  1.0
  N  N275  1  0.52579000  0.80799000  0.92231000  1.0
  N  N276  1  0.84864000  0.13485000  0.67431000  1.0
  N  N277  1  0.65136000  0.86515000  0.17431000  1.0
  N  N278  1  0.34864000  0.36514000  0.32569000  1.0
  N  N279  1  0.15136000  0.63486000  0.82569000  1.0
  O  O280  1  0.23382000  0.85636000  0.61247000  1.0
  O  O281  1  0.26618000  0.14364000  0.11247000  1.0
  O  O282  1  0.73382000  0.64364000  0.38753000  1.0
  O  O283  1  0.76618000  0.35636000  0.88753000  1.0
  O  O284  1  0.33793000  0.74785000  0.57232000  1.0
  O  O285  1  0.16208000  0.25215000  0.07232000  1.0
  O  O286  1  0.83793000  0.75214000  0.42768000  1.0
  O  O287  1  0.66207000  0.24786000  0.92768000  1.0
  O  O288  1  0.67449000  0.90638000  0.40134000  1.0
  O  O289  1  0.82550000  0.09362000  0.90134000  1.0
  O  O290  1  0.17450000  0.59361000  0.59866000  1.0
  O  O291  1  0.32551000  0.40638000  0.09866000  1.0
  O  O292  1  0.56413000  0.78470000  0.41359000  1.0
  O  O293  1  0.93587000  0.21530000  0.91359000  1.0
  O  O294  1  0.06414000  0.71530000  0.58641000  1.0
  O  O295  1  0.43586000  0.28470000  0.08641000  1.0
  O  O296  1  0.41585000  0.14901000  0.56772000  1.0
  O  O297  1  0.08414000  0.85100000  0.06773000  1.0
  O  O298  1  0.91585000  0.35099000  0.43227000  1.0
  O  O299  1  0.58415000  0.64901000  0.93227000  1.0
  O  O300  1  0.58378000  0.15330000  0.51177000  1.0
  O  O301  1  0.91622000  0.84670000  0.01177000  1.0
  O  O302  1  0.08378000  0.34669000  0.48823000  1.0
  O  O303  1  0.41623000  0.65331000  0.98823000  1.0
  O  O304  1  0.97473000  0.70546000  0.68815000  1.0
  O  O305  1  0.52528000  0.29454000  0.18816000  1.0
  O  O306  1  0.47472000  0.79454000  0.31185000  1.0
  O  O307  1  0.02528000  0.20546000  0.81184000  1.0
  O  O308  1  0.07708000  0.60204000  0.73325000  1.0
  O  O309  1  0.42292000  0.39796000  0.23325000  1.0
  O  O310  1  0.57707000  0.89796000  0.26675000  1.0
  O  O311  1  0.92293000  0.10204000  0.76675000  1.0
  O  O312  1  0.65289000  0.32292000  0.75645000  1.0
  O  O313  1  0.84711000  0.67709000  0.25645000  1.0
  O  O314  1  0.15289000  0.17709000  0.24355000  1.0
  O  O315  1  0.34711000  0.82291000  0.74355000  1.0
  O  O316  1  0.85587000  0.35142000  0.78404000  1.0
  O  O317  1  0.64413000  0.64858000  0.28404000  1.0
  O  O318  1  0.35587000  0.14858000  0.21596000  1.0
  O  O319  1  0.14413000  0.85142000  0.71596000  1.0
  O  O320  1  0.50949000  0.67564000  0.65120000  1.0
  O  O321  1  0.99051000  0.32437000  0.15120000  1.0
  O  O322  1  0.00949000  0.82437000  0.34880000  1.0
  O  O323  1  0.49051000  0.17563000  0.84879000  1.0
  O  O324  1  0.40774000  0.56024000  0.67605000  1.0
  O  O325  1  0.09226000  0.43976000  0.17605000  1.0
  O  O326  1  0.90773000  0.93976000  0.32395000  1.0
  O  O327  1  0.59227000  0.06024000  0.82395000  1.0
  O  O328  1  0.24802000  0.70533000  0.67304000  1.0
  O  O329  1  0.25199000  0.29467000  0.17304000  1.0
  O  O330  1  0.74801000  0.79467000  0.32696000  1.0
  O  O331  1  0.75199000  0.20533000  0.82696000  1.0
