# generated using pymatgen
data_Al4H16C47(SO16)2
_symmetry_space_group_name_H-M   'P 1'
_cell_length_a   6.67525000
_cell_length_b   20.60020000
_cell_length_c   22.77040000
_cell_angle_alpha   93.09970000
_cell_angle_beta   91.25440000
_cell_angle_gamma   90.17440000
_symmetry_Int_Tables_number   1
_chemical_formula_structural   Al4H16C47(SO16)2
_chemical_formula_sum   'Al4 H16 C47 S2 O32'
_cell_volume   3125.83311532
_cell_formula_units_Z   1
loop_
 _symmetry_equiv_pos_site_id
 _symmetry_equiv_pos_as_xyz
  1  'x, y, z'
loop_
 _atom_site_type_symbol
 _atom_site_label
 _atom_site_symmetry_multiplicity
 _atom_site_fract_x
 _atom_site_fract_y
 _atom_site_fract_z
 _atom_site_occupancy
  Al  Al0  1  0.87083000  0.49052000  0.49075000  1.0
  Al  Al1  1  0.37206000  0.49038000  0.49074000  1.0
  Al  Al2  1  0.34700000  0.02121000  0.01764000  1.0
  Al  Al3  1  0.84690000  0.02175000  0.01778000  1.0
  H  H4  1  0.36628000  0.16990000  0.76713000  1.0
  H  H5  1  0.28844000  0.71016000  0.28788000  1.0
  H  H6  1  0.28619000  0.79801000  0.21628000  1.0
  H  H7  1  0.93178000  0.79950000  0.21944000  1.0
  H  H8  1  0.93385000  0.71169000  0.29105000  1.0
  H  H9  1  0.35744000  0.67090000  0.74038000  1.0
  H  H10  1  0.33773000  0.75493000  0.82323000  1.0
  H  H11  1  0.12549000  0.88475000  0.83587000  1.0
  H  H12  1  0.09460000  0.84591000  0.68326000  1.0
  H  H13  1  0.51701000  0.23860000  0.59455000  1.0
  H  H14  1  0.95856000  0.42735000  0.69833000  1.0
  H  H15  1  0.72592000  0.30471000  0.91264000  1.0
  H  H16  1  0.62244000  0.41143000  0.51364000  1.0
  H  H17  1  0.12392000  0.57174000  0.51429000  1.0
  H  H18  1  0.59599000  0.10281000  0.00121000  1.0
  H  H19  1  0.09638000  0.94032000  0.03455000  1.0
  C  C20  1  0.61740000  0.56638000  0.41435000  1.0
  C  C21  1  0.62673000  0.57149000  0.57241000  1.0
  C  C22  1  0.12614000  0.41476000  0.56947000  1.0
  C  C23  1  0.11544000  0.41066000  0.40968000  1.0
  C  C24  1  0.11158000  0.36348000  0.36060000  1.0
  C  C25  1  0.11057000  0.32222000  0.31967000  1.0
  C  C26  1  0.11008000  0.27691000  0.27508000  1.0
  C  C27  1  0.11052000  0.23492000  0.23433000  1.0
  C  C28  1  0.10991000  0.18963000  0.18975000  1.0
  C  C29  1  0.10845000  0.14842000  0.14878000  1.0
  C  C30  1  0.25584000  0.24256000  0.71133000  1.0
  C  C31  1  0.10963000  0.29131000  0.70310000  1.0
  C  C32  1  0.95379000  0.29901000  0.74463000  1.0
  C  C33  1  0.94497000  0.26081000  0.79317000  1.0
  C  C34  1  0.09505000  0.21327000  0.80121000  1.0
  C  C35  1  0.24822000  0.20521000  0.76035000  1.0
  C  C36  1  0.12095000  0.33410000  0.65678000  1.0
  C  C37  1  0.09162000  0.17363000  0.84997000  1.0
  C  C38  1  0.09071000  0.13864000  0.89135000  1.0
  C  C39  1  0.12687000  0.37327000  0.61862000  1.0
  C  C40  1  0.42699000  0.77869000  0.23284000  1.0
  C  C41  1  0.60882000  0.80418000  0.21322000  1.0
  C  C42  1  0.79195000  0.77951000  0.23458000  1.0
  C  C43  1  0.79311000  0.73081000  0.27425000  1.0
  C  C44  1  0.61128000  0.70521000  0.29380000  1.0
  C  C45  1  0.42819000  0.72995000  0.27247000  1.0
  C  C46  1  0.60723000  0.85354000  0.17245000  1.0
  C  C47  1  0.61277000  0.65583000  0.33460000  1.0
  C  C48  1  0.61448000  0.61377000  0.37017000  1.0
  C  C49  1  0.60509000  0.89583000  0.13705000  1.0
  C  C50  1  0.46547000  0.75341000  0.79424000  1.0
  C  C51  1  0.61719000  0.80059000  0.80327000  1.0
  C  C52  1  0.78375000  0.80029000  0.76527000  1.0
  C  C53  1  0.79149000  0.75394000  0.71822000  1.0
  C  C54  1  0.63697000  0.70651000  0.70940000  1.0
  C  C55  1  0.47630000  0.70676000  0.74844000  1.0
  C  C56  1  0.60049000  0.84947000  0.84892000  1.0
  C  C57  1  0.63743000  0.65929000  0.66207000  1.0
  C  C58  1  0.63058000  0.61803000  0.62182000  1.0
  C  C59  1  0.58962000  0.89216000  0.88782000  1.0
  C  C60  1  0.59079000  0.94030000  0.93623000  1.0
  C  C61  1  0.60169000  0.94362000  0.09346000  1.0
  C  C62  1  0.10381000  0.10181000  0.09928000  1.0
  C  C63  1  0.09284000  0.09637000  0.93956000  1.0
  C  C64  1  0.93529000  0.85394000  0.77721000  1.0
  C  C65  1  0.42639000  0.22799000  0.67101000  1.0
  C  C66  1  0.78266000  0.26467000  0.83850000  1.0
  S  S67  1  0.98461000  0.74876000  0.66399000  1.0
  S  S68  1  0.76201000  0.35848000  0.73279000  1.0
  O  O69  1  0.45398000  0.55248000  0.55360000  1.0
  O  O70  1  0.78901000  0.54712000  0.43137000  1.0
  O  O71  1  0.94681000  0.42791000  0.43007000  1.0
  O  O72  1  0.79605000  0.55447000  0.55201000  1.0
  O  O73  1  0.95353000  0.43190000  0.55124000  1.0
  O  O74  1  0.44844000  0.54892000  0.43309000  1.0
  O  O75  1  0.62131000  0.45087000  0.49220000  1.0
  O  O76  1  0.29556000  0.42924000  0.54925000  1.0
  O  O77  1  0.28776000  0.42971000  0.42842000  1.0
  O  O78  1  0.12207000  0.52906000  0.49402000  1.0
  O  O79  1  0.77068000  0.96190000  0.07505000  1.0
  O  O80  1  0.42074000  0.95735000  0.95595000  1.0
  O  O81  1  0.26440000  0.07827000  0.95785000  1.0
  O  O82  1  0.42981000  0.96275000  0.07618000  1.0
  O  O83  1  0.27280000  0.08458000  0.07891000  1.0
  O  O84  1  0.76317000  0.95966000  0.95470000  1.0
  O  O85  1  0.59704000  0.06030000  0.01753000  1.0
  O  O86  1  0.93061000  0.08348000  0.08040000  1.0
  O  O87  1  0.92381000  0.08097000  0.95981000  1.0
  O  O88  1  0.09622000  0.98234000  0.01731000  1.0
  O  O89  1  0.95757000  0.89971000  0.74579000  1.0
  O  O90  1  0.03848000  0.84655000  0.82787000  1.0
  O  O91  1  0.08427000  0.68759000  0.66839000  1.0
  O  O92  1  0.89623000  0.76807000  0.60962000  1.0
  O  O93  1  0.14801000  0.80161000  0.68715000  1.0
  O  O94  1  0.57917000  0.20068000  0.68660000  1.0
  O  O95  1  0.39180000  0.24613000  0.61550000  1.0
  O  O96  1  0.67832000  0.34686000  0.67445000  1.0
  O  O97  1  0.63617000  0.36270000  0.78301000  1.0
  O  O98  1  0.88670000  0.42527000  0.73565000  1.0
  O  O99  1  0.63311000  0.23074000  0.83587000  1.0
  O  O100  1  0.83537000  0.30577000  0.88463000  1.0
