# generated using pymatgen
data_CuSbH8C8(N2F3)2
_symmetry_space_group_name_H-M   'P 1'
_cell_length_a   7.99199000
_cell_length_b   8.35347000
_cell_length_c   10.74340000
_cell_angle_alpha   88.37960000
_cell_angle_beta   84.36830000
_cell_angle_gamma   65.29490000
_symmetry_Int_Tables_number   1
_chemical_formula_structural   CuSbH8C8(N2F3)2
_chemical_formula_sum   'Cu2 Sb2 H16 C16 N8 F12'
_cell_volume   648.38094922
_cell_formula_units_Z   2
loop_
 _symmetry_equiv_pos_site_id
 _symmetry_equiv_pos_as_xyz
  1  'x, y, z'
loop_
 _atom_site_type_symbol
 _atom_site_label
 _atom_site_symmetry_multiplicity
 _atom_site_fract_x
 _atom_site_fract_y
 _atom_site_fract_z
 _atom_site_occupancy
  Cu  Cu0  1  0.72865000  0.57929000  0.26667000  1.0
  Cu  Cu1  1  0.27134000  0.42072000  0.73332000  1.0
  Sb  Sb2  1  0.57248000  0.17818000  0.21182000  1.0
  Sb  Sb3  1  0.42754000  0.82182000  0.78817000  1.0
  H  H4  1  0.40203000  0.68088000  0.11653000  1.0
  H  H5  1  0.59795000  0.31911000  0.88347000  1.0
  H  H6  1  0.07673000  0.91789000  0.14367000  1.0
  H  H7  1  0.92327000  0.08212000  0.85633000  1.0
  H  H8  1  0.16806000  0.03981000  0.49620000  1.0
  H  H9  1  0.83194000  0.96017000  0.50380000  1.0
  H  H10  1  0.49202000  0.80724000  0.46889000  1.0
  H  H11  1  0.50797000  0.19274000  0.53112000  1.0
  H  H12  1  0.80690000  0.34140000  0.48740000  1.0
  H  H13  1  0.19309000  0.65861000  0.51261000  1.0
  H  H14  1  0.98454000  0.71629000  0.34065000  1.0
  H  H15  1  0.01544000  0.28371000  0.65937000  1.0
  H  H16  1  0.74700000  0.78846000  0.04460000  1.0
  H  H17  1  0.25302000  0.21154000  0.95539000  1.0
  H  H18  1  0.02423000  0.26187000  0.14320000  1.0
  H  H19  1  0.97581000  0.73814000  0.85680000  1.0
  C  C20  1  0.34904000  0.76156000  0.20137000  1.0
  C  C21  1  0.65094000  0.23844000  0.79863000  1.0
  C  C22  1  0.16905000  0.89269000  0.21731000  1.0
  C  C23  1  0.83093000  0.10732000  0.78269000  1.0
  C  C24  1  0.21854000  0.96186000  0.40993000  1.0
  C  C25  1  0.78145000  0.03815000  0.59008000  1.0
  C  C26  1  0.39870000  0.83176000  0.39616000  1.0
  C  C27  1  0.60129000  0.16823000  0.60383000  1.0
  C  C28  1  0.89288000  0.41269000  0.49347000  1.0
  C  C29  1  0.10711000  0.58732000  0.50656000  1.0
  C  C30  1  0.99169000  0.61926000  0.41204000  1.0
  C  C31  1  0.00830000  0.38074000  0.58797000  1.0
  C  C32  1  0.86116000  0.65986000  0.02554000  1.0
  C  C33  1  0.13887000  0.34013000  0.97445000  1.0
  C  C34  1  0.01287000  0.36802000  0.07864000  1.0
  C  C35  1  0.98715000  0.63199000  0.92135000  1.0
  N  N36  1  0.46498000  0.73151000  0.29112000  1.0
  N  N37  1  0.53501000  0.26848000  0.70888000  1.0
  N  N38  1  0.10252000  0.99420000  0.32092000  1.0
  N  N39  1  0.89747000  0.00581000  0.67908000  1.0
  N  N40  1  0.88285000  0.53276000  0.40429000  1.0
  N  N41  1  0.11714000  0.46723000  0.59573000  1.0
  N  N42  1  0.87321000  0.52819000  0.10555000  1.0
  N  N43  1  0.12682000  0.47181000  0.89445000  1.0
  F  F44  1  0.68124000  0.30694000  0.29661000  1.0
  F  F45  1  0.31879000  0.69307000  0.70336000  1.0
  F  F46  1  0.36995000  0.25623000  0.34091000  1.0
  F  F47  1  0.63008000  0.74381000  0.65908000  1.0
  F  F48  1  0.70072000  0.97116000  0.30704000  1.0
  F  F49  1  0.29925000  0.02885000  0.69297000  1.0
  F  F50  1  0.77979000  0.10079000  0.08626000  1.0
  F  F51  1  0.22024000  0.89916000  0.91374000  1.0
  F  F52  1  0.44596000  0.38157000  0.11412000  1.0
  F  F53  1  0.55409000  0.61842000  0.88584000  1.0
  F  F54  1  0.46164000  0.05140000  0.13020000  1.0
  F  F55  1  0.53832000  0.94863000  0.86982000  1.0
