# generated using pymatgen
data_ZnH10C10(NO)4
_symmetry_space_group_name_H-M   'P 1'
_cell_length_a   9.11434000
_cell_length_b   9.20906000
_cell_length_c   9.34643666
_cell_angle_alpha   76.84877666
_cell_angle_beta   60.81813671
_cell_angle_gamma   62.18370000
_symmetry_Int_Tables_number   1
_chemical_formula_structural   ZnH10C10(NO)4
_chemical_formula_sum   'Zn2 H20 C20 N8 O8'
_cell_volume   605.77494399
_cell_formula_units_Z   2
loop_
 _symmetry_equiv_pos_site_id
 _symmetry_equiv_pos_as_xyz
  1  'x, y, z'
loop_
 _atom_site_type_symbol
 _atom_site_label
 _atom_site_symmetry_multiplicity
 _atom_site_fract_x
 _atom_site_fract_y
 _atom_site_fract_z
 _atom_site_occupancy
  Zn  Zn0  1  0.37138000  0.31640000  0.78406000  1.0
  Zn  Zn1  1  0.15544000  0.81638000  0.21594000  1.0
  H  H2  1  0.40042000  0.99873000  0.99329000  1.0
  H  H3  1  0.39373000  0.49870000  0.00670000  1.0
  H  H4  1  0.73143000  0.76954000  0.00518000  1.0
  H  H5  1  0.73663000  0.26953000  0.99482000  1.0
  H  H6  1  0.81746000  0.16671000  0.69770000  1.0
  H  H7  1  0.51515000  0.66666667  0.30231000  1.0
  H  H8  1  0.09938000  0.92809000  0.72709000  1.0
  H  H9  1  0.82647000  0.42810000  0.27291000  1.0
  H  H10  1  0.07948000  0.74320000  0.81370000  1.0
  H  H11  1  0.89319000  0.24320000  0.18630000  1.0
  H  H12  1  0.07363000  0.32288000  0.67201000  1.0
  H  H13  1  0.74565000  0.82288000  0.32799000  1.0
  H  H14  1  0.65565000  0.14805000  0.44317000  1.0
  H  H15  1  0.09882000  0.64806000  0.55684000  1.0
  H  H16  1  0.54808000  0.10470000  0.23098000  1.0
  H  H17  1  0.77905000  0.60471000  0.76902000  1.0
  H  H18  1  0.19685000  0.26350000  0.24514000  1.0
  H  H19  1  0.44199000  0.76352000  0.75486000  1.0
  H  H20  1  0.01649000  0.28435000  0.44627000  1.0
  H  H21  1  0.46276000  0.78437000  0.55374000  1.0
  C  C22  1  0.53642000  0.99884000  0.93489000  1.0
  C  C23  1  0.47132000  0.49882000  0.06511000  1.0
  C  C24  1  0.69656000  0.88728000  0.94456000  1.0
  C  C25  1  0.64114000  0.38726000  0.05544000  1.0
  C  C26  1  0.74840000  0.09070000  0.78059000  1.0
  C  C27  1  0.52898000  0.59068000  0.21942000  1.0
  C  C28  1  0.01404000  0.87617000  0.83435000  1.0
  C  C29  1  0.84840000  0.37617000  0.16565000  1.0
  C  C30  1  0.01152000  0.90619000  0.99082000  1.0
  C  C31  1  0.00234000  0.40620000  0.00918000  1.0
  C  C32  1  0.21761000  0.26613000  0.58400000  1.0
  C  C33  1  0.80161000  0.76614000  0.41600000  1.0
  C  C34  1  0.51877000  0.17651000  0.45970000  1.0
  C  C35  1  0.97847000  0.67652000  0.54031000  1.0
  C  C36  1  0.46674000  0.15504000  0.35369000  1.0
  C  C37  1  0.82043000  0.65505000  0.64632000  1.0
  C  C38  1  0.16303000  0.20909000  0.36843000  1.0
  C  C39  1  0.53146000  0.70911000  0.63157000  1.0
  C  C40  1  0.18902000  0.03439000  0.35656000  1.0
  C  C41  1  0.54559000  0.53440000  0.64344000  1.0
  N  N42  1  0.57078000  0.12545000  0.83207000  1.0
  N  N43  1  0.40285000  0.62542000  0.16793000  1.0
  N  N44  1  0.82892000  0.94673000  0.84620000  1.0
  N  N45  1  0.67513000  0.44672000  0.15380000  1.0
  N  N46  1  0.36198000  0.24619000  0.60291000  1.0
  N  N47  1  0.96489000  0.74619000  0.39710000  1.0
  N  N48  1  0.27645000  0.21289000  0.43382000  1.0
  N  N49  1  0.71026000  0.71291000  0.56619000  1.0
  O  O50  1  0.86487000  0.99572000  0.10237000  1.0
  O  O51  1  0.96725000  0.49572000  0.89763000  1.0
  O  O52  1  0.16996000  0.82872000  0.99402000  1.0
  O  O53  1  0.16399000  0.32874000  0.00598000  1.0
  O  O54  1  0.27182000  0.91582000  0.42517000  1.0
  O  O55  1  0.69700000  0.41584000  0.57485000  1.0
  O  O56  1  0.11707000  0.02906000  0.26923000  1.0
  O  O57  1  0.38629000  0.52908000  0.73074000  1.0
