# generated using pymatgen
data_ErH11C14(NO4)2
_symmetry_space_group_name_H-M   'P 1'
_cell_length_a   8.31448000
_cell_length_b   10.81900000
_cell_length_c   22.34680000
_cell_angle_alpha   94.02460000
_cell_angle_beta   90.01880000
_cell_angle_gamma   112.56300000
_symmetry_Int_Tables_number   1
_chemical_formula_structural   ErH11C14(NO4)2
_chemical_formula_sum   'Er4 H44 C56 N8 O32'
_cell_volume   1850.93978900
_cell_formula_units_Z   4
loop_
 _symmetry_equiv_pos_site_id
 _symmetry_equiv_pos_as_xyz
  1  'x, y, z'
loop_
 _atom_site_type_symbol
 _atom_site_label
 _atom_site_symmetry_multiplicity
 _atom_site_fract_x
 _atom_site_fract_y
 _atom_site_fract_z
 _atom_site_occupancy
  Er  Er0  1  0.30868000  0.50087000  0.77374000  1.0
  Er  Er1  1  0.80767000  0.49890000  0.72642000  1.0
  Er  Er2  1  0.69131000  0.49912000  0.22626000  1.0
  Er  Er3  1  0.19232000  0.50109000  0.27358000  1.0
  H  H4  1  0.67904000  0.81864000  0.91615000  1.0
  H  H5  1  0.86086000  0.18151000  0.58389000  1.0
  H  H6  1  0.32096000  0.18136000  0.08385000  1.0
  H  H7  1  0.13915000  0.81852000  0.41610000  1.0
  H  H8  1  0.23801000  0.99939000  0.92541000  1.0
  H  H9  1  0.23887000  0.00035000  0.57463000  1.0
  H  H10  1  0.76198000  0.00060000  0.07459000  1.0
  H  H11  1  0.76113000  0.99966000  0.42535000  1.0
  H  H12  1  0.24828000  0.88274000  0.82635000  1.0
  H  H13  1  0.36614000  0.11709000  0.67365000  1.0
  H  H14  1  0.75171000  0.11726000  0.17365000  1.0
  H  H15  1  0.63385000  0.88291000  0.32634000  1.0
  H  H16  1  0.37597000  0.22717000  0.45548000  1.0
  H  H17  1  0.14842000  0.77301000  0.04467000  1.0
  H  H18  1  0.62406000  0.77284000  0.54452000  1.0
  H  H19  1  0.85158000  0.22697000  0.95533000  1.0
  H  H20  1  0.14109000  0.29647000  0.42420000  1.0
  H  H21  1  0.84428000  0.70356000  0.07583000  1.0
  H  H22  1  0.85895000  0.70354000  0.57580000  1.0
  H  H23  1  0.15571000  0.29643000  0.92417000  1.0
  H  H24  1  0.21197000  0.54184000  0.59052000  1.0
  H  H25  1  0.67061000  0.45808000  0.90949000  1.0
  H  H26  1  0.78804000  0.45819000  0.40947000  1.0
  H  H27  1  0.32938000  0.54191000  0.09052000  1.0
  H  H28  1  0.61043000  0.35591000  0.59349000  1.0
  H  H29  1  0.25491000  0.64441000  0.90680000  1.0
  H  H30  1  0.38959000  0.64412000  0.40652000  1.0
  H  H31  1  0.74507000  0.35557000  0.09320000  1.0
  H  H32  1  0.40588000  0.41715000  0.89643000  1.0
  H  H33  1  0.98814000  0.58261000  0.60372000  1.0
  H  H34  1  0.59412000  0.58283000  0.10357000  1.0
  H  H35  1  0.01188000  0.41740000  0.39629000  1.0
  H  H36  1  0.31959000  0.28730000  0.85084000  1.0
  H  H37  1  0.03173000  0.71247000  0.64930000  1.0
  H  H38  1  0.68039000  0.71268000  0.14916000  1.0
  H  H39  1  0.96826000  0.28754000  0.35071000  1.0
  H  H40  1  0.17511000  0.71253000  0.75384000  1.0
  H  H41  1  0.46289000  0.28730000  0.74623000  1.0
  H  H42  1  0.82487000  0.28745000  0.24616000  1.0
  H  H43  1  0.53711000  0.71269000  0.25377000  1.0
  H  H44  1  0.29789000  0.69180000  0.70245000  1.0
  H  H45  1  0.60613000  0.30809000  0.79772000  1.0
  H  H46  1  0.70209000  0.30818000  0.29755000  1.0
  H  H47  1  0.39385000  0.69188000  0.20227000  1.0
  C  C48  1  0.63684000  0.66759000  0.81826000  1.0
  C  C49  1  0.96952000  0.33228000  0.68185000  1.0
  C  C50  1  0.36316000  0.33240000  0.18175000  1.0
  C  C51  1  0.03048000  0.66773000  0.31815000  1.0
  C  C52  1  0.80683000  0.76275000  0.84165000  1.0
  C  C53  1  0.04453000  0.23721000  0.65841000  1.0
  C  C54  1  0.19317000  0.23724000  0.15836000  1.0
  C  C55  1  0.95546000  0.76280000  0.34158000  1.0
  C  C56  1  0.80407000  0.83408000  0.89610000  1.0
  C  C57  1  0.97045000  0.16598000  0.60394000  1.0
  C  C58  1  0.19593000  0.16593000  0.10391000  1.0
  C  C59  1  0.02955000  0.83405000  0.39605000  1.0
  C  C60  1  0.95616000  0.91735000  0.92716000  1.0
  C  C61  1  0.03920000  0.08265000  0.57288000  1.0
  C  C62  1  0.04383000  0.08265000  0.07285000  1.0
  C  C63  1  0.96081000  0.91738000  0.42711000  1.0
  C  C64  1  0.11801000  0.93584000  0.90082000  1.0
  C  C65  1  0.18256000  0.06401000  0.59921000  1.0
  C  C66  1  0.88197000  0.06415000  0.09918000  1.0
  C  C67  1  0.81745000  0.93600000  0.40078000  1.0
  C  C68  1  0.12321000  0.87011000  0.84592000  1.0
  C  C69  1  0.25361000  0.12974000  0.65409000  1.0
  C  C70  1  0.87679000  0.12989000  0.15408000  1.0
  C  C71  1  0.74639000  0.87027000  0.34589000  1.0
  C  C72  1  0.96901000  0.77828000  0.81504000  1.0
  C  C73  1  0.19120000  0.22161000  0.68501000  1.0
  C  C74  1  0.03098000  0.22172000  0.18497000  1.0
  C  C75  1  0.80879000  0.77839000  0.31498000  1.0
  C  C76  1  0.46217000  0.48523000  0.63850000  1.0
  C  C77  1  0.97740000  0.51479000  0.86167000  1.0
  C  C78  1  0.53783000  0.51478000  0.36150000  1.0
  C  C79  1  0.02260000  0.48519000  0.13833000  1.0
  C  C80  1  0.38009000  0.43607000  0.57802000  1.0
  C  C81  1  0.94429000  0.56394000  0.92212000  1.0
  C  C82  1  0.61993000  0.56395000  0.42197000  1.0
  C  C83  1  0.05570000  0.43604000  0.07788000  1.0
  C  C84  1  0.43071000  0.34774000  0.53939000  1.0
  C  C85  1  0.08304000  0.65238000  0.96078000  1.0
  C  C86  1  0.56931000  0.65228000  0.46061000  1.0
  C  C87  1  0.91695000  0.34760000  0.03922000  1.0
  C  C88  1  0.34022000  0.29763000  0.48415000  1.0
  C  C89  1  0.04239000  0.70249000  0.01597000  1.0
  C  C90  1  0.65981000  0.70239000  0.51585000  1.0
  C  C91  1  0.95760000  0.29750000  0.98403000  1.0
  C  C92  1  0.20839000  0.33675000  0.46720000  1.0
  C  C93  1  0.87146000  0.66326000  0.03287000  1.0
  C  C94  1  0.79163000  0.66326000  0.53280000  1.0
  C  C95  1  0.12853000  0.33673000  0.96713000  1.0
  C  C96  1  0.15899000  0.42676000  0.50441000  1.0
  C  C97  1  0.73218000  0.57318000  0.99563000  1.0
  C  C98  1  0.84104000  0.57326000  0.49559000  1.0
  C  C99  1  0.26781000  0.42681000  0.00437000  1.0
  C  C100  1  0.24611000  0.47363000  0.56003000  1.0
  C  C101  1  0.77273000  0.52633000  0.94004000  1.0
  C  C102  1  0.75391000  0.52640000  0.43996000  1.0
  C  C103  1  0.22726000  0.47366000  0.05996000  1.0
  N  N104  1  0.93114000  0.97112000  0.98380000  1.0
  N  N105  1  0.96011000  0.02889000  0.51624000  1.0
  N  N106  1  0.06886000  0.02888000  0.01620000  1.0
  N  N107  1  0.03989000  0.97114000  0.48374000  1.0
  N  N108  1  0.02826000  0.46465000  0.48203000  1.0
  N  N109  1  0.56362000  0.53533000  0.01796000  1.0
  N  N110  1  0.97177000  0.53536000  0.51796000  1.0
  N  N111  1  0.43638000  0.46466000  0.98204000  1.0
  O  O112  1  0.49771000  0.66312000  0.84328000  1.0
  O  O113  1  0.83488000  0.33683000  0.65680000  1.0
  O  O114  1  0.50229000  0.33686000  0.15673000  1.0
  O  O115  1  0.16512000  0.66318000  0.34320000  1.0
  O  O116  1  0.62181000  0.58328000  0.77179000  1.0
  O  O117  1  0.03855000  0.41639000  0.72841000  1.0
  O  O118  1  0.37819000  0.41671000  0.22822000  1.0
  O  O119  1  0.96144000  0.58360000  0.27160000  1.0
  O  O120  1  0.37955000  0.38446000  0.85293000  1.0
  O  O121  1  0.99421000  0.61528000  0.64719000  1.0
  O  O122  1  0.62044000  0.61552000  0.14707000  1.0
  O  O123  1  0.00581000  0.38473000  0.35281000  1.0
  O  O124  1  0.60170000  0.46593000  0.65099000  1.0
  O  O125  1  0.13621000  0.53413000  0.84924000  1.0
  O  O126  1  0.39830000  0.53408000  0.34902000  1.0
  O  O127  1  0.86378000  0.46585000  0.15076000  1.0
  O  O128  1  0.28887000  0.70066000  0.74595000  1.0
  O  O129  1  0.58848000  0.29913000  0.75421000  1.0
  O  O130  1  0.71111000  0.29932000  0.25406000  1.0
  O  O131  1  0.41150000  0.70085000  0.24578000  1.0
  O  O132  1  0.98139000  0.70945000  0.76473000  1.0
  O  O133  1  0.27243000  0.29041000  0.73532000  1.0
  O  O134  1  0.01860000  0.29054000  0.23528000  1.0
  O  O135  1  0.72757000  0.70958000  0.26467000  1.0
  O  O136  1  0.38915000  0.54043000  0.67534000  1.0
  O  O137  1  0.84929000  0.45953000  0.82480000  1.0
  O  O138  1  0.61084000  0.45958000  0.32466000  1.0
  O  O139  1  0.15071000  0.54045000  0.17520000  1.0
  O  O140  1  0.55959000  0.30875000  0.55359000  1.0
  O  O141  1  0.25089000  0.69156000  0.94666000  1.0
  O  O142  1  0.44044000  0.69128000  0.44642000  1.0
  O  O143  1  0.74910000  0.30842000  0.05334000  1.0
