# generated using pymatgen
data_NaH14C6IO3
_symmetry_space_group_name_H-M   'P 1'
_cell_length_a   7.76615000
_cell_length_b   12.06828573
_cell_length_c   12.29600000
_cell_angle_alpha   84.18272313
_cell_angle_beta   71.60570000
_cell_angle_gamma   71.25261755
_symmetry_Int_Tables_number   1
_chemical_formula_structural   NaH14C6IO3
_chemical_formula_sum   'Na4 H56 C24 I4 O12'
_cell_volume   1035.53246565
_cell_formula_units_Z   4
loop_
 _symmetry_equiv_pos_site_id
 _symmetry_equiv_pos_as_xyz
  1  'x, y, z'
loop_
 _atom_site_type_symbol
 _atom_site_label
 _atom_site_symmetry_multiplicity
 _atom_site_fract_x
 _atom_site_fract_y
 _atom_site_fract_z
 _atom_site_occupancy
  Na  Na0  1  0.58598000  0.32767000  0.25004000  1.0
  Na  Na1  1  0.83650000  0.82747000  0.74992000  1.0
  Na  Na2  1  0.41402000  0.67233000  0.74996000  1.0
  Na  Na3  1  0.16350000  0.17253000  0.25008000  1.0
  H  H4  1  0.53076000  0.36900000  0.98937000  1.0
  H  H5  1  0.11112000  0.86883000  0.48945000  1.0
  H  H6  1  0.39977000  0.63102000  0.48955000  1.0
  H  H7  1  0.47938000  0.13111000  0.98939000  1.0
  H  H8  1  0.46924000  0.63100000  0.01063000  1.0
  H  H9  1  0.88888000  0.13117000  0.51054000  1.0
  H  H10  1  0.60023000  0.36898000  0.51045000  1.0
  H  H11  1  0.52062000  0.86889000  0.01061000  1.0
  H  H12  1  0.32544000  0.33281000  0.98455000  1.0
  H  H13  1  0.35739000  0.83266000  0.48466000  1.0
  H  H14  1  0.15829000  0.66725000  0.48477000  1.0
  H  H15  1  0.68963000  0.16716000  0.98454000  1.0
  H  H16  1  0.67455000  0.66719000  0.01546000  1.0
  H  H17  1  0.64261000  0.16734000  0.51533000  1.0
  H  H18  1  0.84171000  0.33275000  0.51523000  1.0
  H  H19  1  0.31037000  0.83284000  0.01546000  1.0
  H  H20  1  0.13907000  0.42905000  0.17146000  1.0
  H  H21  1  0.26078000  0.92901000  0.67149000  1.0
  H  H22  1  0.06804000  0.57093000  0.67155000  1.0
  H  H23  1  0.68893000  0.07108000  0.17156000  1.0
  H  H24  1  0.86094000  0.57095000  0.82854000  1.0
  H  H25  1  0.73922000  0.07099000  0.32851000  1.0
  H  H26  1  0.93195000  0.42907000  0.32845000  1.0
  H  H27  1  0.31108000  0.92891000  0.82844000  1.0
  H  H28  1  0.21249000  0.52782000  0.06182000  1.0
  H  H29  1  0.19819000  0.02770000  0.56177000  1.0
  H  H30  1  0.24033000  0.47228000  0.56180000  1.0
  H  H31  1  0.72505000  0.97224000  0.06198000  1.0
  H  H32  1  0.78751000  0.47218000  0.93818000  1.0
  H  H33  1  0.80181000  0.97230000  0.43823000  1.0
  H  H34  1  0.75967000  0.52772000  0.43820000  1.0
  H  H35  1  0.27495000  0.02776000  0.93802000  1.0
  H  H36  1  0.30893000  0.60184000  0.30926000  1.0
  H  H37  1  0.78047000  0.10141000  0.80938000  1.0
  H  H38  1  0.41040000  0.39831000  0.80949000  1.0
  H  H39  1  0.38117000  0.89852000  0.30940000  1.0
  H  H40  1  0.69106000  0.39817000  0.69074000  1.0
  H  H41  1  0.21953000  0.89859000  0.19062000  1.0
  H  H42  1  0.58960000  0.60169000  0.19051000  1.0
  H  H43  1  0.61883000  0.10148000  0.69060000  1.0
  H  H44  1  0.11576000  0.54554000  0.32593000  1.0
  H  H45  1  0.01316000  0.04527000  0.82610000  1.0
  H  H46  1  0.16100000  0.45457000  0.82614000  1.0
  H  H47  1  0.55770000  0.95485000  0.32603000  1.0
  H  H48  1  0.88424000  0.45447000  0.67407000  1.0
  H  H49  1  0.98684000  0.95473000  0.17390000  1.0
  H  H50  1  0.83900000  0.54543000  0.17386000  1.0
  H  H51  1  0.44231000  0.04515000  0.67397000  1.0
  H  H52  1  0.15923000  0.65313000  0.21724000  1.0
  H  H53  1  0.97069000  0.15293000  0.71748000  1.0
  H  H54  1  0.31199000  0.34693000  0.71749000  1.0
  H  H55  1  0.62286000  0.84717000  0.21743000  1.0
  H  H56  1  0.84077000  0.34687000  0.78276000  1.0
  H  H57  1  0.02931000  0.84707000  0.28252000  1.0
  H  H58  1  0.68802000  0.65307000  0.28251000  1.0
  H  H59  1  0.37715000  0.15283000  0.78258000  1.0
  C  C60  1  0.39816000  0.35081000  0.04147000  1.0
  C  C61  1  0.20978000  0.85070000  0.54157000  1.0
  C  C62  1  0.24904000  0.64922000  0.54165000  1.0
  C  C63  1  0.55995000  0.14926000  0.04149000  1.0
  C  C64  1  0.60184000  0.64919000  0.95853000  1.0
  C  C65  1  0.79022000  0.14929000  0.45843000  1.0
  C  C66  1  0.75095000  0.35078000  0.45835000  1.0
  C  C67  1  0.44005000  0.85074000  0.95851000  1.0
  C  C68  1  0.26406000  0.45330000  0.11572000  1.0
  C  C69  1  0.16730000  0.95319000  0.61574000  1.0
  C  C70  1  0.21728000  0.54677000  0.61582000  1.0
  C  C71  1  0.61970000  0.04682000  0.11579000  1.0
  C  C72  1  0.73595000  0.54669000  0.88429000  1.0
  C  C73  1  0.83269000  0.04681000  0.38426000  1.0
  C  C74  1  0.78272000  0.45323000  0.38418000  1.0
  C  C75  1  0.38031000  0.95317000  0.88421000  1.0
  C  C76  1  0.22708000  0.57689000  0.26339000  1.0
  C  C77  1  0.93306000  0.07662000  0.76354000  1.0
  C  C78  1  0.30365000  0.42319000  0.76361000  1.0
  C  C79  1  0.50888000  0.92342000  0.26353000  1.0
  C  C80  1  0.77292000  0.42311000  0.73661000  1.0
  C  C81  1  0.06695000  0.92337000  0.23646000  1.0
  C  C82  1  0.69635000  0.57681000  0.23640000  1.0
  C  C83  1  0.49112000  0.07658000  0.73647000  1.0
  I  I84  1  0.27625000  0.25022000  0.44746000  1.0
  I  I85  1  0.02694000  0.75011000  0.94683000  1.0
  I  I86  1  0.72375000  0.74978000  0.55254000  1.0
  I  I87  1  0.97306000  0.24989000  0.05317000  1.0
  O  O88  1  0.44364000  0.25007000  0.11244000  1.0
  O  O89  1  0.19396000  0.74997000  0.61263000  1.0
  O  O90  1  0.55636000  0.74993000  0.88756000  1.0
  O  O91  1  0.80604000  0.25003000  0.38737000  1.0
  O  O92  1  0.35810000  0.48623000  0.18469000  1.0
  O  O93  1  0.97143000  0.98601000  0.68472000  1.0
  O  O94  1  0.34415000  0.51382000  0.68487000  1.0
  O  O95  1  0.45658000  0.01403000  0.18475000  1.0
  O  O96  1  0.64190000  0.51377000  0.81531000  1.0
  O  O97  1  0.02858000  0.01399000  0.31528000  1.0
  O  O98  1  0.65585000  0.48618000  0.31513000  1.0
  O  O99  1  0.54342000  0.98597000  0.81525000  1.0
