# generated using pymatgen
data_Zn4H22C41O14
_symmetry_space_group_name_H-M   'P 1'
_cell_length_a   15.11030000
_cell_length_b   15.25710000
_cell_length_c   19.49350000
_cell_angle_alpha   90.87680000
_cell_angle_beta   90.76950000
_cell_angle_gamma   90.15350000
_symmetry_Int_Tables_number   1
_chemical_formula_structural   Zn4H22C41O14
_chemical_formula_sum   'Zn4 H22 C41 O14'
_cell_volume   4493.06882835
_cell_formula_units_Z   1
loop_
 _symmetry_equiv_pos_site_id
 _symmetry_equiv_pos_as_xyz
  1  'x, y, z'
loop_
 _atom_site_type_symbol
 _atom_site_label
 _atom_site_symmetry_multiplicity
 _atom_site_fract_x
 _atom_site_fract_y
 _atom_site_fract_z
 _atom_site_occupancy
  Zn  Zn0  1  0.42337000  0.43156000  0.43843000  1.0
  Zn  Zn1  1  0.56909000  0.41551000  0.55573000  1.0
  Zn  Zn2  1  0.43009000  0.57712000  0.55851000  1.0
  Zn  Zn3  1  0.58357000  0.57272000  0.44904000  1.0
  H  H4  1  0.40897000  0.41609000  0.22692000  1.0
  H  H5  1  0.34156000  0.16573000  0.44128000  1.0
  H  H6  1  0.66222000  0.99907000  0.55612000  1.0
  H  H7  1  0.42794000  0.61070000  0.77094000  1.0
  H  H8  1  0.32155000  0.00398000  0.44361000  1.0
  H  H9  1  0.65190000  0.83636000  0.55061000  1.0
  H  H10  1  0.54173000  0.35304000  0.76307000  1.0
  H  H11  1  0.48071000  0.40631000  0.99969000  1.0
  H  H12  1  0.59016000  0.64243000  0.11277000  1.0
  H  H13  1  0.42782000  0.60665000  0.89851000  1.0
  H  H14  1  0.59563000  0.62875000  0.23998000  1.0
  H  H15  1  0.53691000  0.34574000  0.89065000  1.0
  H  H16  1  0.51301000  0.60545000  0.00158000  1.0
  H  H17  1  0.40468000  0.42724000  0.09976000  1.0
  H  H18  1  0.37557000  0.76286000  0.46108000  1.0
  H  H19  1  0.85560000  0.60909000  0.48117000  1.0
  H  H20  1  0.83785000  0.33669000  0.53256000  1.0
  H  H21  1  0.00336000  0.68052000  0.47237000  1.0
  H  H22  1  0.00185000  0.32219000  0.52528000  1.0
  H  H23  1  0.16772000  0.66954000  0.47588000  1.0
  H  H24  1  0.14944000  0.39060000  0.50393000  1.0
  H  H25  1  0.59847000  0.14280000  0.53576000  1.0
  C  C26  1  0.73960000  0.48217000  0.50767000  1.0
  C  C27  1  0.49842000  0.54080000  0.02231000  1.0
  C  C28  1  0.48613000  0.47210000  0.97851000  1.0
  C  C29  1  0.26566000  0.52124000  0.49063000  1.0
  C  C30  1  0.48586000  0.48255000  0.75942000  1.0
  C  C31  1  0.83783000  0.47419000  0.50634000  1.0
  C  C32  1  0.16731000  0.52852000  0.48960000  1.0
  C  C33  1  0.03557000  0.61750000  0.48057000  1.0
  C  C34  1  0.12642000  0.61154000  0.48186000  1.0
  C  C35  1  0.11674000  0.45380000  0.49828000  1.0
  C  C36  1  0.02347000  0.45905000  0.50182000  1.0
  C  C37  1  0.49874000  0.53433000  0.09696000  1.0
  C  C38  1  0.98186000  0.54233000  0.49095000  1.0
  C  C39  1  0.88850000  0.54710000  0.49161000  1.0
  C  C40  1  0.87918000  0.39267000  0.52006000  1.0
  C  C41  1  0.48191000  0.26104000  0.48980000  1.0
  C  C42  1  0.96974000  0.38511000  0.51636000  1.0
  C  C43  1  0.47132000  0.16376000  0.48918000  1.0
  C  C44  1  0.51744000  0.83597000  0.51070000  1.0
  C  C45  1  0.60201000  0.96679000  0.53697000  1.0
  C  C46  1  0.59636000  0.87682000  0.53429000  1.0
  C  C47  1  0.44448000  0.88481000  0.48853000  1.0
  C  C48  1  0.55072000  0.59233000  0.13768000  1.0
  C  C49  1  0.45062000  0.97891000  0.48840000  1.0
  C  C50  1  0.53070000  0.01958000  0.51400000  1.0
  C  C51  1  0.53842000  0.11193000  0.51511000  1.0
  C  C52  1  0.39336000  0.12388000  0.46214000  1.0
  C  C53  1  0.51603000  0.73737000  0.51100000  1.0
  C  C54  1  0.38247000  0.03408000  0.46281000  1.0
  C  C55  1  0.48804000  0.48622000  0.68321000  1.0
  C  C56  1  0.50503000  0.51366000  0.31717000  1.0
  C  C57  1  0.50320000  0.52108000  0.24110000  1.0
  C  C58  1  0.44946000  0.46439000  0.20117000  1.0
  C  C59  1  0.55406000  0.58504000  0.20867000  1.0
  C  C60  1  0.44775000  0.47059000  0.13023000  1.0
  C  C61  1  0.36544000  0.83514000  0.46443000  1.0
  C  C62  1  0.45382000  0.55130000  0.86906000  1.0
  C  C63  1  0.45336000  0.55378000  0.79786000  1.0
  C  C64  1  0.51661000  0.40793000  0.79338000  1.0
  C  C65  1  0.51406000  0.40442000  0.86448000  1.0
  C  C66  1  0.48454000  0.47668000  0.90381000  1.0
  O  O67  1  0.50185000  0.49960000  0.50059000  1.0
  O  O68  1  0.53839000  0.43135000  0.65267000  1.0
  O  O69  1  0.56342000  0.55904000  0.35006000  1.0
  O  O70  1  0.43949000  0.54426000  0.65468000  1.0
  O  O71  1  0.44806000  0.46230000  0.34342000  1.0
  O  O72  1  0.29286000  0.86549000  0.44872000  1.0
  O  O73  1  0.43105000  0.30400000  0.44979000  1.0
  O  O74  1  0.56590000  0.69971000  0.46759000  1.0
  O  O75  1  0.69710000  0.42358000  0.53999000  1.0
  O  O76  1  0.30871000  0.58358000  0.52059000  1.0
  O  O77  1  0.70589000  0.54739000  0.47632000  1.0
  O  O78  1  0.29878000  0.45312000  0.46234000  1.0
  O  O79  1  0.54116000  0.29321000  0.53021000  1.0
  O  O80  1  0.46811000  0.70131000  0.55574000  1.0
