# generated using pymatgen
data_CoH28C30(SN5)2
_symmetry_space_group_name_H-M   'P 1'
_cell_length_a   10.03240000
_cell_length_b   10.03240000
_cell_length_c   10.27510000
_cell_angle_alpha   112.29570000
_cell_angle_beta   113.96800000
_cell_angle_gamma   101.26700000
_symmetry_Int_Tables_number   1
_chemical_formula_structural   CoH28C30(SN5)2
_chemical_formula_sum   'Co1 H28 C30 S2 N10'
_cell_volume   796.14921258
_cell_formula_units_Z   1
loop_
 _symmetry_equiv_pos_site_id
 _symmetry_equiv_pos_as_xyz
  1  'x, y, z'
loop_
 _atom_site_type_symbol
 _atom_site_label
 _atom_site_symmetry_multiplicity
 _atom_site_fract_x
 _atom_site_fract_y
 _atom_site_fract_z
 _atom_site_occupancy
  Co  Co0  1  0.99658000  0.99658000  0.00000000  1.0
  H  H1  1  0.83346000  0.33763000  0.35196000  1.0
  H  H2  1  0.98567000  0.48150000  0.64805000  1.0
  H  H3  1  0.33633000  0.99058000  0.49661000  1.0
  H  H4  1  0.49397000  0.83972000  0.50339000  1.0
  H  H5  1  0.88264000  0.20424000  0.42068000  1.0
  H  H6  1  0.78357000  0.46197000  0.57933000  1.0
  H  H7  1  0.21006000  0.79184000  0.32440000  1.0
  H  H8  1  0.46745000  0.88566000  0.67560000  1.0
  H  H9  1  0.67685000  0.97472000  0.30502000  1.0
  H  H10  1  0.66969000  0.37183000  0.69498000  1.0
  H  H11  1  0.97742000  0.67402000  0.29833000  1.0
  H  H12  1  0.37569000  0.67910000  0.70168000  1.0
  H  H13  1  0.34641000  0.11730000  0.19887000  1.0
  H  H14  1  0.91843000  0.14754000  0.80113000  1.0
  H  H15  1  0.10947000  0.91497000  0.75036000  1.0
  H  H16  1  0.16461000  0.35911000  0.24964000  1.0
  H  H17  1  0.96910000  0.67389000  0.91532000  1.0
  H  H18  1  0.75857000  0.05377000  0.08468000  1.0
  H  H19  1  0.66426000  0.73405000  0.68413000  1.0
  H  H20  1  0.04992000  0.98014000  0.31588000  1.0
  H  H21  1  0.15753000  0.54317000  0.97190000  1.0
  H  H22  1  0.57127000  0.18563000  0.02810000  1.0
  H  H23  1  0.53574000  0.56076000  0.37589000  1.0
  H  H24  1  0.18487000  0.15985000  0.62411000  1.0
  H  H25  1  0.45299000  0.71012000  0.14379000  1.0
  H  H26  1  0.56632000  0.30919000  0.85620000  1.0
  H  H27  1  0.70796000  0.56865000  0.25568000  1.0
  H  H28  1  0.31296000  0.45228000  0.74432000  1.0
  C  C29  1  0.23668000  0.23668000  0.00000000  1.0
  C  C30  1  0.75767000  0.75767000  0.00000000  1.0
  C  C31  1  0.80965000  0.27357000  0.41208000  1.0
  C  C32  1  0.86149000  0.39757000  0.58793000  1.0
  C  C33  1  0.27614000  0.86738000  0.46095000  1.0
  C  C34  1  0.40643000  0.81519000  0.53905000  1.0
  C  C35  1  0.59282000  0.03102000  0.27653000  1.0
  C  C36  1  0.75449000  0.31628000  0.72347000  1.0
  C  C37  1  0.02970000  0.75725000  0.43166000  1.0
  C  C38  1  0.32559000  0.59804000  0.56834000  1.0
  C  C39  1  0.42143000  0.92710000  0.18249000  1.0
  C  C40  1  0.74461000  0.23894000  0.81751000  1.0
  C  C41  1  0.92289000  0.74350000  0.49462000  1.0
  C  C42  1  0.24888000  0.42827000  0.50538000  1.0
  C  C43  1  0.30749000  0.99062000  0.14924000  1.0
  C  C44  1  0.84137000  0.15824000  0.85075000  1.0
  C  C45  1  0.98287000  0.83517000  0.66461000  1.0
  C  C46  1  0.17056000  0.31826000  0.33539000  1.0
  C  C47  1  0.09807000  0.74217000  0.99170000  1.0
  C  C48  1  0.75047000  0.10636000  0.00830000  1.0
  C  C49  1  0.73373000  0.73391000  0.62558000  1.0
  C  C50  1  0.10833000  0.10815000  0.37442000  1.0
  C  C51  1  0.20351000  0.67092000  0.02393000  1.0
  C  C52  1  0.64699000  0.17958000  0.97608000  1.0
  C  C53  1  0.66355000  0.63734000  0.45541000  1.0
  C  C54  1  0.18193000  0.20814000  0.54459000  1.0
  C  C55  1  0.36798000  0.76398000  0.12040000  1.0
  C  C56  1  0.64358000  0.24758000  0.87960000  1.0
  C  C57  1  0.75969000  0.64162000  0.38872000  1.0
  C  C58  1  0.25289000  0.37096000  0.61128000  1.0
  S  S59  1  0.36373000  0.36373000  0.00000000  1.0
  S  S60  1  0.63076000  0.63076000  0.00000000  1.0
  N  N61  1  0.14341000  0.14341000  0.00000000  1.0
  N  N62  1  0.85090000  0.85089000  0.00000000  1.0
  N  N63  1  0.63969000  0.17672000  0.31787000  1.0
  N  N64  1  0.85885000  0.32181000  0.68213000  1.0
  N  N65  1  0.17415000  0.86239000  0.52719000  1.0
  N  N66  1  0.33519000  0.64696000  0.47281000  1.0
  N  N67  1  0.14885000  0.90064000  0.05413000  1.0
  N  N68  1  0.84650000  0.09471000  0.94587000  1.0
  N  N69  1  0.89087000  0.83106000  0.72869000  1.0
  N  N70  1  0.10237000  0.16218000  0.27131000  1.0
