# generated using pymatgen
data_Zn4H20C16N6O13
_symmetry_space_group_name_H-M   'P 1'
_cell_length_a   10.91990000
_cell_length_b   10.92290000
_cell_length_c   10.93440000
_cell_angle_alpha   97.80310000
_cell_angle_beta   99.79800000
_cell_angle_gamma   90.07740000
_symmetry_Int_Tables_number   1
_chemical_formula_structural   Zn4H20C16N6O13
_chemical_formula_sum   'Zn4 H20 C16 N6 O13'
_cell_volume   1272.89872702
_cell_formula_units_Z   1
loop_
 _symmetry_equiv_pos_site_id
 _symmetry_equiv_pos_as_xyz
  1  'x, y, z'
loop_
 _atom_site_type_symbol
 _atom_site_label
 _atom_site_symmetry_multiplicity
 _atom_site_fract_x
 _atom_site_fract_y
 _atom_site_fract_z
 _atom_site_occupancy
  Zn  Zn0  1  0.60628000  0.39365000  0.59951000  1.0
  Zn  Zn1  1  0.41514000  0.61753000  0.60473000  1.0
  Zn  Zn2  1  0.37355000  0.38612000  0.37088000  1.0
  Zn  Zn3  1  0.59779000  0.57950000  0.40991000  1.0
  H  H4  1  0.12516000  0.44344000  0.66094000  1.0
  H  H5  1  0.35501000  0.96948000  0.29551000  1.0
  H  H6  1  0.66509000  0.10636000  0.61668000  1.0
  H  H7  1  0.82390000  0.00239000  0.73095000  1.0
  H  H8  1  0.76878000  0.85864000  0.64170000  1.0
  H  H9  1  0.69848000  0.92110000  0.77212000  1.0
  H  H10  1  0.27458000  0.43543000  0.95155000  1.0
  H  H11  1  0.35757000  0.31108000  0.94639000  1.0
  H  H12  1  0.65338000  0.60243000  0.12986000  1.0
  H  H13  1  0.81350000  0.68895000  0.04712000  1.0
  H  H14  1  0.68846000  0.74557000  0.94417000  1.0
  H  H15  1  0.08423000  0.24527000  0.50518000  1.0
  H  H16  1  0.75967000  0.60318000  0.89776000  1.0
  H  H17  1  0.94566000  0.23451000  0.57060000  1.0
  H  H18  1  0.09351000  0.23063000  0.66771000  1.0
  H  H19  1  0.88571000  0.63261000  0.38587000  1.0
  H  H20  1  0.98384000  0.73387000  0.24948000  1.0
  H  H21  1  0.11745000  0.64271000  0.27789000  1.0
  H  H22  1  0.09779000  0.77533000  0.38683000  1.0
  H  H23  1  0.28033000  0.98198000  0.41364000  1.0
  C  C24  1  0.53292000  0.82620000  0.52228000  1.0
  C  C25  1  0.96926000  0.47618000  0.53883000  1.0
  C  C26  1  0.02893000  0.54068000  0.46404000  1.0
  C  C27  1  0.46415000  0.02838000  0.46331000  1.0
  C  C28  1  0.04133000  0.27240000  0.58934000  1.0
  C  C29  1  0.04858000  0.69705000  0.32295000  1.0
  C  C30  1  0.74044000  0.94452000  0.69312000  1.0
  C  C31  1  0.73027000  0.66155000  0.97714000  1.0
  C  C32  1  0.55300000  0.96462000  0.53408000  1.0
  C  C33  1  0.45800000  0.46824000  0.02375000  1.0
  C  C34  1  0.54534000  0.52742000  0.97251000  1.0
  C  C35  1  0.47248000  0.16095000  0.46590000  1.0
  C  C36  1  0.52688000  0.51582000  0.83115000  1.0
  C  C37  1  0.46648000  0.47161000  0.15765000  1.0
  C  C38  1  0.16775000  0.52521000  0.47410000  1.0
  C  C39  1  0.83586000  0.48198000  0.53427000  1.0
  N  N40  1  0.03895000  0.40601000  0.62567000  1.0
  N  N41  1  0.97854000  0.62049000  0.38641000  1.0
  N  N42  1  0.36264000  0.95539000  0.38692000  1.0
  N  N43  1  0.65636000  0.01239000  0.61094000  1.0
  N  N44  1  0.35894000  0.40256000  0.93604000  1.0
  N  N45  1  0.64594000  0.59422000  0.03459000  1.0
  O  O46  1  0.49136000  0.49352000  0.49791000  1.0
  O  O47  1  0.23355000  0.60238000  0.55780000  1.0
  O  O48  1  0.77495000  0.55305000  0.45944000  1.0
  O  O49  1  0.20371000  0.44030000  0.39851000  1.0
  O  O50  1  0.78379000  0.41753000  0.60204000  1.0
  O  O51  1  0.58197000  0.42785000  0.77674000  1.0
  O  O52  1  0.55949000  0.53449000  0.22952000  1.0
  O  O53  1  0.46835000  0.78844000  0.59666000  1.0
  O  O54  1  0.38510000  0.21331000  0.39807000  1.0
  O  O55  1  0.58817000  0.76198000  0.44359000  1.0
  O  O56  1  0.56872000  0.21961000  0.53629000  1.0
  O  O57  1  0.46409000  0.60066000  0.78304000  1.0
  O  O58  1  0.38315000  0.41280000  0.19899000  1.0
