# generated using pymatgen
data_Zn4H32C37O19
_symmetry_space_group_name_H-M   'P 1'
_cell_length_a   18.05020000
_cell_length_b   18.15312320
_cell_length_c   18.22900000
_cell_angle_alpha   60.95485391
_cell_angle_beta   60.75700000
_cell_angle_gamma   60.71224090
_symmetry_Int_Tables_number   1
_chemical_formula_structural   Zn4H32C37O19
_chemical_formula_sum   'Zn8 H64 C74 O38'
_cell_volume   4300.51407779
_cell_formula_units_Z   2
loop_
 _symmetry_equiv_pos_site_id
 _symmetry_equiv_pos_as_xyz
  1  'x, y, z'
loop_
 _atom_site_type_symbol
 _atom_site_label
 _atom_site_symmetry_multiplicity
 _atom_site_fract_x
 _atom_site_fract_y
 _atom_site_fract_z
 _atom_site_occupancy
  Zn  Zn0  1  0.38132000  0.20379000  0.20703000  1.0
  Zn  Zn1  1  0.61868000  0.79621000  0.79298000  1.0
  Zn  Zn2  1  0.20696000  0.38155000  0.20416000  1.0
  Zn  Zn3  1  0.79304000  0.61845000  0.79584000  1.0
  Zn  Zn4  1  0.20550000  0.20860000  0.38173000  1.0
  Zn  Zn5  1  0.79450000  0.79140000  0.61828000  1.0
  Zn  Zn6  1  0.20557000  0.20460000  0.20776000  1.0
  Zn  Zn7  1  0.79443000  0.79540000  0.79224000  1.0
  H  H8  1  0.07256000  0.47633000  0.85536000  1.0
  H  H9  1  0.97117000  0.96795000  0.65770000  1.0
  H  H10  1  0.41103000  0.83343000  0.15132000  1.0
  H  H11  1  0.44442000  0.82416000  0.04564000  1.0
  H  H12  1  0.52548000  0.77779000  0.09849000  1.0
  H  H13  1  0.58897000  0.16657000  0.84867000  1.0
  H  H14  1  0.47452000  0.22221000  0.90151000  1.0
  H  H15  1  0.55558000  0.17585000  0.95436000  1.0
  H  H16  1  0.99929000  0.32491000  0.99784000  1.0
  H  H17  1  0.00070000  0.67509000  0.00217000  1.0
  H  H18  1  0.15440000  0.60148000  0.41699000  1.0
  H  H19  1  0.92744000  0.52366000  0.14465000  1.0
  H  H20  1  0.04817000  0.68141000  0.45248000  1.0
  H  H21  1  0.10189000  0.59438000  0.53093000  1.0
  H  H22  1  0.84561000  0.39852000  0.58301000  1.0
  H  H23  1  0.89811000  0.40562000  0.46907000  1.0
  H  H24  1  0.95183000  0.31859000  0.54752000  1.0
  H  H25  1  0.99904000  0.68869000  0.31875000  1.0
  H  H26  1  0.10483000  0.60787000  0.28368000  1.0
  H  H27  1  0.00707000  0.60909000  0.28230000  1.0
  H  H28  1  0.00097000  0.31131000  0.68125000  1.0
  H  H29  1  0.99293000  0.39091000  0.71770000  1.0
  H  H30  1  0.85391000  0.47648000  0.07265000  1.0
  H  H31  1  0.89517000  0.39213000  0.71632000  1.0
  H  H32  1  0.83045000  0.60201000  0.41263000  1.0
  H  H33  1  0.77576000  0.59637000  0.52624000  1.0
  H  H34  1  0.82342000  0.68196000  0.44777000  1.0
  H  H35  1  0.16957000  0.39798000  0.58737000  1.0
  H  H36  1  0.17660000  0.31803000  0.55222000  1.0
  H  H37  1  0.22424000  0.40363000  0.47376000  1.0
  H  H38  1  0.60407000  0.42340000  0.83651000  1.0
  H  H39  1  0.39593000  0.57660000  0.16349000  1.0
  H  H40  1  0.39450000  0.57293000  0.86558000  1.0
  H  H41  1  0.14609000  0.52351000  0.92736000  1.0
  H  H42  1  0.60550000  0.42707000  0.13441000  1.0
  H  H43  1  0.32559000  0.67662000  0.99988000  1.0
  H  H44  1  0.67440000  0.32339000  0.00012000  1.0
  H  H45  1  0.41152000  0.15269000  0.83367000  1.0
  H  H46  1  0.52603000  0.09933000  0.77861000  1.0
  H  H47  1  0.44485000  0.04672000  0.82432000  1.0
  H  H48  1  0.58848000  0.84731000  0.16633000  1.0
  H  H49  1  0.55515000  0.95328000  0.17567000  1.0
  H  H50  1  0.47397000  0.90067000  0.22139000  1.0
  H  H51  1  0.60264000  0.83330000  0.40968000  1.0
  H  H52  1  0.34149000  0.02979000  0.02884000  1.0
  H  H53  1  0.68534000  0.82707000  0.44138000  1.0
  H  H54  1  0.60083000  0.77806000  0.52206000  1.0
  H  H55  1  0.39737000  0.16670000  0.59032000  1.0
  H  H56  1  0.39918000  0.22194000  0.47794000  1.0
  H  H57  1  0.31466000  0.17293000  0.55861000  1.0
  H  H58  1  0.61185000  0.13156000  0.41801000  1.0
  H  H59  1  0.38815000  0.86845000  0.58199000  1.0
  H  H60  1  0.83030000  0.15271000  0.41474000  1.0
  H  H61  1  0.82095000  0.04704000  0.44598000  1.0
  H  H62  1  0.77549000  0.09832000  0.52736000  1.0
  H  H63  1  0.65851000  0.97021000  0.97116000  1.0
  H  H64  1  0.16969000  0.84729000  0.58526000  1.0
  H  H65  1  0.22451000  0.90167000  0.47264000  1.0
  H  H66  1  0.17906000  0.95295000  0.55402000  1.0
  H  H67  1  0.13104000  0.84332000  0.41318000  1.0
  H  H68  1  0.86896000  0.15668000  0.58682000  1.0
  H  H69  1  0.59607000  0.03172000  0.34262000  1.0
  H  H70  1  0.40394000  0.96828000  0.65737000  1.0
  H  H71  1  0.02883000  0.03205000  0.34230000  1.0
  C  C72  1  0.11101000  0.38588000  0.10911000  1.0
  C  C73  1  0.44926000  0.05191000  0.44533000  1.0
  C  C74  1  0.55189000  0.04317000  0.48432000  1.0
  C  C75  1  0.44811000  0.95684000  0.51568000  1.0
  C  C76  1  0.01568000  0.01730000  0.41248000  1.0
  C  C77  1  0.98432000  0.98270000  0.58752000  1.0
  C  C78  1  0.92020000  0.04177000  0.48315000  1.0
  C  C79  1  0.07980000  0.95822000  0.51685000  1.0
  C  C80  1  0.94798000  0.94663000  0.55420000  1.0
  C  C81  1  0.05202000  0.05337000  0.44580000  1.0
  C  C82  1  0.04259000  0.92282000  0.48179000  1.0
  C  C83  1  0.88900000  0.61411000  0.89090000  1.0
  C  C84  1  0.95741000  0.07718000  0.51821000  1.0
  C  C85  1  0.01348000  0.41454000  0.01301000  1.0
  C  C86  1  0.98652000  0.58545000  0.98700000  1.0
  C  C87  1  0.39107000  0.10916000  0.38875000  1.0
  C  C88  1  0.60893000  0.89084000  0.61125000  1.0
  C  C89  1  0.04120000  0.48623000  0.92005000  1.0
  C  C90  1  0.95881000  0.51376000  0.07996000  1.0
  C  C91  1  0.94672000  0.55806000  0.94808000  1.0
  C  C92  1  0.05327000  0.44194000  0.05193000  1.0
  C  C93  1  0.91923000  0.48631000  0.04122000  1.0
  C  C94  1  0.48277000  0.04236000  0.92167000  1.0
  C  C95  1  0.08077000  0.51368000  0.95878000  1.0
  C  C96  1  0.01608000  0.55609000  0.41333000  1.0
  C  C97  1  0.98393000  0.44391000  0.58667000  1.0
  C  C98  1  0.04292000  0.55241000  0.48555000  1.0
  C  C99  1  0.95709000  0.44758000  0.51445000  1.0
  C  C100  1  0.94720000  0.54836000  0.55694000  1.0
  C  C101  1  0.05280000  0.45164000  0.44306000  1.0
  C  C102  1  0.92075000  0.55271000  0.48357000  1.0
  C  C103  1  0.07926000  0.44729000  0.51644000  1.0
  C  C104  1  0.44618000  0.51435000  0.95856000  1.0
  C  C105  1  0.51723000  0.95764000  0.07833000  1.0
  C  C106  1  0.55382000  0.48565000  0.04144000  1.0
  C  C107  1  0.55232000  0.48443000  0.92096000  1.0
  C  C108  1  0.44768000  0.51557000  0.07904000  1.0
  C  C109  1  0.54821000  0.55728000  0.94793000  1.0
  C  C110  1  0.45179000  0.44272000  0.05207000  1.0
  C  C111  1  0.39227000  0.38659000  0.11034000  1.0
  C  C112  1  0.60773000  0.61341000  0.88966000  1.0
  C  C113  1  0.44269000  0.58725000  0.98526000  1.0
  C  C114  1  0.55731000  0.41275000  0.01474000  1.0
  C  C115  1  0.10939000  0.11078000  0.38948000  1.0
  C  C116  1  0.55398000  0.01743000  0.41264000  1.0
  C  C117  1  0.89061000  0.88921000  0.61053000  1.0
  C  C118  1  0.11010000  0.39331000  0.38684000  1.0
  C  C119  1  0.88990000  0.60669000  0.61317000  1.0
  C  C120  1  0.38806000  0.10912000  0.11009000  1.0
  C  C121  1  0.61193000  0.89088000  0.88990000  1.0
  C  C122  1  0.41221000  0.01615000  0.01570000  1.0
  C  C123  1  0.58779000  0.98385000  0.98430000  1.0
  C  C124  1  0.48261000  0.92143000  0.04174000  1.0
  C  C125  1  0.51739000  0.07858000  0.95826000  1.0
  C  C126  1  0.55544000  0.94742000  0.94767000  1.0
  C  C127  1  0.44601000  0.98258000  0.58735000  1.0
  C  C128  1  0.44455000  0.05259000  0.05233000  1.0
  C  C129  1  0.46502000  0.83454000  0.08666000  1.0
  C  C130  1  0.53498000  0.16546000  0.91334000  1.0
  C  C131  1  0.08918000  0.61044000  0.47075000  1.0
  C  C132  1  0.91083000  0.38956000  0.52926000  1.0
  C  C133  1  0.03252000  0.61888000  0.31965000  1.0
  C  C134  1  0.96748000  0.38112000  0.68035000  1.0
  C  C135  1  0.83305000  0.61121000  0.46665000  1.0
  C  C136  1  0.16696000  0.38879000  0.53335000  1.0
  C  C137  1  0.46547000  0.08767000  0.83497000  1.0
  C  C138  1  0.55479000  0.92175000  0.48117000  1.0
  C  C139  1  0.53453000  0.91233000  0.16503000  1.0
  C  C140  1  0.61404000  0.83548000  0.46253000  1.0
  C  C141  1  0.38596000  0.16452000  0.53746000  1.0
  C  C142  1  0.83211000  0.08727000  0.46690000  1.0
  C  C143  1  0.16790000  0.91272000  0.53310000  1.0
  C  C144  1  0.44522000  0.07825000  0.51882000  1.0
  C  C145  1  0.55074000  0.94809000  0.55467000  1.0
  O  O146  1  0.24965000  0.25065000  0.25087000  1.0
  O  O147  1  0.69352000  0.86492000  0.57079000  1.0
  O  O148  1  0.13306000  0.30161000  0.13286000  1.0
  O  O149  1  0.86694000  0.69838000  0.86715000  1.0
  O  O150  1  0.43085000  0.12807000  0.30477000  1.0
  O  O151  1  0.56914000  0.87194000  0.69523000  1.0
  O  O152  1  0.30804000  0.42934000  0.12900000  1.0
  O  O153  1  0.69195000  0.57067000  0.87100000  1.0
  O  O154  1  0.13223000  0.13310000  0.43000000  1.0
  O  O155  1  0.86776000  0.86690000  0.57000000  1.0
  O  O156  1  0.13137000  0.43071000  0.30249000  1.0
  O  O157  1  0.75035000  0.74935000  0.74913000  1.0
  O  O158  1  0.86864000  0.56928000  0.69752000  1.0
  O  O159  1  0.30292000  0.12903000  0.13559000  1.0
  O  O160  1  0.69707000  0.87098000  0.86441000  1.0
  O  O161  1  0.13362000  0.30918000  0.42839000  1.0
  O  O162  1  0.86638000  0.69082000  0.57161000  1.0
  O  O163  1  0.43024000  0.13297000  0.12998000  1.0
  O  O164  1  0.56975000  0.86703000  0.87002000  1.0
  O  O165  1  0.02989000  0.32614000  0.02872000  1.0
  O  O166  1  0.97011000  0.67385000  0.97129000  1.0
  O  O167  1  0.60721000  0.47475000  0.83804000  1.0
  O  O168  1  0.43081000  0.30256000  0.13594000  1.0
  O  O169  1  0.39278000  0.52526000  0.16197000  1.0
  O  O170  1  0.39038000  0.52302000  0.92102000  1.0
  O  O171  1  0.60961000  0.47699000  0.07898000  1.0
  O  O172  1  0.38778000  0.67589000  0.96894000  1.0
  O  O173  1  0.61222000  0.32411000  0.03106000  1.0
  O  O174  1  0.60716000  0.08264000  0.47412000  1.0
  O  O175  1  0.39285000  0.91736000  0.52587000  1.0
  O  O176  1  0.08147000  0.84038000  0.46927000  1.0
  O  O177  1  0.91852000  0.15962000  0.53073000  1.0
  O  O178  1  0.56919000  0.69744000  0.86406000  1.0
  O  O179  1  0.13146000  0.13198000  0.30550000  1.0
  O  O180  1  0.86855000  0.86801000  0.69451000  1.0
  O  O181  1  0.13300000  0.42915000  0.12938000  1.0
  O  O182  1  0.86700000  0.57085000  0.87062000  1.0
  O  O183  1  0.30648000  0.13508000  0.42921000  1.0
