# generated using pymatgen
data_Cd2H10C16N8O5
_symmetry_space_group_name_H-M   'P 1'
_cell_length_a   12.49400000
_cell_length_b   16.32640000
_cell_length_c   21.04910000
_cell_angle_alpha   90.00000000
_cell_angle_beta   90.70310000
_cell_angle_gamma   89.99990000
_symmetry_Int_Tables_number   1
_chemical_formula_structural   Cd2H10C16N8O5
_chemical_formula_sum   'Cd16 H80 C128 N64 O40'
_cell_volume   4293.31511175
_cell_formula_units_Z   8
loop_
 _symmetry_equiv_pos_site_id
 _symmetry_equiv_pos_as_xyz
  1  'x, y, z'
loop_
 _atom_site_type_symbol
 _atom_site_label
 _atom_site_symmetry_multiplicity
 _atom_site_fract_x
 _atom_site_fract_y
 _atom_site_fract_z
 _atom_site_occupancy
  Cd  Cd0  1  0.53411000  0.04848000  0.27251000  1.0
  Cd  Cd1  1  0.96589000  0.54848000  0.22749000  1.0
  Cd  Cd2  1  0.46589000  0.95152000  0.72749000  1.0
  Cd  Cd3  1  0.03411000  0.45152000  0.77251000  1.0
  Cd  Cd4  1  0.77198000  0.17280000  0.31639000  1.0
  Cd  Cd5  1  0.72802000  0.67280000  0.18361000  1.0
  Cd  Cd6  1  0.22803000  0.82720000  0.68361000  1.0
  Cd  Cd7  1  0.27198000  0.32720000  0.81639000  1.0
  Cd  Cd8  1  0.27060000  0.20196000  0.26087000  1.0
  Cd  Cd9  1  0.22940000  0.70196000  0.23913000  1.0
  Cd  Cd10  1  0.72940000  0.79805000  0.73913000  1.0
  Cd  Cd11  1  0.77060000  0.29804000  0.76087000  1.0
  Cd  Cd12  1  0.51408000  0.17840000  0.78791000  1.0
  Cd  Cd13  1  0.98592000  0.67840000  0.71209000  1.0
  Cd  Cd14  1  0.48592000  0.82160000  0.21209000  1.0
  Cd  Cd15  1  0.01408000  0.32160000  0.28791000  1.0
  H  H16  1  0.25978000  0.59363000  0.37555000  1.0
  H  H17  1  0.24022000  0.09363000  0.12445000  1.0
  H  H18  1  0.74022000  0.40637000  0.62445000  1.0
  H  H19  1  0.75978000  0.90637000  0.87555000  1.0
  H  H20  1  0.42485000  0.55398000  0.43636000  1.0
  H  H21  1  0.07515000  0.05398000  0.06364000  1.0
  H  H22  1  0.57515000  0.44602000  0.56364000  1.0
  H  H23  1  0.92486000  0.94602000  0.93636000  1.0
  H  H24  1  0.52539000  0.42865000  0.40687000  1.0
  H  H25  1  0.97461000  0.92866000  0.09313000  1.0
  H  H26  1  0.47461000  0.57135000  0.59313000  1.0
  H  H27  1  0.02539000  0.07135000  0.90687000  1.0
  H  H28  1  0.29032000  0.37776000  0.26030000  1.0
  H  H29  1  0.20968000  0.87776000  0.23970000  1.0
  H  H30  1  0.70968000  0.62224000  0.73970000  1.0
  H  H31  1  0.79032000  0.12224000  0.76030000  1.0
  H  H32  1  0.62328000  0.11181000  0.04823000  1.0
  H  H33  1  0.87672000  0.61181000  0.45177000  1.0
  H  H34  1  0.37672000  0.88819000  0.95177000  1.0
  H  H35  1  0.12328000  0.38819000  0.54823000  1.0
  H  H36  1  0.92934000  0.21141000  0.99606000  1.0
  H  H37  1  0.57066000  0.71140000  0.50394000  1.0
  H  H38  1  0.07066000  0.78860000  0.00394000  1.0
  H  H39  1  0.42933000  0.28860000  0.49606000  1.0
  H  H40  1  0.00001000  0.18313000  0.10478000  1.0
  H  H41  1  0.49999000  0.68313000  0.39522000  1.0
  H  H42  1  0.99999000  0.81687000  0.89522000  1.0
  H  H43  1  0.50001000  0.31687000  0.60478000  1.0
  H  H44  1  0.88065000  0.12173000  0.18584000  1.0
  H  H45  1  0.61935000  0.62173000  0.31416000  1.0
  H  H46  1  0.11935000  0.87827000  0.81416000  1.0
  H  H47  1  0.38065000  0.37827000  0.68584000  1.0
  H  H48  1  0.79268000  0.99554000  0.26495000  1.0
  H  H49  1  0.70731000  0.49554000  0.23506000  1.0
  H  H50  1  0.20732000  0.00446000  0.73505000  1.0
  H  H51  1  0.29268000  0.50446000  0.76494000  1.0
  H  H52  1  0.07774000  0.91505000  0.36405000  1.0
  H  H53  1  0.42226000  0.41505000  0.13595000  1.0
  H  H54  1  0.92226000  0.08495000  0.63595000  1.0
  H  H55  1  0.57774000  0.58495000  0.86405000  1.0
  H  H56  1  0.99955000  0.77567000  0.37465000  1.0
  H  H57  1  0.50045000  0.27567000  0.12535000  1.0
  H  H58  1  0.00044000  0.22433000  0.62535000  1.0
  H  H59  1  0.49956000  0.72433000  0.87465000  1.0
  H  H60  1  0.81713000  0.74694000  0.32950000  1.0
  H  H61  1  0.68287000  0.24694000  0.17050000  1.0
  H  H62  1  0.18287000  0.25306000  0.67050000  1.0
  H  H63  1  0.31713000  0.75306000  0.82951000  1.0
  H  H64  1  0.30063000  0.75389000  0.46862000  1.0
  H  H65  1  0.19937000  0.25389000  0.03138000  1.0
  H  H66  1  0.69937000  0.24611000  0.53138000  1.0
  H  H67  1  0.80063000  0.74611000  0.96862000  1.0
  H  H68  1  0.41758000  0.80755000  0.55594000  1.0
  H  H69  1  0.08243000  0.30755000  0.94406000  1.0
  H  H70  1  0.58243000  0.19245000  0.44406000  1.0
  H  H71  1  0.91757000  0.69245000  0.05594000  1.0
  H  H72  1  0.56287000  0.90734000  0.53184000  1.0
  H  H73  1  0.93713000  0.40734000  0.96816000  1.0
  H  H74  1  0.43713000  0.09266000  0.46816000  1.0
  H  H75  1  0.06287000  0.59265000  0.03184000  1.0
  H  H76  1  0.47040000  0.90144000  0.33435000  1.0
  H  H77  1  0.02960000  0.40143000  0.16565000  1.0
  H  H78  1  0.52959000  0.09857000  0.66565000  1.0
  H  H79  1  0.97041000  0.59856000  0.83435000  1.0
  H  H80  1  0.86022000  0.30416000  0.40349000  1.0
  H  H81  1  0.63977000  0.80417000  0.09651000  1.0
  H  H82  1  0.13977000  0.69583000  0.59651000  1.0
  H  H83  1  0.36023000  0.19584000  0.90349000  1.0
  H  H84  1  0.42444000  0.05406000  0.87629000  1.0
  H  H85  1  0.07556000  0.55405000  0.62371000  1.0
  H  H86  1  0.57556000  0.94594000  0.12371000  1.0
  H  H87  1  0.92444000  0.44594000  0.37629000  1.0
  H  H88  1  0.86094000  0.21831000  0.43933000  1.0
  H  H89  1  0.63906000  0.71831000  0.06067000  1.0
  H  H90  1  0.13906000  0.78169000  0.56067000  1.0
  H  H91  1  0.36094000  0.28169000  0.93933000  1.0
  H  H92  1  0.50736000  0.11413000  0.91254000  1.0
  H  H93  1  0.99264000  0.61413000  0.58746000  1.0
  H  H94  1  0.49263000  0.88587000  0.08746000  1.0
  H  H95  1  0.00737000  0.38587000  0.41254000  1.0
  C  C96  1  0.16576000  0.50883000  0.27987000  1.0
  C  C97  1  0.33424000  0.00883000  0.22013000  1.0
  C  C98  1  0.83424000  0.49117000  0.72013000  1.0
  C  C99  1  0.66576000  0.99117000  0.77987000  1.0
  C  C100  1  0.26512000  0.48657000  0.31524000  1.0
  C  C101  1  0.23488000  0.98657000  0.18476000  1.0
  C  C102  1  0.73488000  0.51343000  0.68476000  1.0
  C  C103  1  0.76512000  0.01343000  0.81524000  1.0
  C  C104  1  0.30306000  0.53765000  0.36400000  1.0
  C  C105  1  0.19694000  0.03765000  0.13600000  1.0
  C  C106  1  0.69694000  0.46235000  0.63600000  1.0
  C  C107  1  0.80306000  0.96235000  0.86400000  1.0
  C  C108  1  0.39586000  0.51573000  0.39740000  1.0
  C  C109  1  0.10414000  0.01573000  0.10260000  1.0
  C  C110  1  0.60414000  0.48427000  0.60260000  1.0
  C  C111  1  0.89586000  0.98427000  0.89740000  1.0
  C  C112  1  0.45230000  0.44538000  0.38121000  1.0
  C  C113  1  0.04770000  0.94538000  0.11878000  1.0
  C  C114  1  0.54770000  0.55462000  0.61879000  1.0
  C  C115  1  0.95230000  0.05462000  0.88122000  1.0
  C  C116  1  0.41515000  0.39419000  0.33186000  1.0
  C  C117  1  0.08486000  0.89419000  0.16813000  1.0
  C  C118  1  0.58485000  0.60581000  0.66814000  1.0
  C  C119  1  0.91515000  0.10581000  0.83187000  1.0
  C  C120  1  0.47602000  0.31976000  0.31774000  1.0
  C  C121  1  0.02398000  0.81975000  0.18225000  1.0
  C  C122  1  0.52398000  0.68025000  0.68225000  1.0
  C  C123  1  0.97602000  0.18025000  0.81775000  1.0
  C  C124  1  0.32055000  0.41501000  0.29945000  1.0
  C  C125  1  0.17945000  0.91501000  0.20055000  1.0
  C  C126  1  0.67945000  0.58499000  0.70055000  1.0
  C  C127  1  0.82055000  0.08499000  0.79945000  1.0
  C  C128  1  0.67111000  0.08139000  0.17054000  1.0
  C  C129  1  0.82888000  0.58139000  0.32947000  1.0
  C  C130  1  0.32888000  0.91861000  0.82947000  1.0
  C  C131  1  0.17112000  0.41861000  0.67053000  1.0
  C  C132  1  0.74556000  0.11195000  0.12139000  1.0
  C  C133  1  0.75444000  0.61194000  0.37861000  1.0
  C  C134  1  0.25444000  0.88806000  0.87860000  1.0
  C  C135  1  0.24556000  0.38806000  0.62139000  1.0
  C  C136  1  0.70632000  0.12658000  0.05983000  1.0
  C  C137  1  0.79368000  0.62658000  0.44017000  1.0
  C  C138  1  0.29367000  0.87342000  0.94017000  1.0
  C  C139  1  0.20632000  0.37342000  0.55983000  1.0
  C  C140  1  0.77239000  0.16340000  0.01495000  1.0
  C  C141  1  0.72761000  0.66340000  0.48505000  1.0
  C  C142  1  0.22761000  0.83660000  0.98505000  1.0
  C  C143  1  0.27239000  0.33660000  0.51495000  1.0
  C  C144  1  0.73291000  0.18569000  0.95185000  1.0
  C  C145  1  0.76709000  0.68569000  0.54815000  1.0
  C  C146  1  0.26709000  0.81431000  0.04815000  1.0
  C  C147  1  0.23291000  0.31431000  0.45185000  1.0
  C  C148  1  0.87880000  0.18268000  0.03142000  1.0
  C  C149  1  0.62120000  0.68268000  0.46858000  1.0
  C  C150  1  0.12120000  0.81732000  0.96858000  1.0
  C  C151  1  0.37880000  0.31732000  0.53142000  1.0
  C  C152  1  0.91784000  0.16700000  0.09238000  1.0
  C  C153  1  0.58216000  0.66700000  0.40762000  1.0
  C  C154  1  0.08216000  0.83300000  0.90762000  1.0
  C  C155  1  0.41784000  0.33300000  0.59238000  1.0
  C  C156  1  0.85141000  0.13237000  0.13770000  1.0
  C  C157  1  0.64859000  0.63237000  0.36230000  1.0
  C  C158  1  0.14859000  0.86763000  0.86230000  1.0
  C  C159  1  0.35141000  0.36763000  0.63770000  1.0
  C  C160  1  0.68832000  0.85101000  0.26555000  1.0
  C  C161  1  0.81168000  0.35101000  0.23445000  1.0
  C  C162  1  0.31169000  0.14899000  0.73445000  1.0
  C  C163  1  0.18832000  0.64899000  0.76555000  1.0
  C  C164  1  0.79389000  0.86970000  0.29528000  1.0
  C  C165  1  0.70611000  0.36970000  0.20472000  1.0
  C  C166  1  0.20611000  0.13030000  0.70472000  1.0
  C  C167  1  0.29389000  0.63030000  0.79528000  1.0
  C  C168  1  0.83733000  0.94836000  0.29035000  1.0
  C  C169  1  0.66267000  0.44835000  0.20966000  1.0
  C  C170  1  0.16267000  0.05165000  0.70965000  1.0
  C  C171  1  0.33733000  0.55165000  0.79034000  1.0
  C  C172  1  0.93967000  0.96460000  0.31485000  1.0
  C  C173  1  0.56033000  0.46460000  0.18515000  1.0
  C  C174  1  0.06033000  0.03540000  0.68515000  1.0
  C  C175  1  0.43967000  0.53540000  0.81485000  1.0
  C  C176  1  0.99038000  0.04423000  0.30507000  1.0
  C  C177  1  0.50962000  0.54423000  0.19493000  1.0
  C  C178  1  0.00962000  0.95577000  0.69493000  1.0
  C  C179  1  0.49038000  0.45577000  0.80507000  1.0
  C  C180  1  0.99782000  0.90197000  0.34537000  1.0
  C  C181  1  0.50218000  0.40197000  0.15463000  1.0
  C  C182  1  0.00218000  0.09803000  0.65463000  1.0
  C  C183  1  0.49781000  0.59803000  0.84537000  1.0
  C  C184  1  0.95358000  0.82400000  0.35124000  1.0
  C  C185  1  0.54642000  0.32400000  0.14876000  1.0
  C  C186  1  0.04642000  0.17600000  0.64877000  1.0
  C  C187  1  0.45358000  0.67600000  0.85124000  1.0
  C  C188  1  0.85222000  0.80761000  0.32594000  1.0
  C  C189  1  0.64778000  0.30762000  0.17406000  1.0
  C  C190  1  0.14778000  0.19239000  0.67406000  1.0
  C  C191  1  0.35222000  0.69238000  0.82594000  1.0
  C  C192  1  0.31826000  0.78492000  0.34305000  1.0
  C  C193  1  0.18174000  0.28492000  0.15695000  1.0
  C  C194  1  0.68173000  0.21508000  0.65695000  1.0
  C  C195  1  0.81827000  0.71508000  0.84305000  1.0
  C  C196  1  0.37974000  0.82396000  0.39606000  1.0
  C  C197  1  0.12026000  0.32395000  0.10394000  1.0
  C  C198  1  0.62026000  0.17605000  0.60394000  1.0
  C  C199  1  0.87974000  0.67604000  0.89606000  1.0
  C  C200  1  0.36331000  0.79847000  0.45881000  1.0
  C  C201  1  0.13670000  0.29847000  0.04118000  1.0
  C  C202  1  0.63669000  0.20153000  0.54118000  1.0
  C  C203  1  0.86331000  0.70153000  0.95881000  1.0
  C  C204  1  0.42922000  0.82859000  0.50740000  1.0
  C  C205  1  0.07078000  0.32859000  0.99260000  1.0
  C  C206  1  0.57078000  0.17141000  0.49260000  1.0
  C  C207  1  0.92922000  0.67140000  0.00740000  1.0
  C  C208  1  0.50981000  0.88496000  0.49424000  1.0
  C  C209  1  0.99019000  0.38496000  0.00576000  1.0
  C  C210  1  0.49019000  0.11504000  0.50576000  1.0
  C  C211  1  0.00981000  0.61504000  0.99424000  1.0
  C  C212  1  0.52415000  0.91352000  0.43188000  1.0
  C  C213  1  0.97585000  0.41352000  0.06812000  1.0
  C  C214  1  0.47585000  0.08648000  0.56812000  1.0
  C  C215  1  0.02415000  0.58648000  0.93188000  1.0
  C  C216  1  0.60817000  0.97380000  0.41930000  1.0
  C  C217  1  0.89182000  0.47380000  0.08070000  1.0
  C  C218  1  0.39183000  0.02620000  0.58070000  1.0
  C  C219  1  0.10818000  0.52620000  0.91930000  1.0
  C  C220  1  0.45895000  0.88209000  0.38316000  1.0
  C  C221  1  0.04104000  0.38208000  0.11684000  1.0
  C  C222  1  0.54104000  0.11792000  0.61684000  1.0
  C  C223  1  0.95896000  0.61791000  0.88316000  1.0
  N  N224  1  0.43846000  0.24966000  0.29092000  1.0
  N  N225  1  0.06154000  0.74965000  0.20908000  1.0
  N  N226  1  0.56154000  0.75035000  0.70908000  1.0
  N  N227  1  0.93846000  0.25035000  0.79092000  1.0
  N  N228  1  0.52070000  0.19740000  0.29118000  1.0
  N  N229  1  0.97930000  0.69740000  0.20882000  1.0
  N  N230  1  0.47930000  0.80260000  0.70882000  1.0
  N  N231  1  0.02070000  0.30260000  0.79118000  1.0
  N  N232  1  0.60469000  0.23485000  0.31659000  1.0
  N  N233  1  0.89532000  0.73485000  0.18341000  1.0
  N  N234  1  0.39532000  0.76515000  0.68341000  1.0
  N  N235  1  0.10469000  0.26515000  0.81659000  1.0
  N  N236  1  0.58024000  0.31087000  0.33372000  1.0
  N  N237  1  0.91976000  0.81087000  0.16628000  1.0
  N  N238  1  0.41977000  0.68913000  0.66628000  1.0
  N  N239  1  0.08024000  0.18913000  0.83372000  1.0
  N  N240  1  0.63984000  0.16120000  0.92440000  1.0
  N  N241  1  0.86016000  0.66120000  0.57561000  1.0
  N  N242  1  0.36016000  0.83880000  0.07561000  1.0
  N  N243  1  0.13984000  0.33880000  0.42439000  1.0
  N  N244  1  0.63917000  0.19765000  0.86762000  1.0
  N  N245  1  0.86083000  0.69765000  0.63238000  1.0
  N  N246  1  0.36083000  0.80235000  0.13238000  1.0
  N  N247  1  0.13917000  0.30235000  0.36762000  1.0
  N  N248  1  0.72706000  0.24200000  0.86115000  1.0
  N  N249  1  0.77294000  0.74200000  0.63885000  1.0
  N  N250  1  0.27294000  0.75800000  0.13885000  1.0
  N  N251  1  0.22706000  0.25800000  0.36114000  1.0
  N  N252  1  0.78767000  0.23603000  0.91292000  1.0
  N  N253  1  0.71233000  0.73602000  0.58708000  1.0
  N  N254  1  0.21233000  0.76398000  0.08708000  1.0
  N  N255  1  0.28767000  0.26398000  0.41291000  1.0
  N  N256  1  0.94156000  0.11829000  0.30065000  1.0
  N  N257  1  0.55844000  0.61829000  0.19935000  1.0
  N  N258  1  0.05844000  0.88171000  0.69935000  1.0
  N  N259  1  0.44156000  0.38171000  0.80065000  1.0
  N  N260  1  0.01948000  0.17190000  0.28762000  1.0
  N  N261  1  0.48052000  0.67190000  0.21238000  1.0
  N  N262  1  0.98052000  0.82810000  0.71238000  1.0
  N  N263  1  0.51948000  0.32810000  0.78762000  1.0
  N  N264  1  0.11083000  0.13160000  0.28433000  1.0
  N  N265  1  0.38917000  0.63160000  0.21567000  1.0
  N  N266  1  0.88917000  0.86840000  0.71567000  1.0
  N  N267  1  0.61083000  0.36840000  0.78433000  1.0
  N  N268  1  0.09624000  0.05233000  0.29544000  1.0
  N  N269  1  0.40376000  0.55233000  0.20455000  1.0
  N  N270  1  0.90376000  0.94767000  0.70455000  1.0
  N  N271  1  0.59624000  0.44767000  0.79545000  1.0
  N  N272  1  0.61149000  0.02650000  0.36977000  1.0
  N  N273  1  0.88850000  0.52650000  0.13023000  1.0
  N  N274  1  0.38850000  0.97350000  0.63023000  1.0
  N  N275  1  0.11150000  0.47350000  0.86977000  1.0
  N  N276  1  0.70280000  0.06941000  0.37887000  1.0
  N  N277  1  0.79720000  0.56941000  0.12113000  1.0
  N  N278  1  0.29720000  0.93059000  0.62113000  1.0
  N  N279  1  0.20280000  0.43059000  0.87887000  1.0
  N  N280  1  0.75196000  0.04456000  0.43129000  1.0
  N  N281  1  0.74803000  0.54456000  0.06871000  1.0
  N  N282  1  0.24804000  0.95544000  0.56871000  1.0
  N  N283  1  0.25197000  0.45544000  0.93129000  1.0
  N  N284  1  0.69453000  0.98494000  0.45762000  1.0
  N  N285  1  0.80546000  0.48494000  0.04238000  1.0
  N  N286  1  0.30547000  0.01506000  0.54238000  1.0
  N  N287  1  0.19454000  0.51506000  0.95762000  1.0
  O  O288  1  0.09759000  0.45423000  0.26394000  1.0
  O  O289  1  0.40241000  0.95423000  0.23606000  1.0
  O  O290  1  0.90241000  0.54576000  0.73606000  1.0
  O  O291  1  0.59759000  0.04577000  0.76394000  1.0
  O  O292  1  0.14481000  0.58373000  0.26597000  1.0
  O  O293  1  0.35518000  0.08373000  0.23403000  1.0
  O  O294  1  0.85519000  0.41627000  0.73403000  1.0
  O  O295  1  0.64482000  0.91627000  0.76597000  1.0
  O  O296  1  0.58468000  0.04518000  0.15524000  1.0
  O  O297  1  0.91531000  0.54518000  0.34476000  1.0
  O  O298  1  0.41531000  0.95482000  0.84476000  1.0
  O  O299  1  0.08468000  0.45482000  0.65524000  1.0
  O  O300  1  0.69461000  0.09552000  0.22947000  1.0
  O  O301  1  0.80539000  0.59552000  0.27053000  1.0
  O  O302  1  0.30539000  0.90448000  0.77053000  1.0
  O  O303  1  0.19462000  0.40448000  0.72947000  1.0
  O  O304  1  0.61938000  0.90754000  0.25596000  1.0
  O  O305  1  0.88062000  0.40754000  0.24404000  1.0
  O  O306  1  0.38062000  0.09246000  0.74404000  1.0
  O  O307  1  0.11938000  0.59246000  0.75596000  1.0
  O  O308  1  0.66451000  0.77714000  0.24965000  1.0
  O  O309  1  0.83549000  0.27714000  0.25035000  1.0
  O  O310  1  0.33550000  0.22286000  0.75035000  1.0
  O  O311  1  0.16451000  0.72286000  0.74965000  1.0
  O  O312  1  0.35182000  0.79461000  0.28545000  1.0
  O  O313  1  0.14818000  0.29461000  0.21455000  1.0
  O  O314  1  0.64817000  0.20539000  0.71455000  1.0
  O  O315  1  0.85183000  0.70539000  0.78545000  1.0
  O  O316  1  0.23674000  0.74127000  0.35343000  1.0
  O  O317  1  0.26326000  0.24127000  0.14657000  1.0
  O  O318  1  0.76325000  0.25873000  0.64657000  1.0
  O  O319  1  0.73675000  0.75873000  0.85343000  1.0
  O  O320  1  0.82269000  0.25041000  0.40743000  1.0
  O  O321  1  0.67731000  0.75041000  0.09257000  1.0
  O  O322  1  0.17731000  0.74959000  0.59257000  1.0
  O  O323  1  0.32269000  0.24959000  0.90743000  1.0
  O  O324  1  0.43959000  0.11237000  0.88709000  1.0
  O  O325  1  0.06041000  0.61236000  0.61291000  1.0
  O  O326  1  0.56041000  0.88763000  0.11291000  1.0
  O  O327  1  0.93959000  0.38763000  0.38709000  1.0
