# generated using pymatgen
data_Zr3H8C63Br30N3O16
_symmetry_space_group_name_H-M   'P 1'
_cell_length_a   17.99800000
_cell_length_b   18.12660000
_cell_length_c   18.36400000
_cell_angle_alpha   92.24750000
_cell_angle_beta   90.49810000
_cell_angle_gamma   91.18910000
_symmetry_Int_Tables_number   1
_chemical_formula_structural   Zr3H8C63Br30N3O16
_chemical_formula_sum   'Zr6 H16 C126 Br60 N6 O32'
_cell_volume   5984.94922184
_cell_formula_units_Z   2
loop_
 _symmetry_equiv_pos_site_id
 _symmetry_equiv_pos_as_xyz
  1  'x, y, z'
loop_
 _atom_site_type_symbol
 _atom_site_label
 _atom_site_symmetry_multiplicity
 _atom_site_fract_x
 _atom_site_fract_y
 _atom_site_fract_z
 _atom_site_occupancy
  Zr  Zr0  1  0.02401000  0.19386000  0.13662000  1.0
  Zr  Zr1  1  0.15798000  0.23830000  0.00445000  1.0
  Zr  Zr2  1  0.99831000  0.01059000  0.07256000  1.0
  Zr  Zr3  1  0.17851000  0.07992000  0.11993000  1.0
  Zr  Zr4  1  0.97476000  0.16516000  0.95689000  1.0
  Zr  Zr5  1  0.13252000  0.05134000  0.93632000  1.0
  H  H6  1  0.79834000  0.86681000  0.46983000  1.0
  H  H7  1  0.79476000  0.88894000  0.61546000  1.0
  H  H8  1  0.36693000  0.30727000  0.65464000  1.0
  H  H9  1  0.34461000  0.30916000  0.50996000  1.0
  H  H10  1  0.50956000  0.82626000  0.78300000  1.0
  H  H11  1  0.65755000  0.81049000  0.79241000  1.0
  H  H12  1  0.69689000  0.43879000  0.23929000  1.0
  H  H13  1  0.54940000  0.42239000  0.25395000  1.0
  H  H14  1  0.90266000  0.53740000  0.76751000  1.0
  H  H15  1  0.91527000  0.68430000  0.76399000  1.0
  H  H16  1  0.27288000  0.76120000  0.30029000  1.0
  H  H17  1  0.28760000  0.61866000  0.25867000  1.0
  H  H18  1  0.17925000  0.22997000  0.16255000  1.0
  H  H19  1  0.88758000  0.12526000  0.07698000  1.0
  H  H20  1  0.13439000  0.93881000  0.04473000  1.0
  H  H21  1  0.09985000  0.17595000  0.86148000  1.0
  C  C22  1  0.75426000  0.97819000  0.46584000  1.0
  C  C23  1  0.77555000  0.91446000  0.49843000  1.0
  C  C24  1  0.77251000  0.92528000  0.57543000  1.0
  C  C25  1  0.74924000  0.99613000  0.58988000  1.0
  C  C26  1  0.43337000  0.20921000  0.62964000  1.0
  C  C27  1  0.39308000  0.27168000  0.61400000  1.0
  C  C28  1  0.38139000  0.27306000  0.53846000  1.0
  C  C29  1  0.41397000  0.21144000  0.50697000  1.0
  C  C30  1  0.50790000  0.79043000  0.89544000  1.0
  C  C31  1  0.53916000  0.80429000  0.82872000  1.0
  C  C32  1  0.61732000  0.79485000  0.83302000  1.0
  C  C33  1  0.63405000  0.77537000  0.90296000  1.0
  C  C34  1  0.66973000  0.48897000  0.13556000  1.0
  C  C35  1  0.65505000  0.46045000  0.20356000  1.0
  C  C36  1  0.57771000  0.45182000  0.21150000  1.0
  C  C37  1  0.54426000  0.47503000  0.14884000  1.0
  C  C38  1  0.99634000  0.53609000  0.69131000  1.0
  C  C39  1  0.93970000  0.56767000  0.73269000  1.0
  C  C40  1  0.94589000  0.64458000  0.73092000  1.0
  C  C41  1  0.00759000  0.66186000  0.69017000  1.0
  C  C42  1  0.18189000  0.72054000  0.36844000  1.0
  C  C43  1  0.24338000  0.71472000  0.32286000  1.0
  C  C44  1  0.25133000  0.64035000  0.30098000  1.0
  C  C45  1  0.19501000  0.60016000  0.33249000  1.0
  C  C46  1  0.91653000  0.08265000  0.21555000  1.0
  C  C47  1  0.10553000  0.34348000  0.15409000  1.0
  C  C48  1  0.25323000  0.12327000  0.24148000  1.0
  C  C49  1  0.89528000  0.28626000  0.07117000  1.0
  C  C50  1  0.25761000  0.16047000  0.87352000  1.0
  C  C51  1  0.04130000  0.94522000  0.82173000  1.0
  C  C52  1  0.27596000  0.32529000  0.03862000  1.0
  C  C53  1  0.04430000  0.30560000  0.88120000  1.0
  C  C54  1  0.90456000  0.90813000  0.02032000  1.0
  C  C55  1  0.10388000  0.94330000  0.19808000  1.0
  C  C56  1  0.27064000  0.97338000  0.01020000  1.0
  C  C57  1  0.88482000  0.11797000  0.85316000  1.0
  C  C58  1  0.19203000  0.85407000  0.36273000  1.0
  C  C59  1  0.14414000  0.79125000  0.36897000  1.0
  C  C60  1  0.07035000  0.80086000  0.34360000  1.0
  C  C61  1  0.05546000  0.85314000  0.29144000  1.0
  C  C62  1  0.11406000  0.89808000  0.26366000  1.0
  C  C63  1  0.18283000  0.89910000  0.30333000  1.0
  C  C64  1  0.17159000  0.40082000  0.26428000  1.0
  C  C65  1  0.12741000  0.40973000  0.20201000  1.0
  C  C66  1  0.10330000  0.48018000  0.18500000  1.0
  C  C67  1  0.12195000  0.54088000  0.23143000  1.0
  C  C68  1  0.16573000  0.53208000  0.29497000  1.0
  C  C69  1  0.19020000  0.46166000  0.31077000  1.0
  C  C70  1  0.07730000  0.74458000  0.77635000  1.0
  C  C71  1  0.04436000  0.73476000  0.70623000  1.0
  C  C72  1  0.02960000  0.79830000  0.66757000  1.0
  C  C73  1  0.03576000  0.86880000  0.70194000  1.0
  C  C74  1  0.05984000  0.87705000  0.77480000  1.0
  C  C75  1  0.08690000  0.81514000  0.80916000  1.0
  C  C76  1  0.96222000  0.36885000  0.78903000  1.0
  C  C77  1  0.03422000  0.35267000  0.81603000  1.0
  C  C78  1  0.09505000  0.37881000  0.77501000  1.0
  C  C79  1  0.08530000  0.43151000  0.72184000  1.0
  C  C80  1  0.01407000  0.45935000  0.70614000  1.0
  C  C81  1  0.95390000  0.41358000  0.72922000  1.0
  C  C82  1  0.03149000  0.57375000  0.52747000  1.0
  C  C83  1  0.07174000  0.59724000  0.59103000  1.0
  C  C84  1  0.14259000  0.62974000  0.58131000  1.0
  C  C85  1  0.17002000  0.64153000  0.51113000  1.0
  C  C86  1  0.12621000  0.62552000  0.44784000  1.0
  C  C87  1  0.05896000  0.58604000  0.45715000  1.0
  C  C88  1  0.80443000  0.46387000  0.14786000  1.0
  C  C89  1  0.74079000  0.46860000  0.10180000  1.0
  C  C90  1  0.74444000  0.42630000  0.03532000  1.0
  C  C91  1  0.78854000  0.36359000  0.03037000  1.0
  C  C92  1  0.84479000  0.35084000  0.08234000  1.0
  C  C93  1  0.85305000  0.40458000  0.14098000  1.0
  C  C94  1  0.41249000  0.33061000  0.06739000  1.0
  C  C95  1  0.34473000  0.36788000  0.06323000  1.0
  C  C96  1  0.34264000  0.44332000  0.08486000  1.0
  C  C97  1  0.40644000  0.47904000  0.11511000  1.0
  C  C98  1  0.47400000  0.44256000  0.11897000  1.0
  C  C99  1  0.47686000  0.36810000  0.09286000  1.0
  C  C100  1  0.84000000  0.79444000  0.95565000  1.0
  C  C101  1  0.83871000  0.85782000  0.00270000  1.0
  C  C102  1  0.76911000  0.88327000  0.02604000  1.0
  C  C103  1  0.70407000  0.85809000  0.99032000  1.0
  C  C104  1  0.70386000  0.79444000  0.94300000  1.0
  C  C105  1  0.77276000  0.76101000  0.92988000  1.0
  C  C106  1  0.33149000  0.84725000  0.00001000  1.0
  C  C107  1  0.33439000  0.92341000  0.99238000  1.0
  C  C108  1  0.39338000  0.95454000  0.95452000  1.0
  C  C109  1  0.44428000  0.91033000  0.91720000  1.0
  C  C110  1  0.44406000  0.83187000  0.92579000  1.0
  C  C111  1  0.38617000  0.80223000  0.96815000  1.0
  C  C112  1  0.55094000  0.62909000  0.95037000  1.0
  C  C113  1  0.56423000  0.69978000  0.98388000  1.0
  C  C114  1  0.57962000  0.70253000  0.05922000  1.0
  C  C115  1  0.59489000  0.63771000  0.09592000  1.0
  C  C116  1  0.58454000  0.56689000  0.06139000  1.0
  C  C117  1  0.55340000  0.56442000  0.99055000  1.0
  C  C118  1  0.39559000  0.11181000  0.72081000  1.0
  C  C119  1  0.42508000  0.18211000  0.70370000  1.0
  C  C120  1  0.42211000  0.23585000  0.76199000  1.0
  C  C121  1  0.36917000  0.23012000  0.81722000  1.0
  C  C122  1  0.32397000  0.16500000  0.82362000  1.0
  C  C123  1  0.34463000  0.10339000  0.77760000  1.0
  C  C124  1  0.41282000  0.19081000  0.36912000  1.0
  C  C125  1  0.38330000  0.17851000  0.43785000  1.0
  C  C126  1  0.31243000  0.14375000  0.44171000  1.0
  C  C127  1  0.27115000  0.12487000  0.37845000  1.0
  C  C128  1  0.29975000  0.14025000  0.30876000  1.0
  C  C129  1  0.37190000  0.17290000  0.30497000  1.0
  C  C130  1  0.86703000  0.11745000  0.71844000  1.0
  C  C131  1  0.83822000  0.09935000  0.78689000  1.0
  C  C132  1  0.77144000  0.05741000  0.78925000  1.0
  C  C133  1  0.73678000  0.03160000  0.72386000  1.0
  C  C134  1  0.77052000  0.04076000  0.65610000  1.0
  C  C135  1  0.83660000  0.08449000  0.65449000  1.0
  C  C136  1  0.79342000  0.07043000  0.28381000  1.0
  C  C137  1  0.87031000  0.06393000  0.28046000  1.0
  C  C138  1  0.90765000  0.03125000  0.33730000  1.0
  C  C139  1  0.86884000  0.99709000  0.39267000  1.0
  C  C140  1  0.78973000  0.00438000  0.39865000  1.0
  C  C141  1  0.75386000  0.04221000  0.34272000  1.0
  C  C142  1  0.52304000  0.06268000  0.51910000  1.0
  C  C143  1  0.51905000  0.13623000  0.54625000  1.0
  C  C144  1  0.58710000  0.17651000  0.55369000  1.0
  C  C145  1  0.65587000  0.14285000  0.54014000  1.0
  C  C146  1  0.66002000  0.06628000  0.52504000  1.0
  C  C147  1  0.59171000  0.02680000  0.51558000  1.0
  Br  Br148  1  0.27252000  0.94629000  0.27383000  1.0
  Br  Br149  1  0.27275000  0.86658000  0.42978000  1.0
  Br  Br150  1  0.95616000  0.85617000  0.25672000  1.0
  Br  Br151  1  0.99494000  0.73707000  0.37642000  1.0
  Br  Br152  1  0.24932000  0.45243000  0.39571000  1.0
  Br  Br153  1  0.21059000  0.30685000  0.28302000  1.0
  Br  Br154  1  0.08989000  0.63588000  0.20790000  1.0
  Br  Br155  1  0.04881000  0.49272000  0.09778000  1.0
  Br  Br156  1  0.13065000  0.82616000  0.90356000  1.0
  Br  Br157  1  0.10162000  0.66040000  0.82949000  1.0
  Br  Br158  1  0.00625000  0.95405000  0.65338000  1.0
  Br  Br159  1  0.99629000  0.78455000  0.56934000  1.0
  Br  Br160  1  0.86054000  0.41471000  0.67918000  1.0
  Br  Br161  1  0.87365000  0.34148000  0.83765000  1.0
  Br  Br162  1  0.16796000  0.46826000  0.67093000  1.0
  Br  Br163  1  0.19183000  0.34374000  0.79191000  1.0
  Br  Br164  1  0.00389000  0.54892000  0.37493000  1.0
  Br  Br165  1  0.93595000  0.53019000  0.53625000  1.0
  Br  Br166  1  0.27040000  0.67188000  0.50146000  1.0
  Br  Br167  1  0.20276000  0.65702000  0.66306000  1.0
  Br  Br168  1  0.92361000  0.39615000  0.21720000  1.0
  Br  Br169  1  0.82077000  0.54133000  0.21977000  1.0
  Br  Br170  1  0.75594000  0.28813000  0.96163000  1.0
  Br  Br171  1  0.68773000  0.45205000  0.95453000  1.0
  Br  Br172  1  0.56911000  0.31960000  0.08812000  1.0
  Br  Br173  1  0.41965000  0.23006000  0.03622000  1.0
  Br  Br174  1  0.40545000  0.57896000  0.14971000  1.0
  Br  Br175  1  0.25478000  0.49719000  0.07403000  1.0
  Br  Br176  1  0.77200000  0.67107000  0.87336000  1.0
  Br  Br177  1  0.93203000  0.75549000  0.92599000  1.0
  Br  Br178  1  0.62275000  0.92256000  0.99421000  1.0
  Br  Br179  1  0.76191000  0.95172000  0.10607000  1.0
  Br  Br180  1  0.37879000  0.69901000  0.97860000  1.0
  Br  Br181  1  0.25102000  0.80723000  0.05343000  1.0
  Br  Br182  1  0.50907000  0.96223000  0.85501000  1.0
  Br  Br183  1  0.40086000  0.05924000  0.95714000  1.0
  Br  Br184  1  0.50928000  0.47650000  0.94897000  1.0
  Br  Br185  1  0.53010000  0.61935000  0.84957000  1.0
  Br  Br186  1  0.62353000  0.64608000  0.19502000  1.0
  Br  Br187  1  0.57302000  0.79308000  0.11248000  1.0
  Br  Br188  1  0.30447000  0.00651000  0.78612000  1.0
  Br  Br189  1  0.42357000  0.02973000  0.66225000  1.0
  Br  Br190  1  0.35703000  0.31688000  0.87627000  1.0
  Br  Br191  1  0.49108000  0.31695000  0.76145000  1.0
  Br  Br192  1  0.41356000  0.19897000  0.21524000  1.0
  Br  Br193  1  0.50955000  0.23414000  0.36676000  1.0
  Br  Br194  1  0.17767000  0.07800000  0.39233000  1.0
  Br  Br195  1  0.27320000  0.12376000  0.53459000  1.0
  Br  Br196  1  0.89278000  0.08961000  0.56827000  1.0
  Br  Br197  1  0.94605000  0.18730000  0.71027000  1.0
  Br  Br198  1  0.64400000  0.97977000  0.72332000  1.0
  Br  Br199  1  0.72972000  0.03040000  0.87884000  1.0
  Br  Br200  1  0.64949000  0.05236000  0.34457000  1.0
  Br  Br201  1  0.74543000  0.11927000  0.20736000  1.0
  Br  Br202  1  0.92923000  0.94163000  0.45499000  1.0
  Br  Br203  1  0.01291000  0.04018000  0.33693000  1.0
  Br  Br204  1  0.58996000  0.92323000  0.49998000  1.0
  Br  Br205  1  0.43667000  0.01210000  0.48237000  1.0
  Br  Br206  1  0.74352000  0.20152000  0.53848000  1.0
  Br  Br207  1  0.58538000  0.27894000  0.57604000  1.0
  N  N208  1  0.73055000  0.02866000  0.52336000  1.0
  N  N209  1  0.44958000  0.17232000  0.56194000  1.0
  N  N210  1  0.56663000  0.76552000  0.94133000  1.0
  N  N211  1  0.60001000  0.50182000  0.10192000  1.0
  N  N212  1  0.03839000  0.59531000  0.66207000  1.0
  N  N213  1  0.15318000  0.64814000  0.37810000  1.0
  O  O214  1  0.92322000  0.03029000  0.16841000  1.0
  O  O215  1  0.12924000  0.33848000  0.09025000  1.0
  O  O216  1  0.18274000  0.12489000  0.24396000  1.0
  O  O217  1  0.92759000  0.26214000  0.12767000  1.0
  O  O218  1  0.90454000  0.25916000  0.00742000  1.0
  O  O219  1  0.28364000  0.10680000  0.17986000  1.0
  O  O220  1  0.06359000  0.29619000  0.18571000  1.0
  O  O221  1  0.94719000  0.14658000  0.21454000  1.0
  O  O222  1  0.04758000  0.21684000  0.03339000  1.0
  O  O223  1  0.06371000  0.08874000  0.13129000  1.0
  O  O224  1  0.15075000  0.19861000  0.12753000  1.0
  O  O225  1  0.93949000  0.12264000  0.06296000  1.0
  O  O226  1  0.24340000  0.21393000  0.91805000  1.0
  O  O227  1  0.97563000  0.95217000  0.83702000  1.0
  O  O228  1  0.26157000  0.26410000  0.06944000  1.0
  O  O229  1  0.99213000  0.25829000  0.89087000  1.0
  O  O230  1  0.89334000  0.97777000  0.01552000  1.0
  O  O231  1  0.15904000  0.98467000  0.18093000  1.0
  O  O232  1  0.22905000  0.98259000  0.95493000  1.0
  O  O233  1  0.95522000  0.11215000  0.84745000  1.0
  O  O234  1  0.26355000  0.00231000  0.07332000  1.0
  O  O235  1  0.85810000  0.14002000  0.91460000  1.0
  O  O236  1  0.23272000  0.34670000  0.98983000  1.0
  O  O237  1  0.04403000  0.93967000  0.16096000  1.0
  O  O238  1  0.96847000  0.88760000  0.04070000  1.0
  O  O239  1  0.10178000  0.31258000  0.92200000  1.0
  O  O240  1  0.21636000  0.10228000  0.86705000  1.0
  O  O241  1  0.09687000  0.98822000  0.84539000  1.0
  O  O242  1  0.02447000  0.06294000  0.97643000  1.0
  O  O243  1  0.17851000  0.12284000  0.01750000  1.0
  O  O244  1  0.11243000  0.98642000  0.03652000  1.0
  O  O245  1  0.09263000  0.16139000  0.91138000  1.0
