# generated using pymatgen
data_CuH20C22(N2O3)2
_symmetry_space_group_name_H-M   'P 1'
_cell_length_a   5.00572000
_cell_length_b   8.80501000
_cell_length_c   12.76620000
_cell_angle_alpha   102.23400000
_cell_angle_beta   100.63500000
_cell_angle_gamma   105.39300000
_symmetry_Int_Tables_number   1
_chemical_formula_structural   CuH20C22(N2O3)2
_chemical_formula_sum   'Cu1 H20 C22 N4 O6'
_cell_volume   512.56571878
_cell_formula_units_Z   1
loop_
 _symmetry_equiv_pos_site_id
 _symmetry_equiv_pos_as_xyz
  1  'x, y, z'
loop_
 _atom_site_type_symbol
 _atom_site_label
 _atom_site_symmetry_multiplicity
 _atom_site_fract_x
 _atom_site_fract_y
 _atom_site_fract_z
 _atom_site_occupancy
  Cu  Cu0  1  0.00000000  0.50000000  0.00000000  1.0
  H  H1  1  0.31012000  0.83720000  0.13471000  1.0
  H  H2  1  0.68988000  0.16281000  0.86529000  1.0
  H  H3  1  0.30483000  0.02352000  0.31448000  1.0
  H  H4  1  0.69515000  0.97648000  0.68552000  1.0
  H  H5  1  0.92518000  0.93043000  0.40795000  1.0
  H  H6  1  0.07481000  0.06957000  0.59206000  1.0
  H  H7  1  0.58262000  0.48289000  0.14095000  1.0
  H  H8  1  0.41738000  0.51711000  0.85905000  1.0
  H  H9  1  0.36175000  0.51751000  0.27754000  1.0
  H  H10  1  0.63825000  0.48249000  0.72246000  1.0
  H  H11  1  0.20335000  0.80181000  0.57602000  1.0
  H  H12  1  0.79666000  0.19819000  0.42398000  1.0
  H  H13  1  0.18154000  0.35391000  0.35393000  1.0
  H  H14  1  0.81846000  0.64608000  0.64606000  1.0
  H  H15  1  0.67519000  0.00968000  0.08313000  1.0
  H  H16  1  0.32482000  0.99032000  0.91687000  1.0
  H  H17  1  0.50137000  0.14087000  0.14803000  1.0
  H  H18  1  0.49864000  0.85913000  0.85198000  1.0
  H  H19  1  0.81566000  0.11467000  0.22639000  1.0
  H  H20  1  0.18435000  0.88533000  0.77361000  1.0
  C  C21  1  0.14640000  0.80340000  0.17833000  1.0
  C  C22  1  0.85359000  0.19660000  0.82167000  1.0
  C  C23  1  0.14061000  0.90488000  0.27666000  1.0
  C  C24  1  0.85938000  0.09512000  0.72334000  1.0
  C  C25  1  0.92869000  0.85383000  0.33000000  1.0
  C  C26  1  0.07131000  0.14617000  0.67000000  1.0
  C  C27  1  0.72161000  0.69884000  0.28166000  1.0
  C  C28  1  0.27838000  0.30116000  0.71834000  1.0
  C  C29  1  0.73878000  0.60382000  0.18105000  1.0
  C  C30  1  0.26122000  0.39618000  0.81895000  1.0
  C  C31  1  0.45680000  0.69513000  0.42718000  1.0
  C  C32  1  0.54321000  0.30487000  0.57282000  1.0
  C  C33  1  0.21792000  0.58995000  0.46086000  1.0
  C  C34  1  0.78208000  0.41005000  0.53914000  1.0
  C  C35  1  0.11416000  0.66900000  0.54407000  1.0
  C  C36  1  0.88585000  0.33099000  0.45593000  1.0
  C  C37  1  0.10177000  0.41933000  0.41715000  1.0
  C  C38  1  0.89824000  0.58067000  0.58284000  1.0
  C  C39  1  0.89531000  0.26568000  0.11520000  1.0
  C  C40  1  0.10470000  0.73432000  0.88480000  1.0
  C  C41  1  0.71061000  0.12463000  0.14619000  1.0
  C  C42  1  0.28941000  0.87538000  0.85382000  1.0
  N  N43  1  0.94803000  0.65426000  0.13195000  1.0
  N  N44  1  0.05196000  0.34574000  0.86805000  1.0
  N  N45  1  0.50288000  0.62864000  0.32714000  1.0
  N  N46  1  0.49712000  0.37136000  0.67286000  1.0
  O  O47  1  0.60192000  0.83341000  0.48812000  1.0
  O  O48  1  0.39807000  0.16658000  0.51189000  1.0
  O  O49  1  0.76281000  0.31048000  0.03595000  1.0
  O  O50  1  0.23718000  0.68952000  0.96405000  1.0
  O  O51  1  0.15696000  0.33166000  0.16361000  1.0
  O  O52  1  0.84304000  0.66834000  0.83638000  1.0
