# generated using pymatgen
data_ZnH17C22N5O6
_symmetry_space_group_name_H-M   'P 1'
_cell_length_a   8.60099000
_cell_length_b   9.40430000
_cell_length_c   14.76850000
_cell_angle_alpha   83.78070000
_cell_angle_beta   82.27980000
_cell_angle_gamma   66.81460000
_symmetry_Int_Tables_number   1
_chemical_formula_structural   ZnH17C22N5O6
_chemical_formula_sum   'Zn2 H34 C44 N10 O12'
_cell_volume   1086.11979559
_cell_formula_units_Z   2
loop_
 _symmetry_equiv_pos_site_id
 _symmetry_equiv_pos_as_xyz
  1  'x, y, z'
loop_
 _atom_site_type_symbol
 _atom_site_label
 _atom_site_symmetry_multiplicity
 _atom_site_fract_x
 _atom_site_fract_y
 _atom_site_fract_z
 _atom_site_occupancy
  Zn  Zn0  1  0.20066000  0.25158000  0.58548000  1.0
  Zn  Zn1  1  0.79934000  0.74841000  0.41451000  1.0
  H  H2  1  0.20115000  0.55763000  0.11673000  1.0
  H  H3  1  0.79884000  0.44237000  0.88328000  1.0
  H  H4  1  0.68092000  0.18715000  0.16295000  1.0
  H  H5  1  0.31908000  0.81286000  0.83705000  1.0
  H  H6  1  0.60130000  0.20323000  0.33231000  1.0
  H  H7  1  0.39871000  0.79676000  0.66769000  1.0
  H  H8  1  0.31823000  0.05521000  0.76361000  1.0
  H  H9  1  0.68177000  0.94479000  0.23639000  1.0
  H  H10  1  0.49443000  0.38680000  0.62204000  1.0
  H  H11  1  0.50557000  0.61320000  0.37796000  1.0
  H  H12  1  0.67575000  0.25767000  0.77465000  1.0
  H  H13  1  0.32426000  0.74233000  0.22535000  1.0
  H  H14  1  0.48414000  0.97499000  0.89747000  1.0
  H  H15  1  0.51586000  0.02502000  0.10253000  1.0
  H  H16  1  0.58711000  0.09439000  0.92367000  1.0
  H  H17  1  0.41289000  0.90562000  0.07633000  1.0
  H  H18  1  0.79338000  0.83761000  0.99212000  1.0
  H  H19  1  0.20663000  0.16240000  0.00788000  1.0
  H  H20  1  0.07499000  0.62535000  0.95988000  1.0
  H  H21  1  0.92501000  0.37466000  0.04012000  1.0
  H  H22  1  0.19744000  0.56869000  0.79949000  1.0
  H  H23  1  0.80256000  0.43131000  0.20051000  1.0
  H  H24  1  0.74917000  0.92666000  0.70212000  1.0
  H  H25  1  0.25083000  0.07334000  0.29788000  1.0
  H  H26  1  0.15917000  0.60536000  0.63657000  1.0
  H  H27  1  0.84082000  0.39464000  0.36343000  1.0
  H  H28  1  0.95699000  0.72303000  0.60074000  1.0
  H  H29  1  0.04301000  0.27697000  0.39926000  1.0
  H  H30  1  0.27212000  0.71186000  0.48560000  1.0
  H  H31  1  0.72788000  0.28814000  0.51440000  1.0
  H  H32  1  0.35015000  0.97792000  0.45309000  1.0
  H  H33  1  0.64985000  0.02207000  0.54691000  1.0
  H  H34  1  0.01997000  0.02126000  0.69593000  1.0
  H  H35  1  0.98003000  0.97874000  0.30407000  1.0
  C  C36  1  0.35696000  0.38777000  0.31910000  1.0
  C  C37  1  0.64304000  0.61222000  0.68090000  1.0
  C  C38  1  0.24560000  0.49129000  0.25810000  1.0
  C  C39  1  0.75440000  0.50870000  0.74190000  1.0
  C  C40  1  0.28811000  0.47938000  0.16390000  1.0
  C  C41  1  0.71189000  0.52062000  0.83610000  1.0
  C  C42  1  0.44169000  0.36595000  0.13172000  1.0
  C  C43  1  0.55831000  0.63405000  0.86828000  1.0
  C  C44  1  0.55883000  0.26903000  0.19106000  1.0
  C  C45  1  0.44118000  0.73097000  0.80894000  1.0
  C  C46  1  0.51461000  0.28014000  0.28454000  1.0
  C  C47  1  0.48539000  0.71986000  0.71546000  1.0
  C  C48  1  0.31665000  0.38608000  0.42170000  1.0
  C  C49  1  0.68335000  0.61392000  0.57830000  1.0
  C  C50  1  0.08100000  0.61695000  0.29183000  1.0
  C  C51  1  0.91899000  0.38304000  0.70818000  1.0
  C  C52  1  0.39151000  0.12654000  0.74417000  1.0
  C  C53  1  0.60849000  0.87347000  0.25583000  1.0
  C  C54  1  0.48462000  0.29911000  0.67423000  1.0
  C  C55  1  0.51538000  0.70089000  0.32577000  1.0
  C  C56  1  0.57482000  0.23685000  0.74889000  1.0
  C  C57  1  0.42519000  0.76315000  0.25111000  1.0
  C  C58  1  0.57910000  0.02444000  0.87088000  1.0
  C  C59  1  0.42090000  0.97557000  0.12912000  1.0
  C  C60  1  0.75167000  0.89723000  0.84912000  1.0
  C  C61  1  0.24833000  0.10278000  0.15088000  1.0
  C  C62  1  0.84489000  0.81148000  0.92142000  1.0
  C  C63  1  0.15511000  0.18853000  0.07859000  1.0
  C  C64  1  0.00330000  0.69249000  0.90357000  1.0
  C  C65  1  0.99670000  0.30752000  0.09643000  1.0
  C  C66  1  0.07242000  0.66056000  0.81326000  1.0
  C  C67  1  0.92759000  0.33945000  0.18674000  1.0
  C  C68  1  0.98196000  0.74677000  0.74050000  1.0
  C  C69  1  0.01804000  0.25323000  0.25950000  1.0
  C  C70  1  0.82042000  0.86266000  0.75930000  1.0
  C  C71  1  0.17957000  0.13735000  0.24070000  1.0
  C  C72  1  0.05511000  0.71931000  0.64260000  1.0
  C  C73  1  0.94488000  0.28069000  0.35740000  1.0
  C  C74  1  0.23176000  0.81680000  0.52200000  1.0
  C  C75  1  0.76824000  0.18320000  0.47800000  1.0
  C  C76  1  0.26923000  0.94701000  0.50749000  1.0
  C  C77  1  0.73077000  0.05299000  0.49251000  1.0
  C  C78  1  0.09868000  0.97379000  0.63418000  1.0
  C  C79  1  0.90132000  0.02620000  0.36581000  1.0
  N  N80  1  0.48055000  0.34301000  0.03422000  1.0
  N  N81  1  0.51945000  0.65700000  0.96578000  1.0
  N  N82  1  0.37116000  0.22839000  0.67223000  1.0
  N  N83  1  0.62884000  0.77161000  0.32777000  1.0
  N  N84  1  0.51382000  0.12833000  0.79221000  1.0
  N  N85  1  0.48618000  0.87168000  0.20778000  1.0
  N  N86  1  0.12456000  0.83556000  0.60229000  1.0
  N  N87  1  0.87544000  0.16444000  0.39771000  1.0
  N  N88  1  0.18548000  0.04407000  0.57775000  1.0
  N  N89  1  0.81452000  0.95592000  0.42225000  1.0
  O  O90  1  0.27183000  0.27306000  0.45418000  1.0
  O  O91  1  0.72818000  0.72693000  0.54583000  1.0
  O  O92  1  0.33907000  0.47963000  0.46657000  1.0
  O  O93  1  0.66094000  0.52037000  0.53343000  1.0
  O  O94  1  0.01465000  0.58422000  0.37128000  1.0
  O  O95  1  0.98535000  0.41576000  0.62872000  1.0
  O  O96  1  0.02222000  0.74034000  0.24361000  1.0
  O  O97  1  0.97775000  0.25965000  0.75639000  1.0
  O  O98  1  0.37206000  0.42115000  0.98148000  1.0
  O  O99  1  0.62794000  0.57885000  0.01852000  1.0
  O  O100  1  0.62126000  0.24231000  0.00786000  1.0
  O  O101  1  0.37874000  0.75770000  0.99213000  1.0
