# generated using pymatgen
data_Nd2U3H30(C5O7)6
_symmetry_space_group_name_H-M   'P 1'
_cell_length_a   10.87820000
_cell_length_b   11.50030000
_cell_length_c   13.16930000
_cell_angle_alpha   69.15340000
_cell_angle_beta   80.25930000
_cell_angle_gamma   62.79240000
_symmetry_Int_Tables_number   1
_chemical_formula_structural   Nd2U3H30(C5O7)6
_chemical_formula_sum   'Nd2 U3 H30 C30 O42'
_cell_volume   1369.26496205
_cell_formula_units_Z   1
loop_
 _symmetry_equiv_pos_site_id
 _symmetry_equiv_pos_as_xyz
  1  'x, y, z'
loop_
 _atom_site_type_symbol
 _atom_site_label
 _atom_site_symmetry_multiplicity
 _atom_site_fract_x
 _atom_site_fract_y
 _atom_site_fract_z
 _atom_site_occupancy
  Nd  Nd0  1  0.61261000  0.21191000  0.76138000  1.0
  Nd  Nd1  1  0.38739000  0.78809000  0.23863000  1.0
  U  U2  1  0.62681000  0.70012000  0.83629000  1.0
  U  U3  1  0.37319000  0.29987000  0.16371000  1.0
  U  U4  1  0.99999000  0.50000000  0.49999000  1.0
  H  H5  1  0.70890000  0.00736000  0.63961000  1.0
  H  H6  1  0.29109000  0.99268000  0.36039000  1.0
  H  H7  1  0.67819000  0.15414000  0.54760000  1.0
  H  H8  1  0.32179000  0.84590000  0.45240000  1.0
  H  H9  1  0.72769000  0.38625000  0.58189000  1.0
  H  H10  1  0.27230000  0.61376000  0.41812000  1.0
  H  H11  1  0.61431000  0.38371000  0.52045000  1.0
  H  H12  1  0.38567000  0.61632000  0.47956000  1.0
  H  H13  1  0.31555000  0.43883000  0.67946000  1.0
  H  H14  1  0.68449000  0.56117000  0.32055000  1.0
  H  H15  1  0.34954000  0.36033000  0.59481000  1.0
  H  H16  1  0.65046000  0.63967000  0.40521000  1.0
  H  H17  1  0.48304000  0.42073000  0.88989000  1.0
  H  H18  1  0.51694000  0.57928000  0.11012000  1.0
  H  H19  1  0.49715000  0.51678000  0.77109000  1.0
  H  H20  1  0.50283000  0.48323000  0.22891000  1.0
  H  H21  1  0.68051000  0.14353000  0.03496000  1.0
  H  H22  1  0.31948000  0.85647000  0.96503000  1.0
  H  H23  1  0.78446000  0.19683000  0.95490000  1.0
  H  H24  1  0.21554000  0.80316000  0.04510000  1.0
  H  H25  1  0.81153000  0.99182000  0.91098000  1.0
  H  H26  1  0.18849000  0.00815000  0.08902000  1.0
  H  H27  1  0.76555000  0.89803000  0.87752000  1.0
  H  H28  1  0.23446000  0.10196000  0.12248000  1.0
  H  H29  1  0.09626000  0.37173000  0.96048000  1.0
  H  H30  1  0.90375000  0.62825000  0.03952000  1.0
  H  H31  1  0.16838000  0.08987000  0.72666000  1.0
  H  H32  1  0.83163000  0.91012000  0.27333000  1.0
  H  H33  1  0.72048000  0.99623000  0.41182000  1.0
  H  H34  1  0.27951000  0.00378000  0.58820000  1.0
  C  C35  1  0.00324000  0.33837000  0.84875000  1.0
  C  C36  1  0.99677000  0.66163000  0.15123000  1.0
  C  C37  1  0.11362000  0.31105000  0.90761000  1.0
  C  C38  1  0.88639000  0.68894000  0.09239000  1.0
  C  C39  1  0.24618000  0.21182000  0.89596000  1.0
  C  C40  1  0.75383000  0.78816000  0.10404000  1.0
  C  C41  1  0.26700000  0.13336000  0.82786000  1.0
  C  C42  1  0.73301000  0.86662000  0.17213000  1.0
  C  C43  1  0.15330000  0.15375000  0.77605000  1.0
  C  C44  1  0.84671000  0.84624000  0.22394000  1.0
  C  C45  1  0.02246000  0.25833000  0.78280000  1.0
  C  C46  1  0.97755000  0.74167000  0.21718000  1.0
  C  C47  1  0.62232000  0.99934000  0.44967000  1.0
  C  C48  1  0.37767000  0.00067000  0.55034000  1.0
  C  C49  1  0.61325000  0.87405000  0.50093000  1.0
  C  C50  1  0.38674000  0.12596000  0.49908000  1.0
  C  C51  1  0.48887000  0.87441000  0.55269000  1.0
  C  C52  1  0.51112000  0.12560000  0.44732000  1.0
  C  C53  1  0.86963000  0.45676000  0.85304000  1.0
  C  C54  1  0.13038000  0.54322000  0.14695000  1.0
  C  C55  1  0.35716000  0.19400000  0.96063000  1.0
  C  C56  1  0.64285000  0.80599000  0.03937000  1.0
  C  C57  1  0.40628000  0.02566000  0.80887000  1.0
  C  C58  1  0.59373000  0.97433000  0.19113000  1.0
  C  C59  1  0.90597000  0.28226000  0.71862000  1.0
  C  C60  1  0.09404000  0.71773000  0.28137000  1.0
  C  C61  1  0.46439000  0.74758000  0.61245000  1.0
  C  C62  1  0.53560000  0.25243000  0.38756000  1.0
  C  C63  1  0.73834000  0.74501000  0.49885000  1.0
  C  C64  1  0.26166000  0.25500000  0.50116000  1.0
  O  O65  1  0.55051000  0.61372000  0.95460000  1.0
  O  O66  1  0.44949000  0.38628000  0.04540000  1.0
  O  O67  1  0.70343000  0.79102000  0.72311000  1.0
  O  O68  1  0.29657000  0.20896000  0.27688000  1.0
  O  O69  1  0.05605000  0.50073000  0.62117000  1.0
  O  O70  1  0.94391000  0.49927000  0.37880000  1.0
  O  O71  1  0.85670000  0.53452000  0.90745000  1.0
  O  O72  1  0.14332000  0.46548000  0.09254000  1.0
  O  O73  1  0.76627000  0.48433000  0.79952000  1.0
  O  O74  1  0.23373000  0.51566000  0.20048000  1.0
  O  O75  1  0.83216000  0.22028000  0.76610000  1.0
  O  O76  1  0.16787000  0.77970000  0.23389000  1.0
  O  O77  1  0.89206000  0.35784000  0.61882000  1.0
  O  O78  1  0.10793000  0.64217000  0.38117000  1.0
  O  O79  1  0.41395000  0.90283000  0.83390000  1.0
  O  O80  1  0.58605000  0.09716000  0.16610000  1.0
  O  O81  1  0.50445000  0.05621000  0.76896000  1.0
  O  O82  1  0.49556000  0.94379000  0.23104000  1.0
  O  O83  1  0.47766000  0.16994000  0.92566000  1.0
  O  O84  1  0.52234000  0.83006000  0.07434000  1.0
  O  O85  1  0.31851000  0.20667000  0.05632000  1.0
  O  O86  1  0.68149000  0.79332000  0.94368000  1.0
  O  O87  1  0.50622000  0.68141000  0.71169000  1.0
  O  O88  1  0.49376000  0.31859000  0.28831000  1.0
  O  O89  1  0.39351000  0.71985000  0.56713000  1.0
  O  O90  1  0.60647000  0.28017000  0.43286000  1.0
  O  O91  1  0.72813000  0.63251000  0.51716000  1.0
  O  O92  1  0.27186000  0.36749000  0.48285000  1.0
  O  O93  1  0.85564000  0.74803000  0.47706000  1.0
  O  O94  1  0.14435000  0.25198000  0.52293000  1.0
  O  O95  1  0.71251000  0.09557000  0.62325000  1.0
  O  O96  1  0.28749000  0.90446000  0.37675000  1.0
  O  O97  1  0.63545000  0.38614000  0.58895000  1.0
  O  O98  1  0.36453000  0.61388000  0.41107000  1.0
  O  O99  1  0.38455000  0.35848000  0.66054000  1.0
  O  O100  1  0.61546000  0.64150000  0.33949000  1.0
  O  O101  1  0.49481000  0.42689000  0.81260000  1.0
  O  O102  1  0.50518000  0.57312000  0.18741000  1.0
  O  O103  1  0.73164000  0.14438000  0.96541000  1.0
  O  O104  1  0.26836000  0.85563000  0.03458000  1.0
  O  O105  1  0.79284000  0.97508000  0.84823000  1.0
  O  O106  1  0.20716000  0.02491000  0.15177000  1.0
