# generated using pymatgen
data_Cu5H10C10S2N2Cl5
_symmetry_space_group_name_H-M   'P 1'
_cell_length_a   11.97300000
_cell_length_b   13.58831836
_cell_length_c   13.65740000
_cell_angle_alpha   79.27415258
_cell_angle_beta   65.01140000
_cell_angle_gamma   63.86014225
_symmetry_Int_Tables_number   1
_chemical_formula_structural   Cu5H10C10S2N2Cl5
_chemical_formula_sum   'Cu20 H40 C40 S8 N8 Cl20'
_cell_volume   1807.98264428
_cell_formula_units_Z   4
loop_
 _symmetry_equiv_pos_site_id
 _symmetry_equiv_pos_as_xyz
  1  'x, y, z'
loop_
 _atom_site_type_symbol
 _atom_site_label
 _atom_site_symmetry_multiplicity
 _atom_site_fract_x
 _atom_site_fract_y
 _atom_site_fract_z
 _atom_site_occupancy
  Cu  Cu0  1  0.08635000  0.25137000  0.74352000  1.0
  Cu  Cu1  1  0.33586000  0.74911000  0.25063000  1.0
  Cu  Cu2  1  0.91365000  0.74863000  0.25648000  1.0
  Cu  Cu3  1  0.66414000  0.25089000  0.74937000  1.0
  Cu  Cu4  1  0.72827000  0.34188000  0.94146000  1.0
  Cu  Cu5  1  0.16883000  0.55834000  0.34237000  1.0
  Cu  Cu6  1  0.07013000  0.94259000  0.15850000  1.0
  Cu  Cu7  1  0.01388000  0.15999000  0.55560000  1.0
  Cu  Cu8  1  0.27173000  0.65812000  0.05854000  1.0
  Cu  Cu9  1  0.83116000  0.44166000  0.65764000  1.0
  Cu  Cu10  1  0.92986000  0.05741000  0.84150000  1.0
  Cu  Cu11  1  0.98612000  0.84001000  0.44440000  1.0
  Cu  Cu12  1  0.95650000  0.19404000  0.98955000  1.0
  Cu  Cu13  1  0.44509000  0.51280000  0.19290000  1.0
  Cu  Cu14  1  0.15043000  0.99204000  0.30904000  1.0
  Cu  Cu15  1  0.13706000  0.30560000  0.51466000  1.0
  Cu  Cu16  1  0.04350000  0.80595000  0.01046000  1.0
  Cu  Cu17  1  0.55491000  0.48720000  0.80710000  1.0
  Cu  Cu18  1  0.84956000  0.00796000  0.69096000  1.0
  Cu  Cu19  1  0.86294000  0.69440000  0.48534000  1.0
  H  H20  1  0.02073000  0.52972000  0.68146000  1.0
  H  H21  1  0.20205000  0.82227000  0.53157000  1.0
  H  H22  1  0.55222000  0.67856000  0.96933000  1.0
  H  H23  1  0.23218000  0.96494000  0.82142000  1.0
  H  H24  1  0.97927000  0.47028000  0.31854000  1.0
  H  H25  1  0.79796000  0.17773000  0.46843000  1.0
  H  H26  1  0.44777000  0.32145000  0.03067000  1.0
  H  H27  1  0.76783000  0.03506000  0.17858000  1.0
  H  H28  1  0.78637000  0.48134000  0.01604000  1.0
  H  H29  1  0.30426000  0.48242000  0.47934000  1.0
  H  H30  1  0.26566000  0.01900000  0.01998000  1.0
  H  H31  1  0.28047000  0.02185000  0.48523000  1.0
  H  H32  1  0.21364000  0.51865000  0.98396000  1.0
  H  H33  1  0.69574000  0.51758000  0.52066000  1.0
  H  H34  1  0.73433000  0.98100000  0.98002000  1.0
  H  H35  1  0.71953000  0.97815000  0.51477000  1.0
  H  H36  1  0.93787000  0.72273000  0.93068000  1.0
  H  H37  1  0.36591000  0.56914000  0.72409000  1.0
  H  H38  1  0.65386000  0.93132000  0.78073000  1.0
  H  H39  1  0.58871000  0.77889000  0.57197000  1.0
  H  H40  1  0.06213000  0.27727000  0.06932000  1.0
  H  H41  1  0.63409000  0.43086000  0.27591000  1.0
  H  H42  1  0.34613000  0.06869000  0.21927000  1.0
  H  H43  1  0.41129000  0.22111000  0.42803000  1.0
  H  H44  1  0.81679000  0.63522000  0.06548000  1.0
  H  H45  1  0.38222000  0.43216000  0.63402000  1.0
  H  H46  1  0.44518000  0.06848000  0.86838000  1.0
  H  H47  1  0.51336000  0.86995000  0.43606000  1.0
  H  H48  1  0.18322000  0.36478000  0.93452000  1.0
  H  H49  1  0.61778000  0.56784000  0.36598000  1.0
  H  H50  1  0.55482000  0.93152000  0.13162000  1.0
  H  H51  1  0.48664000  0.13005000  0.56394000  1.0
  H  H52  1  0.03819000  0.68318000  0.74533000  1.0
  H  H53  1  0.28088000  0.75747000  0.68611000  1.0
  H  H54  1  0.71850000  0.74264000  0.81840000  1.0
  H  H55  1  0.46642000  0.81365000  0.75769000  1.0
  H  H56  1  0.96181000  0.31682000  0.25467000  1.0
  H  H57  1  0.71912000  0.24254000  0.31389000  1.0
  H  H58  1  0.28150000  0.25736000  0.18160000  1.0
  H  H59  1  0.53359000  0.18635000  0.24230000  1.0
  C  C60  1  0.97693000  0.54918000  0.76701000  1.0
  C  C61  1  0.24388000  0.73540000  0.55045000  1.0
  C  C62  1  0.52597000  0.76542000  0.95090000  1.0
  C  C63  1  0.29231000  0.94773000  0.73569000  1.0
  C  C64  1  0.02307000  0.45082000  0.23299000  1.0
  C  C65  1  0.75612000  0.26460000  0.44955000  1.0
  C  C66  1  0.47403000  0.23458000  0.04910000  1.0
  C  C67  1  0.70770000  0.05227000  0.26431000  1.0
  C  C68  1  0.84521000  0.52230000  0.95423000  1.0
  C  C69  1  0.30057000  0.54519000  0.52139000  1.0
  C  C70  1  0.36548000  0.95587000  0.97912000  1.0
  C  C71  1  0.31917000  0.97962000  0.54760000  1.0
  C  C72  1  0.15480000  0.47769000  0.04577000  1.0
  C  C73  1  0.69943000  0.45482000  0.47861000  1.0
  C  C74  1  0.63452000  0.04413000  0.02088000  1.0
  C  C75  1  0.68083000  0.02038000  0.45240000  1.0
  C  C76  1  0.90325000  0.49229000  0.84443000  1.0
  C  C77  1  0.24870000  0.65667000  0.49233000  1.0
  C  C78  1  0.39550000  0.84441000  0.00803000  1.0
  C  C79  1  0.23826000  0.00663000  0.65771000  1.0
  C  C80  1  0.09676000  0.50771000  0.15557000  1.0
  C  C81  1  0.75131000  0.34333000  0.50766000  1.0
  C  C82  1  0.60450000  0.15559000  0.99197000  1.0
  C  C83  1  0.76174000  0.99337000  0.34229000  1.0
  C  C84  1  0.86051000  0.60590000  0.98310000  1.0
  C  C85  1  0.34374000  0.51586000  0.60538000  1.0
  C  C86  1  0.46191000  0.98479000  0.89664000  1.0
  C  C87  1  0.44666000  0.89709000  0.51880000  1.0
  C  C88  1  0.13949000  0.39410000  0.01690000  1.0
  C  C89  1  0.65626000  0.48414000  0.39462000  1.0
  C  C90  1  0.53809000  0.01521000  0.10336000  1.0
  C  C91  1  0.55335000  0.10291000  0.48120000  1.0
  C  C92  1  0.98870000  0.63239000  0.80021000  1.0
  C  C93  1  0.28740000  0.70172000  0.63429000  1.0
  C  C94  1  0.61861000  0.79875000  0.86896000  1.0
  C  C95  1  0.42030000  0.86577000  0.70257000  1.0
  C  C96  1  0.01130000  0.36761000  0.19979000  1.0
  C  C97  1  0.71260000  0.29828000  0.36571000  1.0
  C  C98  1  0.38139000  0.20125000  0.13104000  1.0
  C  C99  1  0.57971000  0.13423000  0.29743000  1.0
  S  S100  1  0.88040000  0.39045000  0.80521000  1.0
  S  S101  1  0.18653000  0.69662000  0.39055000  1.0
  S  S102  1  0.27326000  0.80537000  0.10828000  1.0
  S  S103  1  0.07471000  0.10696000  0.69617000  1.0
  S  S104  1  0.11961000  0.60954000  0.19479000  1.0
  S  S105  1  0.81347000  0.30338000  0.60945000  1.0
  S  S106  1  0.72674000  0.19463000  0.89172000  1.0
  S  S107  1  0.92529000  0.89304000  0.30383000  1.0
  N  N108  1  0.93108000  0.65886000  0.90652000  1.0
  N  N109  1  0.33635000  0.59376000  0.65970000  1.0
  N  N110  1  0.58545000  0.90672000  0.84365000  1.0
  N  N111  1  0.49456000  0.84230000  0.59592000  1.0
  N  N112  1  0.06892000  0.34114000  0.09348000  1.0
  N  N113  1  0.66364000  0.40625000  0.34030000  1.0
  N  N114  1  0.41455000  0.09328000  0.15635000  1.0
  N  N115  1  0.50544000  0.15771000  0.40408000  1.0
  Cl  Cl116  1  0.50000000  0.50000000  0.00000000  1.0
  Cl  Cl117  1  0.00000000  0.50000000  0.50000000  1.0
  Cl  Cl118  1  0.00000000  0.00000000  0.00000000  1.0
  Cl  Cl119  1  0.00000000  0.00000000  0.50000000  1.0
  Cl  Cl120  1  0.15858000  0.19395000  0.89112000  1.0
  Cl  Cl121  1  0.55543000  0.60857000  0.19227000  1.0
  Cl  Cl122  1  0.35622000  0.89329000  0.30691000  1.0
  Cl  Cl123  1  0.25042000  0.30438000  0.60866000  1.0
  Cl  Cl124  1  0.84141000  0.80605000  0.10888000  1.0
  Cl  Cl125  1  0.44457000  0.39143000  0.80773000  1.0
  Cl  Cl126  1  0.64378000  0.10671000  0.69309000  1.0
  Cl  Cl127  1  0.74958000  0.69562000  0.39134000  1.0
  Cl  Cl128  1  0.75552000  0.29414000  0.10682000  1.0
  Cl  Cl129  1  0.36263000  0.39372000  0.29260000  1.0
  Cl  Cl130  1  0.04669000  0.10906000  0.20775000  1.0
  Cl  Cl131  1  0.15425000  0.20754000  0.39220000  1.0
  Cl  Cl132  1  0.24448000  0.70586000  0.89318000  1.0
  Cl  Cl133  1  0.63736000  0.60628000  0.70740000  1.0
  Cl  Cl134  1  0.95330000  0.89094000  0.79225000  1.0
  Cl  Cl135  1  0.84574000  0.79246000  0.60780000  1.0
