# generated using pymatgen
data_CdH12C6(NCl)3
_symmetry_space_group_name_H-M   'P 1'
_cell_length_a   7.77244000
_cell_length_b   8.60485000
_cell_length_c   16.65190000
_cell_angle_alpha   89.99980000
_cell_angle_beta   97.86430000
_cell_angle_gamma   89.99990000
_symmetry_Int_Tables_number   1
_chemical_formula_structural   CdH12C6(NCl)3
_chemical_formula_sum   'Cd4 H48 C24 N12 Cl12'
_cell_volume   1103.21604268
_cell_formula_units_Z   4
loop_
 _symmetry_equiv_pos_site_id
 _symmetry_equiv_pos_as_xyz
  1  'x, y, z'
loop_
 _atom_site_type_symbol
 _atom_site_label
 _atom_site_symmetry_multiplicity
 _atom_site_fract_x
 _atom_site_fract_y
 _atom_site_fract_z
 _atom_site_occupancy
  Cd  Cd0  1  0.78798000  0.50637000  0.69162000  1.0
  Cd  Cd1  1  0.21202000  0.50637000  0.80838000  1.0
  Cd  Cd2  1  0.21202000  0.49363000  0.30838000  1.0
  Cd  Cd3  1  0.78798000  0.49363000  0.19163000  1.0
  H  H4  1  0.17194000  0.44965000  0.59265000  1.0
  H  H5  1  0.82806000  0.44965000  0.90736000  1.0
  H  H6  1  0.82806000  0.55035000  0.40736000  1.0
  H  H7  1  0.17194000  0.55035000  0.09264000  1.0
  H  H8  1  0.30425000  0.42929000  0.52277000  1.0
  H  H9  1  0.69575000  0.42928000  0.97723000  1.0
  H  H10  1  0.69576000  0.57072000  0.47723000  1.0
  H  H11  1  0.30424000  0.57072000  0.02277000  1.0
  H  H12  1  0.35399000  0.34928000  0.61508000  1.0
  H  H13  1  0.64601000  0.34927000  0.88492000  1.0
  H  H14  1  0.64601000  0.65072000  0.38492000  1.0
  H  H15  1  0.35399000  0.65073000  0.11508000  1.0
  H  H16  1  0.90380000  0.88745000  0.68291000  1.0
  H  H17  1  0.09620000  0.88744000  0.81709000  1.0
  H  H18  1  0.09620000  0.11255000  0.31708000  1.0
  H  H19  1  0.90380000  0.11255000  0.18291000  1.0
  H  H20  1  0.66774000  0.13182000  0.65755000  1.0
  H  H21  1  0.33226000  0.13182000  0.84245000  1.0
  H  H22  1  0.33226000  0.86817000  0.34245000  1.0
  H  H23  1  0.66774000  0.86817000  0.15755000  1.0
  H  H24  1  0.39448000  0.70510000  0.64455000  1.0
  H  H25  1  0.60553000  0.70510000  0.85545000  1.0
  H  H26  1  0.60552000  0.29490000  0.35545000  1.0
  H  H27  1  0.39447000  0.29490000  0.14455000  1.0
  H  H28  1  0.33145000  0.12346000  0.67594000  1.0
  H  H29  1  0.66855000  0.12346000  0.82406000  1.0
  H  H30  1  0.66855000  0.87654000  0.32406000  1.0
  H  H31  1  0.33145000  0.87654000  0.17594000  1.0
  H  H32  1  0.21842000  0.94993000  0.64698000  1.0
  H  H33  1  0.78158000  0.94993000  0.85302000  1.0
  H  H34  1  0.78158000  0.05007000  0.35302000  1.0
  H  H35  1  0.21842000  0.05007000  0.14698000  1.0
  H  H36  1  0.40382000  0.12116000  0.52248000  1.0
  H  H37  1  0.59618000  0.12116000  0.97753000  1.0
  H  H38  1  0.59619000  0.87884000  0.47753000  1.0
  H  H39  1  0.40381000  0.87884000  0.02247000  1.0
  H  H40  1  0.22620000  0.99242000  0.50484000  1.0
  H  H41  1  0.77380000  0.99241000  0.99516000  1.0
  H  H42  1  0.77380000  0.00759000  0.49515000  1.0
  H  H43  1  0.22620000  0.00759000  0.00485000  1.0
  H  H44  1  0.10009000  0.24663000  0.47629000  1.0
  H  H45  1  0.89991000  0.24662000  0.02371000  1.0
  H  H46  1  0.89991000  0.75337000  0.52371000  1.0
  H  H47  1  0.10009000  0.75338000  0.97629000  1.0
  H  H48  1  0.05341000  0.20750000  0.57575000  1.0
  H  H49  1  0.94659000  0.20749000  0.92425000  1.0
  H  H50  1  0.94659000  0.79251000  0.42425000  1.0
  H  H51  1  0.05340000  0.79251000  0.07575000  1.0
  C  C52  1  0.76338000  0.88566000  0.67100000  1.0
  C  C53  1  0.23662000  0.88566000  0.82900000  1.0
  C  C54  1  0.23661000  0.11433000  0.32900000  1.0
  C  C55  1  0.76338000  0.11433000  0.17100000  1.0
  C  C56  1  0.64854000  0.00717000  0.65938000  1.0
  C  C57  1  0.35145000  0.00716000  0.84062000  1.0
  C  C58  1  0.35145000  0.99283000  0.34062000  1.0
  C  C59  1  0.64854000  0.99283000  0.15938000  1.0
  C  C60  1  0.50383000  0.78445000  0.65068000  1.0
  C  C61  1  0.49618000  0.78446000  0.84932000  1.0
  C  C62  1  0.49617000  0.21555000  0.34932000  1.0
  C  C63  1  0.50383000  0.21554000  0.15068000  1.0
  C  C64  1  0.32195000  0.02712000  0.63217000  1.0
  C  C65  1  0.67805000  0.02712000  0.86784000  1.0
  C  C66  1  0.67804000  0.97288000  0.36784000  1.0
  C  C67  1  0.32195000  0.97288000  0.13217000  1.0
  C  C68  1  0.28251000  0.08634000  0.54473000  1.0
  C  C69  1  0.71749000  0.08634000  0.95527000  1.0
  C  C70  1  0.71749000  0.91366000  0.45527000  1.0
  C  C71  1  0.28251000  0.91366000  0.04473000  1.0
  C  C72  1  0.15889000  0.22437000  0.53891000  1.0
  C  C73  1  0.84111000  0.22436000  0.96110000  1.0
  C  C74  1  0.84111000  0.77563000  0.46109000  1.0
  C  C75  1  0.15889000  0.77564000  0.03891000  1.0
  N  N76  1  0.67154000  0.74739000  0.66526000  1.0
  N  N77  1  0.32846000  0.74739000  0.83474000  1.0
  N  N78  1  0.32845000  0.25261000  0.33474000  1.0
  N  N79  1  0.67155000  0.25261000  0.16526000  1.0
  N  N80  1  0.48480000  0.94112000  0.64701000  1.0
  N  N81  1  0.51520000  0.94112000  0.85299000  1.0
  N  N82  1  0.51519000  0.05888000  0.35299000  1.0
  N  N83  1  0.48480000  0.05888000  0.14701000  1.0
  N  N84  1  0.25313000  0.36945000  0.56878000  1.0
  N  N85  1  0.74687000  0.36944000  0.93122000  1.0
  N  N86  1  0.74687000  0.63055000  0.43122000  1.0
  N  N87  1  0.25312000  0.63056000  0.06878000  1.0
  Cl  Cl88  1  0.68766000  0.37055000  0.55672000  1.0
  Cl  Cl89  1  0.31234000  0.37055000  0.94328000  1.0
  Cl  Cl90  1  0.31234000  0.62945000  0.44328000  1.0
  Cl  Cl91  1  0.68766000  0.62945000  0.05672000  1.0
  Cl  Cl92  1  0.91222000  0.63491000  0.84465000  1.0
  Cl  Cl93  1  0.08779000  0.63491000  0.65536000  1.0
  Cl  Cl94  1  0.08779000  0.36509000  0.15535000  1.0
  Cl  Cl95  1  0.91222000  0.36509000  0.34465000  1.0
  Cl  Cl96  1  0.50000000  0.39066000  0.75000000  1.0
  Cl  Cl97  1  0.50000000  0.60934000  0.25000000  1.0
  Cl  Cl98  1  0.00000000  0.27950000  0.75000000  1.0
  Cl  Cl99  1  0.00000000  0.72050000  0.25000000  1.0
