# generated using pymatgen
data_GdH43C49N2Cl3O10
_symmetry_space_group_name_H-M   'P 1'
_cell_length_a   12.42590000
_cell_length_b   18.29724826
_cell_length_c   24.90030000
_cell_angle_alpha   89.99994713
_cell_angle_beta   90.00110000
_cell_angle_gamma   70.13863116
_symmetry_Int_Tables_number   1
_chemical_formula_structural   GdH43C49N2Cl3O10
_chemical_formula_sum   'Gd4 H172 C196 N8 Cl12 O40'
_cell_volume   5324.57629256
_cell_formula_units_Z   4
loop_
 _symmetry_equiv_pos_site_id
 _symmetry_equiv_pos_as_xyz
  1  'x, y, z'
loop_
 _atom_site_type_symbol
 _atom_site_label
 _atom_site_symmetry_multiplicity
 _atom_site_fract_x
 _atom_site_fract_y
 _atom_site_fract_z
 _atom_site_occupancy
  Gd  Gd0  1  0.45393000  0.77153000  0.78609000  1.0
  Gd  Gd1  1  0.54609000  0.22846000  0.28609000  1.0
  Gd  Gd2  1  0.77448000  0.77143000  0.71387000  1.0
  Gd  Gd3  1  0.22553000  0.22858000  0.21387000  1.0
  H  H4  1  0.17652000  0.89265000  0.76131000  1.0
  H  H5  1  0.01566000  0.00532000  0.79945000  1.0
  H  H6  1  0.05157000  0.06950000  0.88326000  1.0
  H  H7  1  0.24874000  0.02013000  0.92433000  1.0
  H  H8  1  0.39805000  0.90844000  0.88064000  1.0
  H  H9  1  0.52841000  0.54637000  0.89866000  1.0
  H  H10  1  0.26781000  0.80276000  0.93223000  1.0
  H  H11  1  0.12823000  0.78959000  0.08881000  1.0
  H  H12  1  0.25014000  0.65170000  0.09653000  1.0
  H  H13  1  0.55948000  0.42533000  0.90430000  1.0
  H  H14  1  0.68067000  0.43489000  0.93832000  1.0
  H  H15  1  0.70148000  0.29458000  0.92388000  1.0
  H  H16  1  0.69576000  0.31633000  0.99366000  1.0
  H  H17  1  0.57309000  0.30834000  0.96036000  1.0
  H  H18  1  0.30923000  0.35876000  0.09048000  1.0
  H  H19  1  0.47713000  0.43430000  0.24523000  1.0
  H  H20  1  0.55834000  0.63379000  0.19271000  1.0
  H  H21  1  0.48048000  0.62438000  0.10248000  1.0
  H  H22  1  0.38874000  0.33723000  0.00344000  1.0
  H  H23  1  0.23662000  0.36666000  0.99717000  1.0
  H  H24  1  0.32846000  0.33168000  0.90680000  1.0
  H  H25  1  0.24983000  0.43289000  0.90923000  1.0
  H  H26  1  0.40133000  0.39952000  0.91547000  1.0
  H  H27  1  0.56967000  0.83178000  0.90736000  1.0
  H  H28  1  0.73034000  0.98306000  0.79515000  1.0
  H  H29  1  0.77246000  0.15683000  0.90211000  1.0
  H  H30  1  0.69670000  0.10114000  0.97778000  1.0
  H  H31  1  0.43639000  0.83680000  0.97307000  1.0
  H  H32  1  0.57750000  0.77524000  0.98810000  1.0
  H  H33  1  0.44127000  0.75554000  0.05515000  1.0
  H  H34  1  0.53452000  0.79771000  0.08758000  1.0
  H  H35  1  0.39154000  0.85579000  0.07175000  1.0
  H  H36  1  0.32106000  0.64396000  0.74113000  1.0
  H  H37  1  0.07889000  0.76838000  0.63270000  1.0
  H  H38  1  0.10722000  0.81834000  0.68869000  1.0
  H  H39  1  0.16619000  0.86825000  0.60496000  1.0
  H  H40  1  0.28799000  0.82186000  0.64563000  1.0
  H  H41  1  0.25980000  0.77372000  0.58775000  1.0
  H  H42  1  0.25829000  0.58342000  0.68446000  1.0
  H  H43  1  0.11794000  0.63287000  0.66041000  1.0
  H  H44  1  0.24069000  0.56357000  0.58512000  1.0
  H  H45  1  0.20228000  0.66433000  0.57407000  1.0
  H  H46  1  0.34223000  0.61058000  0.59814000  1.0
  H  H47  1  0.82351000  0.10732000  0.26131000  1.0
  H  H48  1  0.98435000  0.99465000  0.29947000  1.0
  H  H49  1  0.94843000  0.93049000  0.38329000  1.0
  H  H50  1  0.75125000  0.97987000  0.42435000  1.0
  H  H51  1  0.60195000  0.09155000  0.38064000  1.0
  H  H52  1  0.47159000  0.45363000  0.39865000  1.0
  H  H53  1  0.73220000  0.19724000  0.43224000  1.0
  H  H54  1  0.87177000  0.21041000  0.58883000  1.0
  H  H55  1  0.74986000  0.34830000  0.59654000  1.0
  H  H56  1  0.44052000  0.57466000  0.40430000  1.0
  H  H57  1  0.31933000  0.56511000  0.43832000  1.0
  H  H58  1  0.29850000  0.70542000  0.42388000  1.0
  H  H59  1  0.30423000  0.68368000  0.49366000  1.0
  H  H60  1  0.42689000  0.69167000  0.46036000  1.0
  H  H61  1  0.69079000  0.64123000  0.59047000  1.0
  H  H62  1  0.52288000  0.56570000  0.74523000  1.0
  H  H63  1  0.44166000  0.36621000  0.69271000  1.0
  H  H64  1  0.51952000  0.37562000  0.60248000  1.0
  H  H65  1  0.61125000  0.66277000  0.50345000  1.0
  H  H66  1  0.76337000  0.63334000  0.49718000  1.0
  H  H67  1  0.67152000  0.66832000  0.40681000  1.0
  H  H68  1  0.75016000  0.56711000  0.40924000  1.0
  H  H69  1  0.59866000  0.60048000  0.41548000  1.0
  H  H70  1  0.43034000  0.16822000  0.40737000  1.0
  H  H71  1  0.26969000  0.01693000  0.29514000  1.0
  H  H72  1  0.22755000  0.84317000  0.40210000  1.0
  H  H73  1  0.30331000  0.89886000  0.47778000  1.0
  H  H74  1  0.56359000  0.16321000  0.47307000  1.0
  H  H75  1  0.42250000  0.22476000  0.48809000  1.0
  H  H76  1  0.55873000  0.24446000  0.55516000  1.0
  H  H77  1  0.46547000  0.20229000  0.58758000  1.0
  H  H78  1  0.60846000  0.14421000  0.57175000  1.0
  H  H79  1  0.67896000  0.35602000  0.24114000  1.0
  H  H80  1  0.92111000  0.23162000  0.13271000  1.0
  H  H81  1  0.89279000  0.18165000  0.18869000  1.0
  H  H82  1  0.83378000  0.13177000  0.10495000  1.0
  H  H83  1  0.71199000  0.17815000  0.14563000  1.0
  H  H84  1  0.74019000  0.22630000  0.08775000  1.0
  H  H85  1  0.74171000  0.41657000  0.18447000  1.0
  H  H86  1  0.88205000  0.36714000  0.16042000  1.0
  H  H87  1  0.75929000  0.43644000  0.08514000  1.0
  H  H88  1  0.79771000  0.33568000  0.07408000  1.0
  H  H89  1  0.65776000  0.38942000  0.09815000  1.0
  H  H90  1  0.93007000  0.89271000  0.73874000  1.0
  H  H91  1  0.97842000  0.00533000  0.70056000  1.0
  H  H92  1  0.87855000  0.06938000  0.61664000  1.0
  H  H93  1  0.73074000  0.02005000  0.57557000  1.0
  H  H94  1  0.69308000  0.90843000  0.61929000  1.0
  H  H95  1  0.92506000  0.54661000  0.60117000  1.0
  H  H96  1  0.92967000  0.80280000  0.56771000  1.0
  H  H97  1  0.08245000  0.78965000  0.41113000  1.0
  H  H98  1  0.09827000  0.65183000  0.40334000  1.0
  H  H99  1  0.01454000  0.42584000  0.59565000  1.0
  H  H100  1  0.88386000  0.43537000  0.56158000  1.0
  H  H101  1  0.00336000  0.29503000  0.57624000  1.0
  H  H102  1  0.98744000  0.31661000  0.50644000  1.0
  H  H103  1  0.11804000  0.30869000  0.53975000  1.0
  H  H104  1  0.33237000  0.35883000  0.40948000  1.0
  H  H105  1  0.08909000  0.43429000  0.25461000  1.0
  H  H106  1  0.80824000  0.63380000  0.30707000  1.0
  H  H107  1  0.89546000  0.62443000  0.39729000  1.0
  H  H108  1  0.27420000  0.33747000  0.49653000  1.0
  H  H109  1  0.39677000  0.36697000  0.50301000  1.0
  H  H110  1  0.33937000  0.33184000  0.59318000  1.0
  H  H111  1  0.31690000  0.43302000  0.59094000  1.0
  H  H112  1  0.19872000  0.39976000  0.58447000  1.0
  H  H113  1  0.59877000  0.83182000  0.59256000  1.0
  H  H114  1  0.28640000  0.98267000  0.70479000  1.0
  H  H115  1  0.07069000  0.15685000  0.59801000  1.0
  H  H116  1  0.20222000  0.10135000  0.52233000  1.0
  H  H117  1  0.72713000  0.83719000  0.52701000  1.0
  H  H118  1  0.64763000  0.77563000  0.51193000  1.0
  H  H119  1  0.80370000  0.75585000  0.44496000  1.0
  H  H120  1  0.66833000  0.79808000  0.41248000  1.0
  H  H121  1  0.75327000  0.85610000  0.42834000  1.0
  H  H122  1  0.03461000  0.64394000  0.75908000  1.0
  H  H123  1  0.15239000  0.76839000  0.86739000  1.0
  H  H124  1  0.07391000  0.81831000  0.81143000  1.0
  H  H125  1  0.96533000  0.86831000  0.89523000  1.0
  H  H126  1  0.88972000  0.82198000  0.85463000  1.0
  H  H127  1  0.96621000  0.77382000  0.91249000  1.0
  H  H128  1  0.15759000  0.58342000  0.81583000  1.0
  H  H129  1  0.24864000  0.63270000  0.83991000  1.0
  H  H130  1  0.19475000  0.56357000  0.91514000  1.0
  H  H131  1  0.13271000  0.66435000  0.92621000  1.0
  H  H132  1  0.04624000  0.61084000  0.90210000  1.0
  H  H133  1  0.06992000  0.10731000  0.23874000  1.0
  H  H134  1  0.02155000  0.99470000  0.20056000  1.0
  H  H135  1  0.12141000  0.93064000  0.11665000  1.0
  H  H136  1  0.26925000  0.97995000  0.07558000  1.0
  H  H137  1  0.30691000  0.09158000  0.11930000  1.0
  H  H138  1  0.07494000  0.45340000  0.10117000  1.0
  H  H139  1  0.07032000  0.19720000  0.06772000  1.0
  H  H140  1  0.91755000  0.21035000  0.91113000  1.0
  H  H141  1  0.90172000  0.34817000  0.90334000  1.0
  H  H142  1  0.98546000  0.57417000  0.09565000  1.0
  H  H143  1  0.11615000  0.56463000  0.06159000  1.0
  H  H144  1  0.99664000  0.70498000  0.07624000  1.0
  H  H145  1  0.01256000  0.68340000  0.00644000  1.0
  H  H146  1  0.88197000  0.69131000  0.03975000  1.0
  H  H147  1  0.66762000  0.64118000  0.90947000  1.0
  H  H148  1  0.91092000  0.56570000  0.75461000  1.0
  H  H149  1  0.19176000  0.36618000  0.80708000  1.0
  H  H150  1  0.10452000  0.37556000  0.89730000  1.0
  H  H151  1  0.72581000  0.66253000  0.99653000  1.0
  H  H152  1  0.60323000  0.63304000  0.00301000  1.0
  H  H153  1  0.66063000  0.66816000  0.09318000  1.0
  H  H154  1  0.68309000  0.56698000  0.09094000  1.0
  H  H155  1  0.80127000  0.60024000  0.08447000  1.0
  H  H156  1  0.40121000  0.16818000  0.09256000  1.0
  H  H157  1  0.71360000  0.01732000  0.20479000  1.0
  H  H158  1  0.92933000  0.84316000  0.09801000  1.0
  H  H159  1  0.79778000  0.89866000  0.02233000  1.0
  H  H160  1  0.27286000  0.16281000  0.02701000  1.0
  H  H161  1  0.35237000  0.22437000  0.01193000  1.0
  H  H162  1  0.19629000  0.24415000  0.94496000  1.0
  H  H163  1  0.33166000  0.20192000  0.91248000  1.0
  H  H164  1  0.24671000  0.14391000  0.92834000  1.0
  H  H165  1  0.96539000  0.35607000  0.25908000  1.0
  H  H166  1  0.84762000  0.23161000  0.36739000  1.0
  H  H167  1  0.92610000  0.18170000  0.31142000  1.0
  H  H168  1  0.03467000  0.13169000  0.39522000  1.0
  H  H169  1  0.11029000  0.17802000  0.35463000  1.0
  H  H170  1  0.03380000  0.22618000  0.41249000  1.0
  H  H171  1  0.84241000  0.41659000  0.31583000  1.0
  H  H172  1  0.75137000  0.36730000  0.33991000  1.0
  H  H173  1  0.80525000  0.43643000  0.41514000  1.0
  H  H174  1  0.86729000  0.33565000  0.42621000  1.0
  H  H175  1  0.95375000  0.38917000  0.40210000  1.0
  C  C176  1  0.18781000  0.92296000  0.79743000  1.0
  C  C177  1  0.09922000  0.98523000  0.81880000  1.0
  C  C178  1  0.11948000  0.02127000  0.86517000  1.0
  C  C179  1  0.22831000  0.99405000  0.88812000  1.0
  C  C180  1  0.31188000  0.93140000  0.86421000  1.0
  C  C181  1  0.39996000  0.56643000  0.02250000  1.0
  C  C182  1  0.47181000  0.53118000  0.97957000  1.0
  C  C183  1  0.47454000  0.57374000  0.93260000  1.0
  C  C184  1  0.40957000  0.65169000  0.92868000  1.0
  C  C185  1  0.33620000  0.69033000  0.97150000  1.0
  C  C186  1  0.26372000  0.76916000  0.96774000  1.0
  C  C187  1  0.19003000  0.80297000  0.00906000  1.0
  C  C188  1  0.18588000  0.76111000  0.05627000  1.0
  C  C189  1  0.25446000  0.68438000  0.06047000  1.0
  C  C190  1  0.33114000  0.64621000  0.01864000  1.0
  C  C191  1  0.41940000  0.69369000  0.87834000  1.0
  C  C192  1  0.60779000  0.41386000  0.94235000  1.0
  C  C193  1  0.64664000  0.32827000  0.95612000  1.0
  C  C194  1  0.39149000  0.51698000  0.06843000  1.0
  C  C195  1  0.34606000  0.45830000  0.05840000  1.0
  C  C196  1  0.34513000  0.40432000  0.09857000  1.0
  C  C197  1  0.39100000  0.40717000  0.14881000  1.0
  C  C198  1  0.43486000  0.46768000  0.16182000  1.0
  C  C199  1  0.47765000  0.47536000  0.21371000  1.0
  C  C200  1  0.52067000  0.53422000  0.22379000  1.0
  C  C201  1  0.52285000  0.58831000  0.18368000  1.0
  C  C202  1  0.47971000  0.58260000  0.13351000  1.0
  C  C203  1  0.43399000  0.52329000  0.12079000  1.0
  C  C204  1  0.39550000  0.34245000  0.18681000  1.0
  C  C205  1  0.31266000  0.38140000  0.98611000  1.0
  C  C206  1  0.32379000  0.38680000  0.92587000  1.0
  C  C207  1  0.62038000  0.98064000  0.97344000  1.0
  C  C208  1  0.58659000  0.91617000  0.96551000  1.0
  C  C209  1  0.59762000  0.88136000  0.91438000  1.0
  C  C210  1  0.64153000  0.91023000  0.87123000  1.0
  C  C211  1  0.67897000  0.97533000  0.87781000  1.0
  C  C212  1  0.72196000  0.00889000  0.83494000  1.0
  C  C213  1  0.75279000  0.07333000  0.84431000  1.0
  C  C214  1  0.74539000  0.10675000  0.89593000  1.0
  C  C215  1  0.70327000  0.07561000  0.93781000  1.0
  C  C216  1  0.66748000  0.01030000  0.93018000  1.0
  C  C217  1  0.64462000  0.86962000  0.81865000  1.0
  C  C218  1  0.50534000  0.82489000  0.00306000  1.0
  C  C219  1  0.46610000  0.80760000  0.05764000  1.0
  C  C220  1  0.27448000  0.70241000  0.72516000  1.0
  C  C221  1  0.14769000  0.77800000  0.65611000  1.0
  C  C222  1  0.22034000  0.81210000  0.62148000  1.0
  C  C223  1  0.20738000  0.63093000  0.65821000  1.0
  C  C224  1  0.25134000  0.61683000  0.60067000  1.0
  C  C225  1  0.81220000  0.07702000  0.29744000  1.0
  C  C226  1  0.90079000  0.01474000  0.31882000  1.0
  C  C227  1  0.88052000  0.97872000  0.36519000  1.0
  C  C228  1  0.77169000  0.00594000  0.38814000  1.0
  C  C229  1  0.68812000  0.06859000  0.36422000  1.0
  C  C230  1  0.60004000  0.43356000  0.52250000  1.0
  C  C231  1  0.52820000  0.46881000  0.47957000  1.0
  C  C232  1  0.52547000  0.42625000  0.43260000  1.0
  C  C233  1  0.59044000  0.34830000  0.42869000  1.0
  C  C234  1  0.66379000  0.30967000  0.47151000  1.0
  C  C235  1  0.73628000  0.23084000  0.46775000  1.0
  C  C236  1  0.80997000  0.19703000  0.50907000  1.0
  C  C237  1  0.81411000  0.23889000  0.55629000  1.0
  C  C238  1  0.74554000  0.31562000  0.56048000  1.0
  C  C239  1  0.66885000  0.35379000  0.51865000  1.0
  C  C240  1  0.58062000  0.30630000  0.37834000  1.0
  C  C241  1  0.39222000  0.58613000  0.44235000  1.0
  C  C242  1  0.35335000  0.67173000  0.45612000  1.0
  C  C243  1  0.60851000  0.48302000  0.56843000  1.0
  C  C244  1  0.65395000  0.54169000  0.55841000  1.0
  C  C245  1  0.65489000  0.59567000  0.59857000  1.0
  C  C246  1  0.60902000  0.59282000  0.64881000  1.0
  C  C247  1  0.56515000  0.53232000  0.66182000  1.0
  C  C248  1  0.52235000  0.52464000  0.71371000  1.0
  C  C249  1  0.47933000  0.46578000  0.72379000  1.0
  C  C250  1  0.47716000  0.41169000  0.68368000  1.0
  C  C251  1  0.52030000  0.41739000  0.63351000  1.0
  C  C252  1  0.56602000  0.47671000  0.62079000  1.0
  C  C253  1  0.60453000  0.65754000  0.68681000  1.0
  C  C254  1  0.68733000  0.61860000  0.48612000  1.0
  C  C255  1  0.67620000  0.61320000  0.42587000  1.0
  C  C256  1  0.37960000  0.01937000  0.47345000  1.0
  C  C257  1  0.41341000  0.08383000  0.46551000  1.0
  C  C258  1  0.40238000  0.11864000  0.41438000  1.0
  C  C259  1  0.35847000  0.08978000  0.37123000  1.0
  C  C260  1  0.32101000  0.02468000  0.37781000  1.0
  C  C261  1  0.27805000  0.99111000  0.33493000  1.0
  C  C262  1  0.24720000  0.92668000  0.34431000  1.0
  C  C263  1  0.25461000  0.89325000  0.39592000  1.0
  C  C264  1  0.29672000  0.92439000  0.43781000  1.0
  C  C265  1  0.33252000  0.98970000  0.43019000  1.0
  C  C266  1  0.35539000  0.13038000  0.31864000  1.0
  C  C267  1  0.49465000  0.17511000  0.50306000  1.0
  C  C268  1  0.53390000  0.19240000  0.55764000  1.0
  C  C269  1  0.72554000  0.29758000  0.22516000  1.0
  C  C270  1  0.85231000  0.22200000  0.15611000  1.0
  C  C271  1  0.77964000  0.18791000  0.12148000  1.0
  C  C272  1  0.79262000  0.36907000  0.15823000  1.0
  C  C273  1  0.74865000  0.38317000  0.10068000  1.0
  C  C274  1  0.88857000  0.92303000  0.70258000  1.0
  C  C275  1  0.91497000  0.98526000  0.68120000  1.0
  C  C276  1  0.85880000  0.02122000  0.63478000  1.0
  C  C277  1  0.77719000  0.99402000  0.61182000  1.0
  C  C278  1  0.75621000  0.93141000  0.63574000  1.0
  C  C279  1  0.03363000  0.56653000  0.47734000  1.0
  C  C280  1  0.99688000  0.53137000  0.52027000  1.0
  C  C281  1  0.95165000  0.57395000  0.56724000  1.0
  C  C282  1  0.93885000  0.65185000  0.57119000  1.0
  C  C283  1  0.97361000  0.69044000  0.52837000  1.0
  C  C284  1  0.96733000  0.76924000  0.53217000  1.0
  C  C285  1  0.00725000  0.80304000  0.49088000  1.0
  C  C286  1  0.05318000  0.76119000  0.44365000  1.0
  C  C287  1  0.06128000  0.68448000  0.43941000  1.0
  C  C288  1  0.02274000  0.64630000  0.48122000  1.0
  C  C289  1  0.88707000  0.69383000  0.62155000  1.0
  C  C290  1  0.97780000  0.41425000  0.55761000  1.0
  C  C291  1  0.02454000  0.32863000  0.54397000  1.0
  C  C292  1  0.09168000  0.51705000  0.43144000  1.0
  C  C293  1  0.19585000  0.45842000  0.44150000  1.0
  C  C294  1  0.25091000  0.40441000  0.40137000  1.0
  C  C295  1  0.20224000  0.40721000  0.35112000  1.0
  C  C296  1  0.09789000  0.46771000  0.33802000  1.0
  C  C297  1  0.04748000  0.47538000  0.28612000  1.0
  C  C298  1  0.94557000  0.53424000  0.27600000  1.0
  C  C299  1  0.88927000  0.58837000  0.31609000  1.0
  C  C300  1  0.93805000  0.58268000  0.36627000  1.0
  C  C301  1  0.04306000  0.52336000  0.37905000  1.0
  C  C302  1  0.26230000  0.34241000  0.31314000  1.0
  C  C303  1  0.30592000  0.38166000  0.51395000  1.0
  C  C304  1  0.28903000  0.38702000  0.57416000  1.0
  C  C305  1  0.39900000  0.98074000  0.52657000  1.0
  C  C306  1  0.49741000  0.91634000  0.53448000  1.0
  C  C307  1  0.52116000  0.88138000  0.58557000  1.0
  C  C308  1  0.44827000  0.91010000  0.62871000  1.0
  C  C309  1  0.34568000  0.97521000  0.62216000  1.0
  C  C310  1  0.26902000  0.00866000  0.66503000  1.0
  C  C311  1  0.17375000  0.07314000  0.65571000  1.0
  C  C312  1  0.14781000  0.10676000  0.60415000  1.0
  C  C313  1  0.22113000  0.07571000  0.56227000  1.0
  C  C314  1  0.32222000  0.01034000  0.56984000  1.0
  C  C315  1  0.48573000  0.86940000  0.68127000  1.0
  C  C316  1  0.67015000  0.82528000  0.49698000  1.0
  C  C317  1  0.72682000  0.80795000  0.44244000  1.0
  C  C318  1  0.02278000  0.70240000  0.77499000  1.0
  C  C319  1  0.07390000  0.77802000  0.84404000  1.0
  C  C320  1  0.96723000  0.81217000  0.87873000  1.0
  C  C321  1  0.16106000  0.63090000  0.84206000  1.0
  C  C322  1  0.13100000  0.61691000  0.89959000  1.0
  C  C323  1  0.11142000  0.07699000  0.20258000  1.0
  C  C324  1  0.08501000  0.01476000  0.18120000  1.0
  C  C325  1  0.14117000  0.97880000  0.13479000  1.0
  C  C326  1  0.22279000  0.00599000  0.11183000  1.0
  C  C327  1  0.24378000  0.06860000  0.13575000  1.0
  C  C328  1  0.96637000  0.43347000  0.97734000  1.0
  C  C329  1  0.00312000  0.46863000  0.02027000  1.0
  C  C330  1  0.04835000  0.42605000  0.06724000  1.0
  C  C331  1  0.06115000  0.34816000  0.07119000  1.0
  C  C332  1  0.02638000  0.30957000  0.02838000  1.0
  C  C333  1  0.03267000  0.23076000  0.03218000  1.0
  C  C334  1  0.99275000  0.19696000  0.99088000  1.0
  C  C335  1  0.94681000  0.23881000  0.94365000  1.0
  C  C336  1  0.93871000  0.31552000  0.93941000  1.0
  C  C337  1  0.97725000  0.35371000  0.98122000  1.0
  C  C338  1  0.11294000  0.30618000  0.12155000  1.0
  C  C339  1  0.02220000  0.58575000  0.05761000  1.0
  C  C340  1  0.97546000  0.67137000  0.04397000  1.0
  C  C341  1  0.90831000  0.48295000  0.93143000  1.0
  C  C342  1  0.80414000  0.54158000  0.94150000  1.0
  C  C343  1  0.74909000  0.59559000  0.90136000  1.0
  C  C344  1  0.79777000  0.59279000  0.85111000  1.0
  C  C345  1  0.90212000  0.53228000  0.83802000  1.0
  C  C346  1  0.95253000  0.52461000  0.78612000  1.0
  C  C347  1  0.05443000  0.46575000  0.77600000  1.0
  C  C348  1  0.11073000  0.41162000  0.81610000  1.0
  C  C349  1  0.06194000  0.41731000  0.86628000  1.0
  C  C350  1  0.95693000  0.47664000  0.87905000  1.0
  C  C351  1  0.73773000  0.65759000  0.81314000  1.0
  C  C352  1  0.69408000  0.61835000  0.01394000  1.0
  C  C353  1  0.71097000  0.61298000  0.07416000  1.0
  C  C354  1  0.60100000  0.01926000  0.02656000  1.0
  C  C355  1  0.50258000  0.08366000  0.03448000  1.0
  C  C356  1  0.47883000  0.11862000  0.08557000  1.0
  C  C357  1  0.55172000  0.08991000  0.12871000  1.0
  C  C358  1  0.65432000  0.02479000  0.12216000  1.0
  C  C359  1  0.73098000  0.99134000  0.16503000  1.0
  C  C360  1  0.82625000  0.92686000  0.15571000  1.0
  C  C361  1  0.85219000  0.89325000  0.10415000  1.0
  C  C362  1  0.77888000  0.92429000  0.06226000  1.0
  C  C363  1  0.67778000  0.98966000  0.06983000  1.0
  C  C364  1  0.51427000  0.13060000  0.18127000  1.0
  C  C365  1  0.32984000  0.17472000  0.99698000  1.0
  C  C366  1  0.27315000  0.19206000  0.94244000  1.0
  C  C367  1  0.97722000  0.29761000  0.27499000  1.0
  C  C368  1  0.92610000  0.22199000  0.34404000  1.0
  C  C369  1  0.03277000  0.18783000  0.37873000  1.0
  C  C370  1  0.83894000  0.36911000  0.34206000  1.0
  C  C371  1  0.86899000  0.38310000  0.39959000  1.0
  N  N372  1  0.29238000  0.89546000  0.81994000  1.0
  N  N373  1  0.21326000  0.70340000  0.68111000  1.0
  N  N374  1  0.70763000  0.10452000  0.31995000  1.0
  N  N375  1  0.78676000  0.29659000  0.18112000  1.0
  N  N376  1  0.81155000  0.89553000  0.68004000  1.0
  N  N377  1  0.08288000  0.70340000  0.81908000  1.0
  N  N378  1  0.18843000  0.10449000  0.18005000  1.0
  N  N379  1  0.91712000  0.29661000  0.31908000  1.0
  Cl  Cl380  1  0.09973000  0.89884000  0.00334000  1.0
  Cl  Cl381  1  0.57566000  0.54227000  0.28701000  1.0
  Cl  Cl382  1  0.80142000  0.11681000  0.79169000  1.0
  Cl  Cl383  1  0.90028000  0.10116000  0.50335000  1.0
  Cl  Cl384  1  0.42435000  0.45772000  0.78700000  1.0
  Cl  Cl385  1  0.19860000  0.88319000  0.29168000  1.0
  Cl  Cl386  1  0.00187000  0.89885000  0.49666000  1.0
  Cl  Cl387  1  0.88246000  0.54219000  0.21280000  1.0
  Cl  Cl388  1  0.08154000  0.11642000  0.70833000  1.0
  Cl  Cl389  1  0.99813000  0.10115000  0.99666000  1.0
  Cl  Cl390  1  0.11755000  0.45779000  0.71281000  1.0
  Cl  Cl391  1  0.91846000  0.88358000  0.20834000  1.0
  O  O392  1  0.43494000  0.75924000  0.88252000  1.0
  O  O393  1  0.41328000  0.66330000  0.83303000  1.0
  O  O394  1  0.53548000  0.45481000  0.98570000  1.0
  O  O395  1  0.30900000  0.32104000  0.18813000  1.0
  O  O396  1  0.48771000  0.31220000  0.21323000  1.0
  O  O397  1  0.30268000  0.45630000  0.00822000  1.0
  O  O398  1  0.56325000  0.84364000  0.81002000  1.0
  O  O399  1  0.72735000  0.86135000  0.78661000  1.0
  O  O400  1  0.54127000  0.89153000  0.00898000  1.0
  O  O401  1  0.27966000  0.76264000  0.74787000  1.0
  O  O402  1  0.56508000  0.24075000  0.38252000  1.0
  O  O403  1  0.58675000  0.33668000  0.33303000  1.0
  O  O404  1  0.46452000  0.54519000  0.48570000  1.0
  O  O405  1  0.69103000  0.67895000  0.68812000  1.0
  O  O406  1  0.51233000  0.68779000  0.71323000  1.0
  O  O407  1  0.69732000  0.54369000  0.50822000  1.0
  O  O408  1  0.43676000  0.15636000  0.31002000  1.0
  O  O409  1  0.27267000  0.13864000  0.28661000  1.0
  O  O410  1  0.45873000  0.10847000  0.50898000  1.0
  O  O411  1  0.72035000  0.23734000  0.24787000  1.0
  O  O412  1  0.80582000  0.75932000  0.61741000  1.0
  O  O413  1  0.92373000  0.66344000  0.66686000  1.0
  O  O414  1  0.00935000  0.45502000  0.51419000  1.0
  O  O415  1  0.37022000  0.32082000  0.31182000  1.0
  O  O416  1  0.20020000  0.31227000  0.28675000  1.0
  O  O417  1  0.24105000  0.45653000  0.49173000  1.0
  O  O418  1  0.59307000  0.84330000  0.68991000  1.0
  O  O419  1  0.41116000  0.86126000  0.71330000  1.0
  O  O420  1  0.56755000  0.89190000  0.49104000  1.0
  O  O421  1  0.95754000  0.76262000  0.75220000  1.0
  O  O422  1  0.19418000  0.24069000  0.11741000  1.0
  O  O423  1  0.07629000  0.33657000  0.16686000  1.0
  O  O424  1  0.99065000  0.54498000  0.01419000  1.0
  O  O425  1  0.62981000  0.67919000  0.81182000  1.0
  O  O426  1  0.79983000  0.68773000  0.78674000  1.0
  O  O427  1  0.75895000  0.54347000  0.99172000  1.0
  O  O428  1  0.40694000  0.15671000  0.18991000  1.0
  O  O429  1  0.58885000  0.13873000  0.21330000  1.0
  O  O430  1  0.43243000  0.10810000  0.99104000  1.0
  O  O431  1  0.04247000  0.23739000  0.25221000  1.0
