# generated using pymatgen
data_CuH9C5N(ClO)2
_symmetry_space_group_name_H-M   'P 1'
_cell_length_a   6.64949000
_cell_length_b   9.69767000
_cell_length_c   12.72360000
_cell_angle_alpha   76.88200000
_cell_angle_beta   89.59320000
_cell_angle_gamma   80.68220000
_symmetry_Int_Tables_number   1
_chemical_formula_structural   CuH9C5N(ClO)2
_chemical_formula_sum   'Cu4 H36 C20 N4 Cl8 O8'
_cell_volume   788.14662752
_cell_formula_units_Z   4
loop_
 _symmetry_equiv_pos_site_id
 _symmetry_equiv_pos_as_xyz
  1  'x, y, z'
loop_
 _atom_site_type_symbol
 _atom_site_label
 _atom_site_symmetry_multiplicity
 _atom_site_fract_x
 _atom_site_fract_y
 _atom_site_fract_z
 _atom_site_occupancy
  Cu  Cu0  1  0.62675000  0.26284000  0.26599000  1.0
  Cu  Cu1  1  0.37325000  0.73715000  0.73401000  1.0
  Cu  Cu2  1  0.13613000  0.23649000  0.22308000  1.0
  Cu  Cu3  1  0.86387000  0.76350000  0.77692000  1.0
  H  H4  1  0.37130000  0.38556000  0.89014000  1.0
  H  H5  1  0.62868000  0.61441000  0.10984000  1.0
  H  H6  1  0.42636000  0.09242000  0.92264000  1.0
  H  H7  1  0.57365000  0.90754000  0.07736000  1.0
  H  H8  1  0.51201000  0.19884000  0.80420000  1.0
  H  H9  1  0.48797000  0.80110000  0.19581000  1.0
  H  H10  1  0.76996000  0.04726000  0.00949000  1.0
  H  H11  1  0.23004000  0.95273000  0.99050000  1.0
  H  H12  1  0.82480000  0.03537000  0.87481000  1.0
  H  H13  1  0.17522000  0.96462000  0.12520000  1.0
  H  H14  1  0.98013000  0.22986000  0.97038000  1.0
  H  H15  1  0.01986000  0.77015000  0.02961000  1.0
  H  H16  1  0.91050000  0.27460000  0.83029000  1.0
  H  H17  1  0.08949000  0.72541000  0.16971000  1.0
  H  H18  1  0.71897000  0.39085000  0.99764000  1.0
  H  H19  1  0.28098000  0.60914000  0.00236000  1.0
  H  H20  1  0.67645000  0.44531000  0.86225000  1.0
  H  H21  1  0.32352000  0.55469000  0.13774000  1.0
  H  H22  1  0.93856000  0.08283000  0.59372000  1.0
  H  H23  1  0.06144000  0.91720000  0.40625000  1.0
  H  H24  1  0.87747000  0.40361000  0.54456000  1.0
  H  H25  1  0.12251000  0.59639000  0.45544000  1.0
  H  H26  1  0.82357000  0.28476000  0.66401000  1.0
  H  H27  1  0.17644000  0.71523000  0.33600000  1.0
  H  H28  1  0.14526000  0.43347000  0.66181000  1.0
  H  H29  1  0.85473000  0.56654000  0.33820000  1.0
  H  H30  1  0.16969000  0.25266000  0.73523000  1.0
  H  H31  1  0.83031000  0.74735000  0.26478000  1.0
  H  H32  1  0.30596000  0.35158000  0.50180000  1.0
  H  H33  1  0.69404000  0.64841000  0.49822000  1.0
  H  H34  1  0.45739000  0.23958000  0.61397000  1.0
  H  H35  1  0.54262000  0.76043000  0.38605000  1.0
  H  H36  1  0.27199000  0.05643000  0.61743000  1.0
  H  H37  1  0.72805000  0.94357000  0.38258000  1.0
  H  H38  1  0.28400000  0.12169000  0.48314000  1.0
  H  H39  1  0.71603000  0.87832000  0.51687000  1.0
  C  C40  1  0.42478000  0.27888000  0.05602000  1.0
  C  C41  1  0.57521000  0.72112000  0.94397000  1.0
  C  C42  1  0.48855000  0.30192000  0.93795000  1.0
  C  C43  1  0.51144000  0.69808000  0.06202000  1.0
  C  C44  1  0.53135000  0.16729000  0.89252000  1.0
  C  C45  1  0.46865000  0.83268000  0.10748000  1.0
  C  C46  1  0.75494000  0.10696000  0.92488000  1.0
  C  C47  1  0.24506000  0.89303000  0.07511000  1.0
  C  C48  1  0.85600000  0.23986000  0.91173000  1.0
  C  C49  1  0.14400000  0.76013000  0.08826000  1.0
  C  C50  1  0.92266000  0.21826000  0.43212000  1.0
  C  C51  1  0.07739000  0.78177000  0.56787000  1.0
  C  C52  1  0.99711000  0.17831000  0.54964000  1.0
  C  C53  1  0.00293000  0.82171000  0.45038000  1.0
  C  C54  1  0.94097000  0.30595000  0.60447000  1.0
  C  C55  1  0.05905000  0.69405000  0.39555000  1.0
  C  C56  1  0.14241000  0.32355000  0.65420000  1.0
  C  C57  1  0.85761000  0.67645000  0.34582000  1.0
  C  C58  1  0.30258000  0.27380000  0.57901000  1.0
  C  C59  1  0.69743000  0.72621000  0.42101000  1.0
  N  N60  1  0.68823000  0.35806000  0.92798000  1.0
  N  N61  1  0.31176000  0.64192000  0.07200000  1.0
  N  N62  1  0.22733000  0.14568000  0.55484000  1.0
  N  N63  1  0.77269000  0.85433000  0.44517000  1.0
  Cl  Cl64  1  0.95410000  0.44306000  0.13360000  1.0
  Cl  Cl65  1  0.04588000  0.55694000  0.86644000  1.0
  Cl  Cl66  1  0.35793000  0.05115000  0.32616000  1.0
  Cl  Cl67  1  0.64210000  0.94884000  0.67384000  1.0
  Cl  Cl68  1  0.83965000  0.07868000  0.21341000  1.0
  Cl  Cl69  1  0.16040000  0.92132000  0.78658000  1.0
  Cl  Cl70  1  0.45590000  0.46133000  0.31080000  1.0
  Cl  Cl71  1  0.54405000  0.53865000  0.68917000  1.0
  O  O72  1  0.52187000  0.33764000  0.11505000  1.0
  O  O73  1  0.47809000  0.66238000  0.88494000  1.0
  O  O74  1  0.27793000  0.21188000  0.08361000  1.0
  O  O75  1  0.72202000  0.78819000  0.91637000  1.0
  O  O76  1  0.04033000  0.27902000  0.36508000  1.0
  O  O77  1  0.95970000  0.72100000  0.63493000  1.0
  O  O78  1  0.74744000  0.19010000  0.41391000  1.0
  O  O79  1  0.25257000  0.80998000  0.58608000  1.0
