# generated using pymatgen
data_Cu2P2H8C13S2Br2NO6
_symmetry_space_group_name_H-M   'P 1'
_cell_length_a   4.74527000
_cell_length_b   14.36930000
_cell_length_c   17.44600000
_cell_angle_alpha   70.03620000
_cell_angle_beta   89.90430000
_cell_angle_gamma   87.18740000
_symmetry_Int_Tables_number   1
_chemical_formula_structural   Cu2P2H8C13S2Br2NO6
_chemical_formula_sum   'Cu4 P4 H16 C26 S4 Br4 N2 O12'
_cell_volume   1116.60213590
_cell_formula_units_Z   2
loop_
 _symmetry_equiv_pos_site_id
 _symmetry_equiv_pos_as_xyz
  1  'x, y, z'
loop_
 _atom_site_type_symbol
 _atom_site_label
 _atom_site_symmetry_multiplicity
 _atom_site_fract_x
 _atom_site_fract_y
 _atom_site_fract_z
 _atom_site_occupancy
  Cu  Cu0  1  0.34562000  0.41549000  0.22558000  1.0
  Cu  Cu1  1  0.65437000  0.58451000  0.77442000  1.0
  Cu  Cu2  1  0.24222000  0.47748000  0.05285000  1.0
  Cu  Cu3  1  0.75777000  0.52252000  0.94715000  1.0
  P  P4  1  0.72676000  0.57764000  0.11198000  1.0
  P  P5  1  0.27323000  0.42237000  0.88802000  1.0
  P  P6  1  0.86076000  0.32055000  0.16285000  1.0
  P  P7  1  0.13923000  0.67945000  0.83715000  1.0
  H  H8  1  0.34492000  0.72749000  0.98763000  1.0
  H  H9  1  0.65507000  0.27252000  0.01237000  1.0
  H  H10  1  0.63108000  0.92632000  0.12541000  1.0
  H  H11  1  0.36896000  0.07368000  0.87459000  1.0
  H  H12  1  0.83097000  0.94662000  0.28900000  1.0
  H  H13  1  0.16905000  0.05338000  0.71100000  1.0
  H  H14  1  0.17998000  0.19592000  0.07588000  1.0
  H  H15  1  0.82001000  0.80407000  0.92412000  1.0
  H  H16  1  0.48488000  0.56436000  0.29954000  1.0
  H  H17  1  0.51513000  0.43564000  0.70046000  1.0
  H  H18  1  0.34161000  0.60734000  0.42092000  1.0
  H  H19  1  0.65839000  0.39266000  0.57908000  1.0
  H  H20  1  0.78759000  0.36200000  0.48124000  1.0
  H  H21  1  0.21238000  0.63801000  0.51875000  1.0
  H  H22  1  0.95077000  0.33313000  0.35551000  1.0
  H  H23  1  0.04921000  0.66687000  0.64449000  1.0
  C  C24  1  0.63849000  0.70720000  0.09088000  1.0
  C  C25  1  0.36151000  0.29280000  0.90912000  1.0
  C  C26  1  0.44940000  0.75753000  0.02868000  1.0
  C  C27  1  0.55060000  0.24246000  0.97132000  1.0
  C  C28  1  0.60096000  0.86494000  0.10402000  1.0
  C  C29  1  0.39908000  0.13506000  0.89598000  1.0
  C  C30  1  0.72043000  0.77043000  0.13413000  1.0
  C  C31  1  0.27958000  0.22957000  0.86587000  1.0
  C  C32  1  0.90428000  0.18999000  0.17935000  1.0
  C  C33  1  0.09572000  0.81001000  0.82064000  1.0
  C  C34  1  0.79869000  0.11075000  0.24620000  1.0
  C  C35  1  0.20131000  0.88924000  0.75380000  1.0
  C  C36  1  0.88270000  0.01802000  0.24589000  1.0
  C  C37  1  0.11730000  0.98198000  0.75412000  1.0
  C  C38  1  0.06895000  0.15316000  0.12996000  1.0
  C  C39  1  0.93105000  0.84684000  0.87004000  1.0
  C  C40  1  0.33091000  0.52228000  0.34226000  1.0
  C  C41  1  0.66909000  0.47771000  0.65774000  1.0
  C  C42  1  0.24787000  0.54498000  0.41052000  1.0
  C  C43  1  0.75213000  0.45502000  0.58948000  1.0
  C  C44  1  0.04783000  0.48872000  0.46361000  1.0
  C  C45  1  0.95216000  0.51128000  0.53639000  1.0
  C  C46  1  0.94235000  0.41000000  0.44365000  1.0
  C  C47  1  0.05762000  0.59001000  0.55634000  1.0
  C  C48  1  0.03280000  0.39181000  0.37418000  1.0
  C  C49  1  0.96717000  0.60820000  0.62582000  1.0
  S  S50  1  0.37963000  0.87769000  0.02298000  1.0
  S  S51  1  0.62038000  0.12231000  0.97702000  1.0
  S  S52  1  0.09420000  0.02638000  0.16407000  1.0
  S  S53  1  0.90582000  0.97362000  0.83594000  1.0
  Br  Br54  1  0.96232000  0.72843000  0.22729000  1.0
  Br  Br55  1  0.03773000  0.27156000  0.77270000  1.0
  Br  Br56  1  0.56895000  0.12900000  0.32929000  1.0
  Br  Br57  1  0.43104000  0.87100000  0.67071000  1.0
  N  N58  1  0.22463000  0.44703000  0.32419000  1.0
  N  N59  1  0.77536000  0.55298000  0.67581000  1.0
  O  O60  1  0.04746000  0.55909000  0.10963000  1.0
  O  O61  1  0.95254000  0.44091000  0.89037000  1.0
  O  O62  1  0.57790000  0.55589000  0.04013000  1.0
  O  O63  1  0.42208000  0.44411000  0.95986000  1.0
  O  O64  1  0.60506000  0.52299000  0.19592000  1.0
  O  O65  1  0.39493000  0.47701000  0.80408000  1.0
  O  O66  1  0.98187000  0.37290000  0.07750000  1.0
  O  O67  1  0.01812000  0.62710000  0.92250000  1.0
  O  O68  1  0.01325000  0.33835000  0.23398000  1.0
  O  O69  1  0.98674000  0.66165000  0.76602000  1.0
  O  O70  1  0.53937000  0.34369000  0.16315000  1.0
  O  O71  1  0.46063000  0.65631000  0.83685000  1.0
