# generated using pymatgen
data_ZnH20C18NO6
_symmetry_space_group_name_H-M   'P 1'
_cell_length_a   8.47572000
_cell_length_b   9.25507000
_cell_length_c   17.59070000
_cell_angle_alpha   89.98770000
_cell_angle_beta   93.18500000
_cell_angle_gamma   89.98150000
_symmetry_Int_Tables_number   1
_chemical_formula_structural   ZnH20C18NO6
_chemical_formula_sum   'Zn2 H40 C36 N2 O12'
_cell_volume   1377.74245814
_cell_formula_units_Z   2
loop_
 _symmetry_equiv_pos_site_id
 _symmetry_equiv_pos_as_xyz
  1  'x, y, z'
loop_
 _atom_site_type_symbol
 _atom_site_label
 _atom_site_symmetry_multiplicity
 _atom_site_fract_x
 _atom_site_fract_y
 _atom_site_fract_z
 _atom_site_occupancy
  Zn  Zn0  1  0.65455000  0.51653000  0.50263000  1.0
  Zn  Zn1  1  0.34536000  0.51661000  0.49733000  1.0
  H  H2  1  0.87991000  0.33729000  0.85156000  1.0
  H  H3  1  0.84218000  0.45961000  0.92599000  1.0
  H  H4  1  0.77401000  0.27989000  0.93136000  1.0
  H  H5  1  0.12022000  0.33718000  0.14840000  1.0
  H  H6  1  0.15792000  0.45951000  0.07394000  1.0
  H  H7  1  0.22619000  0.27979000  0.06863000  1.0
  H  H8  1  0.89777000  0.45969000  0.15040000  1.0
  H  H9  1  0.83851000  0.30336000  0.09735000  1.0
  H  H10  1  0.78448000  0.47565000  0.06223000  1.0
  H  H11  1  0.21564000  0.47582000  0.93777000  1.0
  H  H12  1  0.10230000  0.45987000  0.84963000  1.0
  H  H13  1  0.16163000  0.30354000  0.90273000  1.0
  H  H14  1  0.96518000  0.62014000  0.75281000  1.0
  H  H15  1  0.84237000  0.62651000  0.83203000  1.0
  H  H16  1  0.77234000  0.76116000  0.67436000  1.0
  H  H17  1  0.62500000  0.73504000  0.74004000  1.0
  H  H18  1  0.76899000  0.88731000  0.83714000  1.0
  H  H19  1  0.74531000  0.98649000  0.75080000  1.0
  H  H20  1  0.93053000  0.90794000  0.77795000  1.0
  H  H21  1  0.03472000  0.61996000  0.24715000  1.0
  H  H22  1  0.15738000  0.62623000  0.16786000  1.0
  H  H23  1  0.22755000  0.76108000  0.32543000  1.0
  H  H24  1  0.37481000  0.73484000  0.25973000  1.0
  H  H25  1  0.23059000  0.88710000  0.16259000  1.0
  H  H26  1  0.25447000  0.98627000  0.24890000  1.0
  H  H27  1  0.06918000  0.90787000  0.22186000  1.0
  H  H28  1  0.99811000  0.31793000  0.29562000  1.0
  H  H29  1  0.86757000  0.24078000  0.22380000  1.0
  H  H30  1  0.81505000  0.24298000  0.39500000  1.0
  H  H31  1  0.67380000  0.18564000  0.32466000  1.0
  H  H32  1  0.85372000  0.98797000  0.28446000  1.0
  H  H33  1  0.82538000  0.97552000  0.38339000  1.0
  H  H34  1  0.00424000  0.04749000  0.35151000  1.0
  H  H35  1  0.00197000  0.31811000  0.70435000  1.0
  H  H36  1  0.13238000  0.24097000  0.77626000  1.0
  H  H37  1  0.18528000  0.24292000  0.60509000  1.0
  H  H38  1  0.32637000  0.18562000  0.67555000  1.0
  H  H39  1  0.14642000  0.98815000  0.71580000  1.0
  H  H40  1  0.17505000  0.97546000  0.61691000  1.0
  H  H41  1  0.99600000  0.04752000  0.64860000  1.0
  C  C42  1  0.49995000  0.79404000  0.49998000  1.0
  C  C43  1  0.49995000  0.23666000  0.50000000  1.0
  C  C44  1  0.49991000  0.94975000  0.49998000  1.0
  C  C45  1  0.49992000  0.08084000  0.49999000  1.0
  C  C46  1  0.50899000  0.49486000  0.35484000  1.0
  C  C47  1  0.49094000  0.49488000  0.64512000  1.0
  C  C48  1  0.63926000  0.40610000  0.84934000  1.0
  C  C49  1  0.36082000  0.40597000  0.15064000  1.0
  C  C50  1  0.65162000  0.41060000  0.15606000  1.0
  C  C51  1  0.34845000  0.41069000  0.84394000  1.0
  C  C52  1  0.63499000  0.45155000  0.77328000  1.0
  C  C53  1  0.36504000  0.45142000  0.22669000  1.0
  C  C54  1  0.65211000  0.43238000  0.23517000  1.0
  C  C55  1  0.34793000  0.43245000  0.76483000  1.0
  C  C56  1  0.49052000  0.46063000  0.72834000  1.0
  C  C57  1  0.50948000  0.46056000  0.27164000  1.0
  C  C58  1  0.49489000  0.39430000  0.88531000  1.0
  C  C59  1  0.50523000  0.39422000  0.11468000  1.0
  C  C60  1  0.49832000  0.37615000  0.96519000  1.0
  C  C61  1  0.50183000  0.37611000  0.03481000  1.0
  C  C62  1  0.79221000  0.36929000  0.89176000  1.0
  C  C63  1  0.20793000  0.36918000  0.10821000  1.0
  C  C64  1  0.80166000  0.41196000  0.11476000  1.0
  C  C65  1  0.19844000  0.41211000  0.88526000  1.0
  C  C66  1  0.84202000  0.62228000  0.76927000  1.0
  C  C67  1  0.75271000  0.75239000  0.73548000  1.0
  C  C68  1  0.80212000  0.89116000  0.77759000  1.0
  C  C69  1  0.15782000  0.62209000  0.23062000  1.0
  C  C70  1  0.24709000  0.75222000  0.26431000  1.0
  C  C71  1  0.19757000  0.89099000  0.22217000  1.0
  C  C72  1  0.87378000  0.29248000  0.28038000  1.0
  C  C73  1  0.80204000  0.19381000  0.33827000  1.0
  C  C74  1  0.87561000  0.04306000  0.33944000  1.0
  C  C75  1  0.12629000  0.29261000  0.71965000  1.0
  C  C76  1  0.19816000  0.19383000  0.66186000  1.0
  C  C77  1  0.12462000  0.04310000  0.66077000  1.0
  N  N78  1  0.06469000  0.51899000  0.49673000  1.0
  N  N79  1  0.93524000  0.51894000  0.50322000  1.0
  O  O80  1  0.63097000  0.73313000  0.51963000  1.0
  O  O81  1  0.36926000  0.29734000  0.51289000  1.0
  O  O82  1  0.63066000  0.29724000  0.48712000  1.0
  O  O83  1  0.36896000  0.73317000  0.48032000  1.0
  O  O84  1  0.63535000  0.54404000  0.38886000  1.0
  O  O85  1  0.36459000  0.54416000  0.61111000  1.0
  O  O86  1  0.61897000  0.47099000  0.61201000  1.0
  O  O87  1  0.38094000  0.47112000  0.38795000  1.0
  O  O88  1  0.77675000  0.48500000  0.74286000  1.0
  O  O89  1  0.22323000  0.48483000  0.25709000  1.0
  O  O90  1  0.79515000  0.43242000  0.27599000  1.0
  O  O91  1  0.20489000  0.43253000  0.72401000  1.0
