# generated using pymatgen
data_H4PbC10(NO)4
_symmetry_space_group_name_H-M   'P 1'
_cell_length_a   3.96132000
_cell_length_b   9.03883000
_cell_length_c   14.49520000
_cell_angle_alpha   90.00090000
_cell_angle_beta   90.00120000
_cell_angle_gamma   90.00000000
_symmetry_Int_Tables_number   1
_chemical_formula_structural   H4PbC10(NO)4
_chemical_formula_sum   'H8 Pb2 C20 N8 O8'
_cell_volume   519.01075428
_cell_formula_units_Z   2
loop_
 _symmetry_equiv_pos_site_id
 _symmetry_equiv_pos_as_xyz
  1  'x, y, z'
loop_
 _atom_site_type_symbol
 _atom_site_label
 _atom_site_symmetry_multiplicity
 _atom_site_fract_x
 _atom_site_fract_y
 _atom_site_fract_z
 _atom_site_occupancy
  H  H0  1  0.55550000  0.89057000  0.78391000  1.0
  H  H1  1  0.44441000  0.39055000  0.71609000  1.0
  H  H2  1  0.44449000  0.39059000  0.28392000  1.0
  H  H3  1  0.55557000  0.89058000  0.21607000  1.0
  H  H4  1  0.15846000  0.30231000  0.92370000  1.0
  H  H5  1  0.84173000  0.80241000  0.57631000  1.0
  H  H6  1  0.84154000  0.80236000  0.42370000  1.0
  H  H7  1  0.15832000  0.30235000  0.07628000  1.0
  Pb  Pb8  1  0.66986000  0.72223000  0.00001000  1.0
  Pb  Pb9  1  0.33016000  0.22224000  0.49999000  1.0
  C  C10  1  0.68196000  0.98343000  0.81667000  1.0
  C  C11  1  0.31795000  0.48343000  0.68332000  1.0
  C  C12  1  0.31798000  0.48344000  0.31670000  1.0
  C  C13  1  0.68206000  0.98343000  0.18331000  1.0
  C  C14  1  0.79933000  0.10284000  0.76394000  1.0
  C  C15  1  0.20071000  0.60291000  0.73606000  1.0
  C  C16  1  0.20066000  0.60293000  0.26396000  1.0
  C  C17  1  0.79935000  0.10286000  0.23604000  1.0
  C  C18  1  0.87216000  0.09790000  0.94901000  1.0
  C  C19  1  0.12795000  0.59797000  0.55099000  1.0
  C  C20  1  0.12795000  0.59795000  0.44902000  1.0
  C  C21  1  0.87212000  0.09792000  0.05097000  1.0
  C  C22  1  0.01294000  0.21097000  0.89436000  1.0
  C  C23  1  0.98716000  0.71104000  0.60563000  1.0
  C  C24  1  0.98706000  0.71102000  0.39439000  1.0
  C  C25  1  0.01287000  0.21099000  0.10562000  1.0
  C  C26  1  0.71026000  0.11103000  0.66287000  1.0
  C  C27  1  0.28984000  0.61106000  0.83714000  1.0
  C  C28  1  0.28980000  0.61109000  0.16289000  1.0
  C  C29  1  0.71021000  0.11104000  0.33710000  1.0
  N  N30  1  0.71560000  0.98249000  0.90796000  1.0
  N  N31  1  0.28430000  0.48247000  0.59202000  1.0
  N  N32  1  0.28431000  0.48249000  0.40801000  1.0
  N  N33  1  0.71564000  0.98248000  0.09202000  1.0
  N  N34  1  0.97466000  0.21334000  0.80278000  1.0
  N  N35  1  0.02534000  0.71343000  0.69723000  1.0
  N  N36  1  0.02527000  0.71339000  0.30279000  1.0
  N  N37  1  0.97462000  0.21338000  0.19720000  1.0
  O  O38  1  0.52187000  0.01231000  0.62941000  1.0
  O  O39  1  0.47817000  0.51231000  0.87056000  1.0
  O  O40  1  0.47819000  0.51230000  0.12946000  1.0
  O  O41  1  0.52189000  0.01232000  0.37057000  1.0
  O  O42  1  0.81509000  0.22495000  0.61756000  1.0
  O  O43  1  0.18480000  0.72498000  0.88245000  1.0
  O  O44  1  0.18479000  0.72499000  0.11758000  1.0
  O  O45  1  0.81511000  0.22495000  0.38243000  1.0
