# generated using pymatgen
data_H12PbC8O5
_symmetry_space_group_name_H-M   'P 1'
_cell_length_a   5.08594000
_cell_length_b   8.14615000
_cell_length_c   11.47150000
_cell_angle_alpha   92.02370000
_cell_angle_beta   91.04670000
_cell_angle_gamma   97.30820000
_symmetry_Int_Tables_number   1
_chemical_formula_structural   H12PbC8O5
_chemical_formula_sum   'H24 Pb2 C16 O10'
_cell_volume   470.99454847
_cell_formula_units_Z   2
loop_
 _symmetry_equiv_pos_site_id
 _symmetry_equiv_pos_as_xyz
  1  'x, y, z'
loop_
 _atom_site_type_symbol
 _atom_site_label
 _atom_site_symmetry_multiplicity
 _atom_site_fract_x
 _atom_site_fract_y
 _atom_site_fract_z
 _atom_site_occupancy
  H  H0  1  0.70938000  0.21363000  0.04455000  1.0
  H  H1  1  0.29066000  0.78636000  0.95544000  1.0
  H  H2  1  0.49490000  0.20864000  0.84525000  1.0
  H  H3  1  0.50511000  0.79134000  0.15474000  1.0
  H  H4  1  0.22261000  0.07349000  0.89373000  1.0
  H  H5  1  0.77741000  0.92650000  0.10626000  1.0
  H  H6  1  0.45817000  0.08686000  0.20868000  1.0
  H  H7  1  0.54182000  0.91313000  0.79131000  1.0
  H  H8  1  0.19938000  0.00083000  0.11124000  1.0
  H  H9  1  0.80064000  0.99916000  0.88874000  1.0
  H  H10  1  0.70037000  0.13561000  0.51360000  1.0
  H  H11  1  0.29958000  0.86442000  0.48641000  1.0
  H  H12  1  0.28818000  0.17695000  0.45557000  1.0
  H  H13  1  0.71182000  0.82305000  0.54444000  1.0
  H  H14  1  0.14095000  0.29519000  0.56107000  1.0
  H  H15  1  0.85905000  0.70483000  0.43893000  1.0
  H  H16  1  0.98905000  0.95803000  0.32439000  1.0
  H  H17  1  0.01093000  0.04197000  0.67562000  1.0
  H  H18  1  0.64396000  0.92781000  0.34693000  1.0
  H  H19  1  0.35605000  0.07220000  0.65307000  1.0
  H  H20  1  0.47262000  0.50748000  0.35964000  1.0
  H  H21  1  0.52737000  0.49252000  0.64037000  1.0
  H  H22  1  0.29171000  0.58804000  0.44837000  1.0
  H  H23  1  0.70831000  0.41199000  0.55164000  1.0
  Pb  Pb24  1  0.99293000  0.52674000  0.19167000  1.0
  Pb  Pb25  1  0.00704000  0.47323000  0.80833000  1.0
  C  C26  1  0.49483000  0.17654000  0.03277000  1.0
  C  C27  1  0.50520000  0.82338000  0.96723000  1.0
  C  C28  1  0.43723000  0.11049000  0.90703000  1.0
  C  C29  1  0.56278000  0.88949000  0.09295000  1.0
  C  C30  1  0.35717000  0.32464000  0.06679000  1.0
  C  C31  1  0.64289000  0.67538000  0.93321000  1.0
  C  C32  1  0.41507000  0.03830000  0.11898000  1.0
  C  C33  1  0.58493000  0.96175000  0.88099000  1.0
  C  C34  1  0.84497000  0.26975000  0.36728000  1.0
  C  C35  1  0.15501000  0.73025000  0.63271000  1.0
  C  C36  1  0.86080000  0.13126000  0.45080000  1.0
  C  C37  1  0.13920000  0.86873000  0.54923000  1.0
  C  C38  1  0.12696000  0.17132000  0.51871000  1.0
  C  C39  1  0.87300000  0.82869000  0.48128000  1.0
  C  C40  1  0.83773000  0.95859000  0.39183000  1.0
  C  C41  1  0.16226000  0.04142000  0.60818000  1.0
  O  O42  1  0.12128000  0.33294000  0.02823000  1.0
  O  O43  1  0.87870000  0.66705000  0.97177000  1.0
  O  O44  1  0.47075000  0.43491000  0.13994000  1.0
  O  O45  1  0.52931000  0.56508000  0.86007000  1.0
  O  O46  1  0.94548000  0.25648000  0.26664000  1.0
  O  O47  1  0.05447000  0.74351000  0.73334000  1.0
  O  O48  1  0.74866000  0.39956000  0.40293000  1.0
  O  O49  1  0.25135000  0.60046000  0.59709000  1.0
  O  O50  1  0.33553000  0.58284000  0.36376000  1.0
  O  O51  1  0.66447000  0.41717000  0.63625000  1.0
