# generated using pymatgen
data_HgH6C8(BrN2)2
_symmetry_space_group_name_H-M   'P 1'
_cell_length_a   4.05234000
_cell_length_b   10.84990000
_cell_length_c   12.59430000
_cell_angle_alpha   93.75390000
_cell_angle_beta   89.99980000
_cell_angle_gamma   89.99980000
_symmetry_Int_Tables_number   1
_chemical_formula_structural   HgH6C8(BrN2)2
_chemical_formula_sum   'Hg2 H12 C16 Br4 N8'
_cell_volume   552.55161518
_cell_formula_units_Z   2
loop_
 _symmetry_equiv_pos_site_id
 _symmetry_equiv_pos_as_xyz
  1  'x, y, z'
loop_
 _atom_site_type_symbol
 _atom_site_label
 _atom_site_symmetry_multiplicity
 _atom_site_fract_x
 _atom_site_fract_y
 _atom_site_fract_z
 _atom_site_occupancy
  Hg  Hg0  1  0.00003000  0.99999000  0.00000000  1.0
  Hg  Hg1  1  0.49999000  0.99999000  0.50000000  1.0
  H  H2  1  0.84978000  0.30596000  0.06216000  1.0
  H  H3  1  0.34976000  0.69404000  0.43784000  1.0
  H  H4  1  0.15026000  0.69405000  0.93785000  1.0
  H  H5  1  0.65020000  0.30596000  0.56216000  1.0
  H  H6  1  0.39087000  0.17039000  0.80019000  1.0
  H  H7  1  0.89085000  0.82960000  0.69982000  1.0
  H  H8  1  0.60915000  0.82961000  0.19982000  1.0
  H  H9  1  0.10911000  0.17040000  0.30018000  1.0
  H  H10  1  0.48678000  0.38997000  0.74749000  1.0
  H  H11  1  0.98672000  0.61002000  0.75250000  1.0
  H  H12  1  0.51326000  0.61002000  0.25251000  1.0
  H  H13  1  0.01324000  0.38998000  0.24748000  1.0
  C  C14  1  0.06101000  0.44654000  0.96628000  1.0
  C  C15  1  0.56094000  0.55346000  0.53373000  1.0
  C  C16  1  0.93906000  0.55346000  0.03374000  1.0
  C  C17  1  0.43899000  0.44654000  0.46626000  1.0
  C  C18  1  0.99721000  0.32516000  0.99266000  1.0
  C  C19  1  0.49715000  0.67483000  0.50734000  1.0
  C  C20  1  0.00287000  0.67483000  0.00735000  1.0
  C  C21  1  0.50279000  0.32517000  0.49265000  1.0
  C  C22  1  0.29041000  0.25018000  0.84668000  1.0
  C  C23  1  0.79037000  0.74980000  0.65331000  1.0
  C  C24  1  0.70962000  0.74981000  0.15331000  1.0
  C  C25  1  0.20958000  0.25020000  0.34668000  1.0
  C  C26  1  0.34631000  0.37125000  0.81881000  1.0
  C  C27  1  0.84628000  0.62875000  0.68119000  1.0
  C  C28  1  0.65369000  0.62875000  0.18119000  1.0
  C  C29  1  0.15368000  0.37126000  0.31880000  1.0
  Br  Br30  1  0.39471000  0.90975000  0.85765000  1.0
  Br  Br31  1  0.89471000  0.09023000  0.64235000  1.0
  Br  Br32  1  0.60536000  0.09025000  0.14235000  1.0
  Br  Br33  1  0.10526000  0.90977000  0.35765000  1.0
  N  N34  1  0.23314000  0.46904000  0.87795000  1.0
  N  N35  1  0.73308000  0.53095000  0.62205000  1.0
  N  N36  1  0.76692000  0.53095000  0.12205000  1.0
  N  N37  1  0.26688000  0.46905000  0.37794000  1.0
  N  N38  1  0.11178000  0.22832000  0.93291000  1.0
  N  N39  1  0.61176000  0.77167000  0.56709000  1.0
  N  N40  1  0.88825000  0.77168000  0.06711000  1.0
  N  N41  1  0.38819000  0.22833000  0.43290000  1.0
