# generated using pymatgen
data_ZnH6C4N3F
_symmetry_space_group_name_H-M   'P 1'
_cell_length_a   9.88681000
_cell_length_b   11.33640000
_cell_length_c   11.33640000
_cell_angle_alpha   111.91000000
_cell_angle_beta   106.90300000
_cell_angle_gamma   106.90300000
_symmetry_Int_Tables_number   1
_chemical_formula_structural   ZnH6C4N3F
_chemical_formula_sum   'Zn6 H36 C24 N18 F6'
_cell_volume   1007.37739472
_cell_formula_units_Z   6
loop_
 _symmetry_equiv_pos_site_id
 _symmetry_equiv_pos_as_xyz
  1  'x, y, z'
loop_
 _atom_site_type_symbol
 _atom_site_label
 _atom_site_symmetry_multiplicity
 _atom_site_fract_x
 _atom_site_fract_y
 _atom_site_fract_z
 _atom_site_occupancy
  Zn  Zn0  1  0.87438000  0.24885000  0.62438000  1.0
  Zn  Zn1  1  0.25000000  0.37554000  0.62446000  1.0
  Zn  Zn2  1  0.62562000  0.37562000  0.75116000  1.0
  Zn  Zn3  1  0.12562000  0.75115000  0.37562000  1.0
  Zn  Zn4  1  0.75000000  0.62446000  0.37554000  1.0
  Zn  Zn5  1  0.37438000  0.62438000  0.24884000  1.0
  H  H6  1  0.90069000  0.25913000  0.91009000  1.0
  H  H7  1  0.99071000  0.08990000  0.34907000  1.0
  H  H8  1  0.64154000  0.65081000  0.74078000  1.0
  H  H9  1  0.50929000  0.65093000  0.91010000  1.0
  H  H10  1  0.85846000  0.25922000  0.34919000  1.0
  H  H11  1  0.59931000  0.08990000  0.74087000  1.0
  H  H12  1  0.09931000  0.74087000  0.08991000  1.0
  H  H13  1  0.00929000  0.91010000  0.65093000  1.0
  H  H14  1  0.35846000  0.34919000  0.25922000  1.0
  H  H15  1  0.49071000  0.34907000  0.08990000  1.0
  H  H16  1  0.14154000  0.74077000  0.65081000  1.0
  H  H17  1  0.40069000  0.91009000  0.25913000  1.0
  H  H18  1  0.01353000  0.41215000  0.08399000  1.0
  H  H19  1  0.92955000  0.91597000  0.32815000  1.0
  H  H20  1  0.60130000  0.67179000  0.58781000  1.0
  H  H21  1  0.57045000  0.67186000  0.08404000  1.0
  H  H22  1  0.89870000  0.41219000  0.32821000  1.0
  H  H23  1  0.48647000  0.91601000  0.58784000  1.0
  H  H24  1  0.98647000  0.58785000  0.91601000  1.0
  H  H25  1  0.07045000  0.08403000  0.67185000  1.0
  H  H26  1  0.39870000  0.32821000  0.41219000  1.0
  H  H27  1  0.42955000  0.32814000  0.91597000  1.0
  H  H28  1  0.10130000  0.58781000  0.67179000  1.0
  H  H29  1  0.51353000  0.08399000  0.41215000  1.0
  H  H30  1  0.07245000  0.27491000  0.03951000  1.0
  H  H31  1  0.03303000  0.96049000  0.23543000  1.0
  H  H32  1  0.79747000  0.76461000  0.72509000  1.0
  H  H33  1  0.46697000  0.76457000  0.03951000  1.0
  H  H34  1  0.70253000  0.27491000  0.23539000  1.0
  H  H35  1  0.42756000  0.96049000  0.72509000  1.0
  H  H36  1  0.92756000  0.72509000  0.96049000  1.0
  H  H37  1  0.96697000  0.03951000  0.76457000  1.0
  H  H38  1  0.20253000  0.23539000  0.27491000  1.0
  H  H39  1  0.53303000  0.23543000  0.96049000  1.0
  H  H40  1  0.29747000  0.72509000  0.76461000  1.0
  H  H41  1  0.57244000  0.03951000  0.27491000  1.0
  C  C42  1  0.12153000  0.40265000  0.94517000  1.0
  C  C43  1  0.17642000  0.05478000  0.45751000  1.0
  C  C44  1  0.71896000  0.54257000  0.59730000  1.0
  C  C45  1  0.32358000  0.54249000  0.94522000  1.0
  C  C46  1  0.78104000  0.40270000  0.45743000  1.0
  C  C47  1  0.37847000  0.05483000  0.59735000  1.0
  C  C48  1  0.87847000  0.59735000  0.05483000  1.0
  C  C49  1  0.82358000  0.94522000  0.54249000  1.0
  C  C50  1  0.28104000  0.45743000  0.40270000  1.0
  C  C51  1  0.67642000  0.45751000  0.05478000  1.0
  C  C52  1  0.21896000  0.59730000  0.54257000  1.0
  C  C53  1  0.62153000  0.94517000  0.40265000  1.0
  C  C54  1  0.02014000  0.33234000  0.99683000  1.0
  C  C55  1  0.02337000  0.00313000  0.33553000  1.0
  C  C56  1  0.68779000  0.66446000  0.66761000  1.0
  C  C57  1  0.47664000  0.66447000  0.99687000  1.0
  C  C58  1  0.81222000  0.33239000  0.33554000  1.0
  C  C59  1  0.47986000  0.00317000  0.66766000  1.0
  C  C60  1  0.97986000  0.66766000  0.00317000  1.0
  C  C61  1  0.97663000  0.99687000  0.66447000  1.0
  C  C62  1  0.31221000  0.33554000  0.33239000  1.0
  C  C63  1  0.52336000  0.33553000  0.00313000  1.0
  C  C64  1  0.18778000  0.66761000  0.66446000  1.0
  C  C65  1  0.52014000  0.99683000  0.33234000  1.0
  N  N66  1  0.26638000  0.51640000  0.03288000  1.0
  N  N67  1  0.23362000  0.96712000  0.48359000  1.0
  N  N68  1  0.75000000  0.51647000  0.48353000  1.0
  N  N69  1  0.73362000  0.48360000  0.96712000  1.0
  N  N70  1  0.76638000  0.03288000  0.51640000  1.0
  N  N71  1  0.25000000  0.48353000  0.51647000  1.0
  N  N72  1  0.08890000  0.36042000  0.80876000  1.0
  N  N73  1  0.28015000  0.19120000  0.55169000  1.0
  N  N74  1  0.72851000  0.44837000  0.63953000  1.0
  N  N75  1  0.21985000  0.44831000  0.80880000  1.0
  N  N76  1  0.77149000  0.36047000  0.55163000  1.0
  N  N77  1  0.41110000  0.19124000  0.63958000  1.0
  N  N78  1  0.91110000  0.63958000  0.19124000  1.0
  N  N79  1  0.71984000  0.80880000  0.44831000  1.0
  N  N80  1  0.27149000  0.55163000  0.36047000  1.0
  N  N81  1  0.78015000  0.55169000  0.19120000  1.0
  N  N82  1  0.22851000  0.63953000  0.44837000  1.0
  N  N83  1  0.58890000  0.80876000  0.36042000  1.0
  F  F84  1  0.75000000  0.25914000  0.74087000  1.0
  F  F85  1  0.00914000  0.25909000  0.51827000  1.0
  F  F86  1  0.49086000  0.48173000  0.74091000  1.0
  F  F87  1  0.25000000  0.74086000  0.25913000  1.0
  F  F88  1  0.99086000  0.74091000  0.48173000  1.0
  F  F89  1  0.50914000  0.51827000  0.25909000  1.0
