# generated using pymatgen
data_ZnH11C18(NO)3
_symmetry_space_group_name_H-M   'P 1'
_cell_length_a   15.27840000
_cell_length_b   16.74580000
_cell_length_c   16.74534803
_cell_angle_alpha   77.98750124
_cell_angle_beta   62.85731200
_cell_angle_gamma   62.85800000
_symmetry_Int_Tables_number   1
_chemical_formula_structural   ZnH11C18(NO)3
_chemical_formula_sum   'Zn8 H88 C144 N24 O24'
_cell_volume   3392.63266540
_cell_formula_units_Z   8
loop_
 _symmetry_equiv_pos_site_id
 _symmetry_equiv_pos_as_xyz
  1  'x, y, z'
loop_
 _atom_site_type_symbol
 _atom_site_label
 _atom_site_symmetry_multiplicity
 _atom_site_fract_x
 _atom_site_fract_y
 _atom_site_fract_z
 _atom_site_occupancy
  Zn  Zn0  1  0.53173000  0.68683000  0.32551000  1.0
  Zn  Zn1  1  0.04405000  0.81317000  0.17452000  1.0
  Zn  Zn2  1  0.71855000  0.82550000  0.31319000  1.0
  Zn  Zn3  1  0.35724000  0.67451000  0.18681000  1.0
  Zn  Zn4  1  0.46827000  0.31317000  0.67449000  1.0
  Zn  Zn5  1  0.95595000  0.18683000  0.82548000  1.0
  Zn  Zn6  1  0.28145000  0.17450000  0.68681000  1.0
  Zn  Zn7  1  0.64276000  0.32549000  0.81319000  1.0
  H  H8  1  0.32930000  0.56271000  0.61877000  1.0
  H  H9  1  0.01078000  0.93728000  0.88126000  1.0
  H  H10  1  0.39201000  0.11877000  0.43729000  1.0
  H  H11  1  0.44808000  0.38123000  0.06271000  1.0
  H  H12  1  0.67070000  0.43729000  0.38123000  1.0
  H  H13  1  0.98922000  0.06272000  0.11874000  1.0
  H  H14  1  0.60800000  0.88123000  0.56271000  1.0
  H  H15  1  0.55192000  0.61877000  0.93729000  1.0
  H  H16  1  0.43450000  0.54763000  0.72875000  1.0
  H  H17  1  0.21086000  0.95236000  0.77127000  1.0
  H  H18  1  0.48216000  0.22872000  0.45236000  1.0
  H  H19  1  0.66324000  0.27128000  0.04764000  1.0
  H  H20  1  0.56550000  0.45237000  0.27125000  1.0
  H  H21  1  0.78914000  0.04763000  0.22873000  1.0
  H  H22  1  0.51784000  0.77128000  0.54764000  1.0
  H  H23  1  0.33676000  0.72872000  0.95236000  1.0
  H  H24  1  0.19535000  0.62275000  0.57653000  1.0
  H  H25  1  0.89464000  0.87726000  0.92347000  1.0
  H  H26  1  0.31809000  0.07655000  0.37725000  1.0
  H  H27  1  0.27189000  0.42346000  0.12274000  1.0
  H  H28  1  0.80465000  0.37725000  0.42347000  1.0
  H  H29  1  0.10536000  0.12274000  0.07653000  1.0
  H  H30  1  0.68191000  0.92345000  0.62275000  1.0
  H  H31  1  0.72811000  0.57654000  0.87726000  1.0
  H  H32  1  0.68311000  0.63065000  0.43436000  1.0
  H  H33  1  0.24815000  0.86932000  0.06564000  1.0
  H  H34  1  0.81376000  0.93436000  0.36933000  1.0
  H  H35  1  0.61745000  0.56566000  0.13065000  1.0
  H  H36  1  0.31689000  0.36935000  0.56564000  1.0
  H  H37  1  0.75186000  0.13068000  0.93436000  1.0
  H  H38  1  0.18624000  0.06564000  0.63067000  1.0
  H  H39  1  0.38255000  0.43434000  0.86935000  1.0
  H  H40  1  0.80415000  0.64428000  0.08530000  1.0
  H  H41  1  0.03373000  0.85572000  0.41469000  1.0
  H  H42  1  0.94841000  0.58532000  0.35573000  1.0
  H  H43  1  0.38949000  0.91467000  0.14429000  1.0
  H  H44  1  0.19585000  0.35572000  0.91470000  1.0
  H  H45  1  0.96627000  0.14428000  0.58531000  1.0
  H  H46  1  0.05159000  0.41468000  0.64427000  1.0
  H  H47  1  0.61051000  0.08533000  0.85571000  1.0
  H  H48  1  0.72804000  0.58646000  0.56781000  1.0
  H  H49  1  0.38232000  0.91353000  0.93219000  1.0
  H  H50  1  0.81450000  0.06780000  0.41352000  1.0
  H  H51  1  0.79582000  0.43222000  0.08647000  1.0
  H  H52  1  0.27196000  0.41354000  0.43219000  1.0
  H  H53  1  0.61768000  0.08647000  0.06781000  1.0
  H  H54  1  0.18550000  0.93220000  0.58648000  1.0
  H  H55  1  0.20417000  0.56778000  0.91353000  1.0
  H  H56  1  0.60466000  0.54937000  0.71224000  1.0
  H  H57  1  0.36627000  0.95063000  0.78776000  1.0
  H  H58  1  0.65403000  0.21223000  0.45063000  1.0
  H  H59  1  0.81689000  0.28777000  0.04939000  1.0
  H  H60  1  0.39534000  0.45063000  0.28776000  1.0
  H  H61  1  0.63373000  0.04937000  0.21224000  1.0
  H  H62  1  0.34597000  0.78777000  0.54937000  1.0
  H  H63  1  0.18311000  0.71223000  0.95061000  1.0
  H  H64  1  0.91226000  0.39020000  0.21250000  1.0
  H  H65  1  0.01497000  0.10981000  0.28749000  1.0
  H  H66  1  0.80247000  0.71250000  0.60983000  1.0
  H  H67  1  0.62478000  0.78750000  0.89019000  1.0
  H  H68  1  0.08774000  0.60980000  0.78750000  1.0
  H  H69  1  0.98503000  0.89019000  0.71251000  1.0
  H  H70  1  0.19753000  0.28750000  0.39017000  1.0
  H  H71  1  0.37522000  0.21250000  0.10981000  1.0
  H  H72  1  0.06753000  0.65134000  0.50917000  1.0
  H  H73  1  0.72805000  0.84866000  0.99083000  1.0
  H  H74  1  0.21885000  0.00917000  0.34867000  1.0
  H  H75  1  0.07669000  0.49082000  0.15134000  1.0
  H  H76  1  0.93247000  0.34866000  0.49083000  1.0
  H  H77  1  0.27195000  0.15134000  0.00917000  1.0
  H  H78  1  0.78115000  0.99083000  0.65133000  1.0
  H  H79  1  0.92331000  0.50918000  0.84866000  1.0
  H  H80  1  0.91857000  0.66935000  0.92800000  1.0
  H  H81  1  0.01595000  0.83064000  0.57199000  1.0
  H  H82  1  0.08790000  0.42802000  0.33064000  1.0
  H  H83  1  0.34658000  0.07198000  0.16938000  1.0
  H  H84  1  0.08143000  0.33065000  0.07200000  1.0
  H  H85  1  0.98405000  0.16936000  0.42801000  1.0
  H  H86  1  0.91210000  0.57198000  0.66936000  1.0
  H  H87  1  0.65342000  0.92802000  0.83062000  1.0
  H  H88  1  0.12462000  0.68381000  0.34377000  1.0
  H  H89  1  0.65221000  0.81617000  0.15622000  1.0
  H  H90  1  0.30843000  0.84378000  0.31618000  1.0
  H  H91  1  0.96839000  0.65621000  0.18382000  1.0
  H  H92  1  0.87538000  0.31619000  0.65623000  1.0
  H  H93  1  0.34779000  0.18383000  0.84378000  1.0
  H  H94  1  0.69157000  0.15622000  0.68382000  1.0
  H  H95  1  0.03161000  0.34379000  0.81618000  1.0
  C  C96  1  0.53300000  0.61360000  0.50797000  1.0
  C  C97  1  0.15456000  0.88639000  0.99204000  1.0
  C  C98  1  0.64659000  0.00798000  0.38640000  1.0
  C  C99  1  0.54096000  0.49203000  0.11359000  1.0
  C  C100  1  0.46700000  0.38640000  0.49203000  1.0
  C  C101  1  0.84544000  0.11361000  0.00796000  1.0
  C  C102  1  0.35341000  0.99202000  0.61360000  1.0
  C  C103  1  0.45903000  0.50797000  0.88641000  1.0
  C  C104  1  0.39526000  0.62121000  0.48981000  1.0
  C  C105  1  0.00627000  0.87879000  0.01021000  1.0
  C  C106  1  0.51646000  0.98982000  0.37879000  1.0
  C  C107  1  0.38506000  0.51020000  0.12120000  1.0
  C  C108  1  0.60474000  0.37879000  0.51019000  1.0
  C  C109  1  0.99373000  0.12121000  0.98979000  1.0
  C  C110  1  0.48354000  0.01018000  0.62121000  1.0
  C  C111  1  0.61494000  0.48980000  0.87880000  1.0
  C  C112  1  0.32046000  0.63701000  0.45134000  1.0
  C  C113  1  0.90880000  0.86300000  0.04866000  1.0
  C  C114  1  0.45745000  0.95135000  0.36299000  1.0
  C  C115  1  0.27179000  0.54866000  0.13701000  1.0
  C  C116  1  0.67954000  0.36299000  0.54866000  1.0
  C  C117  1  0.09120000  0.13700000  0.95134000  1.0
  C  C118  1  0.54255000  0.04865000  0.63701000  1.0
  C  C119  1  0.72821000  0.45134000  0.86299000  1.0
  C  C120  1  0.46529000  0.58810000  0.58997000  1.0
  C  C121  1  0.14337000  0.91188000  0.91004000  1.0
  C  C122  1  0.55340000  0.08997000  0.41189000  1.0
  C  C123  1  0.55525000  0.41003000  0.08812000  1.0
  C  C124  1  0.53471000  0.41190000  0.41003000  1.0
  C  C125  1  0.85664000  0.08812000  0.08995000  1.0
  C  C126  1  0.44660000  0.91003000  0.58811000  1.0
  C  C127  1  0.44475000  0.58997000  0.91188000  1.0
  C  C128  1  0.96050000  0.54527000  0.00179000  1.0
  C  C129  1  0.00757000  0.95473000  0.49820000  1.0
  C  C130  1  0.00577000  0.50180000  0.45473000  1.0
  C  C131  1  0.46231000  0.99819000  0.04527000  1.0
  C  C132  1  0.03950000  0.45473000  0.99821000  1.0
  C  C133  1  0.99243000  0.04527000  0.50180000  1.0
  C  C134  1  0.99423000  0.49820000  0.54527000  1.0
  C  C135  1  0.53768000  0.00181000  0.95473000  1.0
  C  C136  1  0.48807000  0.56552000  0.66546000  1.0
  C  C137  1  0.21904000  0.93447000  0.83455000  1.0
  C  C138  1  0.55360000  0.16545000  0.43448000  1.0
  C  C139  1  0.65352000  0.33455000  0.06554000  1.0
  C  C140  1  0.51193000  0.43448000  0.33454000  1.0
  C  C141  1  0.78096000  0.06553000  0.16545000  1.0
  C  C142  1  0.44640000  0.83455000  0.56552000  1.0
  C  C143  1  0.34648000  0.66545000  0.93446000  1.0
  C  C144  1  0.84919000  0.52101000  0.15616000  1.0
  C  C145  1  0.02636000  0.97899000  0.34383000  1.0
  C  C146  1  0.87019000  0.65616000  0.47901000  1.0
  C  C147  1  0.50537000  0.84383000  0.02101000  1.0
  C  C148  1  0.15082000  0.47899000  0.84384000  1.0
  C  C149  1  0.97364000  0.02101000  0.65617000  1.0
  C  C150  1  0.12981000  0.34384000  0.52099000  1.0
  C  C151  1  0.49463000  0.15617000  0.97899000  1.0
  C  C152  1  0.74504000  0.55309000  0.23867000  1.0
  C  C153  1  0.03681000  0.94691000  0.26133000  1.0
  C  C154  1  0.79814000  0.73867000  0.44693000  1.0
  C  C155  1  0.48373000  0.76133000  0.05309000  1.0
  C  C156  1  0.25496000  0.44691000  0.76133000  1.0
  C  C157  1  0.96319000  0.05309000  0.73867000  1.0
  C  C158  1  0.20186000  0.26133000  0.55307000  1.0
  C  C159  1  0.51627000  0.23867000  0.94691000  1.0
  C  C160  1  0.21868000  0.63635000  0.50479000  1.0
  C  C161  1  0.85982000  0.86366000  0.99521000  1.0
  C  C162  1  0.35502000  0.00481000  0.36365000  1.0
  C  C163  1  0.22347000  0.49521000  0.13633000  1.0
  C  C164  1  0.78132000  0.36366000  0.49521000  1.0
  C  C165  1  0.14018000  0.13634000  0.00479000  1.0
  C  C166  1  0.64498000  0.99520000  0.63635000  1.0
  C  C167  1  0.77653000  0.50479000  0.86367000  1.0
  C  C168  1  0.62958000  0.61281000  0.49788000  1.0
  C  C169  1  0.24028000  0.88716000  0.00213000  1.0
  C  C170  1  0.74241000  0.99787000  0.38717000  1.0
  C  C171  1  0.62743000  0.50214000  0.11283000  1.0
  C  C172  1  0.37042000  0.38719000  0.50212000  1.0
  C  C173  1  0.75972000  0.11284000  0.99787000  1.0
  C  C174  1  0.25759000  0.00213000  0.61283000  1.0
  C  C175  1  0.37257000  0.49786000  0.88717000  1.0
  C  C176  1  0.86587000  0.57630000  0.08192000  1.0
  C  C177  1  0.02413000  0.92369000  0.41807000  1.0
  C  C178  1  0.94217000  0.58192000  0.42371000  1.0
  C  C179  1  0.44783000  0.91806000  0.07631000  1.0
  C  C180  1  0.13413000  0.42370000  0.91808000  1.0
  C  C181  1  0.97586000  0.07631000  0.58194000  1.0
  C  C182  1  0.05783000  0.41808000  0.57629000  1.0
  C  C183  1  0.55217000  0.08194000  0.92369000  1.0
  C  C184  1  0.65339000  0.58865000  0.57280000  1.0
  C  C185  1  0.31485000  0.91133000  0.92720000  1.0
  C  C186  1  0.74205000  0.07279000  0.41134000  1.0
  C  C187  1  0.72617000  0.42722000  0.08866000  1.0
  C  C188  1  0.34661000  0.41135000  0.42720000  1.0
  C  C189  1  0.68515000  0.08867000  0.07280000  1.0
  C  C190  1  0.25795000  0.92721000  0.58866000  1.0
  C  C191  1  0.27383000  0.57278000  0.91134000  1.0
  C  C192  1  0.58319000  0.56675000  0.65524000  1.0
  C  C193  1  0.30519000  0.93324000  0.84476000  1.0
  C  C194  1  0.64996000  0.15524000  0.43323000  1.0
  C  C195  1  0.73844000  0.34478000  0.06676000  1.0
  C  C196  1  0.41681000  0.43325000  0.34476000  1.0
  C  C197  1  0.69481000  0.06676000  0.15524000  1.0
  C  C198  1  0.35004000  0.84476000  0.56677000  1.0
  C  C199  1  0.26157000  0.65522000  0.93323000  1.0
  C  C200  1  0.92822000  0.43192000  0.15289000  1.0
  C  C201  1  0.01306000  0.06807000  0.34710000  1.0
  C  C202  1  0.86016000  0.65288000  0.56809000  1.0
  C  C203  1  0.58114000  0.84711000  0.93192000  1.0
  C  C204  1  0.07178000  0.56808000  0.84711000  1.0
  C  C205  1  0.98694000  0.93193000  0.65290000  1.0
  C  C206  1  0.13984000  0.34712000  0.43191000  1.0
  C  C207  1  0.41887000  0.15289000  0.06808000  1.0
  C  C208  1  0.14646000  0.65230000  0.46797000  1.0
  C  C209  1  0.76672000  0.84771000  0.03203000  1.0
  C  C210  1  0.29873000  0.96798000  0.34771000  1.0
  C  C211  1  0.11443000  0.53203000  0.15228000  1.0
  C  C212  1  0.85354000  0.34770000  0.53203000  1.0
  C  C213  1  0.23328000  0.15229000  0.96797000  1.0
  C  C214  1  0.70127000  0.03202000  0.65229000  1.0
  C  C215  1  0.88558000  0.46797000  0.84772000  1.0
  C  C216  1  0.97909000  0.60057000  0.92442000  1.0
  C  C217  1  0.00407000  0.89943000  0.57558000  1.0
  C  C218  1  0.07965000  0.42443000  0.39942000  1.0
  C  C219  1  0.40352000  0.07556000  0.10058000  1.0
  C  C220  1  0.02091000  0.39944000  0.07558000  1.0
  C  C221  1  0.99593000  0.10057000  0.42442000  1.0
  C  C222  1  0.92035000  0.57557000  0.60058000  1.0
  C  C223  1  0.59648000  0.92444000  0.89942000  1.0
  C  C224  1  0.34892000  0.65220000  0.35663000  1.0
  C  C225  1  0.85774000  0.84781000  0.14336000  1.0
  C  C226  1  0.50109000  0.85665000  0.34781000  1.0
  C  C227  1  0.20555000  0.64336000  0.15219000  1.0
  C  C228  1  0.65108000  0.34780000  0.64337000  1.0
  C  C229  1  0.14226000  0.15219000  0.85664000  1.0
  C  C230  1  0.49891000  0.14335000  0.65219000  1.0
  C  C231  1  0.79444000  0.35664000  0.84782000  1.0
  C  C232  1  0.17791000  0.66908000  0.37645000  1.0
  C  C233  1  0.72343000  0.83092000  0.12355000  1.0
  C  C234  1  0.34697000  0.87647000  0.33092000  1.0
  C  C235  1  0.05435000  0.62354000  0.16908000  1.0
  C  C236  1  0.82209000  0.33092000  0.62355000  1.0
  C  C237  1  0.27657000  0.16908000  0.87645000  1.0
  C  C238  1  0.65303000  0.12353000  0.66908000  1.0
  C  C239  1  0.94565000  0.37646000  0.83092000  1.0
  N  N240  1  0.38055000  0.59270000  0.57592000  1.0
  N  N241  1  0.04918000  0.90728000  0.92410000  1.0
  N  N242  1  0.47326000  0.07593000  0.40729000  1.0
  N  N243  1  0.45646000  0.42409000  0.09271000  1.0
  N  N244  1  0.61945000  0.40730000  0.42408000  1.0
  N  N245  1  0.95082000  0.09272000  0.07590000  1.0
  N  N246  1  0.52674000  0.92407000  0.59271000  1.0
  N  N247  1  0.54354000  0.57591000  0.90729000  1.0
  N  N248  1  0.27549000  0.66895000  0.32337000  1.0
  N  N249  1  0.76781000  0.83106000  0.17663000  1.0
  N  N250  1  0.44441000  0.82338000  0.33107000  1.0
  N  N251  1  0.09886000  0.67662000  0.16895000  1.0
  N  N252  1  0.72451000  0.33105000  0.67663000  1.0
  N  N253  1  0.23219000  0.16894000  0.82337000  1.0
  N  N254  1  0.55559000  0.17662000  0.66893000  1.0
  N  N255  1  0.90114000  0.32338000  0.83105000  1.0
  N  N256  1  0.48627000  0.63511000  0.44793000  1.0
  N  N257  1  0.06932000  0.86486000  0.05208000  1.0
  N  N258  1  0.62139000  0.94794000  0.36488000  1.0
  N  N259  1  0.43420000  0.55207000  0.13512000  1.0
  N  N260  1  0.51373000  0.36489000  0.55207000  1.0
  N  N261  1  0.93068000  0.13514000  0.94792000  1.0
  N  N262  1  0.37862000  0.05206000  0.63512000  1.0
  N  N263  1  0.56580000  0.44793000  0.86488000  1.0
  O  O264  1  0.67512000  0.63244000  0.23153000  1.0
  O  O265  1  0.03910000  0.86755000  0.26848000  1.0
  O  O266  1  0.80755000  0.73153000  0.36758000  1.0
  O  O267  1  0.40663000  0.76849000  0.13244000  1.0
  O  O268  1  0.32488000  0.36756000  0.76847000  1.0
  O  O269  1  0.96091000  0.13245000  0.73151000  1.0
  O  O270  1  0.19245000  0.26847000  0.63242000  1.0
  O  O271  1  0.59337000  0.23151000  0.86756000  1.0
  O  O272  1  0.73222000  0.50303000  0.30623000  1.0
  O  O273  1  0.04143000  0.99698000  0.19378000  1.0
  O  O274  1  0.73524000  0.80622000  0.49700000  1.0
  O  O275  1  0.53845000  0.69378000  0.00302000  1.0
  O  O276  1  0.26778000  0.49697000  0.69377000  1.0
  O  O277  1  0.95857000  0.00302000  0.80622000  1.0
  O  O278  1  0.26477000  0.19378000  0.50300000  1.0
  O  O279  1  0.46156000  0.30622000  0.99698000  1.0
  O  O280  1  0.44046000  0.65063000  0.29617000  1.0
  O  O281  1  0.88724000  0.84939000  0.20383000  1.0
  O  O282  1  0.59106000  0.79619000  0.34940000  1.0
  O  O283  1  0.23663000  0.70381000  0.15064000  1.0
  O  O284  1  0.55954000  0.34937000  0.70383000  1.0
  O  O285  1  0.11276000  0.15061000  0.79617000  1.0
  O  O286  1  0.40894000  0.20381000  0.65060000  1.0
  O  O287  1  0.76337000  0.29619000  0.84936000  1.0
