# generated using pymatgen
data_SrH8C14SO6
_symmetry_space_group_name_H-M   'P 1'
_cell_length_a   5.70858000
_cell_length_b   11.88270000
_cell_length_c   23.50230000
_cell_angle_alpha   100.38100000
_cell_angle_beta   89.99840000
_cell_angle_gamma   89.99860000
_symmetry_Int_Tables_number   1
_chemical_formula_structural   SrH8C14SO6
_chemical_formula_sum   'Sr4 H32 C56 S4 O24'
_cell_volume   1568.14392635
_cell_formula_units_Z   4
loop_
 _symmetry_equiv_pos_site_id
 _symmetry_equiv_pos_as_xyz
  1  'x, y, z'
loop_
 _atom_site_type_symbol
 _atom_site_label
 _atom_site_symmetry_multiplicity
 _atom_site_fract_x
 _atom_site_fract_y
 _atom_site_fract_z
 _atom_site_occupancy
  Sr  Sr0  1  0.23601000  0.62794000  0.22003000  1.0
  Sr  Sr1  1  0.73595000  0.87196000  0.27997000  1.0
  Sr  Sr2  1  0.76406000  0.37205000  0.77996000  1.0
  Sr  Sr3  1  0.26405000  0.12803000  0.72003000  1.0
  H  H4  1  0.54169000  0.37456000  0.93251000  1.0
  H  H5  1  0.04172000  0.12548000  0.56748000  1.0
  H  H6  1  0.45830000  0.62545000  0.06750000  1.0
  H  H7  1  0.95827000  0.87449000  0.43251000  1.0
  H  H8  1  0.44422000  0.42431000  0.03816000  1.0
  H  H9  1  0.94417000  0.07566000  0.46184000  1.0
  H  H10  1  0.55575000  0.57570000  0.96185000  1.0
  H  H11  1  0.05577000  0.92432000  0.53815000  1.0
  H  H12  1  0.76615000  0.26662000  0.00319000  1.0
  H  H13  1  0.26610000  0.23336000  0.49681000  1.0
  H  H14  1  0.23385000  0.73336000  0.99680000  1.0
  H  H15  1  0.73387000  0.76665000  0.50320000  1.0
  H  H16  1  0.86437000  0.21914000  0.89776000  1.0
  H  H17  1  0.36438000  0.28094000  0.60224000  1.0
  H  H18  1  0.13566000  0.78086000  0.10224000  1.0
  H  H19  1  0.63563000  0.71906000  0.39777000  1.0
  H  H20  1  0.43359000  0.35195000  0.16199000  1.0
  H  H21  1  0.93354000  0.14795000  0.33801000  1.0
  H  H22  1  0.56639000  0.64805000  0.83801000  1.0
  H  H23  1  0.06644000  0.85204000  0.66199000  1.0
  H  H24  1  0.52602000  0.19647000  0.21761000  1.0
  H  H25  1  0.02604000  0.30344000  0.28240000  1.0
  H  H26  1  0.47396000  0.80353000  0.78239000  1.0
  H  H27  1  0.97399000  0.69655000  0.71760000  1.0
  H  H28  1  0.85475000  0.04200000  0.17301000  1.0
  H  H29  1  0.35474000  0.45794000  0.32698000  1.0
  H  H30  1  0.14522000  0.95800000  0.82699000  1.0
  H  H31  1  0.64532000  0.54210000  0.67301000  1.0
  H  H32  1  0.76372000  0.19260000  0.11454000  1.0
  H  H33  1  0.26368000  0.30734000  0.38546000  1.0
  H  H34  1  0.23625000  0.80740000  0.88547000  1.0
  H  H35  1  0.73635000  0.69270000  0.61454000  1.0
  C  C36  1  0.26582000  0.26922000  0.84586000  1.0
  C  C37  1  0.76583000  0.23086000  0.65413000  1.0
  C  C38  1  0.73422000  0.73079000  0.15414000  1.0
  C  C39  1  0.23417000  0.76912000  0.34587000  1.0
  C  C40  1  0.20962000  0.29402000  0.90926000  1.0
  C  C41  1  0.70964000  0.20604000  0.59073000  1.0
  C  C42  1  0.79040000  0.70598000  0.09074000  1.0
  C  C43  1  0.29037000  0.79394000  0.40927000  1.0
  C  C44  1  0.37340000  0.35062000  0.94862000  1.0
  C  C45  1  0.87339000  0.14941000  0.55137000  1.0
  C  C46  1  0.62660000  0.64938000  0.05138000  1.0
  C  C47  1  0.12657000  0.85058000  0.44863000  1.0
  C  C48  1  0.31909000  0.37922000  0.00722000  1.0
  C  C49  1  0.81904000  0.12077000  0.49276000  1.0
  C  C50  1  0.68090000  0.62078000  0.99278000  1.0
  C  C51  1  0.18089000  0.87922000  0.50722000  1.0
  C  C52  1  0.09890000  0.34927000  0.02577000  1.0
  C  C53  1  0.59884000  0.15071000  0.47423000  1.0
  C  C54  1  0.90110000  0.65073000  0.97423000  1.0
  C  C55  1  0.40112000  0.84929000  0.52576000  1.0
  C  C56  1  0.93605000  0.28912000  0.98742000  1.0
  C  C57  1  0.43602000  0.21088000  0.51258000  1.0
  C  C58  1  0.06395000  0.71086000  0.01258000  1.0
  C  C59  1  0.56396000  0.78913000  0.48743000  1.0
  C  C60  1  0.99139000  0.26250000  0.92885000  1.0
  C  C61  1  0.49140000  0.23754000  0.57114000  1.0
  C  C62  1  0.00863000  0.73749000  0.07115000  1.0
  C  C63  1  0.50860000  0.76245000  0.42886000  1.0
  C  C64  1  0.09383000  0.27993000  0.13527000  1.0
  C  C65  1  0.59376000  0.21999000  0.36472000  1.0
  C  C66  1  0.90616000  0.72007000  0.86473000  1.0
  C  C67  1  0.40623000  0.78004000  0.63527000  1.0
  C  C68  1  0.30975000  0.28283000  0.16351000  1.0
  C  C69  1  0.80971000  0.21708000  0.33649000  1.0
  C  C70  1  0.69022000  0.71717000  0.83649000  1.0
  C  C71  1  0.19029000  0.78292000  0.66351000  1.0
  C  C72  1  0.36061000  0.19644000  0.19456000  1.0
  C  C73  1  0.86062000  0.30347000  0.30545000  1.0
  C  C74  1  0.63935000  0.80356000  0.80544000  1.0
  C  C75  1  0.13941000  0.69653000  0.69456000  1.0
  C  C76  1  0.19748000  0.11000000  0.19827000  1.0
  C  C77  1  0.69749000  0.38991000  0.30174000  1.0
  C  C78  1  0.80250000  0.89000000  0.80174000  1.0
  C  C79  1  0.30256000  0.61010000  0.69827000  1.0
  C  C80  1  0.98297000  0.10808000  0.16901000  1.0
  C  C81  1  0.48295000  0.39185000  0.33099000  1.0
  C  C82  1  0.01701000  0.89192000  0.83099000  1.0
  C  C83  1  0.51710000  0.60818000  0.66901000  1.0
  C  C84  1  0.93115000  0.19230000  0.13674000  1.0
  C  C85  1  0.43110000  0.30762000  0.36325000  1.0
  C  C86  1  0.06884000  0.80770000  0.86326000  1.0
  C  C87  1  0.56893000  0.69241000  0.63675000  1.0
  C  C88  1  0.25196000  0.02224000  0.23569000  1.0
  C  C89  1  0.75200000  0.47767000  0.26431000  1.0
  C  C90  1  0.74803000  0.97775000  0.76431000  1.0
  C  C91  1  0.24809000  0.52234000  0.73569000  1.0
  S  S92  1  0.01663000  0.39329000  0.09925000  1.0
  S  S93  1  0.51657000  0.10664000  0.40076000  1.0
  S  S94  1  0.98335000  0.60671000  0.90075000  1.0
  S  S95  1  0.48338000  0.89337000  0.59924000  1.0
  O  O96  1  0.46672000  0.00441000  0.24471000  1.0
  O  O97  1  0.96677000  0.49552000  0.25532000  1.0
  O  O98  1  0.53327000  0.99559000  0.75530000  1.0
  O  O99  1  0.03333000  0.50448000  0.74469000  1.0
  O  O100  1  0.07999000  0.97487000  0.25599000  1.0
  O  O101  1  0.58002000  0.52500000  0.24399000  1.0
  O  O102  1  0.92002000  0.02511000  0.74401000  1.0
  O  O103  1  0.42007000  0.47501000  0.75600000  1.0
  O  O104  1  0.47808000  0.25983000  0.82982000  1.0
  O  O105  1  0.97808000  0.24026000  0.67016000  1.0
  O  O106  1  0.52198000  0.74020000  0.17019000  1.0
  O  O107  1  0.02192000  0.75972000  0.32983000  1.0
  O  O108  1  0.09315000  0.25615000  0.81057000  1.0
  O  O109  1  0.59317000  0.24393000  0.68942000  1.0
  O  O110  1  0.90689000  0.74384000  0.18943000  1.0
  O  O111  1  0.40685000  0.75605000  0.31058000  1.0
  O  O112  1  0.16485000  0.49145000  0.12218000  1.0
  O  O113  1  0.66478000  0.00847000  0.37782000  1.0
  O  O114  1  0.83513000  0.50854000  0.87782000  1.0
  O  O115  1  0.33512000  0.99153000  0.62217000  1.0
  O  O116  1  0.76389000  0.40582000  0.10134000  1.0
  O  O117  1  0.26382000  0.09412000  0.39867000  1.0
  O  O118  1  0.23609000  0.59417000  0.89866000  1.0
  O  O119  1  0.73612000  0.90593000  0.60133000  1.0
