# generated using pymatgen
data_ErH6C9NO7
_symmetry_space_group_name_H-M   'P 1'
_cell_length_a   7.52741000
_cell_length_b   8.33570000
_cell_length_c   17.02980000
_cell_angle_alpha   90.00000000
_cell_angle_beta   90.00010000
_cell_angle_gamma   104.40600000
_symmetry_Int_Tables_number   1
_chemical_formula_structural   ErH6C9NO7
_chemical_formula_sum   'Er4 H24 C36 N4 O28'
_cell_volume   1034.95729546
_cell_formula_units_Z   4
loop_
 _symmetry_equiv_pos_site_id
 _symmetry_equiv_pos_as_xyz
  1  'x, y, z'
loop_
 _atom_site_type_symbol
 _atom_site_label
 _atom_site_symmetry_multiplicity
 _atom_site_fract_x
 _atom_site_fract_y
 _atom_site_fract_z
 _atom_site_occupancy
  Er  Er0  1  0.22035000  0.93160000  0.28340000  1.0
  Er  Er1  1  0.77965000  0.56840000  0.78340000  1.0
  Er  Er2  1  0.77965000  0.06839000  0.71660000  1.0
  Er  Er3  1  0.22035000  0.43160000  0.21660000  1.0
  H  H4  1  0.43134000  0.29908000  0.97572000  1.0
  H  H5  1  0.56866000  0.20092000  0.47572000  1.0
  H  H6  1  0.56866000  0.70092000  0.02428000  1.0
  H  H7  1  0.43134000  0.79908000  0.52428000  1.0
  H  H8  1  0.31415000  0.89061000  0.81291000  1.0
  H  H9  1  0.68585000  0.60938000  0.31291000  1.0
  H  H10  1  0.68585000  0.10938000  0.18709000  1.0
  H  H11  1  0.31415000  0.39062000  0.68709000  1.0
  H  H12  1  0.12354000  0.80908000  0.04165000  1.0
  H  H13  1  0.87646000  0.69093000  0.54165000  1.0
  H  H14  1  0.87646000  0.19092000  0.95835000  1.0
  H  H15  1  0.12354000  0.30908000  0.45835000  1.0
  H  H16  1  0.73642000  0.47734000  0.16978000  1.0
  H  H17  1  0.26358000  0.02266000  0.66978000  1.0
  H  H18  1  0.26358000  0.52267000  0.83022000  1.0
  H  H19  1  0.73642000  0.97734000  0.33022000  1.0
  H  H20  1  0.82779000  0.60238000  0.08725000  1.0
  H  H21  1  0.17222000  0.89763000  0.58725000  1.0
  H  H22  1  0.17221000  0.39763000  0.91275000  1.0
  H  H23  1  0.82778000  0.10237000  0.41275000  1.0
  H  H24  1  0.90897000  0.33187000  0.10189000  1.0
  H  H25  1  0.09104000  0.16813000  0.60189000  1.0
  H  H26  1  0.09103000  0.66813000  0.89811000  1.0
  H  H27  1  0.90896000  0.83187000  0.39811000  1.0
  C  C28  1  0.26014000  0.11683000  0.10238000  1.0
  C  C29  1  0.73986000  0.38316000  0.60238000  1.0
  C  C30  1  0.73986000  0.88317000  0.89762000  1.0
  C  C31  1  0.26014000  0.61684000  0.39762000  1.0
  C  C32  1  0.27577000  0.06157000  0.01937000  1.0
  C  C33  1  0.72423000  0.43843000  0.51937000  1.0
  C  C34  1  0.72423000  0.93843000  0.98063000  1.0
  C  C35  1  0.27576000  0.56157000  0.48063000  1.0
  C  C36  1  0.36933000  0.16955000  0.96182000  1.0
  C  C37  1  0.63067000  0.33045000  0.46182000  1.0
  C  C38  1  0.63066000  0.83045000  0.03818000  1.0
  C  C39  1  0.36934000  0.66955000  0.53818000  1.0
  C  C40  1  0.38670000  0.10864000  0.88663000  1.0
  C  C41  1  0.61329000  0.39136000  0.38663000  1.0
  C  C42  1  0.61329000  0.89135000  0.11338000  1.0
  C  C43  1  0.38671000  0.60865000  0.61337000  1.0
  C  C44  1  0.30371000  0.94245000  0.87099000  1.0
  C  C45  1  0.69629000  0.55756000  0.37099000  1.0
  C  C46  1  0.69629000  0.05756000  0.12901000  1.0
  C  C47  1  0.30371000  0.44244000  0.62901000  1.0
  C  C48  1  0.19779000  0.89704000  0.99842000  1.0
  C  C49  1  0.80221000  0.60296000  0.49842000  1.0
  C  C50  1  0.80221000  0.10296000  0.00158000  1.0
  C  C51  1  0.19778000  0.39703000  0.50158000  1.0
  C  C52  1  0.95976000  0.68308000  0.19689000  1.0
  C  C53  1  0.04025000  0.81692000  0.69689000  1.0
  C  C54  1  0.04025000  0.31692000  0.80311000  1.0
  C  C55  1  0.95976000  0.18308000  0.30311000  1.0
  C  C56  1  0.86480000  0.54683000  0.14167000  1.0
  C  C57  1  0.13521000  0.95318000  0.64168000  1.0
  C  C58  1  0.13520000  0.45318000  0.85833000  1.0
  C  C59  1  0.86479000  0.04682000  0.35832000  1.0
  C  C60  1  0.49428000  0.21605000  0.82366000  1.0
  C  C61  1  0.50572000  0.28395000  0.32366000  1.0
  C  C62  1  0.50572000  0.78395000  0.17634000  1.0
  C  C63  1  0.49428000  0.71605000  0.67634000  1.0
  N  N64  1  0.20859000  0.83985000  0.92542000  1.0
  N  N65  1  0.79141000  0.66015000  0.42542000  1.0
  N  N66  1  0.79141000  0.16015000  0.07458000  1.0
  N  N67  1  0.20858000  0.33985000  0.57458000  1.0
  O  O68  1  0.25219000  0.00713000  0.15476000  1.0
  O  O69  1  0.74780000  0.49286000  0.65476000  1.0
  O  O70  1  0.74782000  0.99288000  0.84524000  1.0
  O  O71  1  0.25219000  0.50714000  0.34525000  1.0
  O  O72  1  0.90108000  0.80719000  0.21262000  1.0
  O  O73  1  0.09891000  0.69281000  0.71262000  1.0
  O  O74  1  0.09893000  0.19281000  0.78737000  1.0
  O  O75  1  0.90109000  0.30718000  0.28738000  1.0
  O  O76  1  0.52070000  0.14842000  0.75934000  1.0
  O  O77  1  0.47930000  0.35157000  0.25935000  1.0
  O  O78  1  0.47930000  0.85158000  0.24066000  1.0
  O  O79  1  0.52070000  0.64843000  0.74066000  1.0
  O  O80  1  0.98593000  0.44342000  0.12563000  1.0
  O  O81  1  0.01407000  0.05657000  0.62563000  1.0
  O  O82  1  0.01407000  0.55657000  0.87437000  1.0
  O  O83  1  0.98593000  0.94343000  0.37437000  1.0
  O  O84  1  0.25692000  0.26684000  0.11304000  1.0
  O  O85  1  0.74308000  0.23314000  0.61304000  1.0
  O  O86  1  0.74308000  0.73316000  0.88696000  1.0
  O  O87  1  0.25692000  0.76685000  0.38696000  1.0
  O  O88  1  0.11113000  0.66549000  0.22805000  1.0
  O  O89  1  0.88886000  0.83451000  0.72805000  1.0
  O  O90  1  0.88887000  0.33451000  0.77195000  1.0
  O  O91  1  0.11113000  0.16548000  0.27195000  1.0
  O  O92  1  0.55544000  0.36923000  0.83977000  1.0
  O  O93  1  0.44456000  0.13076000  0.33978000  1.0
  O  O94  1  0.44456000  0.63076000  0.16023000  1.0
  O  O95  1  0.55544000  0.86924000  0.66022000  1.0
