# generated using pymatgen
data_CdH8C8(SN2)2
_symmetry_space_group_name_H-M   'P 1'
_cell_length_a   8.27463000
_cell_length_b   8.27455000
_cell_length_c   8.46559000
_cell_angle_alpha   99.78290000
_cell_angle_beta   99.78190000
_cell_angle_gamma   100.77900000
_symmetry_Int_Tables_number   1
_chemical_formula_structural   CdH8C8(SN2)2
_chemical_formula_sum   'Cd2 H16 C16 S4 N8'
_cell_volume   548.81066492
_cell_formula_units_Z   2
loop_
 _symmetry_equiv_pos_site_id
 _symmetry_equiv_pos_as_xyz
  1  'x, y, z'
loop_
 _atom_site_type_symbol
 _atom_site_label
 _atom_site_symmetry_multiplicity
 _atom_site_fract_x
 _atom_site_fract_y
 _atom_site_fract_z
 _atom_site_occupancy
  Cd  Cd0  1  0.29198000  0.70801000  0.75000000  1.0
  Cd  Cd1  1  0.70802000  0.29199000  0.25000000  1.0
  H  H2  1  0.06637000  0.53861000  0.88809000  1.0
  H  H3  1  0.46139000  0.93363000  0.61191000  1.0
  H  H4  1  0.93363000  0.46139000  0.11191000  1.0
  H  H5  1  0.53861000  0.06637000  0.38809000  1.0
  H  H6  1  0.24177000  0.49133000  0.97887000  1.0
  H  H7  1  0.50867000  0.75822000  0.52112000  1.0
  H  H8  1  0.75822000  0.50867000  0.02113000  1.0
  H  H9  1  0.49133000  0.24178000  0.47888000  1.0
  H  H10  1  0.38242000  0.61759000  0.25000000  1.0
  H  H11  1  0.61758000  0.38242000  0.75000000  1.0
  H  H12  1  0.98777000  0.80847000  0.99222000  1.0
  H  H13  1  0.19152000  0.01222000  0.50777000  1.0
  H  H14  1  0.01222000  0.19153000  0.00778000  1.0
  H  H15  1  0.80847000  0.98778000  0.49223000  1.0
  H  H16  1  0.99307000  0.00692000  0.25000000  1.0
  H  H17  1  0.00693000  0.99307000  0.75000000  1.0
  C  C18  1  0.11413000  0.34947000  0.46113000  1.0
  C  C19  1  0.65054000  0.88586000  0.03886000  1.0
  C  C20  1  0.88587000  0.65055000  0.53886000  1.0
  C  C21  1  0.34947000  0.11413000  0.96114000  1.0
  C  C22  1  0.18373000  0.69956000  0.10602000  1.0
  C  C23  1  0.30044000  0.81626000  0.39397000  1.0
  C  C24  1  0.81626000  0.30044000  0.89398000  1.0
  C  C25  1  0.69956000  0.18373000  0.60603000  1.0
  C  C26  1  0.29699000  0.70300000  0.25000000  1.0
  C  C27  1  0.70301000  0.29699000  0.75000000  1.0
  C  C28  1  0.07427000  0.80986000  0.10531000  1.0
  C  C29  1  0.19014000  0.92573000  0.39469000  1.0
  C  C30  1  0.92573000  0.19014000  0.89469000  1.0
  C  C31  1  0.80986000  0.07427000  0.60531000  1.0
  C  C32  1  0.07843000  0.92156000  0.25000000  1.0
  C  C33  1  0.92157000  0.07844000  0.75000000  1.0
  S  S34  1  0.28412000  0.38141000  0.60282000  1.0
  S  S35  1  0.61859000  0.71589000  0.89718000  1.0
  S  S36  1  0.71589000  0.61860000  0.39718000  1.0
  S  S37  1  0.38140000  0.28410000  0.10281000  1.0
  N  N38  1  0.99113000  0.32349000  0.35808000  1.0
  N  N39  1  0.67651000  0.00887000  0.14192000  1.0
  N  N40  1  0.00888000  0.67652000  0.64192000  1.0
  N  N41  1  0.32350000  0.99114000  0.85809000  1.0
  N  N42  1  0.18433000  0.58788000  0.95859000  1.0
  N  N43  1  0.41211000  0.81567000  0.54140000  1.0
  N  N44  1  0.81567000  0.41211000  0.04141000  1.0
  N  N45  1  0.58789000  0.18433000  0.45860000  1.0
