# generated using pymatgen
data_CoH4CSeNO3
_symmetry_space_group_name_H-M   'P 1'
_cell_length_a   6.70371000
_cell_length_b   7.87804000
_cell_length_c   9.43236000
_cell_angle_alpha   89.99990000
_cell_angle_beta   89.99990000
_cell_angle_gamma   67.52300000
_symmetry_Int_Tables_number   1
_chemical_formula_structural   CoH4CSeNO3
_chemical_formula_sum   'Co4 H16 C4 Se4 N4 O12'
_cell_volume   460.30032946
_cell_formula_units_Z   4
loop_
 _symmetry_equiv_pos_site_id
 _symmetry_equiv_pos_as_xyz
  1  'x, y, z'
loop_
 _atom_site_type_symbol
 _atom_site_label
 _atom_site_symmetry_multiplicity
 _atom_site_fract_x
 _atom_site_fract_y
 _atom_site_fract_z
 _atom_site_occupancy
  Co  Co0  1  0.17125000  0.89113000  0.22773000  1.0
  Co  Co1  1  0.32875000  0.60887000  0.72773000  1.0
  Co  Co2  1  0.82875000  0.10887000  0.77227000  1.0
  Co  Co3  1  0.67124000  0.39113000  0.27227000  1.0
  H  H4  1  0.59564000  0.84454000  0.39156000  1.0
  H  H5  1  0.90436000  0.65545000  0.89156000  1.0
  H  H6  1  0.40436000  0.15546000  0.60844000  1.0
  H  H7  1  0.09564000  0.34455000  0.10844000  1.0
  H  H8  1  0.40997000  0.85010000  0.52612000  1.0
  H  H9  1  0.09003000  0.64990000  0.02612000  1.0
  H  H10  1  0.59003000  0.14990000  0.47388000  1.0
  H  H11  1  0.90997000  0.35010000  0.97388000  1.0
  H  H12  1  0.32846000  0.12509000  0.29919000  1.0
  H  H13  1  0.17154000  0.37492000  0.79919000  1.0
  H  H14  1  0.67154000  0.87492000  0.70081000  1.0
  H  H15  1  0.82846000  0.62509000  0.20081000  1.0
  H  H16  1  0.14845000  0.12521000  0.41757000  1.0
  H  H17  1  0.35155000  0.37478000  0.91758000  1.0
  H  H18  1  0.85155000  0.87479000  0.58242000  1.0
  H  H19  1  0.64846000  0.62521000  0.08243000  1.0
  C  C20  1  0.46187000  0.93681000  0.45644000  1.0
  C  C21  1  0.03813000  0.56319000  0.95644000  1.0
  C  C22  1  0.53813000  0.06319000  0.54356000  1.0
  C  C23  1  0.96187000  0.43681000  0.04356000  1.0
  Se  Se24  1  0.19164000  0.56798000  0.40001000  1.0
  Se  Se25  1  0.30836000  0.93202000  0.90000000  1.0
  Se  Se26  1  0.80836000  0.43202000  0.60000000  1.0
  Se  Se27  1  0.69164000  0.06798000  0.10000000  1.0
  N  N28  1  0.28097000  0.03914000  0.36135000  1.0
  N  N29  1  0.21902000  0.46086000  0.86134000  1.0
  N  N30  1  0.71903000  0.96086000  0.63866000  1.0
  N  N31  1  0.78096000  0.53914000  0.13865000  1.0
  O  O32  1  0.00831000  0.74394000  0.29868000  1.0
  O  O33  1  0.49169000  0.75607000  0.79868000  1.0
  O  O34  1  0.99169000  0.25607000  0.70132000  1.0
  O  O35  1  0.50831000  0.24394000  0.20132000  1.0
  O  O36  1  0.13314000  0.67153000  0.56637000  1.0
  O  O37  1  0.36686000  0.82847000  0.06637000  1.0
  O  O38  1  0.86685000  0.32847000  0.43363000  1.0
  O  O39  1  0.63314000  0.17153000  0.93363000  1.0
  O  O40  1  0.41746000  0.60494000  0.34372000  1.0
  O  O41  1  0.08254000  0.89506000  0.84372000  1.0
  O  O42  1  0.58254000  0.39506000  0.65628000  1.0
  O  O43  1  0.91746000  0.10494000  0.15628000  1.0
