# generated using pymatgen
data_Al2H56C49O11
_symmetry_space_group_name_H-M   'P 1'
_cell_length_a   6.84465000
_cell_length_b   21.43490000
_cell_length_c   21.65540000
_cell_angle_alpha   93.06000000
_cell_angle_beta   89.99980000
_cell_angle_gamma   89.99950000
_symmetry_Int_Tables_number   1
_chemical_formula_structural   Al2H56C49O11
_chemical_formula_sum   'Al4 H112 C98 O22'
_cell_volume   3172.62871097
_cell_formula_units_Z   2
loop_
 _symmetry_equiv_pos_site_id
 _symmetry_equiv_pos_as_xyz
  1  'x, y, z'
loop_
 _atom_site_type_symbol
 _atom_site_label
 _atom_site_symmetry_multiplicity
 _atom_site_fract_x
 _atom_site_fract_y
 _atom_site_fract_z
 _atom_site_occupancy
  Al  Al0  1  0.12976000  0.50262000  0.49911000  1.0
  Al  Al1  1  0.62975000  0.49739000  0.50089000  1.0
  Al  Al2  1  0.66002000  0.00143000  0.00005000  1.0
  Al  Al3  1  0.16002000  0.99857000  0.99995000  1.0
  H  H4  1  0.83979000  0.07080000  0.19632000  1.0
  H  H5  1  0.33983000  0.92922000  0.80369000  1.0
  H  H6  1  0.78261000  0.09829000  0.30539000  1.0
  H  H7  1  0.28265000  0.90170000  0.69462000  1.0
  H  H8  1  0.76487000  0.17765000  0.39285000  1.0
  H  H9  1  0.26481000  0.82235000  0.60716000  1.0
  H  H10  1  0.79258000  0.28838000  0.43186000  1.0
  H  H11  1  0.29253000  0.71162000  0.56814000  1.0
  H  H12  1  0.98024000  0.42895000  0.30974000  1.0
  H  H13  1  0.48022000  0.57106000  0.69026000  1.0
  H  H14  1  0.01103000  0.40300000  0.19856000  1.0
  H  H15  1  0.51104000  0.59699000  0.80144000  1.0
  H  H16  1  0.81717000  0.71135000  0.14425000  1.0
  H  H17  1  0.31715000  0.28864000  0.85574000  1.0
  H  H18  1  0.13440000  0.66977000  0.24830000  1.0
  H  H19  1  0.63438000  0.33022000  0.75171000  1.0
  H  H20  1  0.65130000  0.82816000  0.25310000  1.0
  H  H21  1  0.15130000  0.17184000  0.74690000  1.0
  H  H22  1  0.86421000  0.86526000  0.27955000  1.0
  H  H23  1  0.36422000  0.13474000  0.72046000  1.0
  H  H24  1  0.66977000  0.77040000  0.34140000  1.0
  H  H25  1  0.16975000  0.22960000  0.65859000  1.0
  H  H26  1  0.62364000  0.75440000  0.17674000  1.0
  H  H27  1  0.12362000  0.24560000  0.82326000  1.0
  H  H28  1  0.59647000  0.69349000  0.25853000  1.0
  H  H29  1  0.09644000  0.30650000  0.74147000  1.0
  H  H30  1  0.91330000  0.79301000  0.35578000  1.0
  H  H31  1  0.41331000  0.20698000  0.64422000  1.0
  H  H32  1  0.90384000  0.14313000  0.99599000  1.0
  H  H33  1  0.15437000  0.15140000  0.01893000  1.0
  H  H34  1  0.18369000  0.24525000  0.95672000  1.0
  H  H35  1  0.08431000  0.18193000  0.91045000  1.0
  H  H36  1  0.92831000  0.24212000  0.94094000  1.0
  H  H37  1  0.40385000  0.85687000  0.00402000  1.0
  H  H38  1  0.65438000  0.84859000  0.98106000  1.0
  H  H39  1  0.68368000  0.75475000  0.04328000  1.0
  H  H40  1  0.58431000  0.81807000  0.08955000  1.0
  H  H41  1  0.42830000  0.75789000  0.05907000  1.0
  H  H42  1  0.49833000  0.87547000  0.33415000  1.0
  H  H43  1  0.47320000  0.92621000  0.27245000  1.0
  H  H44  1  0.35529000  0.94417000  0.34424000  1.0
  H  H45  1  0.10728000  0.90379000  0.27260000  1.0
  H  H46  1  0.14750000  0.84807000  0.32837000  1.0
  H  H47  1  0.39865000  0.79952000  0.24449000  1.0
  H  H48  1  0.27545000  0.84551000  0.19305000  1.0
  H  H49  1  0.99831000  0.12453000  0.66585000  1.0
  H  H50  1  0.97319000  0.07379000  0.72755000  1.0
  H  H51  1  0.85527000  0.05583000  0.65576000  1.0
  H  H52  1  0.60728000  0.09620000  0.72741000  1.0
  H  H53  1  0.64747000  0.15193000  0.67164000  1.0
  H  H54  1  0.89863000  0.20048000  0.75551000  1.0
  H  H55  1  0.77545000  0.15449000  0.80696000  1.0
  H  H56  1  0.21259000  0.68422000  0.03546000  1.0
  H  H57  1  0.42162000  0.65828000  0.07471000  1.0
  H  H58  1  0.23238000  0.60490000  0.05416000  1.0
  H  H59  1  0.20808000  0.63419000  0.16601000  1.0
  H  H60  1  0.00433000  0.65987000  0.12559000  1.0
  H  H61  1  0.17123000  0.76753000  0.12207000  1.0
  H  H62  1  0.36354000  0.73736000  0.16399000  1.0
  H  H63  1  0.71258000  0.31579000  0.96454000  1.0
  H  H64  1  0.92159000  0.34172000  0.92529000  1.0
  H  H65  1  0.73236000  0.39510000  0.94584000  1.0
  H  H66  1  0.70808000  0.36580000  0.83399000  1.0
  H  H67  1  0.50433000  0.34013000  0.87441000  1.0
  H  H68  1  0.67122000  0.23247000  0.87794000  1.0
  H  H69  1  0.86353000  0.26263000  0.83602000  1.0
  H  H70  1  0.49891000  0.70482000  0.42408000  1.0
  H  H71  1  0.26129000  0.68025000  0.44637000  1.0
  H  H72  1  0.44999000  0.62439000  0.43229000  1.0
  H  H73  1  0.21418000  0.62385000  0.34444000  1.0
  H  H74  1  0.44861000  0.64519000  0.32027000  1.0
  H  H75  1  0.36612000  0.75255000  0.31609000  1.0
  H  H76  1  0.16805000  0.74707000  0.36614000  1.0
  H  H77  1  0.99889000  0.29516000  0.57592000  1.0
  H  H78  1  0.76127000  0.31975000  0.55363000  1.0
  H  H79  1  0.94997000  0.37561000  0.56771000  1.0
  H  H80  1  0.71417000  0.37615000  0.65556000  1.0
  H  H81  1  0.94860000  0.35481000  0.67973000  1.0
  H  H82  1  0.86611000  0.24744000  0.68392000  1.0
  H  H83  1  0.66805000  0.25292000  0.63386000  1.0
  H  H84  1  0.21477000  0.35130000  0.97851000  1.0
  H  H85  1  0.26624000  0.41864000  0.02677000  1.0
  H  H86  1  0.45466000  0.36416000  0.00769000  1.0
  H  H87  1  0.33916000  0.34934000  0.11547000  1.0
  H  H88  1  0.28153000  0.28277000  0.06777000  1.0
  H  H89  1  0.93935000  0.32198000  0.05609000  1.0
  H  H90  1  0.00115000  0.39102000  0.09982000  1.0
  H  H91  1  0.71479000  0.64870000  0.02149000  1.0
  H  H92  1  0.76628000  0.58137000  0.97322000  1.0
  H  H93  1  0.95469000  0.63585000  0.99231000  1.0
  H  H94  1  0.83917000  0.65068000  0.88453000  1.0
  H  H95  1  0.78154000  0.71724000  0.93224000  1.0
  H  H96  1  0.43938000  0.67802000  0.94391000  1.0
  H  H97  1  0.50117000  0.60898000  0.90018000  1.0
  H  H98  1  0.80708000  0.52148000  0.12726000  1.0
  H  H99  1  0.65408000  0.49641000  0.18735000  1.0
  H  H100  1  0.55267000  0.51133000  0.11411000  1.0
  H  H101  1  0.47805000  0.60112000  0.18870000  1.0
  H  H102  1  0.63595000  0.62491000  0.13026000  1.0
  H  H103  1  0.92123000  0.60980000  0.20392000  1.0
  H  H104  1  0.75190000  0.59184000  0.26122000  1.0
  H  H105  1  0.30707000  0.47852000  0.87273000  1.0
  H  H106  1  0.15405000  0.50359000  0.81264000  1.0
  H  H107  1  0.05266000  0.48866000  0.88589000  1.0
  H  H108  1  0.97804000  0.39887000  0.81131000  1.0
  H  H109  1  0.13596000  0.37508000  0.86974000  1.0
  H  H110  1  0.42122000  0.39020000  0.79606000  1.0
  H  H111  1  0.25187000  0.40816000  0.73877000  1.0
  H  H112  1  0.37875000  0.47065000  0.42359000  1.0
  H  H113  1  0.87875000  0.52935000  0.57641000  1.0
  H  H114  1  0.40932000  0.00770000  0.08088000  1.0
  H  H115  1  0.90932000  0.99230000  0.91913000  1.0
  C  C116  1  0.37320000  0.42156000  0.57527000  1.0
  C  C117  1  0.87322000  0.57844000  0.42474000  1.0
  C  C118  1  0.38155000  0.58750000  0.57313000  1.0
  C  C119  1  0.88158000  0.41249000  0.42687000  1.0
  C  C120  1  0.94291000  0.19907000  0.11492000  1.0
  C  C121  1  0.44292000  0.80094000  0.88507000  1.0
  C  C122  1  0.91103000  0.13589000  0.12757000  1.0
  C  C123  1  0.41106000  0.86411000  0.87242000  1.0
  C  C124  1  0.86841000  0.11970000  0.18764000  1.0
  C  C125  1  0.36848000  0.88031000  0.81236000  1.0
  C  C126  1  0.85991000  0.16444000  0.23688000  1.0
  C  C127  1  0.35993000  0.83556000  0.76312000  1.0
  C  C128  1  0.89896000  0.22834000  0.22515000  1.0
  C  C129  1  0.39894000  0.77166000  0.77484000  1.0
  C  C130  1  0.94172000  0.24676000  0.16369000  1.0
  C  C131  1  0.44174000  0.75324000  0.83631000  1.0
  C  C132  1  0.81244000  0.14744000  0.29821000  1.0
  C  C133  1  0.31244000  0.85255000  0.70178000  1.0
  C  C134  1  0.80277000  0.19099000  0.34640000  1.0
  C  C135  1  0.30275000  0.80900000  0.65359000  1.0
  C  C136  1  0.84363000  0.25532000  0.33703000  1.0
  C  C137  1  0.34362000  0.74467000  0.66297000  1.0
  C  C138  1  0.89379000  0.27313000  0.27621000  1.0
  C  C139  1  0.39377000  0.72687000  0.72379000  1.0
  C  C140  1  0.93874000  0.33672000  0.26659000  1.0
  C  C141  1  0.43874000  0.66328000  0.73342000  1.0
  C  C142  1  0.97973000  0.35381000  0.20540000  1.0
  C  C143  1  0.47971000  0.64619000  0.79460000  1.0
  C  C144  1  0.98054000  0.31246000  0.15470000  1.0
  C  C145  1  0.48054000  0.68754000  0.84531000  1.0
  C  C146  1  0.83535000  0.30129000  0.38570000  1.0
  C  C147  1  0.33530000  0.69870000  0.61429000  1.0
  C  C148  1  0.88622000  0.36302000  0.37571000  1.0
  C  C149  1  0.38617000  0.63699000  0.62429000  1.0
  C  C150  1  0.94022000  0.38059000  0.31702000  1.0
  C  C151  1  0.44022000  0.61942000  0.68297000  1.0
  C  C152  1  0.76633000  0.73448000  0.18741000  1.0
  C  C153  1  0.26632000  0.26551000  0.81259000  1.0
  C  C154  1  0.11492000  0.76494000  0.21997000  1.0
  C  C155  1  0.61489000  0.23506000  0.78003000  1.0
  C  C156  1  0.10069000  0.71537000  0.27136000  1.0
  C  C157  1  0.60070000  0.28463000  0.72864000  1.0
  C  C158  1  0.86458000  0.62810000  0.38250000  1.0
  C  C159  1  0.36456000  0.37189000  0.61751000  1.0
  C  C160  1  0.90279000  0.78960000  0.20733000  1.0
  C  C161  1  0.40277000  0.21039000  0.79267000  1.0
  C  C162  1  0.74574000  0.68850000  0.23992000  1.0
  C  C163  1  0.24572000  0.31149000  0.76008000  1.0
  C  C164  1  0.88397000  0.71019000  0.29436000  1.0
  C  C165  1  0.38398000  0.28981000  0.70564000  1.0
  C  C166  1  0.81317000  0.77523000  0.31934000  1.0
  C  C167  1  0.31316000  0.22477000  0.68067000  1.0
  C  C168  1  0.80292000  0.81959000  0.26607000  1.0
  C  C169  1  0.30292000  0.18041000  0.73394000  1.0
  C  C170  1  0.87093000  0.66638000  0.34311000  1.0
  C  C171  1  0.37094000  0.33361000  0.65689000  1.0
  C  C172  1  0.90631000  0.83525000  0.15995000  1.0
  C  C173  1  0.40630000  0.16474000  0.84003000  1.0
  C  C174  1  0.90925000  0.87359000  0.12043000  1.0
  C  C175  1  0.40923000  0.12641000  0.87958000  1.0
  C  C176  1  0.41025000  0.91774000  0.92011000  1.0
  C  C177  1  0.91025000  0.08227000  0.07988000  1.0
  C  C178  1  0.41122000  0.08223000  0.92756000  1.0
  C  C179  1  0.91124000  0.91778000  0.07244000  1.0
  C  C180  1  0.02266000  0.17669000  0.00616000  1.0
  C  C181  1  0.05702000  0.21419000  0.95044000  1.0
  C  C182  1  0.52266000  0.82331000  0.99384000  1.0
  C  C183  1  0.55701000  0.78581000  0.04956000  1.0
  C  C184  1  0.25578000  0.82064000  0.23587000  1.0
  C  C185  1  0.21354000  0.86978000  0.28858000  1.0
  C  C186  1  0.39529000  0.90579000  0.31095000  1.0
  C  C187  1  0.75575000  0.17935000  0.76413000  1.0
  C  C188  1  0.71352000  0.13021000  0.71143000  1.0
  C  C189  1  0.89528000  0.09420000  0.68905000  1.0
  C  C190  1  0.20401000  0.73503000  0.15844000  1.0
  C  C191  1  0.16051000  0.66825000  0.13286000  1.0
  C  C192  1  0.26262000  0.65318000  0.07109000  1.0
  C  C193  1  0.70400000  0.26497000  0.84155000  1.0
  C  C194  1  0.66051000  0.33176000  0.86714000  1.0
  C  C195  1  0.76260000  0.34682000  0.92891000  1.0
  C  C196  1  0.24233000  0.72248000  0.32682000  1.0
  C  C197  1  0.32427000  0.66094000  0.34940000  1.0
  C  C198  1  0.38794000  0.66798000  0.41688000  1.0
  C  C199  1  0.74232000  0.27751000  0.67318000  1.0
  C  C200  1  0.82425000  0.33905000  0.65061000  1.0
  C  C201  1  0.88793000  0.33202000  0.58312000  1.0
  C  C202  1  0.03164000  0.34055000  0.09405000  1.0
  C  C203  1  0.24773000  0.33271000  0.07606000  1.0
  C  C204  1  0.29906000  0.36854000  0.01919000  1.0
  C  C205  1  0.53167000  0.65945000  0.90595000  1.0
  C  C206  1  0.74773000  0.66731000  0.92393000  1.0
  C  C207  1  0.79908000  0.63147000  0.98080000  1.0
  C  C208  1  0.77131000  0.61920000  0.22004000  1.0
  C  C209  1  0.62754000  0.59556000  0.17037000  1.0
  C  C210  1  0.66188000  0.52750000  0.14861000  1.0
  C  C211  1  0.27129000  0.38080000  0.77996000  1.0
  C  C212  1  0.12753000  0.40443000  0.82963000  1.0
  C  C213  1  0.16186000  0.47250000  0.85138000  1.0
  O  O214  1  0.54540000  0.56377000  0.55689000  1.0
  O  O215  1  0.04538000  0.43624000  0.44311000  1.0
  O  O216  1  0.21075000  0.44506000  0.55963000  1.0
  O  O217  1  0.71074000  0.55493000  0.44037000  1.0
  O  O218  1  0.21469000  0.57176000  0.55158000  1.0
  O  O219  1  0.71470000  0.42823000  0.44843000  1.0
  O  O220  1  0.04395000  0.56193000  0.44090000  1.0
  O  O221  1  0.54394000  0.43807000  0.55911000  1.0
  O  O222  1  0.38047000  0.49537000  0.46244000  1.0
  O  O223  1  0.88047000  0.50463000  0.53756000  1.0
  O  O224  1  0.24518000  0.06228000  0.94506000  1.0
  O  O225  1  0.74517000  0.93773000  0.05495000  1.0
  O  O226  1  0.57402000  0.94216000  0.93576000  1.0
  O  O227  1  0.07401000  0.05784000  0.06424000  1.0
  O  O228  1  0.57889000  0.06710000  0.94779000  1.0
  O  O229  1  0.07891000  0.93291000  0.05222000  1.0
  O  O230  1  0.74255000  0.06330000  0.06151000  1.0
  O  O231  1  0.24256000  0.93670000  0.93850000  1.0
  O  O232  1  0.41018000  0.99876000  0.03652000  1.0
  O  O233  1  0.91018000  0.00124000  0.96349000  1.0
  O  O234  1  0.96772000  0.21925000  0.05704000  1.0
  O  O235  1  0.46769000  0.78076000  0.94296000  1.0
