# generated using pymatgen
data_Zr3H29C44N5(ClO8)2
_symmetry_space_group_name_H-M   'P 1'
_cell_length_a   19.04709263
_cell_length_b   19.06118619
_cell_length_c   19.06140000
_cell_angle_alpha   89.99115185
_cell_angle_beta   60.03072984
_cell_angle_gamma   119.96908192
_symmetry_Int_Tables_number   1
_chemical_formula_structural   Zr3H29C44N5(ClO8)2
_chemical_formula_sum   'Zr6 H58 C88 N10 Cl4 O32'
_cell_volume   4897.66605368
_cell_formula_units_Z   2
loop_
 _symmetry_equiv_pos_site_id
 _symmetry_equiv_pos_as_xyz
  1  'x, y, z'
loop_
 _atom_site_type_symbol
 _atom_site_label
 _atom_site_symmetry_multiplicity
 _atom_site_fract_x
 _atom_site_fract_y
 _atom_site_fract_z
 _atom_site_occupancy
  Zr  Zr0  1  0.31429000  0.90783000  0.09328000  1.0
  Zr  Zr1  1  0.68531000  0.09325000  0.90781000  1.0
  Zr  Zr2  1  0.50020000  0.09327000  0.90730000  1.0
  Zr  Zr3  1  0.49938000  0.90729000  0.09328000  1.0
  Zr  Zr4  1  0.49980000  0.90769000  0.90769000  1.0
  Zr  Zr5  1  0.49981000  0.09320000  0.09316000  1.0
  H  H6  1  0.35392000  0.92772000  0.92725000  1.0
  H  H7  1  0.64567000  0.92723000  0.92774000  1.0
  H  H8  1  0.64584000  0.21915000  0.92734000  1.0
  H  H9  1  0.35377000  0.92735000  0.21916000  1.0
  H  H10  1  0.92251000  0.28967000  0.93026000  1.0
  H  H11  1  0.07789000  0.64453000  0.13382000  1.0
  H  H12  1  0.28203000  0.71972000  0.86089000  1.0
  H  H13  1  0.14909000  0.59343000  0.85813000  1.0
  H  H14  1  0.71994000  0.35980000  0.06200000  1.0
  H  H15  1  0.85531000  0.49602000  0.05215000  1.0
  H  H16  1  0.92174000  0.13365000  0.64467000  1.0
  H  H17  1  0.07703000  0.93018000  0.28988000  1.0
  H  H18  1  0.27969000  0.06182000  0.35992000  1.0
  H  H19  1  0.14436000  0.05186000  0.49624000  1.0
  H  H20  1  0.71752000  0.86073000  0.71992000  1.0
  H  H21  1  0.85048000  0.85785000  0.59377000  1.0
  H  H22  1  0.43018000  0.28719000  0.13398000  1.0
  H  H23  1  0.42967000  0.64400000  0.93638000  1.0
  H  H24  1  0.58055000  0.72053000  0.05965000  1.0
  H  H25  1  0.59162000  0.59515000  0.04981000  1.0
  H  H26  1  0.57838000  0.35924000  0.86045000  1.0
  H  H27  1  0.58951000  0.49575000  0.85866000  1.0
  H  H28  1  0.57038000  0.93666000  0.64379000  1.0
  H  H29  1  0.56986000  0.13423000  0.28687000  1.0
  H  H30  1  0.42150000  0.86066000  0.35911000  1.0
  H  H31  1  0.41063000  0.85899000  0.49550000  1.0
  H  H32  1  0.41923000  0.05970000  0.72035000  1.0
  H  H33  1  0.40851000  0.05009000  0.59479000  1.0
  H  H34  1  0.93357000  0.11526000  0.89059000  1.0
  H  H35  1  0.70902000  0.89111000  0.11508000  1.0
  H  H36  1  0.06600000  0.89061000  0.11527000  1.0
  H  H37  1  0.29057000  0.11510000  0.89113000  1.0
  H  H38  1  0.72187000  0.28726000  0.64454000  1.0
  H  H39  1  0.27699000  0.64368000  0.28692000  1.0
  H  H40  1  0.07953000  0.72021000  0.36013000  1.0
  H  H41  1  0.95265000  0.59490000  0.49649000  1.0
  H  H42  1  0.92033000  0.35987000  0.71986000  1.0
  H  H43  1  0.04693000  0.49632000  0.59466000  1.0
  H  H44  1  0.12106000  0.46749000  0.93243000  1.0
  H  H45  1  0.07859000  0.37268000  0.91269000  1.0
  H  H46  1  0.87234000  0.45473000  0.14933000  1.0
  H  H47  1  0.91089000  0.52001000  0.20224000  1.0
  H  H48  1  0.12734000  0.14908000  0.45497000  1.0
  H  H49  1  0.08866000  0.20207000  0.52011000  1.0
  H  H50  1  0.87842000  0.93212000  0.46791000  1.0
  H  H51  1  0.92091000  0.91244000  0.37306000  1.0
  H  H52  1  0.43113000  0.47786000  0.15021000  1.0
  H  H53  1  0.40376000  0.38581000  0.20341000  1.0
  H  H54  1  0.42808000  0.45288000  0.92051000  1.0
  H  H55  1  0.40071000  0.51780000  0.89490000  1.0
  H  H56  1  0.57209000  0.92083000  0.45262000  1.0
  H  H57  1  0.59920000  0.89503000  0.51767000  1.0
  H  H58  1  0.56893000  0.15050000  0.47751000  1.0
  H  H59  1  0.59614000  0.20366000  0.38556000  1.0
  H  H60  1  0.89603000  0.47601000  0.45260000  1.0
  H  H61  1  0.77861000  0.38206000  0.51642000  1.0
  H  H62  1  0.10361000  0.45328000  0.47665000  1.0
  H  H63  1  0.22109000  0.51741000  0.38354000  1.0
  C  C64  1  0.26468000  0.76426000  0.00080000  1.0
  C  C65  1  0.73491000  0.00070000  0.76432000  1.0
  C  C66  1  0.73491000  0.23539000  0.00166000  1.0
  C  C67  1  0.26472000  0.00169000  0.23545000  1.0
  C  C68  1  0.26337000  0.00300000  0.00349000  1.0
  C  C69  1  0.26308000  0.76356000  0.23496000  1.0
  C  C70  1  0.73620000  0.00347000  0.00302000  1.0
  C  C71  1  0.73641000  0.23494000  0.76367000  1.0
  C  C72  1  0.50154000  0.00201000  0.76386000  1.0
  C  C73  1  0.49743000  0.23469000  0.00055000  1.0
  C  C74  1  0.50231000  0.00066000  0.23457000  1.0
  C  C75  1  0.49815000  0.76390000  0.00196000  1.0
  C  C76  1  0.81367000  0.31633000  0.99794000  1.0
  C  C77  1  0.18691000  0.68866000  0.99805000  1.0
  C  C78  1  0.90816000  0.33481000  0.95841000  1.0
  C  C79  1  0.98361000  0.40891000  0.95609000  1.0
  C  C80  1  0.09275000  0.63213000  0.07373000  1.0
  C  C81  1  0.01873000  0.55864000  0.07389000  1.0
  C  C82  1  0.20856000  0.67461000  0.91968000  1.0
  C  C83  1  0.13440000  0.60381000  0.91889000  1.0
  C  C84  1  0.79333000  0.37390000  0.03305000  1.0
  C  C85  1  0.86882000  0.44894000  0.02815000  1.0
  C  C86  1  0.96356000  0.46739000  0.99214000  1.0
  C  C87  1  0.03956000  0.54445000  0.99449000  1.0
  C  C88  1  0.81270000  0.99788000  0.68882000  1.0
  C  C89  1  0.18592000  0.99785000  0.31648000  1.0
  C  C90  1  0.90687000  0.07353000  0.63232000  1.0
  C  C91  1  0.98092000  0.07364000  0.55890000  1.0
  C  C92  1  0.09137000  0.95826000  0.33506000  1.0
  C  C93  1  0.01589000  0.95581000  0.40926000  1.0
  C  C94  1  0.20630000  0.03288000  0.37405000  1.0
  C  C95  1  0.13080000  0.02787000  0.44918000  1.0
  C  C96  1  0.79102000  0.91948000  0.67484000  1.0
  C  C97  1  0.86519000  0.91864000  0.60412000  1.0
  C  C98  1  0.96005000  0.99421000  0.54477000  1.0
  C  C99  1  0.03601000  0.99183000  0.46773000  1.0
  C  C100  1  0.50281000  0.31543000  0.99795000  1.0
  C  C101  1  0.50357000  0.68855000  0.99883000  1.0
  C  C102  1  0.46393000  0.33319000  0.07401000  1.0
  C  C103  1  0.46443000  0.40711000  0.07471000  1.0
  C  C104  1  0.46382000  0.63175000  0.96219000  1.0
  C  C105  1  0.46384000  0.55805000  0.96114000  1.0
  C  C106  1  0.54856000  0.67514000  0.03222000  1.0
  C  C107  1  0.55297000  0.60447000  0.02763000  1.0
  C  C108  1  0.54704000  0.37318000  0.91961000  1.0
  C  C109  1  0.55160000  0.44835000  0.91948000  1.0
  C  C110  1  0.50998000  0.46651000  0.99551000  1.0
  C  C111  1  0.51020000  0.54437000  0.99403000  1.0
  C  C112  1  0.49633000  0.99899000  0.68838000  1.0
  C  C113  1  0.49718000  0.99816000  0.31518000  1.0
  C  C114  1  0.53623000  0.96246000  0.63153000  1.0
  C  C115  1  0.53632000  0.96146000  0.55777000  1.0
  C  C116  1  0.53616000  0.07427000  0.33286000  1.0
  C  C117  1  0.53576000  0.07502000  0.40673000  1.0
  C  C118  1  0.45294000  0.91984000  0.37298000  1.0
  C  C119  1  0.44851000  0.91977000  0.44808000  1.0
  C  C120  1  0.45135000  0.03236000  0.67494000  1.0
  C  C121  1  0.44712000  0.02789000  0.60416000  1.0
  C  C122  1  0.49001000  0.99437000  0.54402000  1.0
  C  C123  1  0.49023000  0.99585000  0.46616000  1.0
  C  C124  1  0.91475000  0.06670000  0.93928000  1.0
  C  C125  1  0.98941000  0.06754000  0.93779000  1.0
  C  C126  1  0.09336000  0.13220000  0.87319000  1.0
  C  C127  1  0.78750000  0.93946000  0.06626000  1.0
  C  C128  1  0.85972000  0.93769000  0.06705000  1.0
  C  C129  1  0.83412000  0.87283000  0.13170000  1.0
  C  C130  1  0.08486000  0.93932000  0.06669000  1.0
  C  C131  1  0.01019000  0.93783000  0.06751000  1.0
  C  C132  1  0.90625000  0.87322000  0.13219000  1.0
  C  C133  1  0.21210000  0.06630000  0.93948000  1.0
  C  C134  1  0.13989000  0.06711000  0.93769000  1.0
  C  C135  1  0.16551000  0.13176000  0.87282000  1.0
  C  C136  1  0.81489000  0.00341000  0.00304000  1.0
  C  C137  1  0.96256000  0.00245000  0.00235000  1.0
  C  C138  1  0.18471000  0.00305000  0.00341000  1.0
  C  C139  1  0.03703000  0.00238000  0.00242000  1.0
  C  C140  1  0.81413000  0.31568000  0.68841000  1.0
  C  C141  1  0.18529000  0.68824000  0.31567000  1.0
  C  C142  1  0.79434000  0.33320000  0.63195000  1.0
  C  C143  1  0.86704000  0.40684000  0.55827000  1.0
  C  C144  1  0.20479000  0.63149000  0.33307000  1.0
  C  C145  1  0.13209000  0.55796000  0.40683000  1.0
  C  C146  1  0.09346000  0.67481000  0.37374000  1.0
  C  C147  1  0.02286000  0.60423000  0.44887000  1.0
  C  C148  1  0.90614000  0.37359000  0.67472000  1.0
  C  C149  1  0.97658000  0.44874000  0.60418000  1.0
  C  C150  1  0.96011000  0.46660000  0.54442000  1.0
  C  C151  1  0.03913000  0.54428000  0.46665000  1.0
  N  N152  1  0.07640000  0.42464000  0.91710000  1.0
  N  N153  1  0.92962000  0.49927000  0.15121000  1.0
  N  N154  1  0.07003000  0.15092000  0.49954000  1.0
  N  N155  1  0.92310000  0.91683000  0.42502000  1.0
  N  N156  1  0.41635000  0.41866000  0.15205000  1.0
  N  N157  1  0.41472000  0.49821000  0.93275000  1.0
  N  N158  1  0.58547000  0.93307000  0.49794000  1.0
  N  N159  1  0.58384000  0.15239000  0.41827000  1.0
  N  N160  1  0.84936000  0.41787000  0.49863000  1.0
  N  N161  1  0.14976000  0.49821000  0.41786000  1.0
  Cl  Cl162  1  0.28923000  0.20947000  0.79463000  1.0
  Cl  Cl163  1  0.12585000  0.21131000  0.79605000  1.0
  Cl  Cl164  1  0.87377000  0.79610000  0.21131000  1.0
  Cl  Cl165  1  0.71038000  0.79462000  0.20941000  1.0
  O  O166  1  0.23573000  0.79249000  0.06282000  1.0
  O  O167  1  0.76384000  0.06275000  0.79251000  1.0
  O  O168  1  0.76333000  0.20140000  0.94536000  1.0
  O  O169  1  0.23630000  0.94543000  0.20141000  1.0
  O  O170  1  0.35321000  0.06297000  0.94436000  1.0
  O  O171  1  0.35334000  0.79133000  0.20114000  1.0
  O  O172  1  0.64636000  0.94434000  0.06301000  1.0
  O  O173  1  0.64616000  0.20107000  0.79140000  1.0
  O  O174  1  0.50742000  0.94561000  0.79187000  1.0
  O  O175  1  0.49150000  0.20105000  0.06300000  1.0
  O  O176  1  0.50816000  0.06307000  0.20097000  1.0
  O  O177  1  0.49220000  0.79188000  0.94560000  1.0
  O  O178  1  0.50038000  0.20557000  0.93934000  1.0
  O  O179  1  0.49925000  0.93939000  0.20552000  1.0
  O  O180  1  0.50106000  0.79569000  0.06038000  1.0
  O  O181  1  0.49856000  0.06041000  0.79567000  1.0
  O  O182  1  0.23379000  0.94208000  0.06201000  1.0
  O  O183  1  0.76572000  0.20592000  0.79566000  1.0
  O  O184  1  0.76577000  0.06197000  0.94209000  1.0
  O  O185  1  0.23381000  0.79560000  0.20594000  1.0
  O  O186  1  0.35489000  0.06021000  0.20647000  1.0
  O  O187  1  0.35503000  0.79602000  0.94000000  1.0
  O  O188  1  0.64456000  0.93992000  0.79604000  1.0
  O  O189  1  0.64473000  0.20642000  0.06019000  1.0
  O  O190  1  0.39536000  0.94816000  0.15691000  1.0
  O  O191  1  0.60422000  0.15690000  0.94816000  1.0
  O  O192  1  0.60458000  0.94844000  0.94853000  1.0
  O  O193  1  0.39501000  0.94852000  0.94846000  1.0
  O  O194  1  0.57688000  0.03890000  0.88496000  1.0
  O  O195  1  0.42274000  0.88499000  0.03890000  1.0
  O  O196  1  0.57679000  0.03875000  0.03906000  1.0
  O  O197  1  0.42282000  0.03908000  0.03874000  1.0
