# generated using pymatgen
data_CoH10C16NO4
_symmetry_space_group_name_H-M   'P 1'
_cell_length_a   7.30689000
_cell_length_b   9.40382000
_cell_length_c   10.85950000
_cell_angle_alpha   82.96840000
_cell_angle_beta   73.21840000
_cell_angle_gamma   68.89640000
_symmetry_Int_Tables_number   1
_chemical_formula_structural   CoH10C16NO4
_chemical_formula_sum   'Co2 H20 C32 N2 O8'
_cell_volume   666.35000908
_cell_formula_units_Z   2
loop_
 _symmetry_equiv_pos_site_id
 _symmetry_equiv_pos_as_xyz
  1  'x, y, z'
loop_
 _atom_site_type_symbol
 _atom_site_label
 _atom_site_symmetry_multiplicity
 _atom_site_fract_x
 _atom_site_fract_y
 _atom_site_fract_z
 _atom_site_occupancy
  Co  Co0  1  0.37140000  0.11667000  0.49760000  1.0
  Co  Co1  1  0.62860000  0.88333000  0.50239000  1.0
  H  H2  1  0.56900000  0.62307000  0.24943000  1.0
  H  H3  1  0.43101000  0.37693000  0.75056000  1.0
  H  H4  1  0.45512000  0.49023000  0.11702000  1.0
  H  H5  1  0.54486000  0.50977000  0.88299000  1.0
  H  H6  1  0.15845000  0.64122000  0.02624000  1.0
  H  H7  1  0.84154000  0.35879000  0.97376000  1.0
  H  H8  1  0.98676000  0.91418000  0.07023000  1.0
  H  H9  1  0.01324000  0.08582000  0.92977000  1.0
  H  H10  1  0.69172000  0.39950000  0.32307000  1.0
  H  H11  1  0.30827000  0.60050000  0.67694000  1.0
  H  H12  1  0.91234000  0.54056000  0.18719000  1.0
  H  H13  1  0.08765000  0.45944000  0.81282000  1.0
  H  H14  1  0.36646000  0.11263000  0.04664000  1.0
  H  H15  1  0.63354000  0.88738000  0.95337000  1.0
  H  H16  1  0.24979000  0.39235000  0.04245000  1.0
  H  H17  1  0.75020000  0.60765000  0.95755000  1.0
  H  H18  1  0.35439000  0.44149000  0.38174000  1.0
  H  H19  1  0.64563000  0.55850000  0.61825000  1.0
  H  H20  1  0.10299000  0.71255000  0.39378000  1.0
  H  H21  1  0.89703000  0.28743000  0.60621000  1.0
  C  C22  1  0.41529000  0.90668000  0.32208000  1.0
  C  C23  1  0.58473000  0.09331000  0.67792000  1.0
  C  C24  1  0.34898000  0.84175000  0.23096000  1.0
  C  C25  1  0.65103000  0.15825000  0.76904000  1.0
  C  C26  1  0.44463000  0.68539000  0.20656000  1.0
  C  C27  1  0.55537000  0.31461000  0.79344000  1.0
  C  C28  1  0.37935000  0.61210000  0.13324000  1.0
  C  C29  1  0.62064000  0.38790000  0.86676000  1.0
  C  C30  1  0.21360000  0.69535000  0.08405000  1.0
  C  C31  1  0.78639000  0.30465000  0.91596000  1.0
  C  C32  1  0.11713000  0.85049000  0.10771000  1.0
  C  C33  1  0.88286000  0.14951000  0.89229000  1.0
  C  C34  1  0.18449000  0.92672000  0.17889000  1.0
  C  C35  1  0.81552000  0.07329000  0.82111000  1.0
  C  C36  1  0.09685000  0.09560000  0.18569000  1.0
  C  C37  1  0.90315000  0.90440000  0.81431000  1.0
  C  C38  1  0.90205000  0.17819000  0.26083000  1.0
  C  C39  1  0.09795000  0.82181000  0.73917000  1.0
  C  C40  1  0.83948000  0.33817000  0.26042000  1.0
  C  C41  1  0.16052000  0.66183000  0.73958000  1.0
  C  C42  1  0.96280000  0.41655000  0.18471000  1.0
  C  C43  1  0.03719000  0.58345000  0.81530000  1.0
  C  C44  1  0.21722000  0.17628000  0.10678000  1.0
  C  C45  1  0.78277000  0.82373000  0.89323000  1.0
  C  C46  1  0.15166000  0.33452000  0.10541000  1.0
  C  C47  1  0.84834000  0.66548000  0.89459000  1.0
  C  C48  1  0.19538000  0.46859000  0.43500000  1.0
  C  C49  1  0.80463000  0.53141000  0.56499000  1.0
  C  C50  1  0.05748000  0.61720000  0.44165000  1.0
  C  C51  1  0.94252000  0.38280000  0.55834000  1.0
  C  C52  1  0.75844000  0.10482000  0.34518000  1.0
  C  C53  1  0.24156000  0.89517000  0.65482000  1.0
  N  N54  1  0.13873000  0.35084000  0.49328000  1.0
  N  N55  1  0.86129000  0.64915000  0.50671000  1.0
  O  O56  1  0.31319000  0.04306000  0.36005000  1.0
  O  O57  1  0.68682000  0.95693000  0.63994000  1.0
  O  O58  1  0.57073000  0.19095000  0.37810000  1.0
  O  O59  1  0.42927000  0.80906000  0.62189000  1.0
  O  O60  1  0.82545000  0.96536000  0.38113000  1.0
  O  O61  1  0.17453000  0.03464000  0.61888000  1.0
  O  O62  1  0.56778000  0.81713000  0.36171000  1.0
  O  O63  1  0.43224000  0.18287000  0.63829000  1.0
