# generated using pymatgen
data_ZnH28C18S2N4(O5F2)2
_symmetry_space_group_name_H-M   'P 1'
_cell_length_a   8.89665000
_cell_length_b   9.65132000
_cell_length_c   16.22160000
_cell_angle_alpha   90.00000000
_cell_angle_beta   105.16100000
_cell_angle_gamma   90.00000000
_symmetry_Int_Tables_number   1
_chemical_formula_structural   ZnH28C18S2N4(O5F2)2
_chemical_formula_sum   'Zn2 H56 C36 S4 N8 O20 F8'
_cell_volume   1344.37941604
_cell_formula_units_Z   2
loop_
 _symmetry_equiv_pos_site_id
 _symmetry_equiv_pos_as_xyz
  1  'x, y, z'
loop_
 _atom_site_type_symbol
 _atom_site_label
 _atom_site_symmetry_multiplicity
 _atom_site_fract_x
 _atom_site_fract_y
 _atom_site_fract_z
 _atom_site_occupancy
  Zn  Zn0  1  0.50000000  0.00000000  0.00000000  1.0
  Zn  Zn1  1  0.00000000  0.50000000  0.50000000  1.0
  H  H2  1  0.20721000  0.94442000  0.05796000  1.0
  H  H3  1  0.29279000  0.44442000  0.44204000  1.0
  H  H4  1  0.79279000  0.05558000  0.94204000  1.0
  H  H5  1  0.70721000  0.55558000  0.55796000  1.0
  H  H6  1  0.06486000  0.92761000  0.22646000  1.0
  H  H7  1  0.43514000  0.42760000  0.27354000  1.0
  H  H8  1  0.93514000  0.07240000  0.77354000  1.0
  H  H9  1  0.56486000  0.57240000  0.72646000  1.0
  H  H10  1  0.01421000  0.93175000  0.11245000  1.0
  H  H11  1  0.48579000  0.43175000  0.38755000  1.0
  H  H12  1  0.98579000  0.06825000  0.88755000  1.0
  H  H13  1  0.51421000  0.56825000  0.61245000  1.0
  H  H14  1  0.98406000  0.08082000  0.17143000  1.0
  H  H15  1  0.51593000  0.58082000  0.32857000  1.0
  H  H16  1  0.01593000  0.91918000  0.82857000  1.0
  H  H17  1  0.48406000  0.41918000  0.67143000  1.0
  H  H18  1  0.30759000  0.07617000  0.30357000  1.0
  H  H19  1  0.19240000  0.57617000  0.19643000  1.0
  H  H20  1  0.69240000  0.92383000  0.69643000  1.0
  H  H21  1  0.80760000  0.42383000  0.80357000  1.0
  H  H22  1  0.22806000  0.22497000  0.24269000  1.0
  H  H23  1  0.27194000  0.72497000  0.25731000  1.0
  H  H24  1  0.77194000  0.77503000  0.75731000  1.0
  H  H25  1  0.72806000  0.27503000  0.74269000  1.0
  H  H26  1  0.41193000  0.15623000  0.23623000  1.0
  H  H27  1  0.08807000  0.65623000  0.26377000  1.0
  H  H28  1  0.58807000  0.84377000  0.76377000  1.0
  H  H29  1  0.91193000  0.34377000  0.73623000  1.0
  H  H30  1  0.63819000  0.18886000  0.15681000  1.0
  H  H31  1  0.86180000  0.68886000  0.34319000  1.0
  H  H32  1  0.36180000  0.81114000  0.84319000  1.0
  H  H33  1  0.13819000  0.31114000  0.65681000  1.0
  H  H34  1  0.96942000  0.34478000  0.25437000  1.0
  H  H35  1  0.53058000  0.84478000  0.24563000  1.0
  H  H36  1  0.03058000  0.65522000  0.74563000  1.0
  H  H37  1  0.46942000  0.15522000  0.75437000  1.0
  H  H38  1  0.77158000  0.32320000  0.25473000  1.0
  H  H39  1  0.72842000  0.82320000  0.24527000  1.0
  H  H40  1  0.22842000  0.67680000  0.74527000  1.0
  H  H41  1  0.27158000  0.17680000  0.75473000  1.0
  H  H42  1  0.83437000  0.48063000  0.21445000  1.0
  H  H43  1  0.66564000  0.98063000  0.28555000  1.0
  H  H44  1  0.16563000  0.51937000  0.78555000  1.0
  H  H45  1  0.33436000  0.01937000  0.71445000  1.0
  H  H46  1  0.92133000  0.46325000  0.07918000  1.0
  H  H47  1  0.57867000  0.96325000  0.42082000  1.0
  H  H48  1  0.07867000  0.53675000  0.92082000  1.0
  H  H49  1  0.42133000  0.03675000  0.57918000  1.0
  H  H50  1  0.86181000  0.31222000  0.01396000  1.0
  H  H51  1  0.63818000  0.81222000  0.48604000  1.0
  H  H52  1  0.13818000  0.68778000  0.98604000  1.0
  H  H53  1  0.36182000  0.18778000  0.51396000  1.0
  H  H54  1  0.02968000  0.30606000  0.10155000  1.0
  H  H55  1  0.47032000  0.80606000  0.39845000  1.0
  H  H56  1  0.97032000  0.69394000  0.89845000  1.0
  H  H57  1  0.52968000  0.19394000  0.60155000  1.0
  C  C58  1  0.61309000  0.60723000  0.03029000  1.0
  C  C59  1  0.88691000  0.10723000  0.46970000  1.0
  C  C60  1  0.38691000  0.39277000  0.96971000  1.0
  C  C61  1  0.11309000  0.89276000  0.53030000  1.0
  C  C62  1  0.60146000  0.53936000  0.95273000  1.0
  C  C63  1  0.89854000  0.03936000  0.54728000  1.0
  C  C64  1  0.39854000  0.46064000  0.04727000  1.0
  C  C65  1  0.10146000  0.96064000  0.45273000  1.0
  C  C66  1  0.50837000  0.56487000  0.07618000  1.0
  C  C67  1  0.99164000  0.06487000  0.42382000  1.0
  C  C68  1  0.49163000  0.43513000  0.92382000  1.0
  C  C69  1  0.00837000  0.93513000  0.57618000  1.0
  C  C70  1  0.28045000  0.00954000  0.10842000  1.0
  C  C71  1  0.21955000  0.50954000  0.39158000  1.0
  C  C72  1  0.71955000  0.99046000  0.89158000  1.0
  C  C73  1  0.78045000  0.49046000  0.60842000  1.0
  C  C74  1  0.06144000  0.99260000  0.17044000  1.0
  C  C75  1  0.43855000  0.49260000  0.32956000  1.0
  C  C76  1  0.93856000  0.00740000  0.82956000  1.0
  C  C77  1  0.56144000  0.50739000  0.67044000  1.0
  C  C78  1  0.29614000  0.12979000  0.24256000  1.0
  C  C79  1  0.20386000  0.62979000  0.25744000  1.0
  C  C80  1  0.70385000  0.87021000  0.75744000  1.0
  C  C81  1  0.79614000  0.37021000  0.74256000  1.0
  C  C82  1  0.70143000  0.21447000  0.10881000  1.0
  C  C83  1  0.79858000  0.71446000  0.39119000  1.0
  C  C84  1  0.29857000  0.78553000  0.89119000  1.0
  C  C85  1  0.20142000  0.28553000  0.60881000  1.0
  C  C86  1  0.84875000  0.36786000  0.21924000  1.0
  C  C87  1  0.65125000  0.86786000  0.28076000  1.0
  C  C88  1  0.15125000  0.63214000  0.78076000  1.0
  C  C89  1  0.34875000  0.13214000  0.71924000  1.0
  C  C90  1  0.91218000  0.34989000  0.07889000  1.0
  C  C91  1  0.58782000  0.84989000  0.42111000  1.0
  C  C92  1  0.08782000  0.65011000  0.92111000  1.0
  C  C93  1  0.41218000  0.15011000  0.57889000  1.0
  S  S94  1  0.75428000  0.74207000  0.07406000  1.0
  S  S95  1  0.74572000  0.24207000  0.42594000  1.0
  S  S96  1  0.24572000  0.25793000  0.92594000  1.0
  S  S97  1  0.25428000  0.75793000  0.57407000  1.0
  N  N98  1  0.21689000  0.04136000  0.17195000  1.0
  N  N99  1  0.28311000  0.54136000  0.32805000  1.0
  N  N100  1  0.78311000  0.95864000  0.82805000  1.0
  N  N101  1  0.71688000  0.45864000  0.67195000  1.0
  N  N102  1  0.81475000  0.30762000  0.13393000  1.0
  N  N103  1  0.68525000  0.80762000  0.36607000  1.0
  N  N104  1  0.18525000  0.69238000  0.86607000  1.0
  N  N105  1  0.31475000  0.19238000  0.63393000  1.0
  O  O106  1  0.65747000  0.86231000  0.08351000  1.0
  O  O107  1  0.84253000  0.36231000  0.41649000  1.0
  O  O108  1  0.34253000  0.13769000  0.91649000  1.0
  O  O109  1  0.15747000  0.63769000  0.58351000  1.0
  O  O110  1  0.84017000  0.68804000  0.15700000  1.0
  O  O111  1  0.65983000  0.18804000  0.34300000  1.0
  O  O112  1  0.15983000  0.31196000  0.84300000  1.0
  O  O113  1  0.34017000  0.81196000  0.65700000  1.0
  O  O114  1  0.84656000  0.76278000  0.01337000  1.0
  O  O115  1  0.65344000  0.26277000  0.48663000  1.0
  O  O116  1  0.15344000  0.23723000  0.98663000  1.0
  O  O117  1  0.34656000  0.73723000  0.51337000  1.0
  O  O118  1  0.41407000  0.04746000  0.10526000  1.0
  O  O119  1  0.08593000  0.54746000  0.39474000  1.0
  O  O120  1  0.58593000  0.95254000  0.89474000  1.0
  O  O121  1  0.91407000  0.45254000  0.60526000  1.0
  O  O122  1  0.66666667  0.15868000  0.03597000  1.0
  O  O123  1  0.83332000  0.65868000  0.46402000  1.0
  O  O124  1  0.33333333  0.84132000  0.96402000  1.0
  O  O125  1  0.16668000  0.34132000  0.53597000  1.0
  F  F126  1  0.69649000  0.57039000  0.90230000  1.0
  F  F127  1  0.80351000  0.07039000  0.59770000  1.0
  F  F128  1  0.30351000  0.42961000  0.09770000  1.0
  F  F129  1  0.19649000  0.92961000  0.40230000  1.0
  F  F130  1  0.50993000  0.62550000  0.15166000  1.0
  F  F131  1  0.99007000  0.12550000  0.34834000  1.0
  F  F132  1  0.49007000  0.37450000  0.84834000  1.0
  F  F133  1  0.00993000  0.87450000  0.65166000  1.0
