# generated using pymatgen
data_Cu2H14C22N4O9
_symmetry_space_group_name_H-M   'P 1'
_cell_length_a   14.55530000
_cell_length_b   15.60820000
_cell_length_c   15.60840000
_cell_angle_alpha   112.73400000
_cell_angle_beta   95.96330000
_cell_angle_gamma   95.96320000
_symmetry_Int_Tables_number   1
_chemical_formula_structural   Cu2H14C22N4O9
_chemical_formula_sum   'Cu4 H28 C44 N8 O18'
_cell_volume   3212.41188360
_cell_formula_units_Z   2
loop_
 _symmetry_equiv_pos_site_id
 _symmetry_equiv_pos_as_xyz
  1  'x, y, z'
loop_
 _atom_site_type_symbol
 _atom_site_label
 _atom_site_symmetry_multiplicity
 _atom_site_fract_x
 _atom_site_fract_y
 _atom_site_fract_z
 _atom_site_occupancy
  Cu  Cu0  1  0.48766000  0.92546000  0.92546000  1.0
  Cu  Cu1  1  0.51233000  0.07445000  0.07444000  1.0
  Cu  Cu2  1  0.00000000  0.00000000  0.50000000  1.0
  Cu  Cu3  1  0.00000000  0.50001000  0.00000000  1.0
  H  H4  1  0.52085000  0.76079000  0.76078000  1.0
  H  H5  1  0.47915000  0.23917000  0.23920000  1.0
  H  H6  1  0.41218000  0.75476000  0.75476000  1.0
  H  H7  1  0.58782000  0.24521000  0.24523000  1.0
  H  H8  1  0.21331000  0.10617000  0.53325000  1.0
  H  H9  1  0.78667000  0.46676000  0.89382000  1.0
  H  H10  1  0.78668000  0.89382000  0.46676000  1.0
  H  H11  1  0.21331000  0.53324000  0.10617000  1.0
  H  H12  1  0.32123000  0.04170000  0.39018000  1.0
  H  H13  1  0.67876000  0.60984000  0.95831000  1.0
  H  H14  1  0.67877000  0.95831000  0.60983000  1.0
  H  H15  1  0.32123000  0.39017000  0.04169000  1.0
  H  H16  1  0.04502000  0.89044000  0.29811000  1.0
  H  H17  1  0.95498000  0.70189000  0.10955000  1.0
  H  H18  1  0.95498000  0.10955000  0.70188000  1.0
  H  H19  1  0.04502000  0.29810000  0.89044000  1.0
  H  H20  1  0.31734000  0.00631000  0.22711000  1.0
  H  H21  1  0.68267000  0.77293000  0.99371000  1.0
  H  H22  1  0.68267000  0.99371000  0.77292000  1.0
  H  H23  1  0.31734000  0.22710000  0.00630000  1.0
  H  H24  1  0.26567000  0.74907000  0.97742000  1.0
  H  H25  1  0.73434000  0.02260000  0.25096000  1.0
  H  H26  1  0.73434000  0.25095000  0.02260000  1.0
  H  H27  1  0.26567000  0.97741000  0.74906000  1.0
  H  H28  1  0.11920000  0.77014000  0.20786000  1.0
  H  H29  1  0.88080000  0.79214000  0.22987000  1.0
  H  H30  1  0.88080000  0.22986000  0.79215000  1.0
  H  H31  1  0.11921000  0.20785000  0.77013000  1.0
  C  C32  1  0.19489000  0.05212000  0.46256000  1.0
  C  C33  1  0.80510000  0.53744000  0.94788000  1.0
  C  C34  1  0.80510000  0.94787000  0.53744000  1.0
  C  C35  1  0.19489000  0.46256000  0.05212000  1.0
  C  C36  1  0.24849000  0.02131000  0.39262000  1.0
  C  C37  1  0.75150000  0.60738000  0.97870000  1.0
  C  C38  1  0.75150000  0.97869000  0.60738000  1.0
  C  C39  1  0.24849000  0.39262000  0.02130000  1.0
  C  C40  1  0.10544000  0.93964000  0.34300000  1.0
  C  C41  1  0.89456000  0.65700000  0.06036000  1.0
  C  C42  1  0.89456000  0.06036000  0.65700000  1.0
  C  C43  1  0.10544000  0.34299000  0.93963000  1.0
  C  C44  1  0.21427000  0.89524000  0.22742000  1.0
  C  C45  1  0.78573000  0.77259000  0.10477000  1.0
  C  C46  1  0.78573000  0.10477000  0.77259000  1.0
  C  C47  1  0.21427000  0.22742000  0.89524000  1.0
  C  C48  1  0.28101000  0.93445000  0.18965000  1.0
  C  C49  1  0.71901000  0.81038000  0.06557000  1.0
  C  C50  1  0.71901000  0.06557000  0.81037000  1.0
  C  C51  1  0.28101000  0.18964000  0.93444000  1.0
  C  C52  1  0.30096000  0.88084000  0.10028000  1.0
  C  C53  1  0.69905000  0.89975000  0.11918000  1.0
  C  C54  1  0.69905000  0.11918000  0.89975000  1.0
  C  C55  1  0.30096000  0.10027000  0.88083000  1.0
  C  C56  1  0.25229000  0.78993000  0.04801000  1.0
  C  C57  1  0.74771000  0.95201000  0.21009000  1.0
  C  C58  1  0.74771000  0.21009000  0.95201000  1.0
  C  C59  1  0.25229000  0.04800000  0.78993000  1.0
  C  C60  1  0.18565000  0.75098000  0.08662000  1.0
  C  C61  1  0.81435000  0.91338000  0.24904000  1.0
  C  C62  1  0.81435000  0.24904000  0.91338000  1.0
  C  C63  1  0.18565000  0.08662000  0.75097000  1.0
  C  C64  1  0.16821000  0.80307000  0.17724000  1.0
  C  C65  1  0.83179000  0.82276000  0.19695000  1.0
  C  C66  1  0.83179000  0.19695000  0.82276000  1.0
  C  C67  1  0.16821000  0.17724000  0.80306000  1.0
  C  C68  1  0.37425000  0.92359000  0.06152000  1.0
  C  C69  1  0.62576000  0.93847000  0.07640000  1.0
  C  C70  1  0.62576000  0.07639000  0.93847000  1.0
  C  C71  1  0.37425000  0.06152000  0.92358000  1.0
  C  C72  1  0.13131000  0.65347000  0.02996000  1.0
  C  C73  1  0.86869000  0.97006000  0.34654000  1.0
  C  C74  1  0.86869000  0.34654000  0.97006000  1.0
  C  C75  1  0.13131000  0.02996000  0.65347000  1.0
  N  N76  1  0.10598000  0.00075000  0.43043000  1.0
  N  N77  1  0.89401000  0.56957000  0.99924000  1.0
  N  N78  1  0.89401000  0.99924000  0.56957000  1.0
  N  N79  1  0.10598000  0.43043000  0.00075000  1.0
  N  N80  1  0.19101000  0.94935000  0.31703000  1.0
  N  N81  1  0.80899000  0.68297000  0.05066000  1.0
  N  N82  1  0.80899000  0.05066000  0.68297000  1.0
  N  N83  1  0.19101000  0.31703000  0.94934000  1.0
  O  O84  1  0.41382000  0.00735000  0.11427000  1.0
  O  O85  1  0.58619000  0.88571000  0.99266000  1.0
  O  O86  1  0.58619000  0.99266000  0.88570000  1.0
  O  O87  1  0.41382000  0.11427000  0.00734000  1.0
  O  O88  1  0.39106000  0.87304000  0.98023000  1.0
  O  O89  1  0.60893000  0.01977000  0.12693000  1.0
  O  O90  1  0.60894000  0.12693000  0.01977000  1.0
  O  O91  1  0.39106000  0.98022000  0.87304000  1.0
  O  O92  1  0.13512000  0.61237000  0.94497000  1.0
  O  O93  1  0.86486000  0.05504000  0.38763000  1.0
  O  O94  1  0.86486000  0.38763000  0.05505000  1.0
  O  O95  1  0.13512000  0.94497000  0.61237000  1.0
  O  O96  1  0.08162000  0.62065000  0.07901000  1.0
  O  O97  1  0.91839000  0.92101000  0.37936000  1.0
  O  O98  1  0.91839000  0.37936000  0.92102000  1.0
  O  O99  1  0.08162000  0.07901000  0.62065000  1.0
  O  O100  1  0.47148000  0.79150000  0.79150000  1.0
  O  O101  1  0.52852000  0.20849000  0.20845000  1.0
