# generated using pymatgen
data_Mn2H28C36N6O11
_symmetry_space_group_name_H-M   'P 1'
_cell_length_a   10.20520000
_cell_length_b   14.23150000
_cell_length_c   14.23130000
_cell_angle_alpha   69.32250000
_cell_angle_beta   78.25080000
_cell_angle_gamma   78.24800000
_symmetry_Int_Tables_number   1
_chemical_formula_structural   Mn2H28C36N6O11
_chemical_formula_sum   'Mn4 H56 C72 N12 O22'
_cell_volume   1873.53545919
_cell_formula_units_Z   2
loop_
 _symmetry_equiv_pos_site_id
 _symmetry_equiv_pos_as_xyz
  1  'x, y, z'
loop_
 _atom_site_type_symbol
 _atom_site_label
 _atom_site_symmetry_multiplicity
 _atom_site_fract_x
 _atom_site_fract_y
 _atom_site_fract_z
 _atom_site_occupancy
  Mn  Mn0  1  0.22600000  0.46926000  0.09674000  1.0
  Mn  Mn1  1  0.72596000  0.09675000  0.46927000  1.0
  Mn  Mn2  1  0.80399000  0.56034000  0.98885000  1.0
  Mn  Mn3  1  0.30399000  0.98884000  0.56035000  1.0
  H  H4  1  0.52926000  0.66910000  0.71949000  1.0
  H  H5  1  0.02927000  0.71951000  0.66910000  1.0
  H  H6  1  0.52738000  0.56190000  0.61433000  1.0
  H  H7  1  0.02742000  0.61434000  0.56190000  1.0
  H  H8  1  0.12332000  0.50742000  0.76070000  1.0
  H  H9  1  0.62335000  0.76069000  0.50740000  1.0
  H  H10  1  0.35248000  0.77300000  0.56475000  1.0
  H  H11  1  0.85258000  0.56474000  0.77300000  1.0
  H  H12  1  0.23503000  0.02918000  0.32993000  1.0
  H  H13  1  0.73503000  0.32994000  0.02918000  1.0
  H  H14  1  0.43045000  0.38524000  0.93741000  1.0
  H  H15  1  0.93043000  0.93741000  0.38524000  1.0
  H  H16  1  0.03281000  0.34113000  0.04417000  1.0
  H  H17  1  0.53278000  0.04416000  0.34114000  1.0
  H  H18  1  0.07477000  0.11401000  0.67131000  1.0
  H  H19  1  0.57478000  0.67130000  0.11400000  1.0
  H  H20  1  0.47303000  0.13569000  0.80206000  1.0
  H  H21  1  0.97301000  0.80204000  0.13571000  1.0
  H  H22  1  0.48469000  0.03492000  0.68897000  1.0
  H  H23  1  0.98470000  0.68894000  0.03495000  1.0
  H  H24  1  0.04597000  0.22356000  0.77933000  1.0
  H  H25  1  0.54595000  0.77934000  0.22352000  1.0
  H  H26  1  0.19187000  0.47643000  0.31988000  1.0
  H  H27  1  0.69186000  0.31987000  0.47644000  1.0
  H  H28  1  0.19769000  0.58675000  0.42042000  1.0
  H  H29  1  0.69773000  0.42043000  0.58675000  1.0
  H  H30  1  0.29614000  0.82191000  0.13603000  1.0
  H  H31  1  0.79623000  0.13603000  0.82191000  1.0
  H  H32  1  0.28227000  0.70316000  0.04829000  1.0
  H  H33  1  0.78226000  0.04829000  0.70318000  1.0
  H  H34  1  0.42606000  0.32920000  0.54264000  1.0
  H  H35  1  0.92609000  0.54263000  0.32920000  1.0
  H  H36  1  0.97745000  0.32812000  0.45602000  1.0
  H  H37  1  0.47747000  0.45603000  0.32814000  1.0
  H  H38  1  0.00192000  0.44714000  0.54293000  1.0
  H  H39  1  0.50197000  0.54292000  0.44716000  1.0
  H  H40  1  0.58032000  0.67287000  0.89670000  1.0
  H  H41  1  0.08031000  0.89670000  0.67288000  1.0
  H  H42  1  0.50331000  0.47849000  0.05168000  1.0
  H  H43  1  0.00330000  0.05169000  0.47849000  1.0
  H  H44  1  0.41667000  0.30918000  0.20885000  1.0
  H  H45  1  0.91665000  0.20883000  0.30916000  1.0
  H  H46  1  0.20306000  0.92520000  0.22981000  1.0
  H  H47  1  0.70309000  0.22982000  0.92519000  1.0
  H  H48  1  0.32599000  0.65802000  0.47562000  1.0
  H  H49  1  0.82608000  0.47561000  0.65803000  1.0
  H  H50  1  0.03793000  0.23776000  0.93364000  1.0
  H  H51  1  0.53790000  0.93363000  0.23775000  1.0
  H  H52  1  0.45337000  0.28675000  0.81926000  1.0
  H  H53  1  0.95335000  0.81927000  0.28674000  1.0
  H  H54  1  0.70580000  0.73604000  0.85069000  1.0
  H  H55  1  0.20578000  0.85071000  0.73605000  1.0
  H  H56  1  0.42183000  0.56726000  0.97361000  1.0
  H  H57  1  0.92182000  0.97363000  0.56725000  1.0
  H  H58  1  0.26320000  0.28558000  0.25300000  1.0
  H  H59  1  0.76317000  0.25300000  0.28558000  1.0
  C  C60  1  0.10203000  0.60038000  0.89887000  1.0
  C  C61  1  0.60202000  0.89886000  0.60037000  1.0
  C  C62  1  0.44052000  0.63359000  0.72830000  1.0
  C  C63  1  0.94054000  0.72832000  0.63358000  1.0
  C  C64  1  0.33067000  0.71859000  0.85779000  1.0
  C  C65  1  0.83067000  0.85780000  0.71857000  1.0
  C  C66  1  0.43995000  0.57321000  0.66990000  1.0
  C  C67  1  0.93998000  0.66991000  0.57319000  1.0
  C  C68  1  0.21354000  0.60179000  0.81153000  1.0
  C  C69  1  0.71355000  0.81154000  0.60177000  1.0
  C  C70  1  0.32754000  0.64981000  0.79832000  1.0
  C  C71  1  0.82755000  0.79833000  0.64979000  1.0
  C  C72  1  0.21074000  0.54495000  0.75011000  1.0
  C  C73  1  0.71076000  0.75010000  0.54493000  1.0
  C  C74  1  0.32015000  0.80355000  0.49008000  1.0
  C  C75  1  0.82022000  0.49007000  0.80356000  1.0
  C  C76  1  0.25601000  0.94638000  0.35877000  1.0
  C  C77  1  0.75604000  0.35878000  0.94638000  1.0
  C  C78  1  0.34707000  0.34926000  0.93506000  1.0
  C  C79  1  0.84705000  0.93506000  0.34925000  1.0
  C  C80  1  0.12483000  0.32497000  0.99459000  1.0
  C  C81  1  0.62480000  0.99459000  0.32496000  1.0
  C  C82  1  0.32342000  0.53078000  0.67842000  1.0
  C  C83  1  0.82346000  0.67842000  0.53077000  1.0
  C  C84  1  0.16025000  0.12089000  0.70245000  1.0
  C  C85  1  0.66025000  0.70244000  0.12087000  1.0
  C  C86  1  0.24776000  0.25106000  0.86724000  1.0
  C  C87  1  0.74774000  0.86724000  0.25105000  1.0
  C  C88  1  0.38157000  0.13446000  0.77443000  1.0
  C  C89  1  0.88156000  0.77442000  0.13447000  1.0
  C  C90  1  0.38870000  0.07628000  0.71259000  1.0
  C  C91  1  0.88870000  0.71258000  0.07629000  1.0
  C  C92  1  0.25759000  0.18916000  0.80127000  1.0
  C  C93  1  0.75758000  0.80127000  0.18915000  1.0
  C  C94  1  0.14482000  0.18120000  0.76354000  1.0
  C  C95  1  0.64481000  0.76354000  0.18118000  1.0
  C  C96  1  0.24898000  0.71495000  0.28737000  1.0
  C  C97  1  0.74904000  0.28738000  0.71494000  1.0
  C  C98  1  0.21434000  0.55381000  0.28229000  1.0
  C  C99  1  0.71435000  0.28229000  0.55382000  1.0
  C  C100  1  0.26263000  0.78122000  0.34363000  1.0
  C  C101  1  0.76269000  0.34363000  0.78123000  1.0
  C  C102  1  0.21866000  0.61586000  0.33802000  1.0
  C  C103  1  0.71870000  0.33802000  0.61587000  1.0
  C  C104  1  0.26996000  0.74671000  0.18095000  1.0
  C  C105  1  0.77002000  0.18095000  0.74672000  1.0
  C  C106  1  0.26262000  0.68009000  0.13087000  1.0
  C  C107  1  0.76264000  0.13087000  0.68010000  1.0
  C  C108  1  0.18648000  0.25952000  0.45442000  1.0
  C  C109  1  0.68649000  0.45442000  0.25953000  1.0
  C  C110  1  0.32807000  0.32929000  0.52340000  1.0
  C  C111  1  0.82811000  0.52340000  0.32929000  1.0
  C  C112  1  0.43311000  0.18669000  0.45477000  1.0
  C  C113  1  0.93314000  0.45477000  0.18669000  1.0
  C  C114  1  0.31445000  0.26152000  0.47640000  1.0
  C  C115  1  0.81446000  0.47639000  0.26152000  1.0
  C  C116  1  0.21427000  0.39390000  0.55042000  1.0
  C  C117  1  0.71431000  0.55041000  0.39391000  1.0
  C  C118  1  0.07500000  0.32820000  0.47598000  1.0
  C  C119  1  0.57502000  0.47599000  0.32821000  1.0
  C  C120  1  0.08807000  0.39388000  0.52495000  1.0
  C  C121  1  0.58812000  0.52495000  0.39389000  1.0
  C  C122  1  0.16037000  0.18084000  0.41507000  1.0
  C  C123  1  0.66036000  0.41508000  0.18085000  1.0
  C  C124  1  0.23821000  0.88762000  0.30330000  1.0
  C  C125  1  0.73826000  0.30332000  0.88762000  1.0
  C  C126  1  0.30402000  0.73973000  0.43990000  1.0
  C  C127  1  0.80409000  0.43991000  0.73973000  1.0
  C  C128  1  0.12825000  0.26870000  0.93135000  1.0
  C  C129  1  0.62822000  0.93135000  0.26869000  1.0
  C  C130  1  0.35883000  0.29381000  0.86986000  1.0
  C  C131  1  0.85881000  0.86986000  0.29380000  1.0
  N  N132  1  0.29730000  0.90541000  0.45065000  1.0
  N  N133  1  0.79734000  0.45065000  0.90542000  1.0
  N  N134  1  0.23234000  0.36483000  0.99747000  1.0
  N  N135  1  0.73231000  0.99747000  0.36482000  1.0
  N  N136  1  0.32894000  0.47206000  0.61567000  1.0
  N  N137  1  0.82898000  0.61568000  0.47205000  1.0
  N  N138  1  0.28019000  0.06953000  0.67631000  1.0
  N  N139  1  0.78020000  0.67629000  0.06953000  1.0
  N  N140  1  0.23675000  0.58442000  0.18016000  1.0
  N  N141  1  0.73675000  0.18016000  0.58444000  1.0
  N  N142  1  0.21352000  0.45884000  0.60569000  1.0
  N  N143  1  0.71357000  0.60568000  0.45884000  1.0
  O  O144  1  0.13688000  0.59338000  0.98269000  1.0
  O  O145  1  0.63688000  0.98267000  0.59339000  1.0
  O  O146  1  0.98194000  0.60255000  0.88556000  1.0
  O  O147  1  0.48196000  0.88554000  0.60254000  1.0
  O  O148  1  0.25269000  0.80134000  0.84273000  1.0
  O  O149  1  0.75270000  0.84271000  0.80134000  1.0
  O  O150  1  0.41600000  0.68734000  0.92100000  1.0
  O  O151  1  0.91597000  0.92101000  0.68734000  1.0
  O  O152  1  0.40903000  0.10457000  0.44833000  1.0
  O  O153  1  0.90903000  0.44834000  0.10455000  1.0
  O  O154  1  0.55115000  0.20793000  0.44488000  1.0
  O  O155  1  0.05114000  0.44487000  0.20792000  1.0
  O  O156  1  0.68102000  0.66470000  0.88353000  1.0
  O  O157  1  0.18100000  0.88352000  0.66470000  1.0
  O  O158  1  0.12822000  0.09930000  0.48505000  1.0
  O  O159  1  0.62825000  0.48508000  0.09930000  1.0
  O  O160  1  0.42308000  0.49311000  0.01535000  1.0
  O  O161  1  0.92307000  0.01537000  0.49310000  1.0
  O  O162  1  0.32207000  0.33991000  0.21350000  1.0
  O  O163  1  0.82206000  0.21351000  0.33991000  1.0
  O  O164  1  0.16177000  0.19994000  0.32134000  1.0
  O  O165  1  0.66173000  0.32137000  0.19994000  1.0
