# generated using pymatgen
data_CoH13C20N3O4
_symmetry_space_group_name_H-M   'P 1'
_cell_length_a   7.89515000
_cell_length_b   8.01624000
_cell_length_c   12.75260000
_cell_angle_alpha   85.62570000
_cell_angle_beta   74.39150000
_cell_angle_gamma   79.95300000
_symmetry_Int_Tables_number   1
_chemical_formula_structural   CoH13C20N3O4
_chemical_formula_sum   'Co2 H26 C40 N6 O8'
_cell_volume   765.05400964
_cell_formula_units_Z   2
loop_
 _symmetry_equiv_pos_site_id
 _symmetry_equiv_pos_as_xyz
  1  'x, y, z'
loop_
 _atom_site_type_symbol
 _atom_site_label
 _atom_site_symmetry_multiplicity
 _atom_site_fract_x
 _atom_site_fract_y
 _atom_site_fract_z
 _atom_site_occupancy
  Co  Co0  1  0.64991000  0.49126000  0.81012000  1.0
  Co  Co1  1  0.35011000  0.50872000  0.18988000  1.0
  H  H2  1  0.56070000  0.68593000  0.96193000  1.0
  H  H3  1  0.43938000  0.31402000  0.03804000  1.0
  H  H4  1  0.70743000  0.52976000  0.98923000  1.0
  H  H5  1  0.29257000  0.47017000  0.01074000  1.0
  H  H6  1  0.14756000  0.05659000  0.84606000  1.0
  H  H7  1  0.85249000  0.94341000  0.15392000  1.0
  H  H8  1  0.04406000  0.54336000  0.89610000  1.0
  H  H9  1  0.95594000  0.45667000  0.10388000  1.0
  H  H10  1  0.60689000  0.95830000  0.92735000  1.0
  H  H11  1  0.39311000  0.04167000  0.07269000  1.0
  H  H12  1  0.46434000  0.18667000  0.81458000  1.0
  H  H13  1  0.53575000  0.81323000  0.18541000  1.0
  H  H14  1  0.42742000  0.02264000  0.67036000  1.0
  H  H15  1  0.57258000  0.97734000  0.32963000  1.0
  H  H16  1  0.55424000  0.10702000  0.47095000  1.0
  H  H17  1  0.44568000  0.89302000  0.52904000  1.0
  H  H18  1  0.72615000  0.31527000  0.33622000  1.0
  H  H19  1  0.27379000  0.68478000  0.66379000  1.0
  H  H20  1  0.86893000  0.57267000  0.30891000  1.0
  H  H21  1  0.13104000  0.42736000  0.69108000  1.0
  H  H22  1  0.94059000  0.82405000  0.39220000  1.0
  H  H23  1  0.05932000  0.17600000  0.60781000  1.0
  H  H24  1  0.91384000  0.97109000  0.56743000  1.0
  H  H25  1  0.08607000  0.02895000  0.43258000  1.0
  H  H26  1  0.78006000  0.84518000  0.74398000  1.0
  H  H27  1  0.21987000  0.15484000  0.25602000  1.0
  C  C28  1  0.87028000  0.02855000  0.88724000  1.0
  C  C29  1  0.12974000  0.97145000  0.11278000  1.0
  C  C30  1  0.05271000  0.96818000  0.86687000  1.0
  C  C31  1  0.94732000  0.03183000  0.13314000  1.0
  C  C32  1  0.11551000  0.79469000  0.87407000  1.0
  C  C33  1  0.88452000  0.20533000  0.12592000  1.0
  C  C34  1  0.99486000  0.67925000  0.89650000  1.0
  C  C35  1  0.00517000  0.32078000  0.10347000  1.0
  C  C36  1  0.81181000  0.73857000  0.91553000  1.0
  C  C37  1  0.18822000  0.26142000  0.08445000  1.0
  C  C38  1  0.74913000  0.91355000  0.91447000  1.0
  C  C39  1  0.25089000  0.08644000  0.08553000  1.0
  C  C40  1  0.31484000  0.73904000  0.85396000  1.0
  C  C41  1  0.68516000  0.26097000  0.14605000  1.0
  C  C42  1  0.81189000  0.21336000  0.86819000  1.0
  C  C43  1  0.18813000  0.78661000  0.13182000  1.0
  C  C44  1  0.51620000  0.22298000  0.72960000  1.0
  C  C45  1  0.48380000  0.77702000  0.27041000  1.0
  C  C46  1  0.49620000  0.13148000  0.64555000  1.0
  C  C47  1  0.50375000  0.86856000  0.35444000  1.0
  C  C48  1  0.56685000  0.17688000  0.53753000  1.0
  C  C49  1  0.43311000  0.82313000  0.46247000  1.0
  C  C50  1  0.65552000  0.31839000  0.51320000  1.0
  C  C51  1  0.34447000  0.68163000  0.48680000  1.0
  C  C52  1  0.66731000  0.40479000  0.60262000  1.0
  C  C53  1  0.33269000  0.59521000  0.39737000  1.0
  C  C54  1  0.74262000  0.55446000  0.58762000  1.0
  C  C55  1  0.25739000  0.44552000  0.41239000  1.0
  C  C56  1  0.73197000  0.38232000  0.40601000  1.0
  C  C57  1  0.26800000  0.61770000  0.59400000  1.0
  C  C58  1  0.81015000  0.52500000  0.39058000  1.0
  C  C59  1  0.18983000  0.47505000  0.60941000  1.0
  C  C60  1  0.81496000  0.61774000  0.48146000  1.0
  C  C61  1  0.18502000  0.38227000  0.51854000  1.0
  C  C62  1  0.88302000  0.77118000  0.47273000  1.0
  C  C63  1  0.11696000  0.22886000  0.52727000  1.0
  C  C64  1  0.86947000  0.85007000  0.56826000  1.0
  C  C65  1  0.13047000  0.14995000  0.43175000  1.0
  C  C66  1  0.79366000  0.77927000  0.67037000  1.0
  C  C67  1  0.20634000  0.22071000  0.32965000  1.0
  N  N68  1  0.68755000  0.62223000  0.93039000  1.0
  N  N69  1  0.31252000  0.37773000  0.06959000  1.0
  N  N70  1  0.60304000  0.35633000  0.70879000  1.0
  N  N71  1  0.39695000  0.64365000  0.29122000  1.0
  N  N72  1  0.73299000  0.63132000  0.68239000  1.0
  N  N73  1  0.26710000  0.36864000  0.31761000  1.0
  O  O74  1  0.64734000  0.28125000  0.90837000  1.0
  O  O75  1  0.35270000  0.71869000  0.09165000  1.0
  O  O76  1  0.92026000  0.30029000  0.80656000  1.0
  O  O77  1  0.07976000  0.69968000  0.19345000  1.0
  O  O78  1  0.41356000  0.85013000  0.82628000  1.0
  O  O79  1  0.58643000  0.14988000  0.17372000  1.0
  O  O80  1  0.36910000  0.57851000  0.86640000  1.0
  O  O81  1  0.63088000  0.42151000  0.13363000  1.0
