# generated using pymatgen
data_ZnH12C16(NO)4
_symmetry_space_group_name_H-M   'P 1'
_cell_length_a   5.71176000
_cell_length_b   12.23729590
_cell_length_c   15.52012356
_cell_angle_alpha   110.98079144
_cell_angle_beta   90.02163186
_cell_angle_gamma   103.47415220
_symmetry_Int_Tables_number   1
_chemical_formula_structural   ZnH12C16(NO)4
_chemical_formula_sum   'Zn2 H24 C32 N8 O8'
_cell_volume   980.79649054
_cell_formula_units_Z   2
loop_
 _symmetry_equiv_pos_site_id
 _symmetry_equiv_pos_as_xyz
  1  'x, y, z'
loop_
 _atom_site_type_symbol
 _atom_site_label
 _atom_site_symmetry_multiplicity
 _atom_site_fract_x
 _atom_site_fract_y
 _atom_site_fract_z
 _atom_site_occupancy
  Zn  Zn0  1  0.85236000  0.99996000  0.25007000  1.0
  Zn  Zn1  1  0.14764000  0.00004000  0.74992000  1.0
  H  H2  1  0.63718000  0.93301000  0.54082000  1.0
  H  H3  1  0.70318000  0.06864000  0.96000000  1.0
  H  H4  1  0.36283000  0.06699000  0.45917000  1.0
  H  H5  1  0.29685000  0.93138000  0.04000000  1.0
  H  H6  1  0.94907000  0.16435000  0.44524000  1.0
  H  H7  1  0.78554000  0.83625000  0.05540000  1.0
  H  H8  1  0.05094000  0.83564000  0.55476000  1.0
  H  H9  1  0.21446000  0.16375000  0.94459000  1.0
  H  H10  1  0.28654000  0.32615000  0.54918000  1.0
  H  H11  1  0.96080000  0.67452000  0.95106000  1.0
  H  H12  1  0.71346000  0.67384000  0.45082000  1.0
  H  H13  1  0.03921000  0.32548000  0.04894000  1.0
  H  H14  1  0.33798000  0.12751000  0.21493000  1.0
  H  H15  1  0.21134000  0.87202000  0.28535000  1.0
  H  H16  1  0.66200000  0.87249000  0.78507000  1.0
  H  H17  1  0.78865000  0.12798000  0.71466000  1.0
  H  H18  1  0.69904000  0.45309000  0.57272000  1.0
  H  H19  1  0.24672000  0.54732000  0.92721000  1.0
  H  H20  1  0.30095000  0.54690000  0.42727000  1.0
  H  H21  1  0.75326000  0.45267000  0.07279000  1.0
  H  H22  1  0.69748000  0.28774000  0.30999000  1.0
  H  H23  1  0.40988000  0.71161000  0.18994000  1.0
  H  H24  1  0.30252000  0.71226000  0.69001000  1.0
  H  H25  1  0.59011000  0.28839000  0.81007000  1.0
  C  C26  1  0.58272000  0.96741000  0.49046000  1.0
  C  C27  1  0.61488000  0.03309000  0.00984000  1.0
  C  C28  1  0.41728000  0.03258000  0.50952000  1.0
  C  C29  1  0.38515000  0.96693000  0.99016000  1.0
  C  C30  1  0.11625000  0.19603000  0.41798000  1.0
  C  C31  1  0.92101000  0.80435000  0.08247000  1.0
  C  C32  1  0.88375000  0.80398000  0.58203000  1.0
  C  C33  1  0.07900000  0.19566000  0.91753000  1.0
  C  C34  1  0.70424000  0.94112000  0.40315000  1.0
  C  C35  1  0.76280000  0.05891000  0.09707000  1.0
  C  C36  1  0.29575000  0.05886000  0.59683000  1.0
  C  C37  1  0.23722000  0.94111000  0.90294000  1.0
  C  C38  1  0.51989000  0.32212000  0.43750000  1.0
  C  C39  1  0.19822000  0.67804000  0.06264000  1.0
  C  C40  1  0.48010000  0.67788000  0.56250000  1.0
  C  C41  1  0.80177000  0.32196000  0.93737000  1.0
  C  C42  1  0.30587000  0.28642000  0.47541000  1.0
  C  C43  1  0.01994000  0.71395000  0.02486000  1.0
  C  C44  1  0.69414000  0.71357000  0.52460000  1.0
  C  C45  1  0.98006000  0.28605000  0.97514000  1.0
  C  C46  1  0.33583000  0.17490000  0.28905000  1.0
  C  C47  1  0.16146000  0.82488000  0.21127000  1.0
  C  C48  1  0.66415000  0.82509000  0.71095000  1.0
  C  C49  1  0.83855000  0.17513000  0.78874000  1.0
  C  C50  1  0.71965000  0.41603000  0.49808000  1.0
  C  C51  1  0.30396000  0.58418000  0.00191000  1.0
  C  C52  1  0.28033000  0.58396000  0.50191000  1.0
  C  C53  1  0.69606000  0.41583000  0.99810000  1.0
  C  C54  1  0.53321000  0.26416000  0.34193000  1.0
  C  C55  1  0.26938000  0.73563000  0.15823000  1.0
  C  C56  1  0.46679000  0.73584000  0.65807000  1.0
  C  C57  1  0.73061000  0.26436000  0.84177000  1.0
  N  N58  1  0.13086000  0.14120000  0.32661000  1.0
  N  N59  1  0.99051000  0.85898000  0.17383000  1.0
  N  N60  1  0.86914000  0.85880000  0.67340000  1.0
  N  N61  1  0.00949000  0.14102000  0.82618000  1.0
  N  N62  1  0.91663000  0.45551000  0.46548000  1.0
  N  N63  1  0.46097000  0.54440000  0.03452000  1.0
  N  N64  1  0.08336000  0.54449000  0.53452000  1.0
  N  N65  1  0.53902000  0.45558000  0.96548000  1.0
  O  O66  1  0.63853000  0.98708000  0.34553000  1.0
  O  O67  1  0.65122000  0.01265000  0.15450000  1.0
  O  O68  1  0.36145000  0.01291000  0.65445000  1.0
  O  O69  1  0.34876000  0.98735000  0.84549000  1.0
  O  O70  1  0.85986000  0.88128000  0.38996000  1.0
  O  O71  1  0.97821000  0.11872000  0.11031000  1.0
  O  O72  1  0.14014000  0.11871000  0.61003000  1.0
  O  O73  1  0.02181000  0.88129000  0.88970000  1.0
