# generated using pymatgen
data_GaH4(CO)11
_symmetry_space_group_name_H-M   'P 1'
_cell_length_a   12.08490000
_cell_length_b   12.26430000
_cell_length_c   12.26416074
_cell_angle_alpha   75.95032787
_cell_angle_beta   60.47874796
_cell_angle_gamma   60.48340000
_symmetry_Int_Tables_number   1
_chemical_formula_structural   GaH4(CO)11
_chemical_formula_sum   'Ga4 H16 C44 O44'
_cell_volume   1376.43219032
_cell_formula_units_Z   4
loop_
 _symmetry_equiv_pos_site_id
 _symmetry_equiv_pos_as_xyz
  1  'x, y, z'
loop_
 _atom_site_type_symbol
 _atom_site_label
 _atom_site_symmetry_multiplicity
 _atom_site_fract_x
 _atom_site_fract_y
 _atom_site_fract_z
 _atom_site_occupancy
  Ga  Ga0  1  0.19129000  0.61732000  0.99998000  1.0
  Ga  Ga1  1  0.80857000  0.38270000  0.00003000  1.0
  Ga  Ga2  1  0.55854000  0.49998000  0.88277000  1.0
  Ga  Ga3  1  0.94131000  0.50000000  0.11725000  1.0
  H  H4  1  0.19016000  0.43480000  0.93497000  1.0
  H  H5  1  0.55979000  0.56515000  0.06513000  1.0
  H  H6  1  0.37483000  0.43489000  0.06524000  1.0
  H  H7  1  0.87493000  0.56507000  0.93489000  1.0
  H  H8  1  0.86487000  0.50003000  0.50000000  1.0
  H  H9  1  0.11494000  0.99996000  0.00013000  1.0
  H  H10  1  0.88510000  0.99996000  0.99999000  1.0
  H  H11  1  0.63509000  0.49983000  0.50008000  1.0
  H  H12  1  0.23895000  0.55971000  0.30647000  1.0
  H  H13  1  0.10520000  0.44027000  0.69341000  1.0
  H  H14  1  0.54871000  0.80649000  0.94038000  1.0
  H  H15  1  0.29557000  0.19350000  0.05962000  1.0
  H  H16  1  0.51109000  0.19347000  0.94027000  1.0
  H  H17  1  0.64475000  0.80658000  0.05978000  1.0
  H  H18  1  0.20125000  0.55978000  0.69344000  1.0
  H  H19  1  0.45451000  0.44020000  0.30657000  1.0
  C  C20  1  0.95489000  0.50000000  0.50000000  1.0
  C  C21  1  0.20497000  0.99997000  0.00009000  1.0
  C  C22  1  0.79508000  0.99998000  0.99999000  1.0
  C  C23  1  0.54508000  0.49982000  0.50006000  1.0
  C  C24  1  0.04290000  0.55150000  0.27017000  1.0
  C  C25  1  0.86460000  0.44848000  0.72985000  1.0
  C  C26  1  0.34438000  0.77018000  0.94861000  1.0
  C  C27  1  0.06319000  0.22981000  0.05147000  1.0
  C  C28  1  0.70700000  0.22979000  0.94853000  1.0
  C  C29  1  0.88529000  0.77017000  0.05149000  1.0
  C  C30  1  0.40542000  0.55148000  0.72986000  1.0
  C  C31  1  0.68682000  0.44835000  0.27020000  1.0
  C  C32  1  0.05342000  0.52882000  0.39084000  1.0
  C  C33  1  0.97310000  0.47117000  0.60914000  1.0
  C  C34  1  0.33229000  0.89082000  0.97134000  1.0
  C  C35  1  0.19438000  0.10914000  0.02881000  1.0
  C  C36  1  0.69655000  0.10911000  0.97118000  1.0
  C  C37  1  0.77684000  0.89086000  0.02883000  1.0
  C  C38  1  0.41768000  0.52873000  0.60916000  1.0
  C  C39  1  0.55571000  0.47098000  0.39092000  1.0
  C  C40  1  0.18874000  0.50001000  0.49996000  1.0
  C  C41  1  0.43881000  0.99999000  0.00001000  1.0
  C  C42  1  0.56122000  0.00001000  0.00002000  1.0
  C  C43  1  0.31117000  0.49999000  0.49999000  1.0
  C  C44  1  0.16697000  0.53222000  0.39194000  1.0
  C  C45  1  0.09116000  0.46778000  0.60796000  1.0
  C  C46  1  0.44923000  0.89195000  0.96788000  1.0
  C  C47  1  0.30903000  0.10802000  0.03217000  1.0
  C  C48  1  0.58303000  0.10801000  0.96779000  1.0
  C  C49  1  0.65877000  0.89203000  0.03227000  1.0
  C  C50  1  0.30073000  0.53223000  0.60799000  1.0
  C  C51  1  0.44101000  0.46768000  0.39204000  1.0
  C  C52  1  0.41188000  0.21345000  0.71330000  1.0
  C  C53  1  0.33878000  0.78677000  0.28655000  1.0
  C  C54  1  0.37499000  0.21342000  0.28657000  1.0
  C  C55  1  0.87496000  0.78665000  0.71336000  1.0
  C  C56  1  0.98671000  0.85337000  0.31850000  1.0
  C  C57  1  0.15847000  0.14665000  0.68139000  1.0
  C  C58  1  0.58974000  0.81886000  0.64654000  1.0
  C  C59  1  0.05500000  0.18098000  0.35332000  1.0
  C  C60  1  0.76364000  0.18139000  0.64640000  1.0
  C  C61  1  0.59177000  0.81893000  0.35354000  1.0
  C  C62  1  0.15980000  0.85352000  0.68151000  1.0
  C  C63  1  0.69508000  0.14640000  0.31874000  1.0
  O  O64  1  0.10627000  0.61381000  0.18738000  1.0
  O  O65  1  0.90748000  0.38619000  0.81265000  1.0
  O  O66  1  0.47006000  0.68737000  0.88626000  1.0
  O  O67  1  0.04389000  0.31267000  0.11362000  1.0
  O  O68  1  0.64358000  0.31259000  0.88626000  1.0
  O  O69  1  0.84240000  0.68737000  0.11375000  1.0
  O  O70  1  0.27975000  0.61394000  0.81257000  1.0
  O  O71  1  0.70613000  0.38614000  0.18739000  1.0
  O  O72  1  0.12558000  0.49944000  0.99914000  1.0
  O  O73  1  0.62423000  0.50080000  0.00067000  1.0
  O  O74  1  0.37488000  0.49924000  0.00077000  1.0
  O  O75  1  0.87494000  0.50067000  0.99930000  1.0
  O  O76  1  0.97474000  0.50476000  0.26058000  1.0
  O  O77  1  0.74010000  0.49520000  0.73942000  1.0
  O  O78  1  0.22947000  0.76063000  0.99532000  1.0
  O  O79  1  0.98532000  0.23936000  0.00489000  1.0
  O  O80  1  0.77510000  0.23943000  0.99530000  1.0
  O  O81  1  0.00977000  0.76058000  0.00475000  1.0
  O  O82  1  0.52030000  0.50464000  0.73952000  1.0
  O  O83  1  0.76459000  0.49510000  0.26056000  1.0
  O  O84  1  0.33386000  0.29153000  0.79137000  1.0
  O  O85  1  0.41686000  0.70863000  0.20852000  1.0
  O  O86  1  0.37512000  0.29152000  0.20850000  1.0
  O  O87  1  0.87507000  0.70855000  0.79142000  1.0
  O  O88  1  0.48939000  0.13589000  0.63562000  1.0
  O  O89  1  0.26113000  0.86450000  0.36405000  1.0
  O  O90  1  0.37485000  0.13580000  0.36417000  1.0
  O  O91  1  0.87485000  0.86429000  0.63577000  1.0
  O  O92  1  0.87710000  0.84971000  0.37815000  1.0
  O  O93  1  0.10493000  0.15054000  0.62159000  1.0
  O  O94  1  0.47639000  0.87868000  0.65046000  1.0
  O  O95  1  0.00546000  0.12116000  0.34928000  1.0
  O  O96  1  0.87319000  0.12167000  0.65013000  1.0
  O  O97  1  0.64532000  0.87880000  0.34948000  1.0
  O  O98  1  0.27315000  0.84964000  0.62177000  1.0
  O  O99  1  0.74460000  0.15038000  0.37862000  1.0
  O  O100  1  0.09579000  0.85805000  0.25889000  1.0
  O  O101  1  0.21258000  0.14175000  0.74114000  1.0
  O  O102  1  0.70362000  0.75899000  0.64157000  1.0
  O  O103  1  0.10409000  0.24077000  0.35837000  1.0
  O  O104  1  0.65462000  0.24114000  0.64163000  1.0
  O  O105  1  0.53773000  0.75905000  0.35860000  1.0
  O  O106  1  0.04593000  0.85845000  0.74124000  1.0
  O  O107  1  0.64605000  0.14140000  0.25888000  1.0
