# generated using pymatgen
data_Zn4H28C32N2O17
_symmetry_space_group_name_H-M   'P 1'
_cell_length_a   17.88420000
_cell_length_b   18.58660000
_cell_length_c   19.74281314
_cell_angle_alpha   116.93151276
_cell_angle_beta   116.67715743
_cell_angle_gamma   90.04090000
_symmetry_Int_Tables_number   1
_chemical_formula_structural   Zn4H28C32N2O17
_chemical_formula_sum   'Zn8 H56 C64 N4 O34'
_cell_volume   5053.65979818
_cell_formula_units_Z   2
loop_
 _symmetry_equiv_pos_site_id
 _symmetry_equiv_pos_as_xyz
  1  'x, y, z'
loop_
 _atom_site_type_symbol
 _atom_site_label
 _atom_site_symmetry_multiplicity
 _atom_site_fract_x
 _atom_site_fract_y
 _atom_site_fract_z
 _atom_site_occupancy
  Zn  Zn0  1  0.12795000  0.53186000  0.07230000  1.0
  Zn  Zn1  1  0.96114000  0.38117000  0.93044000  1.0
  Zn  Zn2  1  0.96958000  0.55838000  0.93938000  1.0
  Zn  Zn3  1  0.95326000  0.54393000  0.08797000  1.0
  Zn  Zn4  1  0.37800000  0.96919000  0.94081000  1.0
  Zn  Zn5  1  0.54059000  0.95114000  0.07779000  1.0
  Zn  Zn6  1  0.53836000  0.12697000  0.08541000  1.0
  Zn  Zn7  1  0.55616000  0.96932000  0.93148000  1.0
  H  H8  1  0.42931000  0.82848000  0.64757000  1.0
  H  H9  1  0.20943000  0.83724000  0.68387000  1.0
  H  H10  1  0.08556000  0.68756000  0.36854000  1.0
  H  H11  1  0.30500000  0.66197000  0.33175000  1.0
  H  H12  1  0.67892000  0.27711000  0.36243000  1.0
  H  H13  1  0.65863000  0.03607000  0.33944000  1.0
  H  H14  1  0.82614000  0.23059000  0.65271000  1.0
  H  H15  1  0.83290000  0.47190000  0.67614000  1.0
  H  H16  1  0.21431000  0.79994000  0.11560000  1.0
  H  H17  1  0.12983000  0.78451000  0.01423000  1.0
  H  H18  1  0.22135000  0.87943000  0.01976000  1.0
  H  H19  1  0.30595000  0.89258000  0.11991000  1.0
  H  H20  1  0.20031000  0.76617000  0.87518000  1.0
  H  H21  1  0.27176000  0.70071000  0.87179000  1.0
  H  H22  1  0.11125000  0.66996000  0.87085000  1.0
  H  H23  1  0.18482000  0.60660000  0.87056000  1.0
  H  H24  1  0.31946000  0.70758000  0.11577000  1.0
  H  H25  1  0.30657000  0.62744000  0.01606000  1.0
  H  H26  1  0.39509000  0.71959000  0.01569000  1.0
  H  H27  1  0.41010000  0.79889000  0.11680000  1.0
  H  H28  1  0.90676000  0.30780000  0.12330000  1.0
  H  H29  1  0.88838000  0.22908000  0.01923000  1.0
  H  H30  1  0.79978000  0.13668000  0.01904000  1.0
  H  H31  1  0.81790000  0.21610000  0.12266000  1.0
  H  H32  1  0.67643000  0.11974000  0.87981000  1.0
  H  H33  1  0.60523000  0.18532000  0.88303000  1.0
  H  H34  1  0.76407000  0.21334000  0.88023000  1.0
  H  H35  1  0.69345000  0.27935000  0.88545000  1.0
  H  H36  1  0.80706000  0.40448000  0.13199000  1.0
  H  H37  1  0.72042000  0.39406000  0.03541000  1.0
  H  H38  1  0.63050000  0.30071000  0.03288000  1.0
  H  H39  1  0.71683000  0.31200000  0.12999000  1.0
  H  H40  1  0.17405000  0.27570000  0.08170000  1.0
  H  H41  1  0.26422000  0.35985000  0.13505000  1.0
  H  H42  1  0.35453000  0.26962000  0.14095000  1.0
  H  H43  1  0.26358000  0.18557000  0.08617000  1.0
  H  H44  1  0.40106000  0.30453000  0.05445000  1.0
  H  H45  1  0.34533000  0.24442000  0.93843000  1.0
  H  H46  1  0.30911000  0.39359000  0.04598000  1.0
  H  H47  1  0.25240000  0.33142000  0.93008000  1.0
  H  H48  1  0.09062000  0.18768000  0.91418000  1.0
  H  H49  1  0.12222000  0.21111000  0.85260000  1.0
  H  H50  1  0.21417000  0.12227000  0.85838000  1.0
  H  H51  1  0.18185000  0.09824000  0.91916000  1.0
  H  H52  1  0.91276000  0.81351000  0.09500000  1.0
  H  H53  1  0.87490000  0.78867000  0.15277000  1.0
  H  H54  1  0.78920000  0.88280000  0.14797000  1.0
  H  H55  1  0.82471000  0.90452000  0.08710000  1.0
  H  H56  1  0.65908000  0.76353000  0.06964000  1.0
  H  H57  1  0.60018000  0.70354000  0.95367000  1.0
  H  H58  1  0.74580000  0.66940000  0.07174000  1.0
  H  H59  1  0.68774000  0.61128000  0.95565000  1.0
  H  H60  1  0.83020000  0.73098000  0.92748000  1.0
  H  H61  1  0.73999000  0.64683000  0.86990000  1.0
  H  H62  1  0.64871000  0.73630000  0.86554000  1.0
  H  H63  1  0.73867000  0.81963000  0.91936000  1.0
  C  C64  1  0.13912000  0.35873000  0.99401000  1.0
  C  C65  1  0.88067000  0.39549000  0.77154000  1.0
  C  C66  1  0.14580000  0.63540000  0.99972000  1.0
  C  C67  1  0.86404000  0.64643000  0.01584000  1.0
  C  C68  1  0.13054000  0.62026000  0.24301000  1.0
  C  C69  1  0.86219000  0.36894000  0.01273000  1.0
  C  C70  1  0.36349000  0.85983000  0.00481000  1.0
  C  C71  1  0.61228000  0.11264000  0.24413000  1.0
  C  C72  1  0.35933000  0.14154000  0.00577000  1.0
  C  C73  1  0.64479000  0.14468000  0.01061000  1.0
  C  C74  1  0.38290000  0.88598000  0.77311000  1.0
  C  C75  1  0.64839000  0.86864000  0.00796000  1.0
  C  C76  1  0.35948000  0.81239000  0.61919000  1.0
  C  C77  1  0.23529000  0.81817000  0.63970000  1.0
  C  C78  1  0.18058000  0.77639000  0.55030000  1.0
  C  C79  1  0.21106000  0.74795000  0.48931000  1.0
  C  C80  1  0.15541000  0.70051000  0.39682000  1.0
  C  C81  1  0.27920000  0.68669000  0.37592000  1.0
  C  C82  1  0.33413000  0.73402000  0.46524000  1.0
  C  C83  1  0.30397000  0.76670000  0.52649000  1.0
  C  C84  1  0.32571000  0.83746000  0.67467000  1.0
  C  C85  1  0.18881000  0.67049000  0.34115000  1.0
  C  C86  1  0.69363000  0.24003000  0.39423000  1.0
  C  C87  1  0.68263000  0.10362000  0.38095000  1.0
  C  C88  1  0.73244000  0.14031000  0.47067000  1.0
  C  C89  1  0.76378000  0.22870000  0.52813000  1.0
  C  C90  1  0.80932000  0.26780000  0.62107000  1.0
  C  C91  1  0.81372000  0.40428000  0.63456000  1.0
  C  C92  1  0.77127000  0.36751000  0.54466000  1.0
  C  C93  1  0.74301000  0.27907000  0.48708000  1.0
  C  C94  1  0.66372000  0.15409000  0.34238000  1.0
  C  C95  1  0.83320000  0.35383000  0.67316000  1.0
  C  C96  1  0.19771000  0.78340000  0.04861000  1.0
  C  C97  1  0.25824000  0.84568000  0.05148000  1.0
  C  C98  1  0.30657000  0.79814000  0.00369000  1.0
  C  C99  1  0.23837000  0.73332000  0.90746000  1.0
  C  C100  1  0.17954000  0.67043000  0.90565000  1.0
  C  C101  1  0.20620000  0.69362000  0.00048000  1.0
  C  C102  1  0.30090000  0.69155000  0.04859000  1.0
  C  C103  1  0.36025000  0.75263000  0.04926000  1.0
  C  C104  1  0.85596000  0.26263000  0.05553000  1.0
  C  C105  1  0.79674000  0.20115000  0.05511000  1.0
  C  C106  1  0.70178000  0.20649000  0.01120000  1.0
  C  C107  1  0.67333000  0.18402000  0.91623000  1.0
  C  C108  1  0.73205000  0.24616000  0.91714000  1.0
  C  C109  1  0.80182000  0.31066000  0.01259000  1.0
  C  C110  1  0.75751000  0.35835000  0.06426000  1.0
  C  C111  1  0.69790000  0.29665000  0.06293000  1.0
  C  C112  1  0.22982000  0.29617000  0.07884000  1.0
  C  C113  1  0.28988000  0.23634000  0.08243000  1.0
  C  C114  1  0.29851000  0.19842000  0.99923000  1.0
  C  C115  1  0.33655000  0.27066000  0.99596000  1.0
  C  C116  1  0.27543000  0.32940000  0.99093000  1.0
  C  C117  1  0.19649000  0.29833000  0.99265000  1.0
  C  C118  1  0.14740000  0.20958000  0.91384000  1.0
  C  C119  1  0.20811000  0.15044000  0.91750000  1.0
  C  C120  1  0.85406000  0.79230000  0.09313000  1.0
  C  C121  1  0.79590000  0.85382000  0.08929000  1.0
  C  C122  1  0.70476000  0.80722000  0.00665000  1.0
  C  C123  1  0.66581000  0.73608000  0.01103000  1.0
  C  C124  1  0.72396000  0.67434000  0.01277000  1.0
  C  C125  1  0.80353000  0.70404000  0.01141000  1.0
  C  C126  1  0.77331000  0.70976000  0.92801000  1.0
  C  C127  1  0.71332000  0.76942000  0.92425000  1.0
  N  N128  1  0.42754000  0.74950000  0.49468000  1.0
  N  N129  1  0.08705000  0.76258000  0.52026000  1.0
  N  N130  1  0.75635000  0.42511000  0.51000000  1.0
  N  N131  1  0.75299000  0.08261000  0.50513000  1.0
  O  O132  1  0.00117000  0.50306000  0.00865000  1.0
  O  O133  1  0.17728000  0.43582000  0.05094000  1.0
  O  O134  1  0.89485000  0.34857000  0.80465000  1.0
  O  O135  1  0.06473000  0.62485000  0.95239000  1.0
  O  O136  1  0.05790000  0.32868000  0.94056000  1.0
  O  O137  1  0.17985000  0.60274000  0.04727000  1.0
  O  O138  1  0.90246000  0.47495000  0.81287000  1.0
  O  O139  1  0.89716000  0.63114000  0.96705000  1.0
  O  O140  1  0.04912000  0.60528000  0.21270000  1.0
  O  O141  1  0.87880000  0.61911000  0.06835000  1.0
  O  O142  1  0.16936000  0.59733000  0.19910000  1.0
  O  O143  1  0.88896000  0.33407000  0.95834000  1.0
  O  O144  1  0.88235000  0.44698000  0.06703000  1.0
  O  O145  1  0.50459000  0.00540000  0.00750000  1.0
  O  O146  1  0.32563000  0.90056000  0.96743000  1.0
  O  O147  1  0.58573000  0.03340000  0.20273000  1.0
  O  O148  1  0.43904000  0.17633000  0.06476000  1.0
  O  O149  1  0.44477000  0.86682000  0.04292000  1.0
  O  O150  1  0.32614000  0.06331000  0.95248000  1.0
  O  O151  1  0.60013000  0.15951000  0.21108000  1.0
  O  O152  1  0.61686000  0.17531000  0.06424000  1.0
  O  O153  1  0.46409000  0.90869000  0.80489000  1.0
  O  O154  1  0.63008000  0.06702000  0.95712000  1.0
  O  O155  1  0.34315000  0.89987000  0.81576000  1.0
  O  O156  1  0.63209000  0.89715000  0.07079000  1.0
  O  O157  1  0.62203000  0.88768000  0.94801000  1.0
  O  O158  1  0.47494000  0.81952000  0.55721000  1.0
  O  O159  1  0.45175000  0.69174000  0.45323000  1.0
  O  O160  1  0.03955000  0.77120000  0.45692000  1.0
  O  O161  1  0.06285000  0.74516000  0.56200000  1.0
  O  O162  1  0.76490000  0.40604000  0.44543000  1.0
  O  O163  1  0.73822000  0.48971000  0.54936000  1.0
  O  O164  1  0.82713000  0.10037000  0.56705000  1.0
  O  O165  1  0.69518000  0.01919000  0.46816000  1.0
