# generated using pymatgen
data_HgH9C8SBr2
_symmetry_space_group_name_H-M   'P 1'
_cell_length_a   6.25881000
_cell_length_b   11.83370000
_cell_length_c   15.02140000
_cell_angle_alpha   91.75220000
_cell_angle_beta   89.99650000
_cell_angle_gamma   89.99840000
_symmetry_Int_Tables_number   1
_chemical_formula_structural   HgH9C8SBr2
_chemical_formula_sum   'Hg4 H36 C32 S4 Br8'
_cell_volume   1112.03797158
_cell_formula_units_Z   4
loop_
 _symmetry_equiv_pos_site_id
 _symmetry_equiv_pos_as_xyz
  1  'x, y, z'
loop_
 _atom_site_type_symbol
 _atom_site_label
 _atom_site_symmetry_multiplicity
 _atom_site_fract_x
 _atom_site_fract_y
 _atom_site_fract_z
 _atom_site_occupancy
  Hg  Hg0  1  0.96877000  0.61861000  0.76106000  1.0
  Hg  Hg1  1  0.46874000  0.38139000  0.73893000  1.0
  Hg  Hg2  1  0.03122000  0.38138000  0.23894000  1.0
  Hg  Hg3  1  0.53123000  0.61862000  0.26108000  1.0
  H  H4  1  0.23408000  0.82904000  0.68255000  1.0
  H  H5  1  0.73407000  0.17100000  0.81745000  1.0
  H  H6  1  0.76591000  0.17095000  0.31747000  1.0
  H  H7  1  0.26590000  0.82901000  0.18255000  1.0
  H  H8  1  0.28899000  0.03713000  0.69331000  1.0
  H  H9  1  0.78904000  0.96290000  0.80669000  1.0
  H  H10  1  0.71102000  0.96286000  0.30670000  1.0
  H  H11  1  0.21100000  0.03712000  0.19331000  1.0
  H  H12  1  0.00494000  0.16697000  0.64207000  1.0
  H  H13  1  0.50494000  0.83305000  0.85792000  1.0
  H  H14  1  0.99509000  0.83302000  0.35793000  1.0
  H  H15  1  0.49510000  0.16695000  0.14208000  1.0
  H  H16  1  0.66421000  0.08948000  0.58105000  1.0
  H  H17  1  0.16417000  0.91056000  0.91894000  1.0
  H  H18  1  0.33584000  0.91052000  0.41894000  1.0
  H  H19  1  0.83583000  0.08943000  0.08104000  1.0
  H  H20  1  0.61168000  0.88038000  0.56632000  1.0
  H  H21  1  0.11165000  0.11964000  0.93368000  1.0
  H  H22  1  0.38834000  0.11962000  0.43368000  1.0
  H  H23  1  0.88833000  0.88034000  0.06631000  1.0
  H  H24  1  0.06749000  0.69618000  0.47496000  1.0
  H  H25  1  0.56749000  0.30383000  0.02503000  1.0
  H  H26  1  0.93248000  0.30383000  0.52505000  1.0
  H  H27  1  0.43251000  0.69618000  0.97497000  1.0
  H  H28  1  0.24353000  0.68266000  0.56810000  1.0
  H  H29  1  0.74351000  0.31733000  0.93187000  1.0
  H  H30  1  0.75646000  0.31734000  0.43190000  1.0
  H  H31  1  0.25647000  0.68267000  0.06811000  1.0
  H  H32  1  0.12707000  0.48323000  0.58631000  1.0
  H  H33  1  0.62708000  0.51678000  0.91368000  1.0
  H  H34  1  0.87290000  0.51677000  0.41369000  1.0
  H  H35  1  0.37291000  0.48323000  0.08631000  1.0
  H  H36  1  0.24287000  0.50603000  0.48193000  1.0
  H  H37  1  0.74287000  0.49396000  0.01805000  1.0
  H  H38  1  0.75712000  0.49396000  0.51807000  1.0
  H  H39  1  0.25712000  0.50604000  0.98194000  1.0
  C  C40  1  0.92021000  0.84297000  0.62293000  1.0
  C  C41  1  0.42020000  0.15706000  0.87707000  1.0
  C  C42  1  0.07981000  0.15702000  0.37707000  1.0
  C  C43  1  0.57978000  0.84295000  0.12294000  1.0
  C  C44  1  0.11078000  0.88623000  0.65922000  1.0
  C  C45  1  0.61076000  0.11381000  0.84078000  1.0
  C  C46  1  0.88922000  0.11378000  0.34080000  1.0
  C  C47  1  0.38923000  0.88619000  0.15922000  1.0
  C  C48  1  0.14049000  0.00297000  0.66565000  1.0
  C  C49  1  0.64053000  0.99705000  0.83435000  1.0
  C  C50  1  0.85951000  0.99704000  0.33435000  1.0
  C  C51  1  0.35949000  0.00295000  0.16566000  1.0
  C  C52  1  0.98027000  0.07580000  0.63690000  1.0
  C  C53  1  0.48026000  0.92423000  0.86308000  1.0
  C  C54  1  0.01974000  0.92420000  0.36309000  1.0
  C  C55  1  0.51975000  0.07576000  0.13692000  1.0
  C  C56  1  0.78953000  0.03209000  0.60210000  1.0
  C  C57  1  0.28952000  0.96794000  0.89789000  1.0
  C  C58  1  0.21049000  0.96791000  0.39789000  1.0
  C  C59  1  0.71050000  0.03205000  0.10210000  1.0
  C  C60  1  0.75865000  0.91541000  0.59473000  1.0
  C  C61  1  0.25860000  0.08462000  0.90526000  1.0
  C  C62  1  0.24138000  0.08459000  0.40527000  1.0
  C  C63  1  0.74139000  0.91538000  0.09473000  1.0
  C  C64  1  0.09481000  0.65209000  0.53729000  1.0
  C  C65  1  0.59479000  0.34791000  0.96269000  1.0
  C  C66  1  0.90517000  0.34791000  0.46272000  1.0
  C  C67  1  0.40518000  0.65209000  0.03729000  1.0
  C  C68  1  0.09979000  0.52449000  0.52264000  1.0
  C  C69  1  0.59980000  0.47551000  0.97735000  1.0
  C  C70  1  0.90019000  0.47551000  0.47736000  1.0
  C  C71  1  0.40019000  0.52449000  0.02264000  1.0
  S  S72  1  0.87278000  0.69530000  0.60965000  1.0
  S  S73  1  0.37277000  0.30473000  0.89035000  1.0
  S  S74  1  0.12719000  0.30470000  0.39036000  1.0
  S  S75  1  0.62720000  0.69527000  0.10965000  1.0
  Br  Br76  1  0.42600000  0.61059000  0.74673000  1.0
  Br  Br77  1  0.92598000  0.38943000  0.75327000  1.0
  Br  Br78  1  0.57401000  0.38942000  0.25329000  1.0
  Br  Br79  1  0.07401000  0.61057000  0.24673000  1.0
  Br  Br80  1  0.93096000  0.71687000  0.91316000  1.0
  Br  Br81  1  0.43109000  0.28319000  0.58682000  1.0
  Br  Br82  1  0.06902000  0.28313000  0.08684000  1.0
  Br  Br83  1  0.56901000  0.71685000  0.41317000  1.0
