# generated using pymatgen
data_CuH4C6(NCl)2
_symmetry_space_group_name_H-M   'P 1'
_cell_length_a   3.79429000
_cell_length_b   7.80351000
_cell_length_c   13.79430000
_cell_angle_alpha   97.29620000
_cell_angle_beta   95.50220000
_cell_angle_gamma   96.95550000
_symmetry_Int_Tables_number   1
_chemical_formula_structural   CuH4C6(NCl)2
_chemical_formula_sum   'Cu2 H8 C12 N4 Cl4'
_cell_volume   399.56786079
_cell_formula_units_Z   2
loop_
 _symmetry_equiv_pos_site_id
 _symmetry_equiv_pos_as_xyz
  1  'x, y, z'
loop_
 _atom_site_type_symbol
 _atom_site_label
 _atom_site_symmetry_multiplicity
 _atom_site_fract_x
 _atom_site_fract_y
 _atom_site_fract_z
 _atom_site_occupancy
  Cu  Cu0  1  0.69334000  0.99192000  0.11579000  1.0
  Cu  Cu1  1  0.30667000  0.00808000  0.88421000  1.0
  H  H2  1  0.62107000  0.97875000  0.32577000  1.0
  H  H3  1  0.37892000  0.02126000  0.67423000  1.0
  H  H4  1  0.78361000  0.62267000  0.08944000  1.0
  H  H5  1  0.21639000  0.37732000  0.91056000  1.0
  H  H6  1  0.63287000  0.75386000  0.44072000  1.0
  H  H7  1  0.36711000  0.24614000  0.55928000  1.0
  H  H8  1  0.82440000  0.38580000  0.19484000  1.0
  H  H9  1  0.17561000  0.61420000  0.80516000  1.0
  C  C10  1  0.66066000  0.84522000  0.30017000  1.0
  C  C11  1  0.33933000  0.15478000  0.69983000  1.0
  C  C12  1  0.75407000  0.64577000  0.16758000  1.0
  C  C13  1  0.24592000  0.35423000  0.83243000  1.0
  C  C14  1  0.67081000  0.72069000  0.36368000  1.0
  C  C15  1  0.32918000  0.27931000  0.63632000  1.0
  C  C16  1  0.77407000  0.51447000  0.22604000  1.0
  C  C17  1  0.22593000  0.48553000  0.77396000  1.0
  C  C18  1  0.72784000  0.55194000  0.32578000  1.0
  C  C19  1  0.27216000  0.44806000  0.67422000  1.0
  C  C20  1  0.73651000  0.41761000  0.38702000  1.0
  C  C21  1  0.26349000  0.58240000  0.61299000  1.0
  N  N22  1  0.69733000  0.80725000  0.20388000  1.0
  N  N23  1  0.30267000  0.19275000  0.79612000  1.0
  N  N24  1  0.74294000  0.30649000  0.43605000  1.0
  N  N25  1  0.25707000  0.69351000  0.56395000  1.0
  Cl  Cl26  1  0.28452000  0.81288000  0.99738000  1.0
  Cl  Cl27  1  0.71549000  0.18712000  0.00262000  1.0
  Cl  Cl28  1  0.19585000  0.14025000  0.20603000  1.0
  Cl  Cl29  1  0.80416000  0.85975000  0.79396000  1.0
