# generated using pymatgen
data_ZnH18C18S(NO2)2
_symmetry_space_group_name_H-M   'P 1'
_cell_length_a   5.33095000
_cell_length_b   10.18520000
_cell_length_c   17.22320000
_cell_angle_alpha   101.41400000
_cell_angle_beta   89.99760000
_cell_angle_gamma   89.99070000
_symmetry_Int_Tables_number   1
_chemical_formula_structural   ZnH18C18S(NO2)2
_chemical_formula_sum   'Zn2 H36 C36 S2 N4 O8'
_cell_volume   916.66960218
_cell_formula_units_Z   2
loop_
 _symmetry_equiv_pos_site_id
 _symmetry_equiv_pos_as_xyz
  1  'x, y, z'
loop_
 _atom_site_type_symbol
 _atom_site_label
 _atom_site_symmetry_multiplicity
 _atom_site_fract_x
 _atom_site_fract_y
 _atom_site_fract_z
 _atom_site_occupancy
  Zn  Zn0  1  0.75134000  0.75001000  0.25000000  1.0
  Zn  Zn1  1  0.24867000  0.24999000  0.75000000  1.0
  H  H2  1  0.77068000  0.99741000  0.18845000  1.0
  H  H3  1  0.77070000  0.50256000  0.31153000  1.0
  H  H4  1  0.22931000  0.00259000  0.81155000  1.0
  H  H5  1  0.22930000  0.49743000  0.68848000  1.0
  H  H6  1  0.52633000  0.11195000  0.09968000  1.0
  H  H7  1  0.52636000  0.38801000  0.40029000  1.0
  H  H8  1  0.47366000  0.88805000  0.90032000  1.0
  H  H9  1  0.47361000  0.61199000  0.59971000  1.0
  H  H10  1  0.03533000  0.76569000  0.05361000  1.0
  H  H11  1  0.03521000  0.73430000  0.44639000  1.0
  H  H12  1  0.96468000  0.23431000  0.94639000  1.0
  H  H13  1  0.96479000  0.26571000  0.55360000  1.0
  H  H14  1  0.30972000  0.66302000  0.14139000  1.0
  H  H15  1  0.30966000  0.83701000  0.35864000  1.0
  H  H16  1  0.69029000  0.33698000  0.85860000  1.0
  H  H17  1  0.69037000  0.16300000  0.64137000  1.0
  H  H18  1  0.17444000  0.12280000  0.01772000  1.0
  H  H19  1  0.17445000  0.37717000  0.48226000  1.0
  H  H20  1  0.82555000  0.87719000  0.98227000  1.0
  H  H21  1  0.82553000  0.62282000  0.51774000  1.0
  H  H22  1  0.20842000  0.42311000  0.09395000  1.0
  H  H23  1  0.20808000  0.07694000  0.40610000  1.0
  H  H24  1  0.79160000  0.57689000  0.90604000  1.0
  H  H25  1  0.79192000  0.92307000  0.59390000  1.0
  H  H26  1  0.95827000  0.30441000  0.08978000  1.0
  H  H27  1  0.95787000  0.19560000  0.41017000  1.0
  H  H28  1  0.04175000  0.69559000  0.91021000  1.0
  H  H29  1  0.04215000  0.80440000  0.58982000  1.0
  H  H30  1  0.27598000  0.41997000  0.23637000  1.0
  H  H31  1  0.27603000  0.07999000  0.26369000  1.0
  H  H32  1  0.72404000  0.58004000  0.76363000  1.0
  H  H33  1  0.72397000  0.92001000  0.73631000  1.0
  H  H34  1  0.34290000  0.26479000  0.17306000  1.0
  H  H35  1  0.34265000  0.23523000  0.32697000  1.0
  H  H36  1  0.65713000  0.73521000  0.82694000  1.0
  H  H37  1  0.65735000  0.76477000  0.67302000  1.0
  C  C38  1  0.60735000  0.94909000  0.15698000  1.0
  C  C39  1  0.60737000  0.55089000  0.34301000  1.0
  C  C40  1  0.39264000  0.05091000  0.84301000  1.0
  C  C41  1  0.39263000  0.44911000  0.65699000  1.0
  C  C42  1  0.46777000  0.01300000  0.10763000  1.0
  C  C43  1  0.46778000  0.48698000  0.39236000  1.0
  C  C44  1  0.53222000  0.98700000  0.89237000  1.0
  C  C45  1  0.53221000  0.51303000  0.60765000  1.0
  C  C46  1  0.25304000  0.95110000  0.06925000  1.0
  C  C47  1  0.25303000  0.54888000  0.43074000  1.0
  C  C48  1  0.74696000  0.04890000  0.93074000  1.0
  C  C49  1  0.74696000  0.45112000  0.56926000  1.0
  C  C50  1  0.19687000  0.82153000  0.08144000  1.0
  C  C51  1  0.19680000  0.67847000  0.41857000  1.0
  C  C52  1  0.80312000  0.17846000  0.91856000  1.0
  C  C53  1  0.80317000  0.32154000  0.58144000  1.0
  C  C54  1  0.34793000  0.76257000  0.13050000  1.0
  C  C55  1  0.34787000  0.73743000  0.36952000  1.0
  C  C56  1  0.65208000  0.23742000  0.86950000  1.0
  C  C57  1  0.65215000  0.26258000  0.63049000  1.0
  C  C58  1  0.10475000  0.02301000  0.02034000  1.0
  C  C59  1  0.10475000  0.47698000  0.47965000  1.0
  C  C60  1  0.89524000  0.97698000  0.97966000  1.0
  C  C61  1  0.89524000  0.52302000  0.52034000  1.0
  C  C62  1  0.87793000  0.49980000  0.15798000  1.0
  C  C63  1  0.87776000  0.00018000  0.34203000  1.0
  C  C64  1  0.12208000  0.50020000  0.84201000  1.0
  C  C65  1  0.12223000  0.99983000  0.65798000  1.0
  C  C66  1  0.06059000  0.38527000  0.12858000  1.0
  C  C67  1  0.06030000  0.11472000  0.37141000  1.0
  C  C68  1  0.93942000  0.61472000  0.87142000  1.0
  C  C69  1  0.93971000  0.88529000  0.62860000  1.0
  C  C70  1  0.19178000  0.33492000  0.19575000  1.0
  C  C71  1  0.19169000  0.16504000  0.30426000  1.0
  C  C72  1  0.80824000  0.66507000  0.80424000  1.0
  C  C73  1  0.80831000  0.83496000  0.69574000  1.0
  S  S74  1  0.97149000  0.24994000  0.24995000  1.0
  S  S75  1  0.02852000  0.75006000  0.75004000  1.0
  N  N76  1  0.54840000  0.82588000  0.16875000  1.0
  N  N77  1  0.54839000  0.67412000  0.33127000  1.0
  N  N78  1  0.45159000  0.17412000  0.83125000  1.0
  N  N79  1  0.45162000  0.32588000  0.66874000  1.0
  O  O80  1  0.97583000  0.59805000  0.20939000  1.0
  O  O81  1  0.97574000  0.90195000  0.29061000  1.0
  O  O82  1  0.02419000  0.40195000  0.79061000  1.0
  O  O83  1  0.02423000  0.09805000  0.70939000  1.0
  O  O84  1  0.65743000  0.49653000  0.13365000  1.0
  O  O85  1  0.65727000  0.00343000  0.36636000  1.0
  O  O86  1  0.34258000  0.50347000  0.86636000  1.0
  O  O87  1  0.34273000  0.99657000  0.63366000  1.0
