# generated using pymatgen
data_CaH16(C3O4)3
_symmetry_space_group_name_H-M   'P 1'
_cell_length_a   5.54138000
_cell_length_b   11.90960000
_cell_length_c   11.90980000
_cell_angle_alpha   119.98100000
_cell_angle_beta   89.99630000
_cell_angle_gamma   89.99740000
_symmetry_Int_Tables_number   1
_chemical_formula_structural   CaH16(C3O4)3
_chemical_formula_sum   'Ca2 H32 C18 O24'
_cell_volume   680.82159472
_cell_formula_units_Z   2
loop_
 _symmetry_equiv_pos_site_id
 _symmetry_equiv_pos_as_xyz
  1  'x, y, z'
loop_
 _atom_site_type_symbol
 _atom_site_label
 _atom_site_symmetry_multiplicity
 _atom_site_fract_x
 _atom_site_fract_y
 _atom_site_fract_z
 _atom_site_occupancy
  Ca  Ca0  1  0.00001000  0.16047000  0.16045000  1.0
  Ca  Ca1  1  0.00002000  0.66045000  0.66047000  1.0
  H  H2  1  0.98467000  0.40572000  0.90572000  1.0
  H  H3  1  0.01530000  0.90575000  0.40575000  1.0
  H  H4  1  0.78809000  0.52478000  0.02478000  1.0
  H  H5  1  0.21188000  0.02480000  0.52479000  1.0
  H  H6  1  0.47998000  0.35995000  0.97895000  1.0
  H  H7  1  0.52000000  0.97894000  0.35994000  1.0
  H  H8  1  0.52000000  0.85994000  0.47893000  1.0
  H  H9  1  0.47998000  0.47895000  0.85996000  1.0
  H  H10  1  0.84100000  0.88970000  0.08561000  1.0
  H  H11  1  0.15907000  0.08564000  0.88969000  1.0
  H  H12  1  0.15907000  0.38969000  0.58564000  1.0
  H  H13  1  0.84102000  0.58562000  0.38970000  1.0
  H  H14  1  0.44759000  0.16887000  0.77881000  1.0
  H  H15  1  0.55241000  0.77880000  0.16886000  1.0
  H  H16  1  0.55240000  0.66887000  0.27880000  1.0
  H  H17  1  0.44758000  0.27881000  0.66888000  1.0
  H  H18  1  0.75815000  0.40267000  0.38589000  1.0
  H  H19  1  0.24172000  0.38587000  0.40260000  1.0
  H  H20  1  0.24172000  0.90261000  0.88587000  1.0
  H  H21  1  0.75815000  0.88589000  0.90267000  1.0
  H  H22  1  0.60110000  0.97261000  0.10803000  1.0
  H  H23  1  0.39896000  0.10804000  0.97259000  1.0
  H  H24  1  0.39896000  0.47259000  0.60804000  1.0
  H  H25  1  0.60110000  0.60803000  0.47261000  1.0
  H  H26  1  0.61155000  0.28166000  0.37116000  1.0
  H  H27  1  0.38903000  0.37067000  0.28164000  1.0
  H  H28  1  0.38901000  0.78164000  0.87067000  1.0
  H  H29  1  0.61154000  0.87116000  0.78166000  1.0
  H  H30  1  0.88951000  0.93281000  0.62649000  1.0
  H  H31  1  0.11051000  0.62652000  0.93285000  1.0
  H  H32  1  0.11051000  0.43285000  0.12651000  1.0
  H  H33  1  0.88951000  0.12649000  0.43281000  1.0
  C  C34  1  0.79513000  0.43281000  0.93281000  1.0
  C  C35  1  0.20484000  0.93283000  0.43283000  1.0
  C  C36  1  0.66017000  0.32353000  0.93787000  1.0
  C  C37  1  0.33981000  0.93788000  0.32354000  1.0
  C  C38  1  0.33981000  0.82354000  0.43788000  1.0
  C  C39  1  0.66016000  0.43787000  0.82353000  1.0
  C  C40  1  0.62219000  0.21745000  0.79413000  1.0
  C  C41  1  0.37780000  0.79413000  0.21744000  1.0
  C  C42  1  0.37780000  0.71745000  0.29412000  1.0
  C  C43  1  0.62219000  0.29412000  0.71745000  1.0
  C  C44  1  0.76542000  0.27135000  0.01993000  1.0
  C  C45  1  0.23459000  0.01997000  0.27138000  1.0
  C  C46  1  0.23458000  0.77138000  0.51996000  1.0
  C  C47  1  0.76542000  0.51993000  0.77135000  1.0
  C  C48  1  0.81745000  0.11472000  0.74843000  1.0
  C  C49  1  0.18255000  0.74843000  0.11472000  1.0
  C  C50  1  0.18253000  0.61473000  0.24843000  1.0
  C  C51  1  0.81745000  0.24843000  0.61472000  1.0
  O  O52  1  0.66849000  0.17232000  0.01662000  1.0
  O  O53  1  0.33156000  0.01670000  0.17238000  1.0
  O  O54  1  0.33157000  0.67237000  0.51669000  1.0
  O  O55  1  0.66849000  0.51662000  0.67233000  1.0
  O  O56  1  0.76676000  0.95488000  0.06741000  1.0
  O  O57  1  0.23330000  0.06743000  0.95486000  1.0
  O  O58  1  0.23331000  0.45486000  0.56742000  1.0
  O  O59  1  0.76676000  0.56741000  0.45489000  1.0
  O  O60  1  0.94663000  0.32482000  0.09386000  1.0
  O  O61  1  0.05333000  0.09390000  0.32484000  1.0
  O  O62  1  0.05333000  0.82485000  0.59389000  1.0
  O  O63  1  0.94663000  0.59385000  0.82483000  1.0
  O  O64  1  0.75088000  0.30579000  0.33831000  1.0
  O  O65  1  0.24855000  0.33855000  0.30573000  1.0
  O  O66  1  0.24854000  0.80573000  0.83855000  1.0
  O  O67  1  0.75088000  0.83831000  0.80579000  1.0
  O  O68  1  0.02475000  0.13818000  0.79391000  1.0
  O  O69  1  0.97526000  0.79397000  0.13821000  1.0
  O  O70  1  0.97525000  0.63820000  0.29397000  1.0
  O  O71  1  0.02475000  0.29391000  0.63818000  1.0
  O  O72  1  0.74688000  0.99968000  0.65541000  1.0
  O  O73  1  0.25309000  0.65539000  0.99971000  1.0
  O  O74  1  0.25308000  0.49970000  0.15538000  1.0
  O  O75  1  0.74689000  0.15542000  0.49968000  1.0
