# generated using pymatgen
data_LiH5C2(N2O)3
_symmetry_space_group_name_H-M   'P 1'
_cell_length_a   3.52329000
_cell_length_b   7.28410000
_cell_length_c   12.31230000
_cell_angle_alpha   89.99960000
_cell_angle_beta   89.99990000
_cell_angle_gamma   92.22050000
_symmetry_Int_Tables_number   1
_chemical_formula_structural   LiH5C2(N2O)3
_chemical_formula_sum   'Li2 H10 C4 N12 O6'
_cell_volume   315.74556048
_cell_formula_units_Z   2
loop_
 _symmetry_equiv_pos_site_id
 _symmetry_equiv_pos_as_xyz
  1  'x, y, z'
loop_
 _atom_site_type_symbol
 _atom_site_label
 _atom_site_symmetry_multiplicity
 _atom_site_fract_x
 _atom_site_fract_y
 _atom_site_fract_z
 _atom_site_occupancy
  Li  Li0  1  0.50308000  0.50705000  0.45264000  1.0
  Li  Li1  1  0.49692000  0.49296000  0.95264000  1.0
  H  H2  1  0.98656000  0.76666000  0.46907000  1.0
  H  H3  1  0.01344000  0.23334000  0.96906000  1.0
  H  H4  1  0.15827000  0.84449000  0.69651000  1.0
  H  H5  1  0.84173000  0.15551000  0.19650000  1.0
  H  H6  1  0.77020000  0.91543000  0.77698000  1.0
  H  H7  1  0.22981000  0.08457000  0.27698000  1.0
  H  H8  1  0.19459000  0.05619000  0.77088000  1.0
  H  H9  1  0.80540000  0.94381000  0.27088000  1.0
  H  H10  1  0.07744000  0.68085000  0.35258000  1.0
  H  H11  1  0.92257000  0.31915000  0.85258000  1.0
  C  C12  1  0.72888000  0.23124000  0.62252000  1.0
  C  C13  1  0.27112000  0.76875000  0.12253000  1.0
  C  C14  1  0.00474000  0.96331000  0.72450000  1.0
  C  C15  1  0.99526000  0.03669000  0.22450000  1.0
  N  N16  1  0.86528000  0.05910000  0.62995000  1.0
  N  N17  1  0.13471000  0.94091000  0.12995000  1.0
  N  N18  1  0.84832000  0.98217000  0.53005000  1.0
  N  N19  1  0.15168000  0.01783000  0.03005000  1.0
  N  N20  1  0.70775000  0.10133000  0.46443000  1.0
  N  N21  1  0.29225000  0.89867000  0.96443000  1.0
  N  N22  1  0.63008000  0.25767000  0.51792000  1.0
  N  N23  1  0.36992000  0.74234000  0.01792000  1.0
  N  N24  1  0.71039000  0.33456000  0.71437000  1.0
  N  N25  1  0.28961000  0.66544000  0.21437000  1.0
  N  N26  1  0.56577000  0.50118000  0.70627000  1.0
  N  N27  1  0.43423000  0.49882000  0.20627000  1.0
  O  O28  1  0.46587000  0.57131000  0.61763000  1.0
  O  O29  1  0.53414000  0.42870000  0.11764000  1.0
  O  O30  1  0.52960000  0.58795000  0.79398000  1.0
  O  O31  1  0.47040000  0.41204000  0.29399000  1.0
  O  O32  1  0.01162000  0.64949000  0.42893000  1.0
  O  O33  1  0.98837000  0.35052000  0.92893000  1.0
