# generated using pymatgen
data_CdH16C21(NO2)2
_symmetry_space_group_name_H-M   'P 1'
_cell_length_a   8.70432000
_cell_length_b   10.55720000
_cell_length_c   10.86890000
_cell_angle_alpha   106.54200000
_cell_angle_beta   91.89360000
_cell_angle_gamma   91.40520000
_symmetry_Int_Tables_number   1
_chemical_formula_structural   CdH16C21(NO2)2
_chemical_formula_sum   'Cd2 H32 C42 N4 O8'
_cell_volume   956.31721349
_cell_formula_units_Z   2
loop_
 _symmetry_equiv_pos_site_id
 _symmetry_equiv_pos_as_xyz
  1  'x, y, z'
loop_
 _atom_site_type_symbol
 _atom_site_label
 _atom_site_symmetry_multiplicity
 _atom_site_fract_x
 _atom_site_fract_y
 _atom_site_fract_z
 _atom_site_occupancy
  Cd  Cd0  1  0.32174000  0.82727000  0.13366000  1.0
  Cd  Cd1  1  0.67826000  0.17273000  0.86635000  1.0
  H  H2  1  0.06122000  0.19658000  0.02088000  1.0
  H  H3  1  0.93878000  0.80342000  0.97911000  1.0
  H  H4  1  0.96804000  0.42359000  0.07412000  1.0
  H  H5  1  0.03195000  0.57641000  0.92588000  1.0
  H  H6  1  0.13251000  0.49085000  0.46682000  1.0
  H  H7  1  0.86750000  0.50915000  0.53318000  1.0
  H  H8  1  0.22854000  0.26223000  0.41151000  1.0
  H  H9  1  0.77146000  0.73777000  0.58849000  1.0
  H  H10  1  0.99371000  0.66021000  0.40887000  1.0
  H  H11  1  0.00628000  0.33979000  0.59113000  1.0
  H  H12  1  0.89205000  0.62669000  0.25633000  1.0
  H  H13  1  0.10795000  0.37331000  0.74367000  1.0
  H  H14  1  0.24151000  0.85784000  0.86434000  1.0
  H  H15  1  0.75849000  0.14216000  0.13566000  1.0
  H  H16  1  0.28330000  0.75911000  0.63002000  1.0
  H  H17  1  0.71670000  0.24089000  0.36999000  1.0
  H  H18  1  0.58263000  0.48159000  0.73644000  1.0
  H  H19  1  0.41737000  0.51841000  0.26356000  1.0
  H  H20  1  0.53291000  0.59522000  0.96366000  1.0
  H  H21  1  0.46709000  0.40478000  0.03634000  1.0
  H  H22  1  0.40069000  0.60396000  0.46241000  1.0
  H  H23  1  0.59931000  0.39604000  0.53759000  1.0
  H  H24  1  0.67493000  0.87359000  0.06586000  1.0
  H  H25  1  0.32506000  0.12641000  0.93414000  1.0
  H  H26  1  0.92302000  0.95206000  0.18268000  1.0
  H  H27  1  0.07698000  0.04794000  0.81732000  1.0
  H  H28  1  0.71078000  0.92381000  0.53012000  1.0
  H  H29  1  0.28922000  0.07619000  0.46989000  1.0
  H  H30  1  0.47241000  0.83985000  0.39614000  1.0
  H  H31  1  0.52759000  0.16015000  0.60386000  1.0
  H  H32  1  0.07936000  0.01015000  0.37790000  1.0
  H  H33  1  0.92064000  0.98985000  0.62210000  1.0
  C  C34  1  0.21597000  0.07983000  0.17861000  1.0
  C  C35  1  0.78403000  0.92017000  0.82139000  1.0
  C  C36  1  0.15267000  0.21488000  0.21239000  1.0
  C  C37  1  0.84733000  0.78512000  0.78761000  1.0
  C  C38  1  0.07779000  0.26131000  0.11836000  1.0
  C  C39  1  0.92221000  0.73869000  0.88164000  1.0
  C  C40  1  0.02425000  0.38922000  0.14929000  1.0
  C  C41  1  0.97574000  0.61078000  0.85071000  1.0
  C  C42  1  0.04411000  0.47348000  0.27486000  1.0
  C  C43  1  0.95588000  0.52652000  0.72514000  1.0
  C  C44  1  0.11616000  0.42577000  0.36914000  1.0
  C  C45  1  0.88383000  0.57423000  0.63086000  1.0
  C  C46  1  0.16976000  0.29791000  0.33853000  1.0
  C  C47  1  0.83024000  0.70209000  0.66147000  1.0
  C  C48  1  0.00145000  0.61624000  0.30489000  1.0
  C  C49  1  0.99855000  0.38376000  0.69511000  1.0
  C  C50  1  0.12969000  0.69013000  0.25753000  1.0
  C  C51  1  0.87031000  0.30987000  0.74247000  1.0
  C  C52  1  0.31607000  0.77474000  0.83081000  1.0
  C  C53  1  0.68393000  0.22526000  0.16919000  1.0
  C  C54  1  0.33952000  0.71882000  0.70113000  1.0
  C  C55  1  0.66048000  0.28118000  0.29887000  1.0
  C  C56  1  0.43525000  0.61041000  0.66180000  1.0
  C  C57  1  0.56475000  0.38959000  0.33820000  1.0
  C  C58  1  0.50525000  0.56409000  0.75903000  1.0
  C  C59  1  0.49475000  0.43591000  0.24097000  1.0
  C  C60  1  0.47746000  0.62684000  0.88631000  1.0
  C  C61  1  0.52254000  0.37316000  0.11370000  1.0
  C  C62  1  0.45806000  0.55361000  0.52538000  1.0
  C  C63  1  0.54194000  0.44639000  0.47463000  1.0
  C  C64  1  0.68767000  0.88301000  0.16827000  1.0
  C  C65  1  0.31233000  0.11699000  0.83174000  1.0
  C  C66  1  0.82643000  0.92885000  0.23468000  1.0
  C  C67  1  0.17357000  0.07115000  0.76532000  1.0
  C  C68  1  0.84062000  0.94446000  0.36751000  1.0
  C  C69  1  0.15938000  0.05554000  0.63249000  1.0
  C  C70  1  0.70958000  0.91242000  0.42710000  1.0
  C  C71  1  0.29042000  0.08758000  0.57290000  1.0
  C  C72  1  0.57600000  0.86616000  0.35389000  1.0
  C  C73  1  0.42400000  0.13384000  0.64611000  1.0
  C  C74  1  0.98671000  0.99092000  0.43632000  1.0
  C  C75  1  0.01329000  0.00908000  0.56369000  1.0
  N  N76  1  0.38416000  0.73018000  0.92279000  1.0
  N  N77  1  0.61584000  0.26982000  0.07721000  1.0
  N  N78  1  0.56426000  0.85104000  0.22614000  1.0
  N  N79  1  0.43574000  0.14896000  0.77386000  1.0
  O  O80  1  0.20628000  0.00703000  0.06254000  1.0
  O  O81  1  0.79372000  0.99297000  0.93745000  1.0
  O  O82  1  0.27843000  0.03994000  0.26893000  1.0
  O  O83  1  0.72157000  0.96006000  0.73107000  1.0
  O  O84  1  0.10052000  0.72118000  0.15330000  1.0
  O  O85  1  0.89948000  0.27882000  0.84670000  1.0
  O  O86  1  0.25838000  0.71263000  0.31837000  1.0
  O  O87  1  0.74162000  0.28737000  0.68163000  1.0
