# generated using pymatgen
data_LaH5WC5SO8
_symmetry_space_group_name_H-M   'P 1'
_cell_length_a   7.50225000
_cell_length_b   7.63058000
_cell_length_c   17.16840000
_cell_angle_alpha   91.27860000
_cell_angle_beta   90.00000000
_cell_angle_gamma   89.99980000
_symmetry_Int_Tables_number   1
_chemical_formula_structural   LaH5WC5SO8
_chemical_formula_sum   'La4 H20 W4 C20 S4 O32'
_cell_volume   982.58642158
_cell_formula_units_Z   4
loop_
 _symmetry_equiv_pos_site_id
 _symmetry_equiv_pos_as_xyz
  1  'x, y, z'
loop_
 _atom_site_type_symbol
 _atom_site_label
 _atom_site_symmetry_multiplicity
 _atom_site_fract_x
 _atom_site_fract_y
 _atom_site_fract_z
 _atom_site_occupancy
  La  La0  1  0.41260000  0.73597000  0.34412000  1.0
  La  La1  1  0.91260000  0.76403000  0.65588000  1.0
  La  La2  1  0.58740000  0.26403000  0.65588000  1.0
  La  La3  1  0.08740000  0.23597000  0.34412000  1.0
  H  H4  1  0.13332000  0.16079000  0.11847000  1.0
  H  H5  1  0.63332000  0.33921000  0.88153000  1.0
  H  H6  1  0.86668000  0.83921000  0.88153000  1.0
  H  H7  1  0.36667000  0.66079000  0.11847000  1.0
  H  H8  1  0.05067000  0.15659000  0.97734000  1.0
  H  H9  1  0.55067000  0.34341000  0.02266000  1.0
  H  H10  1  0.94934000  0.84341000  0.02266000  1.0
  H  H11  1  0.44933000  0.65659000  0.97734000  1.0
  H  H12  1  0.26601000  0.06691000  0.87782000  1.0
  H  H13  1  0.76601000  0.43308000  0.12218000  1.0
  H  H14  1  0.73399000  0.93309000  0.12219000  1.0
  H  H15  1  0.23399000  0.56692000  0.87781000  1.0
  H  H16  1  0.58480000  0.43589000  0.23154000  1.0
  H  H17  1  0.08480000  0.06411000  0.76846000  1.0
  H  H18  1  0.41520000  0.56410000  0.76846000  1.0
  H  H19  1  0.91520000  0.93589000  0.23154000  1.0
  H  H20  1  0.68974000  0.61608000  0.22454000  1.0
  H  H21  1  0.18974000  0.88392000  0.77545000  1.0
  H  H22  1  0.31026000  0.38392000  0.77546000  1.0
  H  H23  1  0.81026000  0.11608000  0.22454000  1.0
  W  W24  1  0.55514000  0.25066000  0.41408000  1.0
  W  W25  1  0.05514000  0.24933000  0.58592000  1.0
  W  W26  1  0.44486000  0.74933000  0.58592000  1.0
  W  W27  1  0.94486000  0.75066000  0.41408000  1.0
  C  C28  1  0.39704000  0.06387000  0.09623000  1.0
  C  C29  1  0.89704000  0.43613000  0.90377000  1.0
  C  C30  1  0.60296000  0.93613000  0.90377000  1.0
  C  C31  1  0.10296000  0.56387000  0.09623000  1.0
  C  C32  1  0.22849000  0.11622000  0.07435000  1.0
  C  C33  1  0.72849000  0.38378000  0.92565000  1.0
  C  C34  1  0.77151000  0.88378000  0.92565000  1.0
  C  C35  1  0.27151000  0.61622000  0.07435000  1.0
  C  C36  1  0.18264000  0.11355000  0.99475000  1.0
  C  C37  1  0.68264000  0.38645000  0.00525000  1.0
  C  C38  1  0.81737000  0.88645000  0.00525000  1.0
  C  C39  1  0.31736000  0.61355000  0.99475000  1.0
  C  C40  1  0.52493000  0.00040000  0.04052000  1.0
  C  C41  1  0.02493000  0.49960000  0.95948000  1.0
  C  C42  1  0.47507000  0.99960000  0.95948000  1.0
  C  C43  1  0.97507000  0.50040000  0.04052000  1.0
  C  C44  1  0.30329000  0.06006000  0.93872000  1.0
  C  C45  1  0.80329000  0.43995000  0.06128000  1.0
  C  C46  1  0.69671000  0.93994000  0.06128000  1.0
  C  C47  1  0.19671000  0.56006000  0.93871000  1.0
  S  S48  1  0.45614000  0.09242000  0.19602000  1.0
  S  S49  1  0.95614000  0.40759000  0.80398000  1.0
  S  S50  1  0.54386000  0.90758000  0.80398000  1.0
  S  S51  1  0.04386000  0.59242000  0.19602000  1.0
  O  O52  1  0.44871000  0.04440000  0.39468000  1.0
  O  O53  1  0.94871000  0.45560000  0.60532000  1.0
  O  O54  1  0.55129000  0.95560000  0.60532000  1.0
  O  O55  1  0.05129000  0.54440000  0.39468000  1.0
  O  O56  1  0.09666000  0.90943000  0.37295000  1.0
  O  O57  1  0.59666000  0.59057000  0.62705000  1.0
  O  O58  1  0.90334000  0.09057000  0.62705000  1.0
  O  O59  1  0.40334000  0.40943000  0.37295000  1.0
  O  O60  1  0.61034000  0.21267000  0.19803000  1.0
  O  O61  1  0.11035000  0.28733000  0.80197000  1.0
  O  O62  1  0.38966000  0.78733000  0.80197000  1.0
  O  O63  1  0.88965000  0.71267000  0.19803000  1.0
  O  O64  1  0.50305000  0.91955000  0.22624000  1.0
  O  O65  1  0.00305000  0.58045000  0.77376000  1.0
  O  O66  1  0.49695000  0.08045000  0.77376000  1.0
  O  O67  1  0.99695000  0.41955000  0.22624000  1.0
  O  O68  1  0.30014000  0.17040000  0.23480000  1.0
  O  O69  1  0.80014000  0.32960000  0.76520000  1.0
  O  O70  1  0.69986000  0.82960000  0.76520000  1.0
  O  O71  1  0.19986000  0.67040000  0.23480000  1.0
  O  O72  1  0.57326000  0.56406000  0.23813000  1.0
  O  O73  1  0.07326000  0.93594000  0.76187000  1.0
  O  O74  1  0.42674000  0.43594000  0.76187000  1.0
  O  O75  1  0.92674000  0.06406000  0.23813000  1.0
  O  O76  1  0.41648000  0.71067000  0.48348000  1.0
  O  O77  1  0.91648000  0.78934000  0.51652000  1.0
  O  O78  1  0.58352000  0.28933000  0.51652000  1.0
  O  O79  1  0.08352000  0.21067000  0.48348000  1.0
  O  O80  1  0.72987000  0.75811000  0.36937000  1.0
  O  O81  1  0.22987000  0.74190000  0.63063000  1.0
  O  O82  1  0.27013000  0.24189000  0.63063000  1.0
  O  O83  1  0.77013000  0.25810000  0.36937000  1.0
