# generated using pymatgen
data_Zn2H10C16N3O8
_symmetry_space_group_name_H-M   'P 1'
_cell_length_a   14.80990000
_cell_length_b   19.37210000
_cell_length_c   19.65760000
_cell_angle_alpha   116.02600000
_cell_angle_beta   89.99990000
_cell_angle_gamma   89.99730000
_symmetry_Int_Tables_number   1
_chemical_formula_structural   Zn2H10C16N3O8
_chemical_formula_sum   'Zn12 H60 C96 N18 O48'
_cell_volume   5067.84510177
_cell_formula_units_Z   6
loop_
 _symmetry_equiv_pos_site_id
 _symmetry_equiv_pos_as_xyz
  1  'x, y, z'
loop_
 _atom_site_type_symbol
 _atom_site_label
 _atom_site_symmetry_multiplicity
 _atom_site_fract_x
 _atom_site_fract_y
 _atom_site_fract_z
 _atom_site_occupancy
  Zn  Zn0  1  0.23683000  0.58714000  0.24845000  1.0
  Zn  Zn1  1  0.73683000  0.41286000  0.75156000  1.0
  Zn  Zn2  1  0.57461000  0.49154000  0.36534000  1.0
  Zn  Zn3  1  0.07460000  0.50846000  0.63467000  1.0
  Zn  Zn4  1  0.63785000  0.52767000  0.22129000  1.0
  Zn  Zn5  1  0.13786000  0.47233000  0.77871000  1.0
  Zn  Zn6  1  0.08273000  0.02668000  0.80618000  1.0
  Zn  Zn7  1  0.58273000  0.97332000  0.19381000  1.0
  Zn  Zn8  1  0.19762000  0.86889000  0.18134000  1.0
  Zn  Zn9  1  0.69761000  0.13112000  0.81867000  1.0
  Zn  Zn10  1  0.25746000  0.93385000  0.35690000  1.0
  Zn  Zn11  1  0.75746000  0.06615000  0.64309000  1.0
  H  H12  1  0.62360000  0.06560000  0.03078000  1.0
  H  H13  1  0.12360000  0.93441000  0.96920000  1.0
  H  H14  1  0.65296000  0.29855000  0.06078000  1.0
  H  H15  1  0.15300000  0.70146000  0.93922000  1.0
  H  H16  1  0.37362000  0.56401000  0.13529000  1.0
  H  H17  1  0.87363000  0.43594000  0.86471000  1.0
  H  H18  1  0.49377000  0.56004000  0.13049000  1.0
  H  H19  1  0.99378000  0.43990000  0.86951000  1.0
  H  H20  1  0.43870000  0.64912000  0.18483000  1.0
  H  H21  1  0.93871000  0.35083000  0.81515000  1.0
  H  H22  1  0.26915000  0.53784000  0.37385000  1.0
  H  H23  1  0.76913000  0.46220000  0.62621000  1.0
  H  H24  1  0.34443000  0.60103000  0.44403000  1.0
  H  H25  1  0.84440000  0.39902000  0.55601000  1.0
  H  H26  1  0.36337000  0.49974000  0.40265000  1.0
  H  H27  1  0.86334000  0.50031000  0.59742000  1.0
  H  H28  1  0.93433000  0.05155000  0.91906000  1.0
  H  H29  1  0.43432000  0.94845000  0.08093000  1.0
  H  H30  1  0.82215000  0.08823000  0.92866000  1.0
  H  H31  1  0.32216000  0.91176000  0.07133000  1.0
  H  H32  1  0.91700000  0.14790000  0.93459000  1.0
  H  H33  1  0.41702000  0.85210000  0.06541000  1.0
  H  H34  1  0.02340000  0.00626000  0.62562000  1.0
  H  H35  1  0.52341000  0.99373000  0.37436000  1.0
  H  H36  1  0.92515000  0.95066000  0.58400000  1.0
  H  H37  1  0.42516000  0.04933000  0.41599000  1.0
  H  H38  1  0.00444000  0.91944000  0.63351000  1.0
  H  H39  1  0.50444000  0.08055000  0.36647000  1.0
  H  H40  1  0.12641000  0.62607000  0.12123000  1.0
  H  H41  1  0.62642000  0.37394000  0.87876000  1.0
  H  H42  1  0.23859000  0.62151000  0.08929000  1.0
  H  H43  1  0.73859000  0.37849000  0.91070000  1.0
  H  H44  1  0.16466000  0.69364000  0.08772000  1.0
  H  H45  1  0.66466000  0.30637000  0.91228000  1.0
  H  H46  1  0.35208000  0.76747000  0.39666000  1.0
  H  H47  1  0.85208000  0.23254000  0.60333000  1.0
  H  H48  1  0.25314000  0.71445000  0.39647000  1.0
  H  H49  1  0.75312000  0.28555000  0.60352000  1.0
  H  H50  1  0.24994000  0.81658000  0.43558000  1.0
  H  H51  1  0.74994000  0.18342000  0.56441000  1.0
  H  H52  1  0.89562000  0.58081000  0.28863000  1.0
  H  H53  1  0.39560000  0.41917000  0.71135000  1.0
  H  H54  1  0.09626000  0.58685000  0.44982000  1.0
  H  H55  1  0.59627000  0.41317000  0.55020000  1.0
  H  H56  1  0.81274000  0.57141000  0.49433000  1.0
  H  H57  1  0.31275000  0.42858000  0.50565000  1.0
  H  H58  1  0.19272000  0.47401000  0.00351000  1.0
  H  H59  1  0.69270000  0.52599000  0.99652000  1.0
  H  H60  1  0.17257000  0.29251000  0.07378000  1.0
  H  H61  1  0.67262000  0.70749000  0.92624000  1.0
  H  H62  1  0.14781000  0.24111000  0.83711000  1.0
  H  H63  1  0.64784000  0.75891000  0.16290000  1.0
  H  H64  1  0.59429000  0.25481000  0.25296000  1.0
  H  H65  1  0.09430000  0.74518000  0.74704000  1.0
  H  H66  1  0.42365000  0.04857000  0.77782000  1.0
  H  H67  1  0.92363000  0.95141000  0.22217000  1.0
  H  H68  1  0.51670000  0.98190000  0.55000000  1.0
  H  H69  1  0.01670000  0.01810000  0.44999000  1.0
  H  H70  1  0.23214000  0.97511000  0.59381000  1.0
  H  H71  1  0.73214000  0.02491000  0.40620000  1.0
  C  C72  1  0.59304000  0.09780000  0.17555000  1.0
  C  C73  1  0.09305000  0.90219000  0.82443000  1.0
  C  C74  1  0.60684000  0.15451000  0.14506000  1.0
  C  C75  1  0.10684000  0.84549000  0.85492000  1.0
  C  C76  1  0.62280000  0.12717000  0.06747000  1.0
  C  C77  1  0.12280000  0.87282000  0.93250000  1.0
  C  C78  1  0.63896000  0.17905000  0.03714000  1.0
  C  C79  1  0.13898000  0.82097000  0.96286000  1.0
  C  C80  1  0.63955000  0.25799000  0.08417000  1.0
  C  C81  1  0.13958000  0.74200000  0.91582000  1.0
  C  C82  1  0.62339000  0.28526000  0.16185000  1.0
  C  C83  1  0.12340000  0.71474000  0.83815000  1.0
  C  C84  1  0.62351000  0.36997000  0.21145000  1.0
  C  C85  1  0.12350000  0.63002000  0.78856000  1.0
  C  C86  1  0.92071000  0.01193000  0.70421000  1.0
  C  C87  1  0.42072000  0.98807000  0.29579000  1.0
  C  C88  1  0.88491000  0.06322000  0.82311000  1.0
  C  C89  1  0.38491000  0.93678000  0.17688000  1.0
  C  C90  1  0.43599000  0.58692000  0.16748000  1.0
  C  C91  1  0.93600000  0.41303000  0.83251000  1.0
  C  C92  1  0.43797000  0.57056000  0.23456000  1.0
  C  C93  1  0.93798000  0.42942000  0.76545000  1.0
  C  C94  1  0.39590000  0.55264000  0.33116000  1.0
  C  C95  1  0.89590000  0.44738000  0.66888000  1.0
  C  C96  1  0.34007000  0.54740000  0.39136000  1.0
  C  C97  1  0.84005000  0.45264000  0.60869000  1.0
  C  C98  1  0.88949000  0.08935000  0.90620000  1.0
  C  C99  1  0.38950000  0.91064000  0.09378000  1.0
  C  C100  1  0.97107000  0.96962000  0.63251000  1.0
  C  C101  1  0.47108000  0.03037000  0.36748000  1.0
  C  C102  1  0.18357000  0.66129000  0.11930000  1.0
  C  C103  1  0.68357000  0.33871000  0.88069000  1.0
  C  C104  1  0.21138000  0.71443000  0.19742000  1.0
  C  C105  1  0.71138000  0.28557000  0.80257000  1.0
  C  C106  1  0.25180000  0.75934000  0.31508000  1.0
  C  C107  1  0.75179000  0.24066000  0.68491000  1.0
  C  C108  1  0.27830000  0.76451000  0.39011000  1.0
  C  C109  1  0.77829000  0.23549000  0.60988000  1.0
  C  C110  1  0.74873000  0.56144000  0.35947000  1.0
  C  C111  1  0.24872000  0.43856000  0.64052000  1.0
  C  C112  1  0.84381000  0.57505000  0.38866000  1.0
  C  C113  1  0.34382000  0.42494000  0.61133000  1.0
  C  C114  1  0.91240000  0.58165000  0.34290000  1.0
  C  C115  1  0.41240000  0.41834000  0.65708000  1.0
  C  C116  1  0.00302000  0.58741000  0.36546000  1.0
  C  C117  1  0.50302000  0.41259000  0.63454000  1.0
  C  C118  1  0.07401000  0.59335000  0.31411000  1.0
  C  C119  1  0.57401000  0.40667000  0.68590000  1.0
  C  C120  1  0.02576000  0.58573000  0.43370000  1.0
  C  C121  1  0.52577000  0.41428000  0.56631000  1.0
  C  C122  1  0.95694000  0.57952000  0.47977000  1.0
  C  C123  1  0.45696000  0.42048000  0.52023000  1.0
  C  C124  1  0.97942000  0.57210000  0.55050000  1.0
  C  C125  1  0.47946000  0.42790000  0.44951000  1.0
  C  C126  1  0.86589000  0.57594000  0.45817000  1.0
  C  C127  1  0.36590000  0.42406000  0.54182000  1.0
  C  C128  1  0.16178000  0.38516000  0.85197000  1.0
  C  C129  1  0.66176000  0.61484000  0.14805000  1.0
  C  C130  1  0.17009000  0.36007000  0.91385000  1.0
  C  C131  1  0.67010000  0.63994000  0.08617000  1.0
  C  C132  1  0.18370000  0.41346000  0.98936000  1.0
  C  C133  1  0.68370000  0.58653000  0.01066000  1.0
  C  C134  1  0.18527000  0.38874000  0.04677000  1.0
  C  C135  1  0.68528000  0.61125000  0.95325000  1.0
  C  C136  1  0.20068000  0.44548000  0.12766000  1.0
  C  C137  1  0.70065000  0.55450000  0.87235000  1.0
  C  C138  1  0.17238000  0.31115000  0.02888000  1.0
  C  C139  1  0.67241000  0.68884000  0.97113000  1.0
  C  C140  1  0.15822000  0.25817000  0.95340000  1.0
  C  C141  1  0.65827000  0.74183000  0.04661000  1.0
  C  C142  1  0.15833000  0.28247000  0.89588000  1.0
  C  C143  1  0.65835000  0.71754000  0.10414000  1.0
  C  C144  1  0.14053000  0.17542000  0.93189000  1.0
  C  C145  1  0.64057000  0.82458000  0.06811000  1.0
  C  C146  1  0.65812000  0.14886000  0.95498000  1.0
  C  C147  1  0.15814000  0.85118000  0.04502000  1.0
  C  C148  1  0.60689000  0.23349000  0.19252000  1.0
  C  C149  1  0.10690000  0.76649000  0.80747000  1.0
  C  C150  1  0.24580000  0.01748000  0.74405000  1.0
  C  C151  1  0.74579000  0.98251000  0.25595000  1.0
  C  C152  1  0.32050000  0.01011000  0.69076000  1.0
  C  C153  1  0.82049000  0.98989000  0.30923000  1.0
  C  C154  1  0.40960000  0.02744000  0.71759000  1.0
  C  C155  1  0.90959000  0.97254000  0.28240000  1.0
  C  C156  1  0.48001000  0.01817000  0.66686000  1.0
  C  C157  1  0.98000000  0.98183000  0.33313000  1.0
  C  C158  1  0.57460000  0.04175000  0.69409000  1.0
  C  C159  1  0.07460000  0.95826000  0.30590000  1.0
  C  C160  1  0.46165000  0.99034000  0.58958000  1.0
  C  C161  1  0.96164000  0.00966000  0.41041000  1.0
  C  C162  1  0.37243000  0.97574000  0.56343000  1.0
  C  C163  1  0.87243000  0.02427000  0.43656000  1.0
  C  C164  1  0.35365000  0.95113000  0.48160000  1.0
  C  C165  1  0.85365000  0.04887000  0.51840000  1.0
  C  C166  1  0.30160000  0.98542000  0.61389000  1.0
  C  C167  1  0.80159000  0.01459000  0.38611000  1.0
  N  N168  1  0.95291000  0.02682000  0.77392000  1.0
  N  N169  1  0.45291000  0.97317000  0.22607000  1.0
  N  N170  1  0.81368000  0.07126000  0.78553000  1.0
  N  N171  1  0.31368000  0.92875000  0.21446000  1.0
  N  N172  1  0.83660000  0.03881000  0.70986000  1.0
  N  N173  1  0.33661000  0.96119000  0.29014000  1.0
  N  N174  1  0.48494000  0.53995000  0.32295000  1.0
  N  N175  1  0.98494000  0.46006000  0.67707000  1.0
  N  N176  1  0.51145000  0.55170000  0.26169000  1.0
  N  N177  1  0.01146000  0.44829000  0.73832000  1.0
  N  N178  1  0.36456000  0.57185000  0.27673000  1.0
  N  N179  1  0.86457000  0.42815000  0.72330000  1.0
  N  N180  1  0.21590000  0.79068000  0.22454000  1.0
  N  N181  1  0.71589000  0.20932000  0.77545000  1.0
  N  N182  1  0.24137000  0.81921000  0.29933000  1.0
  N  N183  1  0.74136000  0.18079000  0.70066000  1.0
  N  N184  1  0.23411000  0.69299000  0.25257000  1.0
  N  N185  1  0.73411000  0.30702000  0.74743000  1.0
  O  O186  1  0.58201000  0.02638000  0.12755000  1.0
  O  O187  1  0.08200000  0.97361000  0.87243000  1.0
  O  O188  1  0.60909000  0.39154000  0.28180000  1.0
  O  O189  1  0.10909000  0.60845000  0.71820000  1.0
  O  O190  1  0.73655000  0.56121000  0.29524000  1.0
  O  O191  1  0.23656000  0.43882000  0.70477000  1.0
  O  O192  1  0.68923000  0.54941000  0.39986000  1.0
  O  O193  1  0.18921000  0.45057000  0.60012000  1.0
  O  O194  1  0.05103000  0.60518000  0.25874000  1.0
  O  O195  1  0.55103000  0.39487000  0.74129000  1.0
  O  O196  1  0.15749000  0.58632000  0.32969000  1.0
  O  O197  1  0.65748000  0.41368000  0.67032000  1.0
  O  O198  1  0.93194000  0.60764000  0.60811000  1.0
  O  O199  1  0.43198000  0.39237000  0.39188000  1.0
  O  O200  1  0.04575000  0.52721000  0.54674000  1.0
  O  O201  1  0.54578000  0.47279000  0.45328000  1.0
  O  O202  1  0.14814000  0.33631000  0.78508000  1.0
  O  O203  1  0.64811000  0.66370000  0.21493000  1.0
  O  O204  1  0.16528000  0.45829000  0.87068000  1.0
  O  O205  1  0.66527000  0.54172000  0.12933000  1.0
  O  O206  1  0.22392000  0.51445000  0.13975000  1.0
  O  O207  1  0.72395000  0.48554000  0.86027000  1.0
  O  O208  1  0.19042000  0.42525000  0.17948000  1.0
  O  O209  1  0.69033000  0.57472000  0.82053000  1.0
  O  O210  1  0.08994000  0.14025000  0.87303000  1.0
  O  O211  1  0.58996000  0.85975000  0.12696000  1.0
  O  O212  1  0.17348000  0.14273000  0.96867000  1.0
  O  O213  1  0.67352000  0.85726000  0.03132000  1.0
  O  O214  1  0.59350000  0.11519000  0.24542000  1.0
  O  O215  1  0.09352000  0.88480000  0.75456000  1.0
  O  O216  1  0.63791000  0.41321000  0.17900000  1.0
  O  O217  1  0.13789000  0.58678000  0.82101000  1.0
  O  O218  1  0.67376000  0.19766000  0.92747000  1.0
  O  O219  1  0.17379000  0.80239000  0.07253000  1.0
  O  O220  1  0.66172000  0.07774000  0.91296000  1.0
  O  O221  1  0.16171000  0.92227000  0.08701000  1.0
  O  O222  1  0.16398000  0.02383000  0.72405000  1.0
  O  O223  1  0.66397000  0.97616000  0.27595000  1.0
  O  O224  1  0.26189000  0.01643000  0.80631000  1.0
  O  O225  1  0.76187000  0.98356000  0.19369000  1.0
  O  O226  1  0.27610000  0.97115000  0.46532000  1.0
  O  O227  1  0.77611000  0.02884000  0.53467000  1.0
  O  O228  1  0.41129000  0.91291000  0.43296000  1.0
  O  O229  1  0.91129000  0.08710000  0.56704000  1.0
  O  O230  1  0.63494000  0.02467000  0.64307000  1.0
  O  O231  1  0.13494000  0.97532000  0.35691000  1.0
  O  O232  1  0.58624000  0.07819000  0.76528000  1.0
  O  O233  1  0.08624000  0.92182000  0.23471000  1.0
