# generated using pymatgen
data_CuH5C6NCl
_symmetry_space_group_name_H-M   'P 1'
_cell_length_a   3.68196000
_cell_length_b   10.57490000
_cell_length_c   14.99200000
_cell_angle_alpha   90.00010000
_cell_angle_beta   90.00020000
_cell_angle_gamma   85.36270000
_symmetry_Int_Tables_number   1
_chemical_formula_structural   CuH5C6NCl
_chemical_formula_sum   'Cu4 H20 C24 N4 Cl4'
_cell_volume   581.82301326
_cell_formula_units_Z   4
loop_
 _symmetry_equiv_pos_site_id
 _symmetry_equiv_pos_as_xyz
  1  'x, y, z'
loop_
 _atom_site_type_symbol
 _atom_site_label
 _atom_site_symmetry_multiplicity
 _atom_site_fract_x
 _atom_site_fract_y
 _atom_site_fract_z
 _atom_site_occupancy
  Cu  Cu0  1  0.23584000  0.06220000  0.56227000  1.0
  Cu  Cu1  1  0.76415000  0.43780000  0.06227000  1.0
  Cu  Cu2  1  0.76417000  0.93780000  0.43773000  1.0
  Cu  Cu3  1  0.23583000  0.56220000  0.93773000  1.0
  H  H4  1  0.23531000  0.87273000  0.99077000  1.0
  H  H5  1  0.76470000  0.62727000  0.49077000  1.0
  H  H6  1  0.76469000  0.12726000  0.00923000  1.0
  H  H7  1  0.23531000  0.37274000  0.50923000  1.0
  H  H8  1  0.43242000  0.81239000  0.84832000  1.0
  H  H9  1  0.56758000  0.68761000  0.34832000  1.0
  H  H10  1  0.56759000  0.18761000  0.15168000  1.0
  H  H11  1  0.43240000  0.31239000  0.65168000  1.0
  H  H12  1  0.89169000  0.20328000  0.71056000  1.0
  H  H13  1  0.10831000  0.29672000  0.21056000  1.0
  H  H14  1  0.10831000  0.79672000  0.28944000  1.0
  H  H15  1  0.89169000  0.70328000  0.78944000  1.0
  H  H16  1  0.83004000  0.17829000  0.87376000  1.0
  H  H17  1  0.16997000  0.32171000  0.37376000  1.0
  H  H18  1  0.16997000  0.82171000  0.12624000  1.0
  H  H19  1  0.83004000  0.67829000  0.62624000  1.0
  H  H20  1  0.47528000  0.85434000  0.68401000  1.0
  H  H21  1  0.52471000  0.64566000  0.18401000  1.0
  H  H22  1  0.52474000  0.14566000  0.31599000  1.0
  H  H23  1  0.47527000  0.35434000  0.81599000  1.0
  C  C24  1  0.12491000  0.99073000  0.87587000  1.0
  C  C25  1  0.87509000  0.50927000  0.37587000  1.0
  C  C26  1  0.87509000  0.00926000  0.12413000  1.0
  C  C27  1  0.12491000  0.49073000  0.62413000  1.0
  C  C28  1  0.09441000  0.96267000  0.96985000  1.0
  C  C29  1  0.90558000  0.53733000  0.46985000  1.0
  C  C30  1  0.90559000  0.03733000  0.03014000  1.0
  C  C31  1  0.09440000  0.46267000  0.53014000  1.0
  C  C32  1  0.30989000  0.90053000  0.81957000  1.0
  C  C33  1  0.69011000  0.59947000  0.31957000  1.0
  C  C34  1  0.69011000  0.09946000  0.18043000  1.0
  C  C35  1  0.30988000  0.40053000  0.68043000  1.0
  C  C36  1  0.00952000  0.11819000  0.74383000  1.0
  C  C37  1  0.99048000  0.38181000  0.24383000  1.0
  C  C38  1  0.99049000  0.88180000  0.25617000  1.0
  C  C39  1  0.00951000  0.61820000  0.75617000  1.0
  C  C40  1  0.97510000  0.10319000  0.83489000  1.0
  C  C41  1  0.02491000  0.39681000  0.33489000  1.0
  C  C42  1  0.02491000  0.89680000  0.16511000  1.0
  C  C43  1  0.97509000  0.60320000  0.66511000  1.0
  C  C44  1  0.33524000  0.92314000  0.72890000  1.0
  C  C45  1  0.66476000  0.57686000  0.22890000  1.0
  C  C46  1  0.66477000  0.07686000  0.27110000  1.0
  C  C47  1  0.33523000  0.42314000  0.77110000  1.0
  N  N48  1  0.18737000  0.03061000  0.68989000  1.0
  N  N49  1  0.81263000  0.46940000  0.18989000  1.0
  N  N50  1  0.81264000  0.96939000  0.31011000  1.0
  N  N51  1  0.18736000  0.53061000  0.81011000  1.0
  Cl  Cl52  1  0.30147000  0.83704000  0.50190000  1.0
  Cl  Cl53  1  0.69854000  0.66296000  0.00190000  1.0
  Cl  Cl54  1  0.69854000  0.16296000  0.49810000  1.0
  Cl  Cl55  1  0.30145000  0.33704000  0.99811000  1.0
