# generated using pymatgen
data_CdH24C26(N2O3)2
_symmetry_space_group_name_H-M   'P 1'
_cell_length_a   10.15850000
_cell_length_b   10.96470000
_cell_length_c   12.66910000
_cell_angle_alpha   86.68210000
_cell_angle_beta   79.80900000
_cell_angle_gamma   65.43100000
_symmetry_Int_Tables_number   1
_chemical_formula_structural   CdH24C26(N2O3)2
_chemical_formula_sum   'Cd2 H48 C52 N8 O12'
_cell_volume   1262.94153732
_cell_formula_units_Z   2
loop_
 _symmetry_equiv_pos_site_id
 _symmetry_equiv_pos_as_xyz
  1  'x, y, z'
loop_
 _atom_site_type_symbol
 _atom_site_label
 _atom_site_symmetry_multiplicity
 _atom_site_fract_x
 _atom_site_fract_y
 _atom_site_fract_z
 _atom_site_occupancy
  Cd  Cd0  1  0.08089000  0.12533000  0.04433000  1.0
  Cd  Cd1  1  0.91911000  0.87468000  0.95568000  1.0
  H  H2  1  0.89956000  0.97660000  0.19480000  1.0
  H  H3  1  0.10044000  0.02341000  0.80520000  1.0
  H  H4  1  0.90627000  0.84807000  0.36600000  1.0
  H  H5  1  0.09372000  0.15193000  0.63400000  1.0
  H  H6  1  0.34049000  0.72787000  0.47866000  1.0
  H  H7  1  0.65950000  0.27213000  0.52134000  1.0
  H  H8  1  0.10752000  0.80817000  0.47019000  1.0
  H  H9  1  0.89247000  0.19183000  0.52981000  1.0
  H  H10  1  0.69899000  0.68898000  0.40167000  1.0
  H  H11  1  0.30101000  0.31102000  0.59833000  1.0
  H  H12  1  0.26268000  0.04054000  0.23412000  1.0
  H  H13  1  0.73732000  0.95946000  0.76588000  1.0
  H  H14  1  0.52638000  0.86192000  0.52570000  1.0
  H  H15  1  0.47361000  0.13809000  0.47431000  1.0
  H  H16  1  0.32502000  0.76878000  0.68475000  1.0
  H  H17  1  0.67498000  0.23121000  0.31525000  1.0
  H  H18  1  0.30143000  0.93607000  0.65765000  1.0
  H  H19  1  0.69856000  0.06391000  0.34235000  1.0
  H  H20  1  0.52624000  0.89850000  0.72912000  1.0
  H  H21  1  0.47376000  0.10149000  0.27088000  1.0
  H  H22  1  0.40501000  0.85457000  0.82535000  1.0
  H  H23  1  0.59499000  0.14542000  0.17465000  1.0
  H  H24  1  0.54937000  0.61375000  0.77907000  1.0
  H  H25  1  0.45063000  0.38624000  0.22093000  1.0
  H  H26  1  0.66815000  0.68241000  0.80853000  1.0
  H  H27  1  0.33185000  0.31759000  0.19147000  1.0
  H  H28  1  0.77593000  0.53699000  0.63980000  1.0
  H  H29  1  0.22407000  0.46301000  0.36020000  1.0
  H  H30  1  0.74999000  0.70599000  0.61523000  1.0
  H  H31  1  0.25001000  0.29401000  0.38477000  1.0
  H  H32  1  0.54920000  0.57623000  0.57145000  1.0
  H  H33  1  0.45080000  0.42377000  0.42855000  1.0
  H  H34  1  0.87774000  0.27362000  0.27768000  1.0
  H  H35  1  0.12226000  0.72638000  0.72232000  1.0
  H  H36  1  0.90252000  0.65264000  0.31234000  1.0
  H  H37  1  0.09748000  0.34736000  0.68766000  1.0
  H  H38  1  0.06631000  0.60759000  0.13415000  1.0
  H  H39  1  0.93369000  0.39241000  0.86586000  1.0
  H  H40  1  0.12944000  0.39398000  0.03660000  1.0
  H  H41  1  0.87056000  0.60603000  0.96340000  1.0
  H  H42  1  0.72228000  0.37762000  0.82547000  1.0
  H  H43  1  0.27772000  0.62240000  0.17454000  1.0
  H  H44  1  0.50530000  0.44006000  0.73337000  1.0
  H  H45  1  0.49469000  0.55995000  0.26664000  1.0
  H  H46  1  0.32390000  0.34012000  0.79409000  1.0
  H  H47  1  0.67611000  0.65988000  0.20591000  1.0
  H  H48  1  0.57831000  0.11304000  0.02902000  1.0
  H  H49  1  0.42170000  0.88695000  0.97098000  1.0
  C  C50  1  0.98369000  0.95872000  0.24382000  1.0
  C  C51  1  0.01631000  0.04128000  0.75618000  1.0
  C  C52  1  0.98966000  0.88606000  0.33801000  1.0
  C  C53  1  0.01034000  0.11394000  0.66199000  1.0
  C  C54  1  0.10059000  0.86569000  0.39665000  1.0
  C  C55  1  0.89940000  0.13431000  0.60335000  1.0
  C  C56  1  0.20175000  0.92116000  0.35984000  1.0
  C  C57  1  0.79825000  0.07885000  0.64016000  1.0
  C  C58  1  0.18665000  0.99513000  0.26558000  1.0
  C  C59  1  0.81334000  0.00487000  0.73442000  1.0
  C  C60  1  0.31977000  0.91328000  0.41985000  1.0
  C  C61  1  0.68022000  0.08672000  0.58016000  1.0
  C  C62  1  0.47662000  0.79055000  0.55099000  1.0
  C  C63  1  0.52338000  0.20944000  0.44901000  1.0
  C  C64  1  0.38454000  0.83349000  0.66277000  1.0
  C  C65  1  0.61545000  0.16650000  0.33724000  1.0
  C  C66  1  0.47714000  0.82573000  0.74742000  1.0
  C  C67  1  0.52286000  0.17426000  0.25257000  1.0
  C  C68  1  0.59847000  0.68487000  0.75058000  1.0
  C  C69  1  0.40153000  0.31512000  0.24942000  1.0
  C  C70  1  0.69202000  0.64058000  0.63944000  1.0
  C  C71  1  0.30798000  0.35942000  0.36056000  1.0
  C  C72  1  0.59841000  0.64933000  0.55363000  1.0
  C  C73  1  0.40159000  0.35067000  0.44637000  1.0
  C  C74  1  0.77006000  0.48550000  0.41198000  1.0
  C  C75  1  0.22993000  0.51450000  0.58801000  1.0
  C  C76  1  0.87404000  0.46694000  0.30854000  1.0
  C  C77  1  0.12596000  0.53306000  0.69146000  1.0
  C  C78  1  0.91749000  0.34964000  0.24795000  1.0
  C  C79  1  0.08252000  0.65036000  0.75205000  1.0
  C  C80  1  0.93017000  0.56045000  0.26806000  1.0
  C  C81  1  0.06983000  0.43955000  0.73194000  1.0
  C  C82  1  0.02322000  0.53574000  0.16952000  1.0
  C  C83  1  0.97679000  0.46426000  0.83048000  1.0
  C  C84  1  0.05811000  0.41712000  0.11459000  1.0
  C  C85  1  0.94189000  0.58289000  0.88541000  1.0
  C  C86  1  0.80019000  0.19486000  0.98235000  1.0
  C  C87  1  0.19981000  0.80514000  0.01765000  1.0
  C  C88  1  0.66512000  0.24038000  0.93249000  1.0
  C  C89  1  0.33489000  0.75961000  0.06751000  1.0
  C  C90  1  0.64285000  0.33418000  0.84975000  1.0
  C  C91  1  0.35715000  0.66583000  0.15025000  1.0
  C  C92  1  0.52143000  0.36907000  0.79889000  1.0
  C  C93  1  0.47857000  0.63094000  0.20111000  1.0
  C  C94  1  0.42018000  0.31334000  0.83187000  1.0
  C  C95  1  0.57983000  0.68666000  0.16813000  1.0
  C  C96  1  0.43883000  0.22310000  0.91655000  1.0
  C  C97  1  0.56117000  0.77690000  0.08345000  1.0
  C  C98  1  0.32356000  0.17248000  0.95860000  1.0
  C  C99  1  0.67645000  0.82752000  0.04140000  1.0
  C  C100  1  0.56252000  0.18586000  0.96545000  1.0
  C  C101  1  0.43749000  0.81414000  0.03454000  1.0
  N  N102  1  0.08090000  0.01226000  0.20849000  1.0
  N  N103  1  0.91910000  0.98774000  0.79151000  1.0
  N  N104  1  0.00677000  0.32546000  0.15311000  1.0
  N  N105  1  0.99324000  0.67454000  0.84689000  1.0
  N  N106  1  0.38263000  0.79856000  0.47349000  1.0
  N  N107  1  0.61737000  0.20144000  0.52651000  1.0
  N  N108  1  0.69085000  0.61304000  0.44814000  1.0
  N  N109  1  0.30915000  0.38696000  0.55186000  1.0
  O  O110  1  0.88050000  0.25958000  0.96334000  1.0
  O  O111  1  0.11950000  0.74042000  0.03666000  1.0
  O  O112  1  0.22500000  0.18880000  0.90173000  1.0
  O  O113  1  0.77501000  0.81119000  0.09826000  1.0
  O  O114  1  0.32302000  0.12219000  0.05176000  1.0
  O  O115  1  0.67699000  0.87781000  0.94823000  1.0
  O  O116  1  0.83443000  0.09009000  0.04089000  1.0
  O  O117  1  0.16558000  0.90991000  0.95911000  1.0
  O  O118  1  0.35439000  0.00989000  0.41868000  1.0
  O  O119  1  0.64559000  0.99011000  0.58133000  1.0
  O  O120  1  0.75785000  0.38717000  0.46061000  1.0
  O  O121  1  0.24215000  0.61283000  0.53939000  1.0
