# generated using pymatgen
data_AgH7C10N3ClO2
_symmetry_space_group_name_H-M   'P 1'
_cell_length_a   6.39294000
_cell_length_b   7.88621000
_cell_length_c   11.18886503
_cell_angle_alpha   71.60906130
_cell_angle_beta   75.65940184
_cell_angle_gamma   83.84510000
_symmetry_Int_Tables_number   1
_chemical_formula_structural   AgH7C10N3ClO2
_chemical_formula_sum   'Ag2 H14 C20 N6 Cl2 O4'
_cell_volume   518.34908131
_cell_formula_units_Z   2
loop_
 _symmetry_equiv_pos_site_id
 _symmetry_equiv_pos_as_xyz
  1  'x, y, z'
loop_
 _atom_site_type_symbol
 _atom_site_label
 _atom_site_symmetry_multiplicity
 _atom_site_fract_x
 _atom_site_fract_y
 _atom_site_fract_z
 _atom_site_occupancy
  Ag  Ag0  1  0.97927000  0.80253000  0.53887000  1.0
  Ag  Ag1  1  0.02072000  0.19747000  0.46115000  1.0
  H  H2  1  0.87282000  0.10902000  0.92105000  1.0
  H  H3  1  0.12715000  0.89098000  0.07896000  1.0
  H  H4  1  0.50874000  0.88826000  0.44767000  1.0
  H  H5  1  0.49125000  0.11177000  0.55232000  1.0
  H  H6  1  0.66176000  0.39096000  0.69560000  1.0
  H  H7  1  0.33826000  0.60906000  0.30437000  1.0
  H  H8  1  0.27741000  0.27723000  0.78422000  1.0
  H  H9  1  0.72262000  0.72276000  0.21576000  1.0
  H  H10  1  0.07329000  0.40213000  0.70974000  1.0
  H  H11  1  0.92671000  0.59787000  0.29026000  1.0
  H  H12  1  0.37150000  0.36541000  0.96933000  1.0
  H  H13  1  0.62854000  0.63457000  0.03066000  1.0
  H  H14  1  0.20489000  0.43691000  0.17194000  1.0
  H  H15  1  0.79513000  0.56308000  0.82804000  1.0
  C  C16  1  0.70831000  0.06208000  0.95589000  1.0
  C  C17  1  0.29167000  0.93793000  0.04412000  1.0
  C  C18  1  0.59890000  0.04630000  0.08299000  1.0
  C  C19  1  0.40107000  0.95370000  0.91702000  1.0
  C  C20  1  0.38682000  0.98439000  0.12902000  1.0
  C  C21  1  0.61314000  0.01562000  0.87100000  1.0
  C  C22  1  0.25109000  0.97157000  0.26246000  1.0
  C  C23  1  0.74887000  0.02842000  0.73756000  1.0
  C  C24  1  0.49526000  0.76015000  0.52254000  1.0
  C  C25  1  0.50474000  0.23986000  0.47745000  1.0
  C  C26  1  0.57594000  0.51079000  0.64869000  1.0
  C  C27  1  0.42407000  0.48922000  0.35130000  1.0
  C  C28  1  0.19506000  0.40900000  0.76188000  1.0
  C  C29  1  0.80500000  0.59100000  0.23809000  1.0
  C  C30  1  0.09440000  0.45745000  0.88468000  1.0
  C  C31  1  0.90563000  0.54253000  0.11533000  1.0
  C  C32  1  0.20843000  0.42503000  0.98202000  1.0
  C  C33  1  0.79161000  0.57495000  0.01799000  1.0
  C  C34  1  0.11514000  0.46711000  0.09618000  1.0
  C  C35  1  0.88488000  0.53288000  0.90383000  1.0
  N  N36  1  0.66662000  0.65287000  0.55481000  1.0
  N  N37  1  0.33337000  0.34713000  0.44518000  1.0
  N  N38  1  0.35918000  0.53236000  0.67133000  1.0
  N  N39  1  0.64085000  0.46764000  0.32865000  1.0
  N  N40  1  0.30524000  0.69183000  0.59093000  1.0
  N  N41  1  0.69477000  0.30816000  0.40907000  1.0
  Cl  Cl42  1  0.73647000  0.09755000  0.18156000  1.0
  Cl  Cl43  1  0.26351000  0.90247000  0.81844000  1.0
  O  O44  1  0.26563000  0.09777000  0.30701000  1.0
  O  O45  1  0.73435000  0.90223000  0.69300000  1.0
  O  O46  1  0.13283000  0.83631000  0.31713000  1.0
  O  O47  1  0.86714000  0.16370000  0.68287000  1.0
