# generated using pymatgen
data_HgH11C12N3Cl2
_symmetry_space_group_name_H-M   'P 1'
_cell_length_a   7.58719000
_cell_length_b   9.20484000
_cell_length_c   10.48230000
_cell_angle_alpha   111.32900000
_cell_angle_beta   97.84340000
_cell_angle_gamma   90.11920000
_symmetry_Int_Tables_number   1
_chemical_formula_structural   HgH11C12N3Cl2
_chemical_formula_sum   'Hg2 H22 C24 N6 Cl4'
_cell_volume   674.48900708
_cell_formula_units_Z   2
loop_
 _symmetry_equiv_pos_site_id
 _symmetry_equiv_pos_as_xyz
  1  'x, y, z'
loop_
 _atom_site_type_symbol
 _atom_site_label
 _atom_site_symmetry_multiplicity
 _atom_site_fract_x
 _atom_site_fract_y
 _atom_site_fract_z
 _atom_site_occupancy
  Hg  Hg0  1  0.24286000  0.94694000  0.49870000  1.0
  Hg  Hg1  1  0.75714000  0.05306000  0.50130000  1.0
  H  H2  1  0.98851000  0.72271000  0.20977000  1.0
  H  H3  1  0.01149000  0.27729000  0.79023000  1.0
  H  H4  1  0.88422000  0.43588000  0.09951000  1.0
  H  H5  1  0.11579000  0.56412000  0.90049000  1.0
  H  H6  1  0.99335000  0.25691000  0.22437000  1.0
  H  H7  1  0.00667000  0.74308000  0.77563000  1.0
  H  H8  1  0.20318000  0.36558000  0.44557000  1.0
  H  H9  1  0.79683000  0.63442000  0.55442000  1.0
  H  H10  1  0.53354000  0.89675000  0.72159000  1.0
  H  H11  1  0.46647000  0.10325000  0.27841000  1.0
  H  H12  1  0.69698000  0.12483000  0.88301000  1.0
  H  H13  1  0.30302000  0.87518000  0.11700000  1.0
  H  H14  1  0.89646000  0.07505000  0.96362000  1.0
  H  H15  1  0.10353000  0.92495000  0.03639000  1.0
  H  H16  1  0.72035000  0.14736000  0.06122000  1.0
  H  H17  1  0.27965000  0.85264000  0.93879000  1.0
  H  H18  1  0.79026000  0.88749000  0.11088000  1.0
  H  H19  1  0.20972000  0.11251000  0.88912000  1.0
  H  H20  1  0.67025000  0.61615000  0.04661000  1.0
  H  H21  1  0.32972000  0.38385000  0.95340000  1.0
  H  H22  1  0.48115000  0.48044000  0.81387000  1.0
  H  H23  1  0.51884000  0.51956000  0.18613000  1.0
  C  C24  1  0.03270000  0.63711000  0.25517000  1.0
  C  C25  1  0.96730000  0.36289000  0.74483000  1.0
  C  C26  1  0.97547000  0.47966000  0.19668000  1.0
  C  C27  1  0.02453000  0.52033000  0.80331000  1.0
  C  C28  1  0.03615000  0.38032000  0.26520000  1.0
  C  C29  1  0.96386000  0.61968000  0.73480000  1.0
  C  C30  1  0.15320000  0.43911000  0.38878000  1.0
  C  C31  1  0.84682000  0.56089000  0.61121000  1.0
  C  C32  1  0.20639000  0.59787000  0.44018000  1.0
  C  C33  1  0.79361000  0.40213000  0.55981000  1.0
  C  C34  1  0.49387000  0.68241000  0.75747000  1.0
  C  C35  1  0.50613000  0.31759000  0.24252000  1.0
  C  C36  1  0.56499000  0.83594000  0.79298000  1.0
  C  C37  1  0.43501000  0.16406000  0.20701000  1.0
  C  C38  1  0.67412000  0.90987000  0.91893000  1.0
  C  C39  1  0.32588000  0.09013000  0.08107000  1.0
  C  C40  1  0.75076000  0.07362000  0.95868000  1.0
  C  C41  1  0.24924000  0.92639000  0.04133000  1.0
  C  C42  1  0.70919000  0.82867000  0.00996000  1.0
  C  C43  1  0.29079000  0.17133000  0.99005000  1.0
  C  C44  1  0.64127000  0.67558000  0.97380000  1.0
  C  C45  1  0.35871000  0.32441000  0.02621000  1.0
  C  C46  1  0.53493000  0.60053000  0.84675000  1.0
  C  C47  1  0.46506000  0.39948000  0.15325000  1.0
  N  N48  1  0.14575000  0.69268000  0.37383000  1.0
  N  N49  1  0.85425000  0.30732000  0.62616000  1.0
  N  N50  1  0.32278000  0.67944000  0.56280000  1.0
  N  N51  1  0.67723000  0.32056000  0.43719000  1.0
  N  N52  1  0.37842000  0.60025000  0.63511000  1.0
  N  N53  1  0.62160000  0.39975000  0.36489000  1.0
  Cl  Cl54  1  0.01900000  0.04169000  0.33156000  1.0
  Cl  Cl55  1  0.98101000  0.95831000  0.66844000  1.0
  Cl  Cl56  1  0.43483000  0.16869000  0.65421000  1.0
  Cl  Cl57  1  0.56517000  0.83131000  0.34579000  1.0
