# generated using pymatgen
data_CuH4C3N7
_symmetry_space_group_name_H-M   'P 1'
_cell_length_a   5.86913000
_cell_length_b   7.50142000
_cell_length_c   8.07005000
_cell_angle_alpha   77.43090000
_cell_angle_beta   78.46940000
_cell_angle_gamma   82.52710000
_symmetry_Int_Tables_number   1
_chemical_formula_structural   CuH4C3N7
_chemical_formula_sum   'Cu2 H8 C6 N14'
_cell_volume   338.39018915
_cell_formula_units_Z   2
loop_
 _symmetry_equiv_pos_site_id
 _symmetry_equiv_pos_as_xyz
  1  'x, y, z'
loop_
 _atom_site_type_symbol
 _atom_site_label
 _atom_site_symmetry_multiplicity
 _atom_site_fract_x
 _atom_site_fract_y
 _atom_site_fract_z
 _atom_site_occupancy
  Cu  Cu0  1  0.23623000  0.46573000  0.08613000  1.0
  Cu  Cu1  1  0.76376000  0.53427000  0.91386000  1.0
  H  H2  1  0.35931000  0.15048000  0.35286000  1.0
  H  H3  1  0.64071000  0.84953000  0.64714000  1.0
  H  H4  1  0.46402000  0.17699000  0.53719000  1.0
  H  H5  1  0.53598000  0.82304000  0.46281000  1.0
  H  H6  1  0.53958000  0.32792000  0.33365000  1.0
  H  H7  1  0.46041000  0.67209000  0.66637000  1.0
  H  H8  1  0.83943000  0.69060000  0.25859000  1.0
  H  H9  1  0.16057000  0.30941000  0.74141000  1.0
  C  C10  1  0.40006000  0.25138000  0.42058000  1.0
  C  C11  1  0.59998000  0.74864000  0.57942000  1.0
  C  C12  1  0.19122000  0.37945000  0.46258000  1.0
  C  C13  1  0.80879000  0.62055000  0.53744000  1.0
  C  C14  1  0.90778000  0.60442000  0.36799000  1.0
  C  C15  1  0.09223000  0.39559000  0.63201000  1.0
  N  N16  1  0.01051000  0.30677000  0.05476000  1.0
  N  N17  1  0.98948000  0.69322000  0.94523000  1.0
  N  N18  1  0.95446000  0.17052000  0.16029000  1.0
  N  N19  1  0.04552000  0.82945000  0.83972000  1.0
  N  N20  1  0.89619000  0.03958000  0.25874000  1.0
  N  N21  1  0.10379000  0.96042000  0.74126000  1.0
  N  N22  1  0.48497000  0.63546000  0.07207000  1.0
  N  N23  1  0.51503000  0.36452000  0.92793000  1.0
  N  N24  1  0.45347000  0.77489000  0.13053000  1.0
  N  N25  1  0.54653000  0.22508000  0.86947000  1.0
  N  N26  1  0.42272000  0.90669000  0.18786000  1.0
  N  N27  1  0.57726000  0.09329000  0.81214000  1.0
  N  N28  1  0.09372000  0.48623000  0.33223000  1.0
  N  N29  1  0.90626000  0.51379000  0.66777000  1.0
