# generated using pymatgen
data_ZnH16C11(IN2)2
_symmetry_space_group_name_H-M   'P 1'
_cell_length_a   9.80513000
_cell_length_b   12.80380000
_cell_length_c   13.36960000
_cell_angle_alpha   90.00040000
_cell_angle_beta   90.00000000
_cell_angle_gamma   90.00000000
_symmetry_Int_Tables_number   1
_chemical_formula_structural   ZnH16C11(IN2)2
_chemical_formula_sum   'Zn4 H64 C44 I8 N16'
_cell_volume   1678.45866990
_cell_formula_units_Z   4
loop_
 _symmetry_equiv_pos_site_id
 _symmetry_equiv_pos_as_xyz
  1  'x, y, z'
loop_
 _atom_site_type_symbol
 _atom_site_label
 _atom_site_symmetry_multiplicity
 _atom_site_fract_x
 _atom_site_fract_y
 _atom_site_fract_z
 _atom_site_occupancy
  Zn  Zn0  1  0.07176000  0.17865000  0.65637000  1.0
  Zn  Zn1  1  0.42824000  0.82136000  0.15637000  1.0
  Zn  Zn2  1  0.92824000  0.67864000  0.84363000  1.0
  Zn  Zn3  1  0.57177000  0.32135000  0.34363000  1.0
  H  H4  1  0.54596000  0.18761000  0.85934000  1.0
  H  H5  1  0.95404000  0.81239000  0.35934000  1.0
  H  H6  1  0.45404000  0.68761000  0.64065000  1.0
  H  H7  1  0.04596000  0.31239000  0.14066000  1.0
  H  H8  1  0.60568000  0.21281000  0.98109000  1.0
  H  H9  1  0.89432000  0.78719000  0.48109000  1.0
  H  H10  1  0.39432000  0.71281000  0.51891000  1.0
  H  H11  1  0.10568000  0.28719000  0.01892000  1.0
  H  H12  1  0.78142000  0.20749000  0.62108000  1.0
  H  H13  1  0.71857000  0.79251000  0.12109000  1.0
  H  H14  1  0.21857000  0.70749000  0.87891000  1.0
  H  H15  1  0.28143000  0.29251000  0.37892000  1.0
  H  H16  1  0.67291000  0.28304000  0.69804000  1.0
  H  H17  1  0.82709000  0.71696000  0.19804000  1.0
  H  H18  1  0.32709000  0.78304000  0.80196000  1.0
  H  H19  1  0.17290000  0.21696000  0.30196000  1.0
  H  H20  1  0.63534000  0.14949000  0.67643000  1.0
  H  H21  1  0.86466000  0.85051000  0.17644000  1.0
  H  H22  1  0.36466000  0.64949000  0.82356000  1.0
  H  H23  1  0.13534000  0.35051000  0.32357000  1.0
  H  H24  1  0.00208000  0.09761000  0.05849000  1.0
  H  H25  1  0.49792000  0.90239000  0.55850000  1.0
  H  H26  1  0.99792000  0.59761000  0.44150000  1.0
  H  H27  1  0.50208000  0.40239000  0.94151000  1.0
  H  H28  1  0.83314000  0.04801000  0.06142000  1.0
  H  H29  1  0.66686000  0.95199000  0.56142000  1.0
  H  H30  1  0.16686000  0.54801000  0.43858000  1.0
  H  H31  1  0.33314000  0.45199000  0.93858000  1.0
  H  H32  1  0.86297000  0.18251000  0.08622000  1.0
  H  H33  1  0.63703000  0.81750000  0.58622000  1.0
  H  H34  1  0.13703000  0.68250000  0.41378000  1.0
  H  H35  1  0.36296000  0.31749000  0.91378000  1.0
  H  H36  1  0.08218000  0.12311000  0.87458000  1.0
  H  H37  1  0.41782000  0.87689000  0.37458000  1.0
  H  H38  1  0.91782000  0.62311000  0.62542000  1.0
  H  H39  1  0.58218000  0.37689000  0.12542000  1.0
  H  H40  1  0.52065000  0.80440000  0.94582000  1.0
  H  H41  1  0.97935000  0.19560000  0.44583000  1.0
  H  H42  1  0.47935000  0.30440000  0.55417000  1.0
  H  H43  1  0.02065000  0.69560000  0.05418000  1.0
  H  H44  1  0.61030000  0.85275000  0.77495000  1.0
  H  H45  1  0.88970000  0.14725000  0.27495000  1.0
  H  H46  1  0.38970000  0.35275000  0.72505000  1.0
  H  H47  1  0.11030000  0.64725000  0.22505000  1.0
  H  H48  1  0.71961000  0.96297000  0.77729000  1.0
  H  H49  1  0.78039000  0.03703000  0.27729000  1.0
  H  H50  1  0.28039000  0.46298000  0.72271000  1.0
  H  H51  1  0.21961000  0.53702000  0.22271000  1.0
  H  H52  1  0.54686000  0.97794000  0.73840000  1.0
  H  H53  1  0.95314000  0.02206000  0.23841000  1.0
  H  H54  1  0.45314000  0.47794000  0.76159000  1.0
  H  H55  1  0.04686000  0.52206000  0.26160000  1.0
  H  H56  1  0.47261000  0.04493000  0.20193000  1.0
  H  H57  1  0.02739000  0.95507000  0.70193000  1.0
  H  H58  1  0.52739000  0.54493000  0.29807000  1.0
  H  H59  1  0.97261000  0.45507000  0.79807000  1.0
  H  H60  1  0.41993000  0.14845000  0.12295000  1.0
  H  H61  1  0.08007000  0.85155000  0.62295000  1.0
  H  H62  1  0.58007000  0.64845000  0.37705000  1.0
  H  H63  1  0.91993000  0.35155000  0.87705000  1.0
  H  H64  1  0.59415000  0.13510000  0.15542000  1.0
  H  H65  1  0.90585000  0.86491000  0.65542000  1.0
  H  H66  1  0.40585000  0.63509000  0.34457000  1.0
  H  H67  1  0.09415000  0.36490000  0.84458000  1.0
  C  C68  1  0.87761000  0.13869000  0.93215000  1.0
  C  C69  1  0.62239000  0.86131000  0.43215000  1.0
  C  C70  1  0.12239000  0.63869000  0.56785000  1.0
  C  C71  1  0.37761000  0.36131000  0.06785000  1.0
  C  C72  1  0.80160000  0.17693000  0.77812000  1.0
  C  C73  1  0.69840000  0.82308000  0.27812000  1.0
  C  C74  1  0.19840000  0.67693000  0.72188000  1.0
  C  C75  1  0.30160000  0.32307000  0.22188000  1.0
  C  C76  1  0.75912000  0.16087000  0.87789000  1.0
  C  C77  1  0.74088000  0.83913000  0.37790000  1.0
  C  C78  1  0.24088000  0.66087000  0.62210000  1.0
  C  C79  1  0.25912000  0.33913000  0.12211000  1.0
  C  C80  1  0.61599000  0.15873000  0.91752000  1.0
  C  C81  1  0.88401000  0.84128000  0.41752000  1.0
  C  C82  1  0.38401000  0.65872000  0.58248000  1.0
  C  C83  1  0.11599000  0.34128000  0.08248000  1.0
  C  C84  1  0.71879000  0.20524000  0.68886000  1.0
  C  C85  1  0.78121000  0.79476000  0.18886000  1.0
  C  C86  1  0.28121000  0.70524000  0.81114000  1.0
  C  C87  1  0.21879000  0.29476000  0.31114000  1.0
  C  C88  1  0.89564000  0.11571000  0.04022000  1.0
  C  C89  1  0.60436000  0.88430000  0.54022000  1.0
  C  C90  1  0.10436000  0.61570000  0.45978000  1.0
  C  C91  1  0.39564000  0.38429000  0.95978000  1.0
  C  C92  1  0.57226000  0.05172000  0.95132000  1.0
  C  C93  1  0.92774000  0.94828000  0.45132000  1.0
  C  C94  1  0.42774000  0.55172000  0.54868000  1.0
  C  C95  1  0.07226000  0.44828000  0.04868000  1.0
  C  C96  1  0.52345000  0.02379000  0.04700000  1.0
  C  C97  1  0.97655000  0.97621000  0.54701000  1.0
  C  C98  1  0.47655000  0.52379000  0.45299000  1.0
  C  C99  1  0.02345000  0.47621000  0.95300000  1.0
  C  C100  1  0.57412000  0.95894000  0.89562000  1.0
  C  C101  1  0.92588000  0.04106000  0.39562000  1.0
  C  C102  1  0.42588000  0.45894000  0.60438000  1.0
  C  C103  1  0.07412000  0.54106000  0.10438000  1.0
  C  C104  1  0.61460000  0.93680000  0.79078000  1.0
  C  C105  1  0.88540000  0.06320000  0.29078000  1.0
  C  C106  1  0.38540000  0.43680000  0.70921000  1.0
  C  C107  1  0.11460000  0.56320000  0.20922000  1.0
  C  C108  1  0.50139000  0.09114000  0.13626000  1.0
  C  C109  1  0.99861000  0.90887000  0.63626000  1.0
  C  C110  1  0.49861000  0.59113000  0.36374000  1.0
  C  C111  1  0.00139000  0.40886000  0.86374000  1.0
  I  I112  1  0.04893000  0.35714000  0.56969000  1.0
  I  I113  1  0.45107000  0.64287000  0.06969000  1.0
  I  I114  1  0.95107000  0.85713000  0.93031000  1.0
  I  I115  1  0.54893000  0.14286000  0.43031000  1.0
  I  I116  1  0.29736000  0.12262000  0.74132000  1.0
  I  I117  1  0.20264000  0.87738000  0.24132000  1.0
  I  I118  1  0.70264000  0.62262000  0.75868000  1.0
  I  I119  1  0.79736000  0.37738000  0.25868000  1.0
  N  N120  1  0.93788000  0.16400000  0.77208000  1.0
  N  N121  1  0.56211000  0.83600000  0.27209000  1.0
  N  N122  1  0.06212000  0.66400000  0.72792000  1.0
  N  N123  1  0.43788000  0.33600000  0.22792000  1.0
  N  N124  1  0.98151000  0.14182000  0.86570000  1.0
  N  N125  1  0.51848000  0.85818000  0.36571000  1.0
  N  N126  1  0.01848000  0.64182000  0.63430000  1.0
  N  N127  1  0.48151000  0.35818000  0.13430000  1.0
  N  N128  1  0.49659000  0.92046000  0.04921000  1.0
  N  N129  1  0.00341000  0.07954000  0.54921000  1.0
  N  N130  1  0.50341000  0.42046000  0.45079000  1.0
  N  N131  1  0.99659000  0.57954000  0.95079000  1.0
  N  N132  1  0.52717000  0.88339000  0.95714000  1.0
  N  N133  1  0.97283000  0.11661000  0.45714000  1.0
  N  N134  1  0.47283000  0.38339000  0.54286000  1.0
  N  N135  1  0.02717000  0.61661000  0.04286000  1.0
