# generated using pymatgen
data_H11PbC10S2N5
_symmetry_space_group_name_H-M   'P 1'
_cell_length_a   7.20226000
_cell_length_b   9.62662000
_cell_length_c   11.18540000
_cell_angle_alpha   65.66080000
_cell_angle_beta   83.81030000
_cell_angle_gamma   69.55320000
_symmetry_Int_Tables_number   1
_chemical_formula_structural   H11PbC10S2N5
_chemical_formula_sum   'H22 Pb2 C20 S4 N10'
_cell_volume   661.48321508
_cell_formula_units_Z   2
loop_
 _symmetry_equiv_pos_site_id
 _symmetry_equiv_pos_as_xyz
  1  'x, y, z'
loop_
 _atom_site_type_symbol
 _atom_site_label
 _atom_site_symmetry_multiplicity
 _atom_site_fract_x
 _atom_site_fract_y
 _atom_site_fract_z
 _atom_site_occupancy
  H  H0  1  0.67184000  0.58164000  0.92849000  1.0
  H  H1  1  0.32818000  0.41836000  0.07151000  1.0
  H  H2  1  0.09045000  0.15585000  0.55154000  1.0
  H  H3  1  0.90950000  0.84416000  0.44843000  1.0
  H  H4  1  0.06779000  0.20162000  0.31545000  1.0
  H  H5  1  0.93224000  0.79840000  0.68452000  1.0
  H  H6  1  0.54190000  0.69439000  0.61744000  1.0
  H  H7  1  0.45802000  0.30559000  0.38258000  1.0
  H  H8  1  0.33587000  0.89474000  0.70391000  1.0
  H  H9  1  0.66402000  0.10526000  0.29609000  1.0
  H  H10  1  0.76202000  0.50065000  0.39197000  1.0
  H  H11  1  0.23807000  0.49938000  0.60803000  1.0
  H  H12  1  0.64531000  0.51196000  0.53922000  1.0
  H  H13  1  0.35469000  0.48800000  0.46077000  1.0
  H  H14  1  0.81466000  0.61520000  0.46640000  1.0
  H  H15  1  0.18531000  0.38482000  0.53366000  1.0
  H  H16  1  0.88147000  0.33837000  0.05470000  1.0
  H  H17  1  0.11854000  0.66162000  0.94531000  1.0
  H  H18  1  0.75194000  0.35290000  0.19732000  1.0
  H  H19  1  0.24812000  0.64709000  0.80269000  1.0
  H  H20  1  0.94829000  0.43458000  0.14309000  1.0
  H  H21  1  0.05175000  0.56542000  0.85689000  1.0
  Pb  Pb22  1  0.23380000  0.01829000  0.10373000  1.0
  Pb  Pb23  1  0.76624000  0.98171000  0.89625000  1.0
  C  C24  1  0.41319000  0.84035000  0.41809000  1.0
  C  C25  1  0.58681000  0.15965000  0.58192000  1.0
  C  C26  1  0.43443000  0.80650000  0.55186000  1.0
  C  C27  1  0.56552000  0.19349000  0.44815000  1.0
  C  C28  1  0.31823000  0.91972000  0.60057000  1.0
  C  C29  1  0.68170000  0.08028000  0.39943000  1.0
  C  C30  1  0.18372000  0.06489000  0.51644000  1.0
  C  C31  1  0.81624000  0.93512000  0.48354000  1.0
  C  C32  1  0.17019000  0.08997000  0.38545000  1.0
  C  C33  1  0.82982000  0.91004000  0.61453000  1.0
  C  C34  1  0.53452000  0.72665000  0.36124000  1.0
  C  C35  1  0.46549000  0.27334000  0.63876000  1.0
  C  C36  1  0.69754000  0.57922000  0.44443000  1.0
  C  C37  1  0.30248000  0.42079000  0.55558000  1.0
  C  C38  1  0.57706000  0.68178000  0.06516000  1.0
  C  C39  1  0.42296000  0.31821000  0.93484000  1.0
  C  C40  1  0.82497000  0.41427000  0.11034000  1.0
  C  C41  1  0.17506000  0.58572000  0.88966000  1.0
  C  C42  1  0.13830000  0.62257000  0.21131000  1.0
  C  C43  1  0.86168000  0.37746000  0.78869000  1.0
  S  S44  1  0.42226000  0.85949000  0.94381000  1.0
  S  S45  1  0.57778000  0.14051000  0.05619000  1.0
  S  S46  1  0.99693000  0.79812000  0.21203000  1.0
  S  S47  1  0.00308000  0.20191000  0.78797000  1.0
  N  N48  1  0.28009000  0.98139000  0.33820000  1.0
  N  N49  1  0.71993000  0.01861000  0.66178000  1.0
  N  N50  1  0.49702000  0.76012000  0.23772000  1.0
  N  N51  1  0.50299000  0.23987000  0.76229000  1.0
  N  N52  1  0.60635000  0.65107000  0.19007000  1.0
  N  N53  1  0.39366000  0.34891000  0.80994000  1.0
  N  N54  1  0.68512000  0.56566000  0.02421000  1.0
  N  N55  1  0.31489000  0.43433000  0.97580000  1.0
  N  N56  1  0.23609000  0.49463000  0.21170000  1.0
  N  N57  1  0.76387000  0.50539000  0.78830000  1.0
