# generated using pymatgen
data_Cu3H6C8S3N5
_symmetry_space_group_name_H-M   'P 1'
_cell_length_a   3.70420000
_cell_length_b   8.49509000
_cell_length_c   20.81310000
_cell_angle_alpha   89.99960000
_cell_angle_beta   89.13950000
_cell_angle_gamma   89.99970000
_symmetry_Int_Tables_number   1
_chemical_formula_structural   Cu3H6C8S3N5
_chemical_formula_sum   'Cu6 H12 C16 S6 N10'
_cell_volume   654.86262045
_cell_formula_units_Z   2
loop_
 _symmetry_equiv_pos_site_id
 _symmetry_equiv_pos_as_xyz
  1  'x, y, z'
loop_
 _atom_site_type_symbol
 _atom_site_label
 _atom_site_symmetry_multiplicity
 _atom_site_fract_x
 _atom_site_fract_y
 _atom_site_fract_z
 _atom_site_occupancy
  Cu  Cu0  1  0.42979000  0.31909000  0.40054000  1.0
  Cu  Cu1  1  0.42979000  0.68091000  0.90054000  1.0
  Cu  Cu2  1  0.93260000  0.72987000  0.43054000  1.0
  Cu  Cu3  1  0.93261000  0.27012000  0.93054000  1.0
  Cu  Cu4  1  0.92188000  0.56062000  0.16202000  1.0
  Cu  Cu5  1  0.92189000  0.43938000  0.66202000  1.0
  H  H6  1  0.93693000  0.57546000  0.30229000  1.0
  H  H7  1  0.93694000  0.42454000  0.80229000  1.0
  H  H8  1  0.13523000  0.91120000  0.11610000  1.0
  H  H9  1  0.13523000  0.08880000  0.61610000  1.0
  H  H10  1  0.68098000  0.85762000  0.11723000  1.0
  H  H11  1  0.68098000  0.14238000  0.61722000  1.0
  H  H12  1  0.80750000  0.05795000  0.13491000  1.0
  H  H13  1  0.80750000  0.94205000  0.63491000  1.0
  H  H14  1  0.90682000  0.12994000  0.24676000  1.0
  H  H15  1  0.90681000  0.87006000  0.74676000  1.0
  H  H16  1  0.93815000  0.04327000  0.36155000  1.0
  H  H17  1  0.93814000  0.95673000  0.86155000  1.0
  C  C18  1  0.92724000  0.43432000  0.51560000  1.0
  C  C19  1  0.92725000  0.56568000  0.01560000  1.0
  C  C20  1  0.42579000  0.99384000  0.46473000  1.0
  C  C21  1  0.42579000  0.00616000  0.96473000  1.0
  C  C22  1  0.42508000  0.36615000  0.25470000  1.0
  C  C23  1  0.42509000  0.63384000  0.75469000  1.0
  C  C24  1  0.92971000  0.69991000  0.28982000  1.0
  C  C25  1  0.92971000  0.30009000  0.78982000  1.0
  C  C26  1  0.90206000  0.89154000  0.21050000  1.0
  C  C27  1  0.90205000  0.10847000  0.71050000  1.0
  C  C28  1  0.87721000  0.93353000  0.14124000  1.0
  C  C29  1  0.87721000  0.06648000  0.64124000  1.0
  C  C30  1  0.91338000  0.00538000  0.25879000  1.0
  C  C31  1  0.91338000  0.99462000  0.75879000  1.0
  C  C32  1  0.93039000  0.95825000  0.32245000  1.0
  C  C33  1  0.93039000  0.04175000  0.82245000  1.0
  S  S34  1  0.92644000  0.46241000  0.43711000  1.0
  S  S35  1  0.92645000  0.53758000  0.93712000  1.0
  S  S36  1  0.42654000  0.81153000  0.49158000  1.0
  S  S37  1  0.42656000  0.18847000  0.99158000  1.0
  S  S38  1  0.41905000  0.39139000  0.17662000  1.0
  S  S39  1  0.41904000  0.60861000  0.67661000  1.0
  N  N40  1  0.92950000  0.41531000  0.57162000  1.0
  N  N41  1  0.92950000  0.58469000  0.07162000  1.0
  N  N42  1  0.42615000  0.12311000  0.44396000  1.0
  N  N43  1  0.42617000  0.87689000  0.94396000  1.0
  N  N44  1  0.43118000  0.34602000  0.31091000  1.0
  N  N45  1  0.43116000  0.65398000  0.81091000  1.0
  N  N46  1  0.93563000  0.80361000  0.33862000  1.0
  N  N47  1  0.93564000  0.19639000  0.83862000  1.0
  N  N48  1  0.91453000  0.73593000  0.22708000  1.0
  N  N49  1  0.91453000  0.26407000  0.72708000  1.0
