# generated using pymatgen
data_HoH8C6NO7
_symmetry_space_group_name_H-M   'P 1'
_cell_length_a   7.56309000
_cell_length_b   9.03436000
_cell_length_c   13.76730000
_cell_angle_alpha   90.00000000
_cell_angle_beta   90.00020000
_cell_angle_gamma   89.99960000
_symmetry_Int_Tables_number   1
_chemical_formula_structural   HoH8C6NO7
_chemical_formula_sum   'Ho4 H32 C24 N4 O28'
_cell_volume   940.68763817
_cell_formula_units_Z   4
loop_
 _symmetry_equiv_pos_site_id
 _symmetry_equiv_pos_as_xyz
  1  'x, y, z'
loop_
 _atom_site_type_symbol
 _atom_site_label
 _atom_site_symmetry_multiplicity
 _atom_site_fract_x
 _atom_site_fract_y
 _atom_site_fract_z
 _atom_site_occupancy
  Ho  Ho0  1  0.25521000  0.70658000  0.81249000  1.0
  Ho  Ho1  1  0.24479000  0.29342000  0.31249000  1.0
  Ho  Ho2  1  0.74479000  0.20658000  0.68751000  1.0
  Ho  Ho3  1  0.75521000  0.79342000  0.18751000  1.0
  H  H4  1  0.43587000  0.31948000  0.98038000  1.0
  H  H5  1  0.06414000  0.68052000  0.48038000  1.0
  H  H6  1  0.56414000  0.81947000  0.51962000  1.0
  H  H7  1  0.93586000  0.18052000  0.01962000  1.0
  H  H8  1  0.52664000  0.50089000  0.98524000  1.0
  H  H9  1  0.97337000  0.49910000  0.48524000  1.0
  H  H10  1  0.47336000  0.00089000  0.51476000  1.0
  H  H11  1  0.02663000  0.99910000  0.01476000  1.0
  H  H12  1  0.33208000  0.62083000  0.06843000  1.0
  H  H13  1  0.16793000  0.37917000  0.56843000  1.0
  H  H14  1  0.66793000  0.12082000  0.43157000  1.0
  H  H15  1  0.83208000  0.87917000  0.93157000  1.0
  H  H16  1  0.16807000  0.48511000  0.09436000  1.0
  H  H17  1  0.33194000  0.51489000  0.59436000  1.0
  H  H18  1  0.83193000  0.98510000  0.40564000  1.0
  H  H19  1  0.66807000  0.01489000  0.90563000  1.0
  H  H20  1  0.00402000  0.40409000  0.96352000  1.0
  H  H21  1  0.49598000  0.59591000  0.46352000  1.0
  H  H22  1  0.99599000  0.90410000  0.53648000  1.0
  H  H23  1  0.50401000  0.09591000  0.03648000  1.0
  H  H24  1  0.16881000  0.27094000  0.93868000  1.0
  H  H25  1  0.33118000  0.72906000  0.43868000  1.0
  H  H26  1  0.83120000  0.77094000  0.56132000  1.0
  H  H27  1  0.66881000  0.22906000  0.06131000  1.0
  H  H28  1  0.12346000  0.01721000  0.80799000  1.0
  H  H29  1  0.37654000  0.98279000  0.30798000  1.0
  H  H30  1  0.87654000  0.51722000  0.69201000  1.0
  H  H31  1  0.62346000  0.48279000  0.19201000  1.0
  H  H32  1  0.33481000  0.01741000  0.80005000  1.0
  H  H33  1  0.16519000  0.98259000  0.30004000  1.0
  H  H34  1  0.66519000  0.51741000  0.69995000  1.0
  H  H35  1  0.83480000  0.48259000  0.19995000  1.0
  C  C36  1  0.43529000  0.42846000  0.94506000  1.0
  C  C37  1  0.06471000  0.57153000  0.44506000  1.0
  C  C38  1  0.56472000  0.92846000  0.55494000  1.0
  C  C39  1  0.93528000  0.07153000  0.05494000  1.0
  C  C40  1  0.50651000  0.41399000  0.84189000  1.0
  C  C41  1  0.99349000  0.58600000  0.34189000  1.0
  C  C42  1  0.49350000  0.91399000  0.65811000  1.0
  C  C43  1  0.00650000  0.08600000  0.15811000  1.0
  C  C44  1  0.21405000  0.56492000  0.03947000  1.0
  C  C45  1  0.28595000  0.43508000  0.53947000  1.0
  C  C46  1  0.78594000  0.06491000  0.46053000  1.0
  C  C47  1  0.71405000  0.93509000  0.96053000  1.0
  C  C48  1  0.07528000  0.68370000  0.02347000  1.0
  C  C49  1  0.42474000  0.31629000  0.52347000  1.0
  C  C50  1  0.92472000  0.18370000  0.47653000  1.0
  C  C51  1  0.57527000  0.81630000  0.97652000  1.0
  C  C52  1  0.12436000  0.38359000  0.92046000  1.0
  C  C53  1  0.37564000  0.61641000  0.42046000  1.0
  C  C54  1  0.87565000  0.88360000  0.57954000  1.0
  C  C55  1  0.62435000  0.11641000  0.07954000  1.0
  C  C56  1  0.06242000  0.38581000  0.81557000  1.0
  C  C57  1  0.43757000  0.61420000  0.31557000  1.0
  C  C58  1  0.93758000  0.88582000  0.68443000  1.0
  C  C59  1  0.56242000  0.11419000  0.18442000  1.0
  N  N60  1  0.25854000  0.49495000  0.94605000  1.0
  N  N61  1  0.24147000  0.50505000  0.44605000  1.0
  N  N62  1  0.74146000  0.99495000  0.55395000  1.0
  N  N63  1  0.75853000  0.00505000  0.05394000  1.0
  O  O64  1  0.47286000  0.51868000  0.78218000  1.0
  O  O65  1  0.02715000  0.48132000  0.28218000  1.0
  O  O66  1  0.52715000  0.01868000  0.71782000  1.0
  O  O67  1  0.97285000  0.98132000  0.21782000  1.0
  O  O68  1  0.59937000  0.30099000  0.82254000  1.0
  O  O69  1  0.90062000  0.69901000  0.32254000  1.0
  O  O70  1  0.40062000  0.80099000  0.67747000  1.0
  O  O71  1  0.09937000  0.19901000  0.17746000  1.0
  O  O72  1  0.06161000  0.73949000  0.93867000  1.0
  O  O73  1  0.43839000  0.26051000  0.43867000  1.0
  O  O74  1  0.93839000  0.23947000  0.56133000  1.0
  O  O75  1  0.56160000  0.76052000  0.06133000  1.0
  O  O76  1  0.98372000  0.72473000  0.09515000  1.0
  O  O77  1  0.51628000  0.27527000  0.59514000  1.0
  O  O78  1  0.01628000  0.22473000  0.40485000  1.0
  O  O79  1  0.48372000  0.77527000  0.90486000  1.0
  O  O80  1  0.09143000  0.50045000  0.76424000  1.0
  O  O81  1  0.40857000  0.49955000  0.26423000  1.0
  O  O82  1  0.90859000  0.00046000  0.73576000  1.0
  O  O83  1  0.59143000  0.99955000  0.23576000  1.0
  O  O84  1  0.97549000  0.27432000  0.78785000  1.0
  O  O85  1  0.52450000  0.72569000  0.28785000  1.0
  O  O86  1  0.02451000  0.77432000  0.71216000  1.0
  O  O87  1  0.47548000  0.22569000  0.21215000  1.0
  O  O88  1  0.23307000  0.97781000  0.83732000  1.0
  O  O89  1  0.26693000  0.02220000  0.33732000  1.0
  O  O90  1  0.76693000  0.47781000  0.66268000  1.0
  O  O91  1  0.73307000  0.52220000  0.16268000  1.0
