# generated using pymatgen
data_AlH10C13N3O5
_symmetry_space_group_name_H-M   'P 1'
_cell_length_a   6.65539000
_cell_length_b   11.07000000
_cell_length_c   16.94900000
_cell_angle_alpha   83.42330000
_cell_angle_beta   82.84070000
_cell_angle_gamma   73.59000000
_symmetry_Int_Tables_number   1
_chemical_formula_structural   AlH10C13N3O5
_chemical_formula_sum   'Al2 H20 C26 N6 O10'
_cell_volume   1184.37938103
_cell_formula_units_Z   2
loop_
 _symmetry_equiv_pos_site_id
 _symmetry_equiv_pos_as_xyz
  1  'x, y, z'
loop_
 _atom_site_type_symbol
 _atom_site_label
 _atom_site_symmetry_multiplicity
 _atom_site_fract_x
 _atom_site_fract_y
 _atom_site_fract_z
 _atom_site_occupancy
  Al  Al0  1  0.49695000  0.50151000  0.49548000  1.0
  Al  Al1  1  0.99638000  0.50359000  0.49658000  1.0
  H  H2  1  0.18015000  0.65840000  0.46080000  1.0
  H  H3  1  0.80914000  0.34803000  0.54017000  1.0
  H  H4  1  0.84313000  0.57350000  0.73009000  1.0
  H  H5  1  0.77681000  0.57446000  0.87936000  1.0
  H  H6  1  0.44502000  0.45396000  0.89498000  1.0
  H  H7  1  0.60843000  0.45194000  0.10070000  1.0
  H  H8  1  0.17300000  0.56516000  0.10671000  1.0
  H  H9  1  0.09996000  0.56751000  0.25611000  1.0
  H  H10  1  0.84941000  0.76432000  0.61237000  1.0
  H  H11  1  0.99061000  0.87797000  0.69845000  1.0
  H  H12  1  0.60351000  0.23236000  0.60435000  1.0
  H  H13  1  0.86470000  0.11454000  0.69465000  1.0
  H  H14  1  0.58851000  0.44845000  0.68098000  1.0
  H  H15  1  0.67623000  0.42468000  0.77626000  1.0
  H  H16  1  0.45555000  0.45860000  0.31421000  1.0
  H  H17  1  0.39882000  0.42389000  0.22286000  1.0
  H  H18  1  0.10253000  0.22147000  0.41491000  1.0
  H  H19  1  0.06764000  0.07975000  0.40234000  1.0
  H  H20  1  0.38296000  0.78508000  0.40022000  1.0
  H  H21  1  0.28880000  0.92871000  0.35158000  1.0
  C  C22  1  0.63401000  0.72932000  0.50375000  1.0
  C  C23  1  0.79458000  0.50810000  0.35047000  1.0
  C  C24  1  0.35937000  0.27469000  0.49158000  1.0
  C  C25  1  0.19993000  0.49999000  0.64122000  1.0
  C  C26  1  0.17809000  0.50643000  0.72816000  1.0
  C  C27  1  0.97307000  0.54400000  0.76755000  1.0
  C  C28  1  0.93514000  0.54518000  0.84938000  1.0
  C  C29  1  0.11033000  0.50927000  0.89481000  1.0
  C  C30  1  0.31451000  0.47789000  0.85773000  1.0
  C  C31  1  0.35534000  0.47408000  0.77391000  1.0
  C  C32  1  0.71682000  0.47483000  0.13614000  1.0
  C  C33  1  0.89510000  0.50451000  0.09662000  1.0
  C  C34  1  0.03840000  0.53812000  0.13913000  1.0
  C  C35  1  0.99732000  0.53900000  0.22096000  1.0
  C  C36  1  0.82072000  0.50655000  0.26300000  1.0
  C  C37  1  0.67449000  0.47417000  0.22005000  1.0
  C  C38  1  0.56124000  0.86862000  0.50464000  1.0
  C  C39  1  0.65050000  0.93281000  0.55410000  1.0
  C  C40  1  0.40537000  0.93472000  0.45571000  1.0
  C  C41  1  0.79809000  0.86705000  0.60864000  1.0
  C  C42  1  0.87734000  0.93094000  0.65719000  1.0
  C  C43  1  0.42462000  0.13464000  0.49856000  1.0
  C  C44  1  0.32902000  0.07005000  0.45528000  1.0
  C  C45  1  0.58293000  0.06809000  0.55021000  1.0
  C  C46  1  0.66302000  0.13039000  0.60276000  1.0
  C  C47  1  0.80792000  0.06377000  0.65464000  1.0
  N  N48  1  0.09423000  0.50562000  0.97898000  1.0
  N  N49  1  0.91447000  0.50281000  0.01264000  1.0
  N  N50  1  0.55816000  0.43734000  0.74126000  1.0
  N  N51  1  0.50277000  0.43961000  0.25653000  1.0
  N  N52  1  0.17347000  0.12936000  0.40551000  1.0
  N  N53  1  0.31528000  0.87867000  0.40528000  1.0
  O  O54  1  0.49151000  0.67121000  0.50758000  1.0
  O  O55  1  0.95672000  0.50064000  0.38588000  1.0
  O  O56  1  0.16205000  0.33106000  0.49553000  1.0
  O  O57  1  0.38589000  0.48190000  0.60439000  1.0
  O  O58  1  0.50281000  0.33212000  0.48140000  1.0
  O  O59  1  0.03478000  0.51003000  0.60681000  1.0
  O  O60  1  0.83058000  0.67521000  0.49721000  1.0
  O  O61  1  0.60891000  0.51811000  0.38613000  1.0
  O  O62  1  0.22722000  0.56669000  0.46183000  1.0
  O  O63  1  0.76564000  0.43955000  0.53065000  1.0
