# generated using pymatgen
data_AlH18C24NO6
_symmetry_space_group_name_H-M   'P 1'
_cell_length_a   4.11943000
_cell_length_b   13.47840000
_cell_length_c   13.47845000
_cell_angle_alpha   119.99963186
_cell_angle_beta   90.00150001
_cell_angle_gamma   90.00060000
_symmetry_Int_Tables_number   1
_chemical_formula_structural   AlH18C24NO6
_chemical_formula_sum   'Al1 H18 C24 N1 O6'
_cell_volume   648.10841843
_cell_formula_units_Z   1
loop_
 _symmetry_equiv_pos_site_id
 _symmetry_equiv_pos_as_xyz
  1  'x, y, z'
loop_
 _atom_site_type_symbol
 _atom_site_label
 _atom_site_symmetry_multiplicity
 _atom_site_fract_x
 _atom_site_fract_y
 _atom_site_fract_z
 _atom_site_occupancy
  Al  Al0  1  0.97483000  0.00000000  0.50001000  1.0
  H  H1  1  0.76972000  0.02533000  0.21051000  1.0
  H  H2  1  0.78447000  0.12930000  0.10314000  1.0
  H  H3  1  0.21895000  0.40040000  0.36824000  1.0
  H  H4  1  0.21893000  0.13176000  0.03216000  1.0
  H  H5  1  0.76975000  0.28951000  0.81485000  1.0
  H  H6  1  0.78447000  0.39687000  0.02618000  1.0
  H  H7  1  0.21896000  0.46784000  0.09960000  1.0
  H  H8  1  0.76972000  0.68516000  0.47468000  1.0
  H  H9  1  0.78449000  0.47382000  0.37070000  1.0
  H  H10  1  0.25274000  0.40358000  0.56494000  1.0
  H  H11  1  0.19110000  0.26838000  0.55525000  1.0
  H  H12  1  0.89757000  0.32262000  0.49921000  1.0
  H  H13  1  0.25277000  0.93505000  0.83863000  1.0
  H  H14  1  0.19113000  0.94476000  0.71312000  1.0
  H  H15  1  0.89760000  0.00078000  0.82340000  1.0
  H  H16  1  0.25273000  0.66136000  0.09642000  1.0
  H  H17  1  0.19113000  0.78687000  0.23163000  1.0
  H  H18  1  0.89758000  0.67660000  0.17739000  1.0
  C  C19  1  0.47453000  0.08805000  0.67567000  1.0
  C  C20  1  0.47448000  0.82433000  0.41239000  1.0
  C  C21  1  0.47449000  0.08762000  0.41196000  1.0
  C  C22  1  0.64205000  0.10676000  0.24385000  1.0
  C  C23  1  0.65373000  0.16573000  0.18391000  1.0
  C  C24  1  0.49814000  0.27234000  0.22732000  1.0
  C  C25  1  0.33771000  0.31741000  0.33275000  1.0
  C  C26  1  0.32725000  0.26025000  0.39522000  1.0
  C  C27  1  0.47816000  0.15269000  0.34880000  1.0
  C  C28  1  0.33772000  0.16725000  0.98466000  1.0
  C  C29  1  0.32729000  0.10478000  0.86503000  1.0
  C  C30  1  0.47821000  0.15121000  0.80390000  1.0
  C  C31  1  0.64210000  0.25617000  0.86294000  1.0
  C  C32  1  0.65374000  0.31610000  0.98184000  1.0
  C  C33  1  0.49817000  0.27269000  0.04504000  1.0
  C  C34  1  0.33772000  0.51533000  0.18259000  1.0
  C  C35  1  0.32728000  0.63497000  0.23975000  1.0
  C  C36  1  0.47816000  0.69610000  0.34731000  1.0
  C  C37  1  0.64207000  0.63707000  0.39324000  1.0
  C  C38  1  0.65374000  0.51816000  0.33427000  1.0
  C  C39  1  0.49816000  0.45497000  0.22766000  1.0
  C  C40  1  0.15960000  0.31623000  0.50991000  1.0
  C  C41  1  0.15963000  0.99008000  0.80631000  1.0
  C  C42  1  0.15961000  0.69368000  0.18377000  1.0
  N  N43  1  0.50605000  0.33333000  0.16667000  1.0
  O  O44  1  0.23820000  0.01910000  0.39300000  1.0
  O  O45  1  0.23823000  0.10701000  0.62612000  1.0
  O  O46  1  0.23818000  0.87388000  0.48090000  1.0
  O  O47  1  0.70902000  0.10531000  0.48046000  1.0
  O  O48  1  0.70901000  0.87515000  0.39471000  1.0
  O  O49  1  0.70905000  0.01956000  0.62486000  1.0
