# generated using pymatgen
data_CdH12C16(SN3)2
_symmetry_space_group_name_H-M   'P 1'
_cell_length_a   5.41286000
_cell_length_b   9.01348000
_cell_length_c   18.99490000
_cell_angle_alpha   92.05660000
_cell_angle_beta   90.00680000
_cell_angle_gamma   107.43000000
_symmetry_Int_Tables_number   1
_chemical_formula_structural   CdH12C16(SN3)2
_chemical_formula_sum   'Cd2 H24 C32 S4 N12'
_cell_volume   883.55725054
_cell_formula_units_Z   2
loop_
 _symmetry_equiv_pos_site_id
 _symmetry_equiv_pos_as_xyz
  1  'x, y, z'
loop_
 _atom_site_type_symbol
 _atom_site_label
 _atom_site_symmetry_multiplicity
 _atom_site_fract_x
 _atom_site_fract_y
 _atom_site_fract_z
 _atom_site_occupancy
  Cd  Cd0  1  0.99998000  0.00001000  0.50000000  1.0
  Cd  Cd1  1  0.00001000  0.00000000  0.00000000  1.0
  H  H2  1  0.20137000  0.96584000  0.69481000  1.0
  H  H3  1  0.76343000  0.96593000  0.19488000  1.0
  H  H4  1  0.79864000  0.03416000  0.30519000  1.0
  H  H5  1  0.23660000  0.03406000  0.80512000  1.0
  H  H6  1  0.26014000  0.49787000  0.70481000  1.0
  H  H7  1  0.23726000  0.49812000  0.20467000  1.0
  H  H8  1  0.73985000  0.50213000  0.29519000  1.0
  H  H9  1  0.76273000  0.50188000  0.79533000  1.0
  H  H10  1  0.88306000  0.40502000  0.62225000  1.0
  H  H11  1  0.52176000  0.40515000  0.12221000  1.0
  H  H12  1  0.11693000  0.59499000  0.37774000  1.0
  H  H13  1  0.47822000  0.59485000  0.87778000  1.0
  H  H14  1  0.66000000  0.58737000  0.57910000  1.0
  H  H15  1  0.92695000  0.58743000  0.07913000  1.0
  H  H16  1  0.34000000  0.41263000  0.42090000  1.0
  H  H17  1  0.07303000  0.41256000  0.92087000  1.0
  H  H18  1  0.60656000  0.84502000  0.59396000  1.0
  H  H19  1  0.23775000  0.84480000  0.09417000  1.0
  H  H20  1  0.39343000  0.15498000  0.40605000  1.0
  H  H21  1  0.76227000  0.15519000  0.90583000  1.0
  H  H22  1  0.81372000  0.99070000  0.64127000  1.0
  H  H23  1  0.17626000  0.99060000  0.14144000  1.0
  H  H24  1  0.18627000  0.00930000  0.35874000  1.0
  H  H25  1  0.82375000  0.00939000  0.85856000  1.0
  C  C26  1  0.42108000  0.80522000  0.46654000  1.0
  C  C27  1  0.38503000  0.80520000  0.96689000  1.0
  C  C28  1  0.57887000  0.19479000  0.53346000  1.0
  C  C29  1  0.61499000  0.19479000  0.03311000  1.0
  C  C30  1  0.91399000  0.78812000  0.63533000  1.0
  C  C31  1  0.87350000  0.78819000  0.13541000  1.0
  C  C32  1  0.08601000  0.21188000  0.36466000  1.0
  C  C33  1  0.12652000  0.21180000  0.86459000  1.0
  C  C34  1  0.12931000  0.84242000  0.68026000  1.0
  C  C35  1  0.71231000  0.84252000  0.18029000  1.0
  C  C36  1  0.87070000  0.15759000  0.31974000  1.0
  C  C37  1  0.28771000  0.15747000  0.81972000  1.0
  C  C38  1  0.25113000  0.73715000  0.70570000  1.0
  C  C39  1  0.48527000  0.73735000  0.20564000  1.0
  C  C40  1  0.74888000  0.26285000  0.29429000  1.0
  C  C41  1  0.51474000  0.26265000  0.79436000  1.0
  C  C42  1  0.16408000  0.57837000  0.68494000  1.0
  C  C43  1  0.41377000  0.57856000  0.18485000  1.0
  C  C44  1  0.83592000  0.42163000  0.31506000  1.0
  C  C45  1  0.58622000  0.42144000  0.81515000  1.0
  C  C46  1  0.95253000  0.52728000  0.63894000  1.0
  C  C47  1  0.57436000  0.52741000  0.13890000  1.0
  C  C48  1  0.04746000  0.47272000  0.36106000  1.0
  C  C49  1  0.42562000  0.47258000  0.86110000  1.0
  C  C50  1  0.82643000  0.62992000  0.61474000  1.0
  C  C51  1  0.80305000  0.63000000  0.11477000  1.0
  C  C52  1  0.17357000  0.37009000  0.38526000  1.0
  C  C53  1  0.19694000  0.37000000  0.88522000  1.0
  C  C54  1  0.46342000  0.79218000  0.75387000  1.0
  C  C55  1  0.32803000  0.79244000  0.25381000  1.0
  C  C56  1  0.53660000  0.20783000  0.24613000  1.0
  C  C57  1  0.67199000  0.20757000  0.74619000  1.0
  S  S58  1  0.65519000  0.76382000  0.42416000  1.0
  S  S59  1  0.10960000  0.76347000  0.92453000  1.0
  S  S60  1  0.34478000  0.23619000  0.57584000  1.0
  S  S61  1  0.89042000  0.23651000  0.07548000  1.0
  N  N62  1  0.25655000  0.83616000  0.49985000  1.0
  N  N63  1  0.58054000  0.83637000  0.00021000  1.0
  N  N64  1  0.74342000  0.16386000  0.50015000  1.0
  N  N65  1  0.41949000  0.16362000  0.99979000  1.0
  N  N66  1  0.79631000  0.89443000  0.60839000  1.0
  N  N67  1  0.09748000  0.89439000  0.10854000  1.0
  N  N68  1  0.20368000  0.10558000  0.39161000  1.0
  N  N69  1  0.90253000  0.10560000  0.89146000  1.0
  N  N70  1  0.63722000  0.83789000  0.79338000  1.0
  N  N71  1  0.19997000  0.83819000  0.29334000  1.0
  N  N72  1  0.36278000  0.16211000  0.20662000  1.0
  N  N73  1  0.80005000  0.16182000  0.70666000  1.0
