# generated using pymatgen
data_RbH5C7SN4
_symmetry_space_group_name_H-M   'P 1'
_cell_length_a   6.52931000
_cell_length_b   7.14015000
_cell_length_c   21.11370000
_cell_angle_alpha   89.99990000
_cell_angle_beta   89.99930000
_cell_angle_gamma   68.78500000
_symmetry_Int_Tables_number   1
_chemical_formula_structural   RbH5C7SN4
_chemical_formula_sum   'Rb4 H20 C28 S4 N16'
_cell_volume   917.61736659
_cell_formula_units_Z   4
loop_
 _symmetry_equiv_pos_site_id
 _symmetry_equiv_pos_as_xyz
  1  'x, y, z'
loop_
 _atom_site_type_symbol
 _atom_site_label
 _atom_site_symmetry_multiplicity
 _atom_site_fract_x
 _atom_site_fract_y
 _atom_site_fract_z
 _atom_site_occupancy
  Rb  Rb0  1  0.21489000  0.60242000  0.44900000  1.0
  Rb  Rb1  1  0.78511000  0.89759000  0.94900000  1.0
  Rb  Rb2  1  0.78511000  0.39763000  0.55100000  1.0
  Rb  Rb3  1  0.21489000  0.10238000  0.05101000  1.0
  H  H4  1  0.62651000  0.92319000  0.27273000  1.0
  H  H5  1  0.37343000  0.57680000  0.77272000  1.0
  H  H6  1  0.37348000  0.07681000  0.72727000  1.0
  H  H7  1  0.62661000  0.42322000  0.22728000  1.0
  H  H8  1  0.36793000  0.95643000  0.18389000  1.0
  H  H9  1  0.63202000  0.54358000  0.68388000  1.0
  H  H10  1  0.63207000  0.04355000  0.81611000  1.0
  H  H11  1  0.36803000  0.45645000  0.31613000  1.0
  H  H12  1  0.96154000  0.08875000  0.20375000  1.0
  H  H13  1  0.03840000  0.41128000  0.70373000  1.0
  H  H14  1  0.03846000  0.91125000  0.79625000  1.0
  H  H15  1  0.96164000  0.58871000  0.29628000  1.0
  H  H16  1  0.82096000  0.18874000  0.31335000  1.0
  H  H17  1  0.17898000  0.31132000  0.81334000  1.0
  H  H18  1  0.17902000  0.81129000  0.68664000  1.0
  H  H19  1  0.82104000  0.68865000  0.18667000  1.0
  H  H20  1  0.08391000  0.14876000  0.40273000  1.0
  H  H21  1  0.91603000  0.35128000  0.90272000  1.0
  H  H22  1  0.91606000  0.85129000  0.59726000  1.0
  H  H23  1  0.08399000  0.64864000  0.09729000  1.0
  C  C24  1  0.66931000  0.84690000  0.41998000  1.0
  C  C25  1  0.33065000  0.65312000  0.91997000  1.0
  C  C26  1  0.33067000  0.15314000  0.58002000  1.0
  C  C27  1  0.66931000  0.34685000  0.08002000  1.0
  C  C28  1  0.36838000  0.03166000  0.34215000  1.0
  C  C29  1  0.63155000  0.46833000  0.84214000  1.0
  C  C30  1  0.63159000  0.96837000  0.65784000  1.0
  C  C31  1  0.36847000  0.53165000  0.15787000  1.0
  C  C32  1  0.44995000  0.97779000  0.28104000  1.0
  C  C33  1  0.55001000  0.52222000  0.78103000  1.0
  C  C34  1  0.55004000  0.02221000  0.71895000  1.0
  C  C35  1  0.45002000  0.47778000  0.21897000  1.0
  C  C36  1  0.30267000  0.99865000  0.23145000  1.0
  C  C37  1  0.69729000  0.50135000  0.73144000  1.0
  C  C38  1  0.69732000  0.00136000  0.76854000  1.0
  C  C39  1  0.30275000  0.49866000  0.26857000  1.0
  C  C40  1  0.07642000  0.07315000  0.24283000  1.0
  C  C41  1  0.92352000  0.42688000  0.74281000  1.0
  C  C42  1  0.92357000  0.92684000  0.75717000  1.0
  C  C43  1  0.07652000  0.57310000  0.25720000  1.0
  C  C44  1  0.99729000  0.12779000  0.30424000  1.0
  C  C45  1  0.00265000  0.37224000  0.80422000  1.0
  C  C46  1  0.00269000  0.87223000  0.69575000  1.0
  C  C47  1  0.99736000  0.62774000  0.19579000  1.0
  C  C48  1  0.14289000  0.10672000  0.35454000  1.0
  C  C49  1  0.85706000  0.39331000  0.85453000  1.0
  C  C50  1  0.85709000  0.89331000  0.64546000  1.0
  C  C51  1  0.14295000  0.60664000  0.14548000  1.0
  S  S52  1  0.71464000  0.60359000  0.40119000  1.0
  S  S53  1  0.28534000  0.89642000  0.90118000  1.0
  S  S54  1  0.28534000  0.39645000  0.59881000  1.0
  S  S55  1  0.71463000  0.10356000  0.09881000  1.0
  N  N56  1  0.51917000  0.01521000  0.39251000  1.0
  N  N57  1  0.48079000  0.48478000  0.89249000  1.0
  N  N58  1  0.48081000  0.98481000  0.60749000  1.0
  N  N59  1  0.51921000  0.51518000  0.10751000  1.0
  N  N60  1  0.53200000  0.18224000  0.42057000  1.0
  N  N61  1  0.46797000  0.31777000  0.92057000  1.0
  N  N62  1  0.46798000  0.81779000  0.57942000  1.0
  N  N63  1  0.53203000  0.68220000  0.07944000  1.0
  N  N64  1  0.68468000  0.11813000  0.46336000  1.0
  N  N65  1  0.31531000  0.38189000  0.96337000  1.0
  N  N66  1  0.31531000  0.88191000  0.53663000  1.0
  N  N67  1  0.68468000  0.61809000  0.03663000  1.0
  N  N68  1  0.77288000  0.91589000  0.46494000  1.0
  N  N69  1  0.22713000  0.58413000  0.96494000  1.0
  N  N70  1  0.22712000  0.08415000  0.53506000  1.0
  N  N71  1  0.77286000  0.41584000  0.03506000  1.0
