# generated using pymatgen
data_LaH5(C4O3)2
_symmetry_space_group_name_H-M   'P 1'
_cell_length_a   7.27635000
_cell_length_b   9.97691000
_cell_length_c   11.64060000
_cell_angle_alpha   90.00010000
_cell_angle_beta   90.00000000
_cell_angle_gamma   91.35100000
_symmetry_Int_Tables_number   1
_chemical_formula_structural   LaH5(C4O3)2
_chemical_formula_sum   'La4 H20 C32 O24'
_cell_volume   844.82014081
_cell_formula_units_Z   4
loop_
 _symmetry_equiv_pos_site_id
 _symmetry_equiv_pos_as_xyz
  1  'x, y, z'
loop_
 _atom_site_type_symbol
 _atom_site_label
 _atom_site_symmetry_multiplicity
 _atom_site_fract_x
 _atom_site_fract_y
 _atom_site_fract_z
 _atom_site_occupancy
  La  La0  1  0.09263000  0.23654000  0.31112000  1.0
  La  La1  1  0.40737000  0.76346000  0.81113000  1.0
  La  La2  1  0.90737000  0.76346000  0.68888000  1.0
  La  La3  1  0.59263000  0.23654000  0.18888000  1.0
  H  H4  1  0.00673000  0.72140000  0.28493000  1.0
  H  H5  1  0.49327000  0.27859000  0.78493000  1.0
  H  H6  1  0.99328000  0.27860000  0.71507000  1.0
  H  H7  1  0.50672000  0.72141000  0.21507000  1.0
  H  H8  1  0.78519000  0.52729000  0.98364000  1.0
  H  H9  1  0.71481000  0.47271000  0.48365000  1.0
  H  H10  1  0.21481000  0.47271000  0.01636000  1.0
  H  H11  1  0.28519000  0.52729000  0.51635000  1.0
  H  H12  1  0.80092000  0.95842000  0.00419000  1.0
  H  H13  1  0.69909000  0.04158000  0.50420000  1.0
  H  H14  1  0.19908000  0.04158000  0.99581000  1.0
  H  H15  1  0.30092000  0.95842000  0.49581000  1.0
  H  H16  1  0.08432000  0.14089000  0.58305000  1.0
  H  H17  1  0.41568000  0.85912000  0.08305000  1.0
  H  H18  1  0.91569000  0.85911000  0.41695000  1.0
  H  H19  1  0.58431000  0.14089000  0.91696000  1.0
  H  H20  1  0.26058000  0.23307000  0.55841000  1.0
  H  H21  1  0.23942000  0.76693000  0.05841000  1.0
  H  H22  1  0.73943000  0.76693000  0.44159000  1.0
  H  H23  1  0.76057000  0.23307000  0.94159000  1.0
  C  C24  1  0.92831000  0.97877000  0.22016000  1.0
  C  C25  1  0.57171000  0.02123000  0.72017000  1.0
  C  C26  1  0.07170000  0.02123000  0.77984000  1.0
  C  C27  1  0.42830000  0.97877000  0.27984000  1.0
  C  C28  1  0.90245000  0.85376000  0.15258000  1.0
  C  C29  1  0.59756000  0.14624000  0.65259000  1.0
  C  C30  1  0.09755000  0.14625000  0.84741000  1.0
  C  C31  1  0.40244000  0.85376000  0.34741000  1.0
  C  C32  1  0.94481000  0.72949000  0.20032000  1.0
  C  C33  1  0.55520000  0.27050000  0.70032000  1.0
  C  C34  1  0.05519000  0.27051000  0.79968000  1.0
  C  C35  1  0.44480000  0.72950000  0.29968000  1.0
  C  C36  1  0.90071000  0.61201000  0.13952000  1.0
  C  C37  1  0.59929000  0.38799000  0.63953000  1.0
  C  C38  1  0.09928000  0.38799000  0.86047000  1.0
  C  C39  1  0.40071000  0.61201000  0.36047000  1.0
  C  C40  1  0.93698000  0.48136000  0.19619000  1.0
  C  C41  1  0.56301000  0.51864000  0.69620000  1.0
  C  C42  1  0.06301000  0.51864000  0.80380000  1.0
  C  C43  1  0.43699000  0.48137000  0.30380000  1.0
  C  C44  1  0.82212000  0.61885000  0.03010000  1.0
  C  C45  1  0.67789000  0.38114000  0.53010000  1.0
  C  C46  1  0.17788000  0.38115000  0.96990000  1.0
  C  C47  1  0.32212000  0.61886000  0.46990000  1.0
  C  C48  1  0.79308000  0.74392000  0.97784000  1.0
  C  C49  1  0.70692000  0.25607000  0.47784000  1.0
  C  C50  1  0.20692000  0.25607000  0.02216000  1.0
  C  C51  1  0.29308000  0.74393000  0.52216000  1.0
  C  C52  1  0.82991000  0.86103000  0.04133000  1.0
  C  C53  1  0.67010000  0.13897000  0.54134000  1.0
  C  C54  1  0.17009000  0.13897000  0.95867000  1.0
  C  C55  1  0.32990000  0.86103000  0.45867000  1.0
  O  O56  1  0.99050000  0.97625000  0.32304000  1.0
  O  O57  1  0.50951000  0.02374000  0.82304000  1.0
  O  O58  1  0.00950000  0.02375000  0.67696000  1.0
  O  O59  1  0.49050000  0.97625000  0.17696000  1.0
  O  O60  1  0.89075000  0.09196000  0.17337000  1.0
  O  O61  1  0.60925000  0.90804000  0.67337000  1.0
  O  O62  1  0.10926000  0.90804000  0.82663000  1.0
  O  O63  1  0.39074000  0.09196000  0.32663000  1.0
  O  O64  1  0.02943000  0.48083000  0.28874000  1.0
  O  O65  1  0.47056000  0.51916000  0.78874000  1.0
  O  O66  1  0.97056000  0.51916000  0.71125000  1.0
  O  O67  1  0.52943000  0.48085000  0.21125000  1.0
  O  O68  1  0.87809000  0.37040000  0.15060000  1.0
  O  O69  1  0.62191000  0.62960000  0.65060000  1.0
  O  O70  1  0.12190000  0.62960000  0.84940000  1.0
  O  O71  1  0.37810000  0.37041000  0.34939000  1.0
  O  O72  1  0.73030000  0.75182000  0.86921000  1.0
  O  O73  1  0.76970000  0.24818000  0.36922000  1.0
  O  O74  1  0.26969000  0.24818000  0.13078000  1.0
  O  O75  1  0.23030000  0.75182000  0.63079000  1.0
  O  O76  1  0.14238000  0.20454000  0.52607000  1.0
  O  O77  1  0.35762000  0.79546000  0.02606000  1.0
  O  O78  1  0.85763000  0.79546000  0.47394000  1.0
  O  O79  1  0.64237000  0.20454000  0.97394000  1.0
