# generated using pymatgen
data_NiH28C26N4O5
_symmetry_space_group_name_H-M   'P 1'
_cell_length_a   10.28690000
_cell_length_b   10.98070000
_cell_length_c   11.68930000
_cell_angle_alpha   107.06200000
_cell_angle_beta   95.68880000
_cell_angle_gamma   104.48700000
_symmetry_Int_Tables_number   1
_chemical_formula_structural   NiH28C26N4O5
_chemical_formula_sum   'Ni2 H56 C52 N8 O10'
_cell_volume   1200.72648784
_cell_formula_units_Z   2
loop_
 _symmetry_equiv_pos_site_id
 _symmetry_equiv_pos_as_xyz
  1  'x, y, z'
loop_
 _atom_site_type_symbol
 _atom_site_label
 _atom_site_symmetry_multiplicity
 _atom_site_fract_x
 _atom_site_fract_y
 _atom_site_fract_z
 _atom_site_occupancy
  Ni  Ni0  1  0.61603000  0.40136000  0.15439000  1.0
  Ni  Ni1  1  0.38397000  0.59865000  0.84562000  1.0
  H  H2  1  0.80540000  0.55736000  0.09525000  1.0
  H  H3  1  0.19460000  0.44263000  0.90475000  1.0
  H  H4  1  0.68911000  0.57697000  0.00418000  1.0
  H  H5  1  0.31089000  0.42303000  0.99583000  1.0
  H  H6  1  0.17119000  0.45217000  0.15947000  1.0
  H  H7  1  0.82881000  0.54783000  0.84054000  1.0
  H  H8  1  0.83125000  0.16428000  0.20418000  1.0
  H  H9  1  0.16875000  0.83571000  0.79582000  1.0
  H  H10  1  0.21722000  0.08098000  0.18230000  1.0
  H  H11  1  0.78279000  0.91903000  0.81771000  1.0
  H  H12  1  0.13062000  0.89267000  0.17545000  1.0
  H  H13  1  0.86938000  0.10734000  0.82455000  1.0
  H  H14  1  0.01089000  0.85568000  0.04151000  1.0
  H  H15  1  0.98911000  0.14432000  0.95848000  1.0
  H  H16  1  0.97388000  0.76553000  0.14396000  1.0
  H  H17  1  0.02612000  0.23447000  0.85604000  1.0
  H  H18  1  0.08075000  0.00626000  0.38352000  1.0
  H  H19  1  0.91926000  0.99374000  0.61648000  1.0
  H  H20  1  0.92314000  0.87936000  0.35151000  1.0
  H  H21  1  0.07686000  0.12065000  0.64850000  1.0
  H  H22  1  0.92556000  0.04961000  0.39472000  1.0
  H  H23  1  0.07443000  0.95039000  0.60529000  1.0
  H  H24  1  0.75867000  0.81094000  0.15294000  1.0
  H  H25  1  0.24132000  0.18905000  0.84707000  1.0
  H  H26  1  0.77796000  0.91451000  0.06035000  1.0
  H  H27  1  0.22203000  0.08548000  0.93966000  1.0
  H  H28  1  0.74230000  0.97484000  0.20880000  1.0
  H  H29  1  0.25770000  0.02515000  0.79120000  1.0
  H  H30  1  0.46515000  0.57780000  0.33021000  1.0
  H  H31  1  0.53484000  0.42220000  0.66980000  1.0
  H  H32  1  0.86561000  0.54639000  0.37577000  1.0
  H  H33  1  0.13438000  0.45361000  0.62422000  1.0
  H  H34  1  0.84555000  0.75084000  0.57436000  1.0
  H  H35  1  0.15445000  0.24916000  0.42563000  1.0
  H  H36  1  0.36546000  0.71380000  0.64328000  1.0
  H  H37  1  0.63454000  0.28620000  0.35672000  1.0
  H  H38  1  0.12296000  0.68201000  0.56215000  1.0
  H  H39  1  0.87704000  0.31798000  0.43784000  1.0
  H  H40  1  0.06287000  0.72706000  0.36760000  1.0
  H  H41  1  0.93714000  0.27294000  0.63239000  1.0
  H  H42  1  0.24512000  0.80994000  0.26399000  1.0
  H  H43  1  0.75489000  0.19007000  0.73600000  1.0
  H  H44  1  0.48851000  0.63854000  0.13051000  1.0
  H  H45  1  0.51151000  0.36146000  0.86948000  1.0
  H  H46  1  0.44374000  0.02690000  0.19928000  1.0
  H  H47  1  0.55626000  0.97310000  0.80072000  1.0
  H  H48  1  0.36678000  0.88676000  0.95258000  1.0
  H  H49  1  0.63321000  0.11323000  0.04742000  1.0
  H  H50  1  0.65776000  0.89310000  0.55862000  1.0
  H  H51  1  0.34225000  0.10690000  0.44138000  1.0
  H  H52  1  0.59492000  0.78765000  0.64370000  1.0
  H  H53  1  0.40508000  0.21236000  0.35631000  1.0
  H  H54  1  0.56143000  0.97760000  0.37452000  1.0
  H  H55  1  0.43858000  0.02240000  0.62547000  1.0
  H  H56  1  0.60880000  0.82945000  0.34278000  1.0
  H  H57  1  0.39120000  0.17055000  0.65723000  1.0
  C  C58  1  0.35836000  0.30499000  0.16628000  1.0
  C  C59  1  0.64164000  0.69500000  0.83372000  1.0
  C  C60  1  0.20993000  0.27052000  0.17400000  1.0
  C  C61  1  0.79007000  0.72948000  0.82600000  1.0
  C  C62  1  0.12991000  0.35602000  0.17135000  1.0
  C  C63  1  0.87010000  0.64399000  0.82866000  1.0
  C  C64  1  0.99285000  0.31541000  0.18228000  1.0
  C  C65  1  0.00715000  0.68459000  0.81773000  1.0
  C  C66  1  0.93822000  0.19135000  0.19638000  1.0
  C  C67  1  0.06177000  0.80865000  0.80362000  1.0
  C  C68  1  0.01516000  0.10261000  0.19573000  1.0
  C  C69  1  0.98483000  0.89739000  0.80426000  1.0
  C  C70  1  0.15172000  0.14523000  0.18472000  1.0
  C  C71  1  0.84826000  0.85476000  0.81527000  1.0
  C  C72  1  0.89890000  0.39838000  0.17012000  1.0
  C  C73  1  0.10110000  0.60162000  0.82989000  1.0
  C  C74  1  0.95246000  0.96544000  0.20669000  1.0
  C  C75  1  0.04753000  0.03456000  0.79330000  1.0
  C  C76  1  0.02111000  0.86422000  0.13802000  1.0
  C  C77  1  0.97889000  0.13578000  0.86198000  1.0
  C  C78  1  0.97194000  0.97645000  0.34223000  1.0
  C  C79  1  0.02806000  0.02355000  0.65778000  1.0
  C  C80  1  0.79856000  0.91396000  0.15420000  1.0
  C  C81  1  0.20143000  0.08603000  0.84581000  1.0
  C  C82  1  0.57125000  0.59610000  0.36817000  1.0
  C  C83  1  0.42875000  0.40390000  0.63183000  1.0
  C  C84  1  0.77973000  0.58364000  0.39555000  1.0
  C  C85  1  0.22026000  0.41636000  0.60445000  1.0
  C  C86  1  0.77157000  0.68527000  0.49365000  1.0
  C  C87  1  0.22843000  0.31474000  0.50635000  1.0
  C  C88  1  0.44293000  0.78274000  0.50163000  1.0
  C  C89  1  0.55707000  0.21726000  0.49837000  1.0
  C  C90  1  0.33882000  0.73647000  0.56075000  1.0
  C  C91  1  0.66118000  0.26352000  0.43924000  1.0
  C  C92  1  0.20221000  0.71813000  0.51451000  1.0
  C  C93  1  0.79779000  0.28186000  0.48548000  1.0
  C  C94  1  0.16896000  0.74436000  0.40736000  1.0
  C  C95  1  0.83104000  0.25564000  0.59263000  1.0
  C  C96  1  0.27242000  0.79171000  0.34860000  1.0
  C  C97  1  0.72758000  0.20829000  0.65139000  1.0
  C  C98  1  0.40972000  0.81293000  0.39510000  1.0
  C  C99  1  0.59029000  0.18708000  0.60490000  1.0
  C  C100  1  0.46268000  0.72264000  0.11421000  1.0
  C  C101  1  0.53733000  0.27736000  0.88579000  1.0
  C  C102  1  0.43854000  0.92513000  0.14888000  1.0
  C  C103  1  0.56145000  0.07486000  0.85112000  1.0
  C  C104  1  0.40175000  0.85543000  0.02647000  1.0
  C  C105  1  0.59825000  0.14457000  0.97353000  1.0
  C  C106  1  0.58820000  0.79589000  0.55192000  1.0
  C  C107  1  0.41180000  0.20412000  0.44808000  1.0
  C  C108  1  0.52168000  0.86857000  0.33266000  1.0
  C  C109  1  0.47832000  0.13143000  0.66734000  1.0
  N  N110  1  0.65450000  0.52932000  0.31753000  1.0
  N  N111  1  0.34550000  0.47068000  0.68247000  1.0
  N  N112  1  0.63931000  0.69234000  0.47486000  1.0
  N  N113  1  0.36069000  0.30766000  0.52514000  1.0
  N  N114  1  0.47668000  0.83983000  0.20307000  1.0
  N  N115  1  0.52333000  0.16018000  0.79693000  1.0
  N  N116  1  0.41758000  0.72993000  0.00628000  1.0
  N  N117  1  0.58243000  0.27008000  0.99372000  1.0
  O  O118  1  0.42866000  0.23554000  0.19470000  1.0
  O  O119  1  0.57134000  0.76446000  0.80530000  1.0
  O  O120  1  0.41212000  0.40636000  0.13288000  1.0
  O  O121  1  0.58788000  0.59364000  0.86713000  1.0
  O  O122  1  0.93801000  0.50000000  0.13961000  1.0
  O  O123  1  0.06199000  0.50000000  0.86039000  1.0
  O  O124  1  0.77903000  0.35194000  0.19311000  1.0
  O  O125  1  0.22097000  0.64807000  0.80690000  1.0
  O  O126  1  0.71856000  0.58232000  0.08868000  1.0
  O  O127  1  0.28144000  0.41769000  0.91133000  1.0
