# generated using pymatgen
data_TbCuH22C18IN5O9
_symmetry_space_group_name_H-M   'P 1'
_cell_length_a   10.87910000
_cell_length_b   11.79527787
_cell_length_c   14.50700000
_cell_angle_alpha   82.44641161
_cell_angle_beta   84.37590000
_cell_angle_gamma   68.40982680
_symmetry_Int_Tables_number   1
_chemical_formula_structural   TbCuH22C18IN5O9
_chemical_formula_sum   'Tb2 Cu2 H44 C36 I2 N10 O18'
_cell_volume   1713.44925707
_cell_formula_units_Z   2
loop_
 _symmetry_equiv_pos_site_id
 _symmetry_equiv_pos_as_xyz
  1  'x, y, z'
loop_
 _atom_site_type_symbol
 _atom_site_label
 _atom_site_symmetry_multiplicity
 _atom_site_fract_x
 _atom_site_fract_y
 _atom_site_fract_z
 _atom_site_occupancy
  Tb  Tb0  1  0.40244000  0.87557000  0.03617000  1.0
  Tb  Tb1  1  0.59756000  0.12444000  0.96382000  1.0
  Cu  Cu2  1  0.01474000  0.49693000  0.41224000  1.0
  Cu  Cu3  1  0.98526000  0.50307000  0.58776000  1.0
  H  H4  1  0.43962000  0.29486000  0.22413000  1.0
  H  H5  1  0.56039000  0.70512000  0.77587000  1.0
  H  H6  1  0.94798000  0.85250000  0.15974000  1.0
  H  H7  1  0.05202000  0.14749000  0.84025000  1.0
  H  H8  1  0.15838000  0.11384000  0.24622000  1.0
  H  H9  1  0.84161000  0.88616000  0.75377000  1.0
  H  H10  1  0.63144000  0.70955000  0.20145000  1.0
  H  H11  1  0.36854000  0.29048000  0.79856000  1.0
  H  H12  1  0.05589000  0.70537000  0.29445000  1.0
  H  H13  1  0.94413000  0.29462000  0.70554000  1.0
  H  H14  1  0.29412000  0.43323000  0.34154000  1.0
  H  H15  1  0.70589000  0.56676000  0.65846000  1.0
  H  H16  1  0.75617000  0.56327000  0.33164000  1.0
  H  H17  1  0.24381000  0.43676000  0.66838000  1.0
  H  H18  1  0.32313000  0.85240000  0.81223000  1.0
  H  H19  1  0.67687000  0.14759000  0.18777000  1.0
  H  H20  1  0.50598000  0.59834000  0.92731000  1.0
  H  H21  1  0.49401000  0.40166000  0.07269000  1.0
  H  H22  1  0.02085000  0.26271000  0.36094000  1.0
  H  H23  1  0.97915000  0.73728000  0.63906000  1.0
  H  H24  1  0.18009000  0.93215000  0.70814000  1.0
  H  H25  1  0.81992000  0.06784000  0.29185000  1.0
  H  H26  1  0.00978000  0.99772000  0.74611000  1.0
  H  H27  1  0.99023000  0.00227000  0.25387000  1.0
  H  H28  1  0.07456000  0.84680000  0.70919000  1.0
  H  H29  1  0.92545000  0.15319000  0.29080000  1.0
  H  H30  1  0.64095000  0.44913000  0.85318000  1.0
  H  H31  1  0.35903000  0.55087000  0.14683000  1.0
  H  H32  1  0.76894000  0.33795000  0.91942000  1.0
  H  H33  1  0.23105000  0.66205000  0.08059000  1.0
  H  H34  1  0.80528000  0.45172000  0.83854000  1.0
  H  H35  1  0.19472000  0.54827000  0.16147000  1.0
  H  H36  1  0.06353000  0.82876000  0.97784000  1.0
  H  H37  1  0.93646000  0.17126000  0.02215000  1.0
  H  H38  1  0.99247000  0.77804000  0.89213000  1.0
  H  H39  1  0.00753000  0.22197000  0.10787000  1.0
  H  H40  1  0.94149000  0.93730000  0.90427000  1.0
  H  H41  1  0.05851000  0.06271000  0.09572000  1.0
  H  H42  1  0.77347000  0.57697000  0.06519000  1.0
  H  H43  1  0.22651000  0.42304000  0.93482000  1.0
  H  H44  1  0.89081000  0.51189000  0.97272000  1.0
  H  H45  1  0.10919000  0.48811000  0.02729000  1.0
  H  H46  1  0.84030000  0.41426000  0.06037000  1.0
  H  H47  1  0.15969000  0.58575000  0.93964000  1.0
  C  C48  1  0.30683000  0.19655000  0.22359000  1.0
  C  C49  1  0.69318000  0.80344000  0.77641000  1.0
  C  C50  1  0.34699000  0.28551000  0.25264000  1.0
  C  C51  1  0.65301000  0.71448000  0.74736000  1.0
  C  C52  1  0.70818000  0.88324000  0.09310000  1.0
  C  C53  1  0.29181000  0.11677000  0.90691000  1.0
  C  C54  1  0.38368000  0.11852000  0.14850000  1.0
  C  C55  1  0.61632000  0.88148000  0.85150000  1.0
  C  C56  1  0.78085000  0.79209000  0.16928000  1.0
  C  C57  1  0.21914000  0.20792000  0.83073000  1.0
  C  C58  1  0.90222000  0.78982000  0.19588000  1.0
  C  C59  1  0.09778000  0.21018000  0.80412000  1.0
  C  C60  1  0.18941000  0.18533000  0.26462000  1.0
  C  C61  1  0.81059000  0.81467000  0.73537000  1.0
  C  C62  1  0.72665000  0.70950000  0.21857000  1.0
  C  C63  1  0.27333000  0.29052000  0.78145000  1.0
  C  C64  1  0.96368000  0.70689000  0.26964000  1.0
  C  C65  1  0.03631000  0.29311000  0.73036000  1.0
  C  C66  1  0.26694000  0.36253000  0.31674000  1.0
  C  C67  1  0.73307000  0.63746000  0.68325000  1.0
  C  C68  1  0.79509000  0.62843000  0.29067000  1.0
  C  C69  1  0.20489000  0.37159000  0.70934000  1.0
  C  C70  1  0.25414000  0.83167000  0.86688000  1.0
  C  C71  1  0.74587000  0.16832000  0.13312000  1.0
  C  C72  1  0.57751000  0.59548000  0.97729000  1.0
  C  C73  1  0.42248000  0.40453000  0.02271000  1.0
  C  C74  1  0.11405000  0.26645000  0.32752000  1.0
  C  C75  1  0.88594000  0.73355000  0.67247000  1.0
  C  C76  1  0.09664000  0.91237000  0.74579000  1.0
  C  C77  1  0.90335000  0.08763000  0.25420000  1.0
  C  C78  1  0.73073000  0.43382000  0.88900000  1.0
  C  C79  1  0.26927000  0.56618000  0.11101000  1.0
  C  C80  1  0.02608000  0.85031000  0.90790000  1.0
  C  C81  1  0.97393000  0.14969000  0.09209000  1.0
  C  C82  1  0.80720000  0.50404000  0.01886000  1.0
  C  C83  1  0.19279000  0.49596000  0.98114000  1.0
  I  I84  1  0.15403000  0.59702000  0.49243000  1.0
  I  I85  1  0.84598000  0.40297000  0.50758000  1.0
  N  N86  1  0.14964000  0.35633000  0.35194000  1.0
  N  N87  1  0.85036000  0.64367000  0.64806000  1.0
  N  N88  1  0.91227000  0.62600000  0.31639000  1.0
  N  N89  1  0.08772000  0.37402000  0.68362000  1.0
  N  N90  1  0.13126000  0.86139000  0.84097000  1.0
  N  N91  1  0.86874000  0.13861000  0.15903000  1.0
  N  N92  1  0.26318000  0.82610000  0.20676000  1.0
  N  N93  1  0.73682000  0.17391000  0.79323000  1.0
  N  N94  1  0.69948000  0.51482000  0.96235000  1.0
  N  N95  1  0.30052000  0.48517000  0.03765000  1.0
  O  O96  1  0.34052000  0.03963000  0.12725000  1.0
  O  O97  1  0.65948000  0.96036000  0.87275000  1.0
  O  O98  1  0.48464000  0.14006000  0.11034000  1.0
  O  O99  1  0.51536000  0.85994000  0.88966000  1.0
  O  O100  1  0.59899000  0.88013000  0.07118000  1.0
  O  O101  1  0.40102000  0.11986000  0.92883000  1.0
  O  O102  1  0.75602000  0.96235000  0.05444000  1.0
  O  O103  1  0.24398000  0.03765000  0.94556000  1.0
  O  O104  1  0.54324000  0.66326000  0.04218000  1.0
  O  O105  1  0.45676000  0.33674000  0.95782000  1.0
  O  O106  1  0.29270000  0.78434000  0.94685000  1.0
  O  O107  1  0.70730000  0.21565000  0.05314000  1.0
  O  O108  1  0.39010000  0.78785000  0.19904000  1.0
  O  O109  1  0.60988000  0.21217000  0.80094000  1.0
  O  O110  1  0.20375000  0.86697000  0.12914000  1.0
  O  O111  1  0.79626000  0.13301000  0.87088000  1.0
  O  O112  1  0.20071000  0.82469000  0.28214000  1.0
  O  O113  1  0.79933000  0.17531000  0.71785000  1.0
