# generated using pymatgen
data_Zn4H19C33N3O13
_symmetry_space_group_name_H-M   'P 1'
_cell_length_a   13.04270000
_cell_length_b   13.15670000
_cell_length_c   19.73330000
_cell_angle_alpha   79.53710000
_cell_angle_beta   79.35470000
_cell_angle_gamma   88.48810000
_symmetry_Int_Tables_number   1
_chemical_formula_structural   Zn4H19C33N3O13
_chemical_formula_sum   'Zn4 H19 C33 N3 O13'
_cell_volume   3272.50992434
_cell_formula_units_Z   1
loop_
 _symmetry_equiv_pos_site_id
 _symmetry_equiv_pos_as_xyz
  1  'x, y, z'
loop_
 _atom_site_type_symbol
 _atom_site_label
 _atom_site_symmetry_multiplicity
 _atom_site_fract_x
 _atom_site_fract_y
 _atom_site_fract_z
 _atom_site_occupancy
  Zn  Zn0  1  0.58943000  0.57265000  0.54326000  1.0
  Zn  Zn1  1  0.57516000  0.40608000  0.44043000  1.0
  Zn  Zn2  1  0.43208000  0.59939000  0.43662000  1.0
  Zn  Zn3  1  0.39748000  0.42098000  0.57843000  1.0
  H  H4  1  0.37954000  0.64405000  0.11058000  1.0
  H  H5  1  0.40312000  0.64118000  0.23277000  1.0
  H  H6  1  0.52586000  0.29263000  0.90805000  1.0
  H  H7  1  0.53666000  0.35051000  0.11261000  1.0
  H  H8  1  0.54436000  0.38240000  0.00558000  1.0
  H  H9  1  0.47941000  0.62144000  0.88931000  1.0
  H  H10  1  0.38075000  0.74275000  0.83001000  1.0
  H  H11  1  0.51589000  0.77319000  0.81444000  1.0
  H  H12  1  0.43835000  0.82824000  0.75278000  1.0
  H  H13  1  0.54605000  0.68486000  0.70922000  1.0
  H  H14  1  0.41245000  0.66026000  0.72008000  1.0
  H  H15  1  0.54044000  0.09128000  0.45952000  1.0
  H  H16  1  0.49943000  0.89751000  0.57903000  1.0
  H  H17  1  0.44233000  0.07735000  0.61596000  1.0
  H  H18  1  0.53420000  0.92897000  0.41729000  1.0
  H  H19  1  0.90372000  0.55537000  0.53032000  1.0
  H  H20  1  0.10482000  0.50641000  0.42841000  1.0
  H  H21  1  0.06661000  0.55332000  0.57923000  1.0
  H  H22  1  0.55955000  0.34965000  0.23423000  1.0
  C  C23  1  0.47580000  0.22396000  0.54196000  1.0
  C  C24  1  0.49818000  0.44589000  0.98320000  1.0
  C  C25  1  0.44704000  0.50660000  0.02773000  1.0
  C  C26  1  0.52098000  0.77409000  0.48034000  1.0
  C  C27  1  0.48366000  0.49595000  0.24090000  1.0
  C  C28  1  0.52642000  0.88767000  0.47125000  1.0
  C  C29  1  0.51281000  0.94009000  0.52512000  1.0
  C  C30  1  0.47614000  0.11005000  0.56182000  1.0
  C  C31  1  0.51184000  0.05129000  0.51310000  1.0
  C  C32  1  0.10978000  0.54160000  0.52828000  1.0
  C  C33  1  0.05970000  0.52390000  0.47733000  1.0
  C  C34  1  0.49897000  0.45604000  0.90835000  1.0
  C  C35  1  0.89112000  0.48476000  0.44538000  1.0
  C  C36  1  0.94812000  0.52338000  0.48654000  1.0
  C  C37  1  0.77442000  0.48894000  0.46097000  1.0
  C  C38  1  0.22496000  0.53458000  0.52117000  1.0
  C  C39  1  0.49695000  0.49713000  0.31415000  1.0
  C  C40  1  0.49970000  0.48136000  0.68717000  1.0
  C  C41  1  0.50050000  0.47355000  0.76391000  1.0
  C  C42  1  0.48844000  0.56327000  0.79410000  1.0
  C  C43  1  0.48753000  0.55244000  0.86578000  1.0
  C  C44  1  0.47517000  0.66768000  0.74956000  1.0
  C  C45  1  0.51466000  0.36806000  0.87692000  1.0
  C  C46  1  0.45109000  0.75741000  0.78920000  1.0
  C  C47  1  0.93931000  0.43474000  0.38962000  1.0
  C  C48  1  0.37732000  0.58516000  0.00364000  1.0
  C  C49  1  0.52817000  0.28624000  0.77361000  1.0
  C  C50  1  0.51365000  0.37639000  0.80521000  1.0
  C  C51  1  0.50780000  0.41540000  0.13793000  1.0
  C  C52  1  0.52069000  0.41407000  0.20645000  1.0
  C  C53  1  0.43229000  0.57820000  0.20575000  1.0
  C  C54  1  0.41922000  0.57932000  0.13742000  1.0
  C  C55  1  0.45772000  0.49872000  0.10183000  1.0
  N  N56  1  0.98142000  0.39368000  0.34443000  1.0
  N  N57  1  0.31816000  0.64884000  0.98677000  1.0
  N  N58  1  0.54091000  0.21286000  0.74752000  1.0
  O  O59  1  0.49829000  0.49782000  0.50055000  1.0
  O  O60  1  0.54287000  0.42062000  0.34560000  1.0
  O  O61  1  0.42108000  0.44275000  0.67135000  1.0
  O  O62  1  0.46094000  0.57587000  0.34005000  1.0
  O  O63  1  0.57774000  0.52712000  0.64529000  1.0
  O  O64  1  0.73527000  0.54838000  0.50327000  1.0
  O  O65  1  0.25776000  0.48027000  0.57327000  1.0
  O  O66  1  0.53851000  0.26405000  0.48633000  1.0
  O  O67  1  0.48425000  0.73910000  0.43315000  1.0
  O  O68  1  0.41152000  0.27215000  0.58209000  1.0
  O  O69  1  0.55233000  0.72005000  0.53334000  1.0
  O  O70  1  0.72619000  0.43282000  0.43079000  1.0
  O  O71  1  0.27927000  0.58210000  0.46443000  1.0
