# generated using pymatgen
data_Al2H15C24NO12
_symmetry_space_group_name_H-M   'P 1'
_cell_length_a   6.63630000
_cell_length_b   16.92810000
_cell_length_c   19.69950000
_cell_angle_alpha   71.13390000
_cell_angle_beta   89.85070000
_cell_angle_gamma   89.92410000
_symmetry_Int_Tables_number   1
_chemical_formula_structural   Al2H15C24NO12
_chemical_formula_sum   'Al4 H30 C48 N2 O24'
_cell_volume   2094.14192629
_cell_formula_units_Z   2
loop_
 _symmetry_equiv_pos_site_id
 _symmetry_equiv_pos_as_xyz
  1  'x, y, z'
loop_
 _atom_site_type_symbol
 _atom_site_label
 _atom_site_symmetry_multiplicity
 _atom_site_fract_x
 _atom_site_fract_y
 _atom_site_fract_z
 _atom_site_occupancy
  Al  Al0  1  0.01439000  0.50273000  0.50167000  1.0
  Al  Al1  1  0.98547000  0.00396000  0.00039000  1.0
  Al  Al2  1  0.51554000  0.49972000  0.50100000  1.0
  Al  Al3  1  0.48499000  0.99817000  0.00222000  1.0
  H  H4  1  0.93753000  0.25091000  0.30972000  1.0
  H  H5  1  0.05238000  0.82603000  0.74997000  1.0
  H  H6  1  0.94222000  0.33630000  0.39150000  1.0
  H  H7  1  0.05064000  0.90374000  0.83786000  1.0
  H  H8  1  0.56933000  0.39006000  0.34503000  1.0
  H  H9  1  0.43469000  0.83270000  0.89137000  1.0
  H  H10  1  0.56253000  0.31131000  0.25795000  1.0
  H  H11  1  0.43768000  0.75044000  0.80693000  1.0
  H  H12  1  0.55099000  0.18023000  0.24926000  1.0
  H  H13  1  0.44010000  0.76005000  0.68772000  1.0
  H  H14  1  0.54434000  0.10217000  0.16220000  1.0
  H  H15  1  0.44920000  0.67577000  0.60541000  1.0
  H  H16  1  0.92866000  0.17611000  0.11090000  1.0
  H  H17  1  0.06747000  0.61203000  0.66105000  1.0
  H  H18  1  0.72799000  0.26790000  0.66906000  1.0
  H  H19  1  0.27674000  0.76769000  0.17064000  1.0
  H  H20  1  0.57511000  0.20844000  0.62830000  1.0
  H  H21  1  0.42896000  0.70829000  0.12931000  1.0
  H  H22  1  0.72327000  0.14978000  0.78533000  1.0
  H  H23  1  0.28372000  0.64942000  0.28700000  1.0
  H  H24  1  0.57592000  0.08915000  0.74487000  1.0
  H  H25  1  0.43046000  0.58895000  0.24591000  1.0
  H  H26  1  0.93800000  0.25970000  0.19357000  1.0
  H  H27  1  0.05821000  0.69280000  0.74605000  1.0
  H  H28  1  0.98273000  0.23998000  0.84076000  1.0
  H  H29  1  0.02341000  0.74103000  0.33984000  1.0
  H  H30  1  0.76864000  0.39674000  0.55323000  1.0
  H  H31  1  0.22614000  0.89589000  0.05179000  1.0
  H  H32  1  0.27057000  0.59732000  0.51374000  1.0
  H  H33  1  0.72650000  0.09615000  0.01568000  1.0
  C  C34  1  0.75842000  0.61129000  0.38784000  1.0
  C  C35  1  0.24669000  0.11113000  0.88809000  1.0
  C  C36  1  0.76656000  0.59035000  0.57703000  1.0
  C  C37  1  0.23156000  0.08778000  0.07882000  1.0
  C  C38  1  0.26866000  0.38937000  0.61668000  1.0
  C  C39  1  0.73285000  0.88913000  0.11640000  1.0
  C  C40  1  0.25812000  0.41650000  0.42417000  1.0
  C  C41  1  0.74353000  0.91879000  0.92263000  1.0
  C  C42  1  0.07519000  0.28319000  0.31562000  1.0
  C  C43  1  0.91773000  0.82588000  0.78188000  1.0
  C  C44  1  0.07733000  0.32982000  0.36215000  1.0
  C  C45  1  0.91716000  0.87014000  0.83025000  1.0
  C  C46  1  0.25605000  0.36786000  0.37337000  1.0
  C  C47  1  0.74296000  0.87252000  0.87002000  1.0
  C  C48  1  0.43147000  0.35969000  0.33637000  1.0
  C  C49  1  0.56919000  0.83046000  0.86014000  1.0
  C  C50  1  0.42735000  0.31467000  0.28852000  1.0
  C  C51  1  0.57120000  0.78545000  0.81228000  1.0
  C  C52  1  0.24972000  0.27503000  0.27759000  1.0
  C  C53  1  0.74559000  0.78203000  0.77246000  1.0
  C  C54  1  0.41584000  0.18168000  0.21747000  1.0
  C  C55  1  0.57756000  0.72687000  0.68282000  1.0
  C  C56  1  0.41253000  0.13733000  0.16912000  1.0
  C  C57  1  0.58244000  0.68049000  0.63606000  1.0
  C  C58  1  0.23679000  0.13522000  0.13044000  1.0
  C  C59  1  0.75998000  0.63992000  0.62711000  1.0
  C  C60  1  0.06507000  0.17812000  0.14095000  1.0
  C  C61  1  0.93179000  0.64565000  0.66655000  1.0
  C  C62  1  0.07029000  0.22392000  0.18807000  1.0
  C  C63  1  0.92583000  0.69131000  0.71377000  1.0
  C  C64  1  0.24565000  0.22653000  0.22736000  1.0
  C  C65  1  0.74930000  0.73322000  0.72251000  1.0
  C  C66  1  0.40607000  0.19050000  0.76826000  1.0
  C  C67  1  0.60036000  0.69051000  0.26858000  1.0
  C  C68  1  0.25355000  0.18084000  0.81893000  1.0
  C  C69  1  0.75343000  0.68115000  0.31875000  1.0
  C  C70  1  0.10480000  0.24340000  0.80283000  1.0
  C  C71  1  0.90129000  0.74405000  0.30222000  1.0
  C  C72  1  0.11633000  0.31169000  0.74035000  1.0
  C  C73  1  0.88836000  0.81244000  0.23974000  1.0
  C  C74  1  0.26748000  0.32150000  0.68752000  1.0
  C  C75  1  0.73684000  0.82164000  0.18739000  1.0
  C  C76  1  0.40972000  0.25777000  0.70418000  1.0
  C  C77  1  0.59541000  0.75769000  0.20455000  1.0
  C  C78  1  0.59702000  0.22643000  0.67659000  1.0
  C  C79  1  0.40778000  0.72625000  0.17768000  1.0
  C  C80  1  0.59511000  0.15155000  0.74974000  1.0
  C  C81  1  0.41116000  0.65134000  0.25085000  1.0
  N  N82  1  0.97054000  0.37928000  0.73456000  1.0
  N  N83  1  0.03229000  0.88075000  0.23348000  1.0
  O  O84  1  0.59967000  0.57626000  0.55079000  1.0
  O  O85  1  0.40006000  0.07208000  0.05435000  1.0
  O  O86  1  0.92685000  0.59310000  0.41971000  1.0
  O  O87  1  0.07711000  0.09451000  0.91967000  1.0
  O  O88  1  0.08901000  0.44273000  0.43895000  1.0
  O  O89  1  0.91131000  0.94838000  0.93437000  1.0
  O  O90  1  0.93944000  0.56611000  0.56311000  1.0
  O  O91  1  0.05874000  0.06721000  0.06182000  1.0
  O  O92  1  0.09901000  0.41043000  0.58614000  1.0
  O  O93  1  0.90063000  0.91008000  0.08417000  1.0
  O  O94  1  0.59048000  0.57626000  0.40986000  1.0
  O  O95  1  0.41281000  0.07482000  0.91059000  1.0
  O  O96  1  0.76637000  0.44920000  0.51409000  1.0
  O  O97  1  0.23261000  0.94896000  0.01343000  1.0
  O  O98  1  0.44089000  0.41668000  0.59167000  1.0
  O  O99  1  0.55937000  0.91610000  0.09286000  1.0
  O  O100  1  0.42767000  0.42786000  0.44972000  1.0
  O  O101  1  0.57705000  0.92487000  0.95298000  1.0
  O  O102  1  0.26636000  0.55170000  0.49407000  1.0
  O  O103  1  0.73254000  0.05188000  0.99442000  1.0
  O  O104  1  0.03784000  0.45126000  0.71694000  1.0
  O  O105  1  0.79220000  0.35936000  0.75017000  1.0
  O  O106  1  0.21029000  0.86148000  0.25024000  1.0
  O  O107  1  0.96403000  0.95269000  0.21419000  1.0
