# generated using pymatgen
data_Zn2Cu3H44C36(N11O)2
_symmetry_space_group_name_H-M   'P 1'
_cell_length_a   11.90400000
_cell_length_b   12.99310000
_cell_length_c   17.68040000
_cell_angle_alpha   89.97770000
_cell_angle_beta   83.30780000
_cell_angle_gamma   89.94970000
_symmetry_Int_Tables_number   1
_chemical_formula_structural   Zn2Cu3H44C36(N11O)2
_chemical_formula_sum   'Zn4 Cu6 H88 C72 N44 O4'
_cell_volume   2715.99157151
_cell_formula_units_Z   2
loop_
 _symmetry_equiv_pos_site_id
 _symmetry_equiv_pos_as_xyz
  1  'x, y, z'
loop_
 _atom_site_type_symbol
 _atom_site_label
 _atom_site_symmetry_multiplicity
 _atom_site_fract_x
 _atom_site_fract_y
 _atom_site_fract_z
 _atom_site_occupancy
  Zn  Zn0  1  0.67936000  0.46163000  0.79881000  1.0
  Zn  Zn1  1  0.82099000  0.96187000  0.70115000  1.0
  Zn  Zn2  1  0.32063000  0.53837000  0.20118000  1.0
  Zn  Zn3  1  0.17901000  0.03813000  0.29885000  1.0
  Cu  Cu4  1  0.03692000  0.32594000  0.55436000  1.0
  Cu  Cu5  1  0.46221000  0.82571000  0.94510000  1.0
  Cu  Cu6  1  0.96308000  0.67406000  0.44564000  1.0
  Cu  Cu7  1  0.53779000  0.17429000  0.05490000  1.0
  Cu  Cu8  1  0.50000000  0.50000000  0.50000000  1.0
  Cu  Cu9  1  0.00000000  0.00000000  0.00000000  1.0
  H  H10  1  0.54638000  0.66733000  0.81882000  1.0
  H  H11  1  0.95332000  0.16779000  0.68089000  1.0
  H  H12  1  0.45361000  0.33266000  0.18117000  1.0
  H  H13  1  0.04668000  0.83221000  0.31911000  1.0
  H  H14  1  0.76110000  0.53324000  0.96463000  1.0
  H  H15  1  0.73875000  0.03311000  0.53543000  1.0
  H  H16  1  0.23890000  0.46677000  0.03536000  1.0
  H  H17  1  0.26126000  0.96689000  0.46456000  1.0
  H  H18  1  0.65120000  0.70195000  0.03655000  1.0
  H  H19  1  0.84782000  0.20192000  0.46329000  1.0
  H  H20  1  0.34879000  0.29805000  0.96345000  1.0
  H  H21  1  0.15218000  0.79808000  0.53671000  1.0
  H  H22  1  0.67594000  0.49858000  0.62168000  1.0
  H  H23  1  0.82444000  0.99776000  0.87813000  1.0
  H  H24  1  0.32406000  0.50141000  0.37831000  1.0
  H  H25  1  0.17556000  0.00223000  0.12188000  1.0
  H  H26  1  0.40426000  0.48186000  0.79623000  1.0
  H  H27  1  0.09626000  0.98275000  0.70357000  1.0
  H  H28  1  0.59574000  0.51813000  0.20377000  1.0
  H  H29  1  0.90374000  0.01725000  0.29644000  1.0
  H  H30  1  0.32013000  0.49547000  0.65648000  1.0
  H  H31  1  0.18030000  0.99626000  0.84335000  1.0
  H  H32  1  0.67988000  0.50452000  0.34351000  1.0
  H  H33  1  0.81969000  0.00374000  0.15665000  1.0
  H  H34  1  0.79343000  0.36034000  0.64041000  1.0
  H  H35  1  0.70649000  0.85933000  0.85907000  1.0
  H  H36  1  0.20658000  0.63966000  0.35958000  1.0
  H  H37  1  0.29351000  0.14067000  0.14093000  1.0
  H  H38  1  0.93818000  0.51654000  0.81355000  1.0
  H  H39  1  0.56267000  0.01789000  0.68644000  1.0
  H  H40  1  0.06182000  0.48345000  0.18645000  1.0
  H  H41  1  0.43733000  0.98211000  0.31356000  1.0
  H  H42  1  0.10920000  0.45084000  0.70241000  1.0
  H  H43  1  0.39115000  0.95135000  0.79691000  1.0
  H  H44  1  0.89080000  0.54915000  0.29759000  1.0
  H  H45  1  0.60885000  0.04864000  0.20309000  1.0
  H  H46  1  0.30083000  0.33114000  0.51628000  1.0
  H  H47  1  0.19856000  0.83219000  0.98314000  1.0
  H  H48  1  0.69917000  0.66886000  0.48373000  1.0
  H  H49  1  0.80144000  0.16780000  0.01686000  1.0
  H  H50  1  0.07129000  0.57682000  0.55884000  1.0
  H  H51  1  0.42809000  0.07741000  0.94068000  1.0
  H  H52  1  0.92871000  0.42318000  0.44116000  1.0
  H  H53  1  0.57191000  0.92259000  0.05932000  1.0
  H  H54  1  0.28822000  0.65574000  0.52229000  1.0
  H  H55  1  0.21184000  0.15672000  0.97824000  1.0
  H  H56  1  0.71179000  0.34425000  0.47770000  1.0
  H  H57  1  0.78816000  0.84328000  0.02176000  1.0
  H  H58  1  0.08434000  0.11383000  0.46727000  1.0
  H  H59  1  0.41446000  0.61371000  0.03258000  1.0
  H  H60  1  0.91567000  0.88617000  0.53273000  1.0
  H  H61  1  0.58553000  0.38629000  0.96742000  1.0
  H  H62  1  0.11903000  0.41846000  0.38583000  1.0
  H  H63  1  0.38087000  0.91854000  0.11366000  1.0
  H  H64  1  0.88097000  0.58154000  0.61417000  1.0
  H  H65  1  0.61914000  0.08146000  0.88635000  1.0
  H  H66  1  0.18668000  0.28373000  0.26770000  1.0
  H  H67  1  0.31365000  0.78415000  0.23212000  1.0
  H  H68  1  0.81331000  0.71627000  0.73231000  1.0
  H  H69  1  0.68636000  0.21585000  0.76788000  1.0
  H  H70  1  0.14205000  0.23467000  0.73008000  1.0
  H  H71  1  0.35802000  0.73447000  0.76984000  1.0
  H  H72  1  0.85795000  0.76532000  0.26992000  1.0
  H  H73  1  0.64199000  0.26552000  0.23017000  1.0
  H  H74  1  0.46232000  0.26039000  0.63385000  1.0
  H  H75  1  0.03758000  0.76173000  0.86517000  1.0
  H  H76  1  0.53768000  0.73963000  0.36616000  1.0
  H  H77  1  0.96242000  0.23833000  0.13481000  1.0
  H  H78  1  0.45315000  0.12559000  0.65341000  1.0
  H  H79  1  0.04584000  0.62693000  0.84549000  1.0
  H  H80  1  0.54686000  0.87443000  0.34660000  1.0
  H  H81  1  0.95413000  0.37311000  0.15449000  1.0
  H  H82  1  0.37060000  0.18063000  0.58504000  1.0
  H  H83  1  0.12831000  0.68109000  0.91421000  1.0
  H  H84  1  0.62942000  0.81936000  0.41497000  1.0
  H  H85  1  0.87165000  0.31894000  0.08578000  1.0
  H  H86  1  0.37380000  0.15038000  0.79556000  1.0
  H  H87  1  0.12674000  0.65052000  0.70373000  1.0
  H  H88  1  0.62620000  0.84962000  0.20445000  1.0
  H  H89  1  0.87327000  0.34948000  0.29626000  1.0
  H  H90  1  0.39886000  0.28442000  0.77978000  1.0
  H  H91  1  0.10182000  0.78470000  0.71908000  1.0
  H  H92  1  0.60113000  0.71558000  0.22023000  1.0
  H  H93  1  0.89820000  0.21531000  0.28090000  1.0
  H  H94  1  0.25939000  0.23934000  0.81300000  1.0
  H  H95  1  0.24138000  0.73912000  0.68642000  1.0
  H  H96  1  0.74060000  0.76065000  0.18701000  1.0
  H  H97  1  0.75864000  0.26088000  0.31358000  1.0
  C  C98  1  0.59093000  0.65461000  0.86806000  1.0
  C  C99  1  0.90868000  0.15492000  0.63171000  1.0
  C  C100  1  0.40906000  0.34538000  0.13193000  1.0
  C  C101  1  0.09132000  0.84508000  0.36829000  1.0
  C  C102  1  0.70147000  0.58700000  0.94442000  1.0
  C  C103  1  0.79822000  0.08698000  0.55554000  1.0
  C  C104  1  0.29853000  0.41301000  0.05558000  1.0
  C  C105  1  0.20179000  0.91302000  0.44446000  1.0
  C  C106  1  0.64720000  0.67082000  0.98005000  1.0
  C  C107  1  0.85211000  0.17087000  0.51978000  1.0
  C  C108  1  0.35280000  0.32918000  0.01994000  1.0
  C  C109  1  0.14790000  0.82912000  0.48023000  1.0
  C  C110  1  0.59055000  0.49436000  0.65009000  1.0
  C  C111  1  0.90986000  0.99401000  0.84971000  1.0
  C  C112  1  0.40946000  0.50563000  0.34990000  1.0
  C  C113  1  0.09014000  0.00599000  0.15029000  1.0
  C  C114  1  0.44846000  0.48607000  0.73903000  1.0
  C  C115  1  0.05204000  0.98657000  0.76076000  1.0
  C  C116  1  0.55154000  0.51392000  0.26096000  1.0
  C  C117  1  0.94796000  0.01343000  0.23924000  1.0
  C  C118  1  0.40664000  0.49315000  0.66971000  1.0
  C  C119  1  0.09382000  0.99359000  0.83011000  1.0
  C  C120  1  0.59336000  0.50684000  0.33028000  1.0
  C  C121  1  0.90618000  0.00641000  0.16990000  1.0
  C  C122  1  0.85584000  0.39482000  0.67256000  1.0
  C  C123  1  0.64423000  0.89428000  0.82695000  1.0
  C  C124  1  0.14416000  0.60518000  0.32744000  1.0
  C  C125  1  0.35577000  0.10571000  0.17305000  1.0
  C  C126  1  0.93377000  0.47463000  0.76099000  1.0
  C  C127  1  0.56679000  0.97531000  0.73878000  1.0
  C  C128  1  0.06623000  0.52536000  0.23901000  1.0
  C  C129  1  0.43321000  0.02469000  0.26122000  1.0
  C  C130  1  0.01824000  0.44172000  0.70624000  1.0
  C  C131  1  0.48210000  0.94202000  0.79321000  1.0
  C  C132  1  0.98176000  0.55828000  0.29376000  1.0
  C  C133  1  0.51791000  0.05798000  0.20679000  1.0
  C  C134  1  0.26878000  0.40910000  0.52310000  1.0
  C  C135  1  0.23074000  0.91006000  0.97653000  1.0
  C  C136  1  0.73123000  0.59090000  0.47690000  1.0
  C  C137  1  0.76926000  0.08994000  0.02347000  1.0
  C  C138  1  0.15133000  0.53758000  0.54449000  1.0
  C  C139  1  0.34821000  0.03808000  0.95512000  1.0
  C  C140  1  0.84867000  0.46242000  0.45550000  1.0
  C  C141  1  0.65178000  0.96192000  0.04488000  1.0
  C  C142  1  0.25903000  0.57669000  0.52690000  1.0
  C  C143  1  0.24057000  0.07753000  0.97335000  1.0
  C  C144  1  0.74097000  0.42330000  0.47309000  1.0
  C  C145  1  0.75943000  0.92247000  0.02665000  1.0
  C  C146  1  0.10235000  0.17833000  0.42882000  1.0
  C  C147  1  0.39673000  0.67832000  0.07096000  1.0
  C  C148  1  0.89765000  0.82167000  0.57118000  1.0
  C  C149  1  0.60326000  0.32168000  0.92904000  1.0
  C  C150  1  0.12090000  0.33508000  0.38522000  1.0
  C  C151  1  0.37881000  0.83513000  0.11439000  1.0
  C  C152  1  0.87910000  0.66492000  0.61478000  1.0
  C  C153  1  0.62119000  0.16487000  0.88562000  1.0
  C  C154  1  0.15482000  0.26805000  0.32659000  1.0
  C  C155  1  0.34513000  0.76830000  0.17317000  1.0
  C  C156  1  0.84518000  0.73195000  0.67341000  1.0
  C  C157  1  0.65488000  0.23170000  0.82684000  1.0
  C  C158  1  0.20449000  0.21878000  0.67979000  1.0
  C  C159  1  0.29516000  0.71898000  0.81997000  1.0
  C  C160  1  0.79552000  0.78121000  0.32023000  1.0
  C  C161  1  0.70482000  0.28103000  0.18002000  1.0
  C  C162  1  0.40507000  0.19361000  0.63905000  1.0
  C  C163  1  0.09434000  0.69451000  0.86009000  1.0
  C  C164  1  0.59493000  0.80639000  0.36097000  1.0
  C  C165  1  0.90565000  0.30553000  0.13990000  1.0
  C  C166  1  0.33745000  0.22198000  0.77576000  1.0
  C  C167  1  0.16305000  0.72214000  0.72345000  1.0
  C  C168  1  0.66255000  0.77802000  0.22425000  1.0
  C  C169  1  0.83696000  0.27788000  0.27653000  1.0
  N  N170  1  0.66510000  0.57712000  0.87325000  1.0
  N  N171  1  0.83481000  0.07729000  0.62667000  1.0
  N  N172  1  0.33491000  0.42288000  0.12674000  1.0
  N  N173  1  0.16520000  0.92271000  0.37333000  1.0
  N  N174  1  0.57741000  0.71295000  0.93115000  1.0
  N  N175  1  0.92184000  0.21321000  0.56858000  1.0
  N  N176  1  0.42258000  0.28704000  0.06884000  1.0
  N  N177  1  0.07816000  0.78679000  0.43142000  1.0
  N  N178  1  0.56532000  0.48660000  0.72596000  1.0
  N  N179  1  0.93517000  0.98663000  0.77383000  1.0
  N  N180  1  0.43467000  0.51339000  0.27403000  1.0
  N  N181  1  0.06483000  0.01337000  0.22617000  1.0
  N  N182  1  0.49760000  0.49814000  0.61333000  1.0
  N  N183  1  0.00280000  0.99805000  0.88647000  1.0
  N  N184  1  0.50241000  0.50185000  0.38666000  1.0
  N  N185  1  0.99720000  0.00195000  0.11353000  1.0
  N  N186  1  0.83104000  0.44527000  0.73902000  1.0
  N  N187  1  0.66934000  0.94540000  0.76079000  1.0
  N  N188  1  0.16896000  0.55472000  0.26098000  1.0
  N  N189  1  0.33066000  0.05460000  0.23921000  1.0
  N  N190  1  0.96787000  0.39121000  0.65041000  1.0
  N  N191  1  0.53216000  0.89076000  0.84889000  1.0
  N  N192  1  0.03213000  0.60879000  0.34958000  1.0
  N  N193  1  0.46784000  0.10924000  0.15111000  1.0
  N  N194  1  0.15872000  0.43169000  0.54197000  1.0
  N  N195  1  0.34079000  0.93228000  0.95716000  1.0
  N  N196  1  0.84128000  0.56831000  0.45803000  1.0
  N  N197  1  0.65921000  0.06772000  0.04284000  1.0
  N  N198  1  0.33249000  0.49461000  0.51376000  1.0
  N  N199  1  0.16705000  0.99573000  0.98659000  1.0
  N  N200  1  0.66751000  0.50539000  0.48624000  1.0
  N  N201  1  0.83295000  0.00426000  0.01341000  1.0
  N  N202  1  0.08737000  0.27740000  0.44960000  1.0
  N  N203  1  0.41179000  0.77729000  0.05001000  1.0
  N  N204  1  0.91263000  0.72260000  0.55040000  1.0
  N  N205  1  0.58821000  0.22271000  0.94999000  1.0
  N  N206  1  0.14309000  0.16892000  0.35480000  1.0
  N  N207  1  0.35643000  0.66908000  0.14508000  1.0
  N  N208  1  0.85691000  0.83108000  0.64520000  1.0
  N  N209  1  0.64357000  0.33091000  0.85492000  1.0
  N  N210  1  0.31141000  0.21170000  0.69784000  1.0
  N  N211  1  0.18845000  0.71202000  0.80154000  1.0
  N  N212  1  0.68858000  0.78830000  0.30217000  1.0
  N  N213  1  0.81155000  0.28800000  0.19846000  1.0
  O  O214  1  0.17639000  0.20912000  0.61467000  1.0
  O  O215  1  0.32268000  0.70953000  0.88529000  1.0
  O  O216  1  0.82361000  0.79088000  0.38533000  1.0
  O  O217  1  0.67730000  0.29047000  0.11473000  1.0
