# generated using pymatgen
data_Hg2H21C33I4(NO)6
_symmetry_space_group_name_H-M   'P 1'
_cell_length_a   10.76830000
_cell_length_b   14.27240000
_cell_length_c   14.79340000
_cell_angle_alpha   62.56280000
_cell_angle_beta   89.55370000
_cell_angle_gamma   69.82720000
_symmetry_Int_Tables_number   1
_chemical_formula_structural   Hg2H21C33I4(NO)6
_chemical_formula_sum   'Hg4 H42 C66 I8 N12 O12'
_cell_volume   1862.64729708
_cell_formula_units_Z   2
loop_
 _symmetry_equiv_pos_site_id
 _symmetry_equiv_pos_as_xyz
  1  'x, y, z'
loop_
 _atom_site_type_symbol
 _atom_site_label
 _atom_site_symmetry_multiplicity
 _atom_site_fract_x
 _atom_site_fract_y
 _atom_site_fract_z
 _atom_site_occupancy
  Hg  Hg0  1  0.78390000  0.70496000  0.16439000  1.0
  Hg  Hg1  1  0.21610000  0.29504000  0.83561000  1.0
  Hg  Hg2  1  0.73084000  0.79118000  0.38981000  1.0
  Hg  Hg3  1  0.26916000  0.20882000  0.61019000  1.0
  H  H4  1  0.78855000  0.51779000  0.46109000  1.0
  H  H5  1  0.21146000  0.48220000  0.53892000  1.0
  H  H6  1  0.68977000  0.39946000  0.42903000  1.0
  H  H7  1  0.31023000  0.60054000  0.57097000  1.0
  H  H8  1  0.30985000  0.68973000  0.30615000  1.0
  H  H9  1  0.69015000  0.31027000  0.69385000  1.0
  H  H10  1  0.42501000  0.79689000  0.34320000  1.0
  H  H11  1  0.57499000  0.20311000  0.65680000  1.0
  H  H12  1  0.47167000  0.38067000  0.38922000  1.0
  H  H13  1  0.52833000  0.61933000  0.61078000  1.0
  H  H14  1  0.31916000  0.50469000  0.32918000  1.0
  H  H15  1  0.68084000  0.49531000  0.67082000  1.0
  H  H16  1  0.71965000  0.32601000  0.08758000  1.0
  H  H17  1  0.28035000  0.67399000  0.91242000  1.0
  H  H18  1  0.65731000  0.96810000  0.95048000  1.0
  H  H19  1  0.34270000  0.03189000  0.04952000  1.0
  H  H20  1  0.73821000  0.09914000  0.80643000  1.0
  H  H21  1  0.26179000  0.90086000  0.19358000  1.0
  H  H22  1  0.14482000  0.87144000  0.96964000  1.0
  H  H23  1  0.85518000  0.12856000  0.03035000  1.0
  H  H24  1  0.04738000  0.75403000  0.11014000  1.0
  H  H25  1  0.95263000  0.24597000  0.88986000  1.0
  H  H26  1  0.94429000  0.16050000  0.75999000  1.0
  H  H27  1  0.05571000  0.83950000  0.24001000  1.0
  H  H28  1  0.10848000  0.05251000  0.81829000  1.0
  H  H29  1  0.89152000  0.94749000  0.18171000  1.0
  H  H30  1  0.16898000  0.79723000  0.61313000  1.0
  H  H31  1  0.83102000  0.20277000  0.38687000  1.0
  H  H32  1  0.06652000  0.61618000  0.06700000  1.0
  H  H33  1  0.93348000  0.38382000  0.93300000  1.0
  H  H34  1  0.23676000  0.43853000  0.07838000  1.0
  H  H35  1  0.76324000  0.56147000  0.92163000  1.0
  H  H36  1  0.96367000  0.27066000  0.20981000  1.0
  H  H37  1  0.03633000  0.72934000  0.79018000  1.0
  H  H38  1  0.80571000  0.45389000  0.19471000  1.0
  H  H39  1  0.19429000  0.54611000  0.80529000  1.0
  H  H40  1  0.17210000  0.17549000  0.15249000  1.0
  H  H41  1  0.82790000  0.82451000  0.84751000  1.0
  H  H42  1  0.28487000  0.24634000  0.10109000  1.0
  H  H43  1  0.71513000  0.75366000  0.89891000  1.0
  H  H44  1  0.61254000  0.14232000  0.45246000  1.0
  H  H45  1  0.38746000  0.85768000  0.54754000  1.0
  C  C46  1  0.68269000  0.55305000  0.42645000  1.0
  C  C47  1  0.31731000  0.44695000  0.57355000  1.0
  C  C48  1  0.62723000  0.48764000  0.40734000  1.0
  C  C49  1  0.37277000  0.51235000  0.59266000  1.0
  C  C50  1  0.49171000  0.53705000  0.36095000  1.0
  C  C51  1  0.50829000  0.46295000  0.63905000  1.0
  C  C52  1  0.41670000  0.64914000  0.33917000  1.0
  C  C53  1  0.58330000  0.35086000  0.66083000  1.0
  C  C54  1  0.48005000  0.70867000  0.36052000  1.0
  C  C55  1  0.51995000  0.29133000  0.63948000  1.0
  C  C56  1  0.42848000  0.47227000  0.33268000  1.0
  C  C57  1  0.57152000  0.52773000  0.66732000  1.0
  C  C58  1  0.56633000  0.41191000  0.21660000  1.0
  C  C59  1  0.43367000  0.58809000  0.78340000  1.0
  C  C60  1  0.54547000  0.44792000  0.10411000  1.0
  C  C61  1  0.45453000  0.55208000  0.89589000  1.0
  C  C62  1  0.42319000  0.54284000  0.05648000  1.0
  C  C63  1  0.57681000  0.45716000  0.94352000  1.0
  C  C64  1  0.36292000  0.56680000  0.13850000  1.0
  C  C65  1  0.63708000  0.43320000  0.86150000  1.0
  C  C66  1  0.62650000  0.40146000  0.04941000  1.0
  C  C67  1  0.37350000  0.59854000  0.95059000  1.0
  C  C68  1  0.76457000  0.95038000  0.95204000  1.0
  C  C69  1  0.23543000  0.04962000  0.04796000  1.0
  C  C70  1  0.81061000  0.02269000  0.87164000  1.0
  C  C71  1  0.18939000  0.97731000  0.12836000  1.0
  C  C72  1  0.94913000  0.99528000  0.87558000  1.0
  C  C73  1  0.05087000  0.00472000  0.12442000  1.0
  C  C74  1  0.03614000  0.89688000  0.96259000  1.0
  C  C75  1  0.96387000  0.10312000  0.03741000  1.0
  C  C76  1  0.98237000  0.83015000  0.04056000  1.0
  C  C77  1  0.01763000  0.16985000  0.95944000  1.0
  C  C78  1  0.00493000  0.06930000  0.78971000  1.0
  C  C79  1  0.99507000  0.93070000  0.21028000  1.0
  C  C80  1  0.07997000  0.94529000  0.70624000  1.0
  C  C81  1  0.92003000  0.05471000  0.29376000  1.0
  C  C82  1  0.04887000  0.96177000  0.60081000  1.0
  C  C83  1  0.95113000  0.03823000  0.39919000  1.0
  C  C84  1  0.95568000  0.07402000  0.53865000  1.0
  C  C85  1  0.04432000  0.92598000  0.46135000  1.0
  C  C86  1  0.92414000  0.13114000  0.60342000  1.0
  C  C87  1  0.07586000  0.86886000  0.39658000  1.0
  C  C88  1  0.09624000  0.88394000  0.56441000  1.0
  C  C89  1  0.90376000  0.11606000  0.43559000  1.0
  C  C90  1  0.04701000  0.53797000  0.09829000  1.0
  C  C91  1  0.95299000  0.46203000  0.90171000  1.0
  C  C92  1  0.14208000  0.43885000  0.10483000  1.0
  C  C93  1  0.85792000  0.56115000  0.89517000  1.0
  C  C94  1  0.11572000  0.33914000  0.14691000  1.0
  C  C95  1  0.88428000  0.66086000  0.85308000  1.0
  C  C96  1  0.99155000  0.34481000  0.17824000  1.0
  C  C97  1  0.00845000  0.65519000  0.82176000  1.0
  C  C98  1  0.90210000  0.44760000  0.16919000  1.0
  C  C99  1  0.09790000  0.55240000  0.83081000  1.0
  C  C100  1  0.22019000  0.22874000  0.15969000  1.0
  C  C101  1  0.77981000  0.77126000  0.84031000  1.0
  C  C102  1  0.40286000  0.18735000  0.29485000  1.0
  C  C103  1  0.59714000  0.81265000  0.70515000  1.0
  C  C104  1  0.46476000  0.09426000  0.40347000  1.0
  C  C105  1  0.53524000  0.90574000  0.59653000  1.0
  C  C106  1  0.40330000  0.01516000  0.42958000  1.0
  C  C107  1  0.59670000  0.98484000  0.57041000  1.0
  C  C108  1  0.30247000  0.05574000  0.33781000  1.0
  C  C109  1  0.69753000  0.94426000  0.66219000  1.0
  C  C110  1  0.56394000  0.08145000  0.47302000  1.0
  C  C111  1  0.43606000  0.91855000  0.52698000  1.0
  I  I112  1  0.96874000  0.63675000  0.32957000  1.0
  I  I113  1  0.03127000  0.36325000  0.67043000  1.0
  I  I114  1  0.54008000  0.75464000  0.07058000  1.0
  I  I115  1  0.45992000  0.24536000  0.92943000  1.0
  I  I116  1  0.85992000  0.71013000  0.58009000  1.0
  I  I117  1  0.14008000  0.28986000  0.41991000  1.0
  I  I118  1  0.59984000  0.97314000  0.20401000  1.0
  I  I119  1  0.40016000  0.02686000  0.79599000  1.0
  N  N120  1  0.61120000  0.66218000  0.40214000  1.0
  N  N121  1  0.38879000  0.33782000  0.59786000  1.0
  N  N122  1  0.45128000  0.48335000  0.23159000  1.0
  N  N123  1  0.54871000  0.51665000  0.76841000  1.0
  N  N124  1  0.84944000  0.85528000  0.03461000  1.0
  N  N125  1  0.15056000  0.14472000  0.96539000  1.0
  N  N126  1  0.00601000  0.05036000  0.70107000  1.0
  N  N127  1  0.99399000  0.94964000  0.29893000  1.0
  N  N128  1  0.92929000  0.54248000  0.13077000  1.0
  N  N129  1  0.07071000  0.45752000  0.86923000  1.0
  N  N130  1  0.30544000  0.15949000  0.26202000  1.0
  N  N131  1  0.69456000  0.84051000  0.73798000  1.0
  O  O132  1  0.66365000  0.33873000  0.28479000  1.0
  O  O133  1  0.33635000  0.66127000  0.71521000  1.0
  O  O134  1  0.25715000  0.64212000  0.12994000  1.0
  O  O135  1  0.74285000  0.35789000  0.87006000  1.0
  O  O136  1  0.15215000  0.85896000  0.78461000  1.0
  O  O137  1  0.84785000  0.14104000  0.21539000  1.0
  O  O138  1  0.84349000  0.22683000  0.58092000  1.0
  O  O139  1  0.15651000  0.77317000  0.41908000  1.0
  O  O140  1  0.23036000  0.00995000  0.32715000  1.0
  O  O141  1  0.76964000  0.99005000  0.67285000  1.0
  O  O142  1  0.42801000  0.27182000  0.24163000  1.0
  O  O143  1  0.57199000  0.72818000  0.75837000  1.0
