# generated using pymatgen
data_Cd2H18C26N4O13
_symmetry_space_group_name_H-M   'P 1'
_cell_length_a   14.49360000
_cell_length_b   15.54140000
_cell_length_c   16.49700000
_cell_angle_alpha   90.00020000
_cell_angle_beta   90.00020000
_cell_angle_gamma   63.60600000
_symmetry_Int_Tables_number   1
_chemical_formula_structural   Cd2H18C26N4O13
_chemical_formula_sum   'Cd8 H72 C104 N16 O52'
_cell_volume   3328.60478741
_cell_formula_units_Z   4
loop_
 _symmetry_equiv_pos_site_id
 _symmetry_equiv_pos_as_xyz
  1  'x, y, z'
loop_
 _atom_site_type_symbol
 _atom_site_label
 _atom_site_symmetry_multiplicity
 _atom_site_fract_x
 _atom_site_fract_y
 _atom_site_fract_z
 _atom_site_occupancy
  Cd  Cd0  1  0.16468000  0.20829000  0.63041000  1.0
  Cd  Cd1  1  0.33532000  0.29171000  0.13041000  1.0
  Cd  Cd2  1  0.83532000  0.79171000  0.36959000  1.0
  Cd  Cd3  1  0.66468000  0.70829000  0.86959000  1.0
  Cd  Cd4  1  0.87867000  0.27141000  0.63585000  1.0
  Cd  Cd5  1  0.62133000  0.22860000  0.13586000  1.0
  Cd  Cd6  1  0.12133000  0.72859000  0.36414000  1.0
  Cd  Cd7  1  0.37867000  0.77141000  0.86415000  1.0
  H  H8  1  0.67942000  0.34668000  0.51787000  1.0
  H  H9  1  0.82058000  0.15332000  0.01787000  1.0
  H  H10  1  0.32058000  0.65332000  0.48213000  1.0
  H  H11  1  0.17942000  0.84668000  0.98213000  1.0
  H  H12  1  0.56679000  0.20638000  0.33434000  1.0
  H  H13  1  0.93321000  0.29362000  0.83434000  1.0
  H  H14  1  0.43320000  0.79362000  0.66566000  1.0
  H  H15  1  0.06680000  0.70637000  0.16566000  1.0
  H  H16  1  0.45946000  0.32274000  0.33594000  1.0
  H  H17  1  0.04054000  0.17726000  0.83595000  1.0
  H  H18  1  0.54054000  0.67726000  0.66405000  1.0
  H  H19  1  0.95946000  0.82274000  0.16405000  1.0
  H  H20  1  0.64511000  0.10161000  0.42351000  1.0
  H  H21  1  0.85489000  0.39839000  0.92351000  1.0
  H  H22  1  0.35489000  0.89839000  0.57649000  1.0
  H  H23  1  0.14511000  0.60161000  0.07649000  1.0
  H  H24  1  0.35937000  0.15719000  0.50977000  1.0
  H  H25  1  0.14063000  0.34281000  0.00978000  1.0
  H  H26  1  0.64063000  0.84281000  0.49023000  1.0
  H  H27  1  0.85937000  0.65719000  0.99023000  1.0
  H  H28  1  0.34890000  0.41915000  0.40924000  1.0
  H  H29  1  0.15110000  0.08085000  0.90924000  1.0
  H  H30  1  0.65110000  0.58085000  0.59076000  1.0
  H  H31  1  0.84890000  0.91915000  0.09076000  1.0
  H  H32  1  0.10234000  0.41735000  0.55216000  1.0
  H  H33  1  0.39766000  0.08265000  0.05216000  1.0
  H  H34  1  0.89766000  0.58265000  0.44784000  1.0
  H  H35  1  0.60234000  0.91735000  0.94784000  1.0
  H  H36  1  0.07803000  0.52007000  0.68004000  1.0
  H  H37  1  0.42198000  0.97994000  0.18004000  1.0
  H  H38  1  0.92197000  0.47993000  0.31996000  1.0
  H  H39  1  0.57803000  0.02006000  0.81996000  1.0
  H  H40  1  0.15743000  0.63386000  0.70059000  1.0
  H  H41  1  0.34257000  0.86614000  0.20059000  1.0
  H  H42  1  0.84258000  0.36614000  0.29941000  1.0
  H  H43  1  0.65742000  0.13386000  0.79941000  1.0
  H  H44  1  0.08602000  0.63375000  0.60993000  1.0
  H  H45  1  0.41398000  0.86625000  0.10993000  1.0
  H  H46  1  0.91398000  0.36625000  0.39007000  1.0
  H  H47  1  0.58602000  0.13375000  0.89007000  1.0
  H  H48  1  0.00784000  0.93930000  0.62588000  1.0
  H  H49  1  0.49216000  0.56070000  0.12588000  1.0
  H  H50  1  0.99216000  0.06070000  0.37412000  1.0
  H  H51  1  0.50784000  0.43930000  0.87412000  1.0
  H  H52  1  0.22021000  0.96682000  0.79711000  1.0
  H  H53  1  0.27979000  0.53318000  0.29711000  1.0
  H  H54  1  0.77979000  0.03318000  0.20290000  1.0
  H  H55  1  0.72021000  0.46682000  0.70289000  1.0
  H  H56  1  0.25996000  0.69477000  0.73427000  1.0
  H  H57  1  0.24004000  0.80523000  0.23427000  1.0
  H  H58  1  0.74004000  0.30523000  0.26573000  1.0
  H  H59  1  0.75996000  0.19477000  0.76573000  1.0
  H  H60  1  0.82837000  0.77192000  0.78537000  1.0
  H  H61  1  0.67163000  0.72808000  0.28537000  1.0
  H  H62  1  0.17163000  0.22808000  0.21463000  1.0
  H  H63  1  0.32836000  0.27191000  0.71463000  1.0
  H  H64  1  0.81994000  0.50854000  0.79874000  1.0
  H  H65  1  0.68006000  0.99145000  0.29875000  1.0
  H  H66  1  0.18006000  0.49146000  0.20126000  1.0
  H  H67  1  0.31994000  0.00854000  0.70126000  1.0
  H  H68  1  0.90247000  0.07118000  0.56999000  1.0
  H  H69  1  0.59753000  0.42882000  0.06999000  1.0
  H  H70  1  0.09753000  0.92882000  0.43001000  1.0
  H  H71  1  0.40247000  0.57118000  0.93001000  1.0
  H  H72  1  0.98710000  0.31209000  0.52404000  1.0
  H  H73  1  0.51290000  0.18791000  0.02404000  1.0
  H  H74  1  0.01290000  0.68791000  0.47596000  1.0
  H  H75  1  0.48710000  0.81209000  0.97596000  1.0
  H  H76  1  0.04043000  0.18728000  0.51514000  1.0
  H  H77  1  0.45957000  0.31272000  0.01514000  1.0
  H  H78  1  0.95957000  0.81272000  0.48486000  1.0
  H  H79  1  0.54043000  0.68728000  0.98486000  1.0
  C  C80  1  0.70553000  0.26950000  0.51078000  1.0
  C  C81  1  0.79447000  0.23049000  0.01078000  1.0
  C  C82  1  0.29447000  0.73050000  0.48922000  1.0
  C  C83  1  0.20553000  0.76951000  0.98922000  1.0
  C  C84  1  0.65002000  0.23372000  0.46349000  1.0
  C  C85  1  0.84998000  0.26628000  0.96349000  1.0
  C  C86  1  0.34998000  0.76628000  0.53651000  1.0
  C  C87  1  0.15002000  0.73372000  0.03651000  1.0
  C  C88  1  0.51215000  0.26306000  0.37331000  1.0
  C  C89  1  0.98785000  0.23694000  0.87331000  1.0
  C  C90  1  0.48785000  0.73694000  0.62668000  1.0
  C  C91  1  0.01215000  0.76306000  0.12669000  1.0
  C  C92  1  0.68598000  0.13437000  0.45691000  1.0
  C  C93  1  0.81402000  0.36563000  0.95691000  1.0
  C  C94  1  0.31402000  0.86563000  0.54309000  1.0
  C  C95  1  0.18598000  0.63438000  0.04309000  1.0
  C  C96  1  0.77839000  0.07418000  0.49484000  1.0
  C  C97  1  0.72161000  0.42582000  0.99484000  1.0
  C  C98  1  0.22160000  0.92582000  0.50516000  1.0
  C  C99  1  0.27839000  0.57418000  0.00516000  1.0
  C  C100  1  0.82312000  0.96655000  0.48454000  1.0
  C  C101  1  0.67687000  0.53345000  0.98454000  1.0
  C  C102  1  0.17687000  0.03345000  0.51546000  1.0
  C  C103  1  0.32313000  0.46655000  0.01546000  1.0
  C  C104  1  0.32080000  0.23479000  0.50021000  1.0
  C  C105  1  0.17920000  0.26521000  0.00021000  1.0
  C  C106  1  0.67920000  0.76521000  0.49979000  1.0
  C  C107  1  0.82080000  0.73479000  0.99979000  1.0
  C  C108  1  0.36672000  0.27941000  0.45200000  1.0
  C  C109  1  0.13328000  0.22059000  0.95199000  1.0
  C  C110  1  0.63328000  0.72059000  0.54800000  1.0
  C  C111  1  0.86673000  0.77941000  0.04800000  1.0
  C  C112  1  0.31634000  0.37906000  0.44299000  1.0
  C  C113  1  0.18366000  0.12094000  0.94299000  1.0
  C  C114  1  0.68366000  0.62094000  0.55701000  1.0
  C  C115  1  0.81634000  0.87906000  0.05701000  1.0
  C  C116  1  0.21966000  0.42986000  0.47876000  1.0
  C  C117  1  0.28033000  0.07014000  0.97876000  1.0
  C  C118  1  0.78033000  0.57014000  0.52124000  1.0
  C  C119  1  0.71966000  0.92986000  0.02124000  1.0
  C  C120  1  0.16155000  0.53729000  0.46801000  1.0
  C  C121  1  0.33845000  0.96271000  0.96800000  1.0
  C  C122  1  0.83845000  0.46271000  0.53199000  1.0
  C  C123  1  0.66154000  0.03729000  0.03200000  1.0
  C  C124  1  0.17798000  0.37999000  0.52437000  1.0
  C  C125  1  0.32202000  0.12001000  0.02437000  1.0
  C  C126  1  0.82202000  0.62001000  0.47562000  1.0
  C  C127  1  0.67798000  0.87999000  0.97563000  1.0
  C  C128  1  0.99809000  0.39734000  0.71503000  1.0
  C  C129  1  0.50192000  0.10266000  0.21503000  1.0
  C  C130  1  0.00191000  0.60266000  0.28497000  1.0
  C  C131  1  0.49809000  0.89734000  0.78497000  1.0
  C  C132  1  0.95474000  0.50253000  0.73669000  1.0
  C  C133  1  0.54526000  0.99747000  0.23670000  1.0
  C  C134  1  0.04526000  0.49747000  0.26331000  1.0
  C  C135  1  0.45474000  0.00253000  0.76331000  1.0
  C  C136  1  0.00536000  0.55651000  0.71234000  1.0
  C  C137  1  0.49464000  0.94349000  0.21234000  1.0
  C  C138  1  0.99464000  0.44349000  0.28766000  1.0
  C  C139  1  0.50537000  0.05651000  0.78766000  1.0
  C  C140  1  0.95965000  0.65500000  0.72907000  1.0
  C  C141  1  0.54035000  0.84500000  0.22907000  1.0
  C  C142  1  0.04035000  0.34500000  0.27093000  1.0
  C  C143  1  0.45965000  0.15500000  0.77093000  1.0
  C  C144  1  0.09234000  0.67697000  0.66030000  1.0
  C  C145  1  0.40766000  0.82303000  0.16030000  1.0
  C  C146  1  0.90766000  0.32303000  0.33971000  1.0
  C  C147  1  0.59234000  0.17697000  0.83970000  1.0
  C  C148  1  0.12945000  0.81070000  0.67428000  1.0
  C  C149  1  0.37055000  0.68930000  0.17428000  1.0
  C  C150  1  0.87055000  0.18930000  0.32572000  1.0
  C  C151  1  0.62945000  0.31070000  0.82572000  1.0
  C  C152  1  0.07382000  0.91015000  0.66676000  1.0
  C  C153  1  0.42618000  0.58985000  0.16676000  1.0
  C  C154  1  0.92618000  0.08985000  0.33324000  1.0
  C  C155  1  0.57382000  0.41015000  0.83324000  1.0
  C  C156  1  0.10642000  0.96835000  0.71081000  1.0
  C  C157  1  0.39358000  0.53165000  0.21081000  1.0
  C  C158  1  0.89358000  0.03166000  0.28919000  1.0
  C  C159  1  0.60642000  0.46835000  0.78919000  1.0
  C  C160  1  0.19197000  0.92447000  0.76162000  1.0
  C  C161  1  0.30803000  0.57553000  0.26162000  1.0
  C  C162  1  0.80803000  0.07553000  0.23838000  1.0
  C  C163  1  0.69197000  0.42447000  0.73838000  1.0
  C  C164  1  0.21370000  0.77203000  0.72687000  1.0
  C  C165  1  0.28630000  0.72797000  0.22687000  1.0
  C  C166  1  0.78630000  0.22797000  0.27313000  1.0
  C  C167  1  0.71370000  0.27203000  0.77313000  1.0
  C  C168  1  0.05440000  0.07641000  0.70398000  1.0
  C  C169  1  0.44560000  0.42359000  0.20398000  1.0
  C  C170  1  0.94560000  0.92359000  0.29602000  1.0
  C  C171  1  0.55440000  0.57642000  0.79602000  1.0
  C  C172  1  0.86584000  0.69530000  0.77147000  1.0
  C  C173  1  0.63416000  0.80469000  0.27147000  1.0
  C  C174  1  0.13416000  0.30469000  0.22853000  1.0
  C  C175  1  0.36584000  0.19530000  0.72853000  1.0
  C  C176  1  0.86164000  0.54795000  0.77845000  1.0
  C  C177  1  0.63836000  0.95205000  0.27845000  1.0
  C  C178  1  0.13836000  0.45205000  0.22155000  1.0
  C  C179  1  0.36164000  0.04795000  0.72155000  1.0
  C  C180  1  0.83015000  0.11522000  0.53973000  1.0
  C  C181  1  0.66985000  0.38478000  0.03972000  1.0
  C  C182  1  0.16984000  0.88478000  0.46028000  1.0
  C  C183  1  0.33016000  0.61522000  0.96028000  1.0
  N  N184  1  0.22913000  0.28450000  0.53587000  1.0
  N  N185  1  0.27087000  0.21550000  0.03587000  1.0
  N  N186  1  0.77087000  0.71550000  0.46413000  1.0
  N  N187  1  0.72913000  0.78450000  0.96413000  1.0
  N  N188  1  0.24291000  0.82884000  0.77032000  1.0
  N  N189  1  0.25709000  0.67116000  0.27032000  1.0
  N  N190  1  0.75709000  0.17116000  0.22968000  1.0
  N  N191  1  0.74291000  0.32884000  0.72968000  1.0
  N  N192  1  0.79305000  0.21082000  0.54834000  1.0
  N  N193  1  0.70695000  0.28918000  0.04834000  1.0
  N  N194  1  0.20695000  0.78918000  0.45166000  1.0
  N  N195  1  0.29305000  0.71082000  0.95166000  1.0
  N  N196  1  0.81915000  0.64235000  0.79583000  1.0
  N  N197  1  0.68086000  0.85765000  0.29583000  1.0
  N  N198  1  0.18086000  0.35765000  0.20417000  1.0
  N  N199  1  0.31914000  0.14235000  0.70417000  1.0
  O  O200  1  0.20796000  0.57799000  0.43025000  1.0
  O  O201  1  0.29204000  0.92201000  0.93025000  1.0
  O  O202  1  0.79204000  0.42201000  0.56975000  1.0
  O  O203  1  0.70796000  0.07799000  0.06975000  1.0
  O  O204  1  0.56300000  0.30052000  0.42626000  1.0
  O  O205  1  0.93700000  0.19948000  0.92626000  1.0
  O  O206  1  0.43699000  0.69948000  0.57374000  1.0
  O  O207  1  0.06301000  0.80052000  0.07374000  1.0
  O  O208  1  0.76937000  0.93565000  0.44372000  1.0
  O  O209  1  0.73063000  0.56435000  0.94372000  1.0
  O  O210  1  0.23063000  0.06435000  0.55628000  1.0
  O  O211  1  0.26937000  0.43565000  0.05628000  1.0
  O  O212  1  0.45899000  0.21978000  0.41718000  1.0
  O  O213  1  0.04101000  0.28022000  0.91718000  1.0
  O  O214  1  0.54100000  0.78022000  0.58282000  1.0
  O  O215  1  0.95899000  0.71978000  0.08281000  1.0
  O  O216  1  0.07111000  0.57837000  0.49777000  1.0
  O  O217  1  0.42889000  0.92163000  0.99777000  1.0
  O  O218  1  0.92889000  0.42163000  0.50223000  1.0
  O  O219  1  0.57111000  0.07838000  0.00223000  1.0
  O  O220  1  0.11005000  0.11873000  0.71840000  1.0
  O  O221  1  0.38995000  0.38127000  0.21840000  1.0
  O  O222  1  0.88995000  0.88127000  0.28160000  1.0
  O  O223  1  0.61005000  0.61873000  0.78160000  1.0
  O  O224  1  0.09193000  0.35630000  0.69267000  1.0
  O  O225  1  0.40807000  0.14370000  0.19268000  1.0
  O  O226  1  0.90807000  0.64370000  0.30733000  1.0
  O  O227  1  0.59193000  0.85630000  0.80733000  1.0
  O  O228  1  0.99882000  0.71661000  0.70729000  1.0
  O  O229  1  0.50118000  0.78339000  0.20729000  1.0
  O  O230  1  0.00118000  0.28339000  0.29272000  1.0
  O  O231  1  0.49881000  0.21661000  0.79271000  1.0
  O  O232  1  0.10174000  0.75436000  0.62486000  1.0
  O  O233  1  0.39826000  0.74564000  0.12486000  1.0
  O  O234  1  0.89826000  0.24564000  0.37514000  1.0
  O  O235  1  0.60174000  0.25436000  0.87514000  1.0
  O  O236  1  0.93652000  0.35985000  0.72021000  1.0
  O  O237  1  0.56348000  0.14015000  0.22022000  1.0
  O  O238  1  0.06348000  0.64015000  0.27978000  1.0
  O  O239  1  0.43653000  0.85985000  0.77979000  1.0
  O  O240  1  0.91125000  0.91654000  0.51561000  1.0
  O  O241  1  0.58875000  0.58346000  0.01561000  1.0
  O  O242  1  0.08874000  0.08346000  0.48439000  1.0
  O  O243  1  0.41126000  0.41654000  0.98439000  1.0
  O  O244  1  0.95922000  0.11595000  0.68539000  1.0
  O  O245  1  0.54078000  0.38405000  0.18539000  1.0
  O  O246  1  0.04078000  0.88405000  0.31460000  1.0
  O  O247  1  0.45922000  0.61595000  0.81461000  1.0
  O  O248  1  0.01686000  0.24678000  0.55257000  1.0
  O  O249  1  0.48314000  0.25322000  0.05257000  1.0
  O  O250  1  0.98314000  0.75322000  0.44743000  1.0
  O  O251  1  0.51686000  0.74678000  0.94743000  1.0
