# generated using pymatgen
data_K2CuH47C35N7O9
_symmetry_space_group_name_H-M   'P 1'
_cell_length_a   7.30969000
_cell_length_b   12.26770000
_cell_length_c   12.39020000
_cell_angle_alpha   106.29700000
_cell_angle_beta   106.90000000
_cell_angle_gamma   100.42600000
_symmetry_Int_Tables_number   1
_chemical_formula_structural   K2CuH47C35N7O9
_chemical_formula_sum   'K2 Cu1 H47 C35 N7 O9'
_cell_volume   977.78564556
_cell_formula_units_Z   1
loop_
 _symmetry_equiv_pos_site_id
 _symmetry_equiv_pos_as_xyz
  1  'x, y, z'
loop_
 _atom_site_type_symbol
 _atom_site_label
 _atom_site_symmetry_multiplicity
 _atom_site_fract_x
 _atom_site_fract_y
 _atom_site_fract_z
 _atom_site_occupancy
  K  K0  1  0.33349000  0.88260000  0.20982000  1.0
  K  K1  1  0.82086000  0.84716000  0.17959000  1.0
  Cu  Cu2  1  0.98950000  0.99407000  0.00456000  1.0
  H  H3  1  0.26972000  0.08724000  0.40313000  1.0
  H  H4  1  0.47100000  0.28592000  0.55764000  1.0
  H  H5  1  0.50307000  0.46510000  0.49867000  1.0
  H  H6  1  0.32545000  0.43955000  0.28206000  1.0
  H  H7  1  0.86797000  0.33193000  0.93833000  1.0
  H  H8  1  0.64327000  0.30520000  0.73422000  1.0
  H  H9  1  0.51936000  0.10443000  0.56949000  1.0
  H  H10  1  0.63296000  0.93834000  0.61225000  1.0
  H  H11  1  0.84949000  0.64803000  0.59986000  1.0
  H  H12  1  0.87215000  0.45732000  0.63010000  1.0
  H  H13  1  0.95732000  0.45257000  0.84026000  1.0
  H  H14  1  0.00699000  0.63309000  0.01052000  1.0
  H  H15  1  0.35321000  0.89435000  0.88933000  1.0
  H  H16  1  0.65762000  0.24512000  0.04953000  1.0
  H  H17  1  0.48564000  0.21859000  0.12341000  1.0
  H  H18  1  0.68949000  0.15441000  0.14028000  1.0
  H  H19  1  0.43927000  0.14109000  0.83217000  1.0
  H  H20  1  0.25157000  0.00667000  0.79542000  1.0
  H  H21  1  0.23809000  0.14271000  0.88767000  1.0
  H  H22  1  0.35058000  0.51257000  0.10658000  1.0
  H  H23  1  0.35522000  0.59374000  0.81346000  1.0
  H  H24  1  0.46730000  0.71336000  0.95515000  1.0
  H  H25  1  0.61441000  0.62491000  0.89962000  1.0
  H  H26  1  0.51837000  0.39951000  0.90153000  1.0
  H  H27  1  0.31516000  0.36909000  0.95319000  1.0
  H  H28  1  0.27177000  0.39078000  0.81245000  1.0
  H  H29  1  0.98668000  0.49038000  0.17271000  1.0
  H  H30  1  0.85904000  0.68230000  0.44451000  1.0
  H  H31  1  0.70214000  0.67171000  0.29909000  1.0
  H  H32  1  0.63031000  0.56710000  0.36502000  1.0
  H  H33  1  0.99197000  0.48590000  0.43764000  1.0
  H  H34  1  0.75107000  0.39183000  0.33593000  1.0
  H  H35  1  0.96284000  0.39486000  0.29008000  1.0
  H  H36  1  0.12682000  0.88374000  0.54330000  1.0
  H  H37  1  0.56608000  0.74530000  0.49923000  1.0
  H  H38  1  0.35398000  0.61689000  0.42688000  1.0
  H  H39  1  0.37639000  0.72898000  0.36138000  1.0
  H  H40  1  0.46216000  0.79336000  0.69363000  1.0
  H  H41  1  0.20517000  0.79267000  0.66162000  1.0
  H  H42  1  0.26604000  0.65807000  0.61073000  1.0
  H  H43  1  0.90507000  0.97264000  0.53318000  1.0
  H  H44  1  0.74896000  0.13364000  0.33628000  1.0
  H  H45  1  0.75934000  0.24814000  0.46599000  1.0
  H  H46  1  0.97164000  0.25477000  0.42009000  1.0
  H  H47  1  0.19069000  0.25798000  0.61376000  1.0
  H  H48  1  0.00343000  0.24167000  0.67999000  1.0
  H  H49  1  0.13459000  0.13298000  0.65742000  1.0
  C  C50  1  0.19118000  0.14988000  0.25483000  1.0
  C  C51  1  0.28710000  0.16621000  0.37841000  1.0
  C  C52  1  0.39712000  0.27711000  0.46419000  1.0
  C  C53  1  0.41533000  0.37801000  0.43137000  1.0
  C  C54  1  0.31863000  0.36378000  0.31184000  1.0
  C  C55  1  0.20430000  0.25286000  0.22170000  1.0
  C  C56  1  0.10238000  0.25673000  0.09981000  1.0
  C  C57  1  0.87667000  0.15085000  0.89345000  1.0
  C  C58  1  0.81441000  0.24574000  0.86696000  1.0
  C  C59  1  0.68744000  0.22953000  0.75143000  1.0
  C  C60  1  0.61902000  0.11848000  0.65990000  1.0
  C  C61  1  0.68198000  0.02415000  0.68363000  1.0
  C  C62  1  0.81071000  0.03810000  0.79864000  1.0
  C  C63  1  0.89310000  0.85286000  0.75042000  1.0
  C  C64  1  0.91674000  0.74766000  0.78489000  1.0
  C  C65  1  0.88610000  0.64271000  0.68955000  1.0
  C  C66  1  0.89921000  0.53684000  0.70652000  1.0
  C  C67  1  0.94535000  0.53418000  0.82373000  1.0
  C  C68  1  0.97614000  0.63531000  0.91971000  1.0
  C  C69  1  0.96314000  0.74442000  0.90398000  1.0
  C  C70  1  0.45130000  0.96553000  0.97592000  1.0
  C  C71  1  0.57977000  0.17959000  0.07801000  1.0
  C  C72  1  0.34079000  0.09256000  0.86584000  1.0
  C  C73  1  0.40195000  0.58452000  0.07549000  1.0
  C  C74  1  0.46675000  0.62404000  0.90526000  1.0
  C  C75  1  0.37847000  0.41883000  0.90512000  1.0
  C  C76  1  0.91452000  0.55755000  0.20728000  1.0
  C  C77  1  0.75690000  0.62076000  0.35454000  1.0
  C  C78  1  0.89176000  0.44845000  0.34225000  1.0
  C  C79  1  0.20026000  0.84765000  0.48051000  1.0
  C  C80  1  0.40472000  0.71272000  0.44627000  1.0
  C  C81  1  0.30913000  0.75349000  0.62666000  1.0
  C  C82  1  0.84212000  0.01098000  0.46498000  1.0
  C  C83  1  0.84635000  0.19560000  0.42649000  1.0
  C  C84  1  0.07073000  0.19430000  0.61968000  1.0
  N  N85  1  0.99221000  0.15362000  0.00713000  1.0
  N  N86  1  0.86858000  0.94540000  0.83069000  1.0
  N  N87  1  0.45895000  0.07461000  0.97272000  1.0
  N  N88  1  0.41274000  0.54445000  0.96565000  1.0
  N  N89  1  0.85409000  0.54207000  0.29653000  1.0
  N  N90  1  0.29662000  0.77197000  0.51405000  1.0
  N  N91  1  0.92224000  0.12848000  0.50003000  1.0
  O  O92  1  0.09867000  0.03977000  0.17916000  1.0
  O  O93  1  0.99785000  0.83626000  0.00230000  1.0
  O  O94  1  0.12253000  0.35737000  0.08876000  1.0
  O  O95  1  0.89369000  0.85093000  0.64757000  1.0
  O  O96  1  0.54193000  0.94273000  0.06546000  1.0
  O  O97  1  0.44232000  0.69154000  0.13774000  1.0
  O  O98  1  0.89275000  0.63772000  0.16581000  1.0
  O  O99  1  0.18881000  0.87495000  0.38953000  1.0
  O  O100  1  0.70733000  0.94829000  0.36590000  1.0
