# generated using pymatgen
data_FeH14C21N2O7
_symmetry_space_group_name_H-M   'P 1'
_cell_length_a   9.56520000
_cell_length_b   10.78200000
_cell_length_c   10.81680000
_cell_angle_alpha   96.82190000
_cell_angle_beta   109.67600000
_cell_angle_gamma   113.15000000
_symmetry_Int_Tables_number   1
_chemical_formula_structural   FeH14C21N2O7
_chemical_formula_sum   'Fe2 H28 C42 N4 O14'
_cell_volume   924.31062211
_cell_formula_units_Z   2
loop_
 _symmetry_equiv_pos_site_id
 _symmetry_equiv_pos_as_xyz
  1  'x, y, z'
loop_
 _atom_site_type_symbol
 _atom_site_label
 _atom_site_symmetry_multiplicity
 _atom_site_fract_x
 _atom_site_fract_y
 _atom_site_fract_z
 _atom_site_occupancy
  Fe  Fe0  1  0.61812000  0.98597000  0.65149000  1.0
  Fe  Fe1  1  0.38188000  0.01401000  0.34851000  1.0
  H  H2  1  0.37226000  0.59453000  0.68117000  1.0
  H  H3  1  0.62775000  0.40547000  0.31884000  1.0
  H  H4  1  0.35800000  0.18641000  0.61712000  1.0
  H  H5  1  0.64201000  0.81359000  0.38288000  1.0
  H  H6  1  0.79290000  0.55571000  0.65985000  1.0
  H  H7  1  0.20711000  0.44429000  0.34015000  1.0
  H  H8  1  0.23891000  0.79718000  0.56268000  1.0
  H  H9  1  0.76109000  0.20282000  0.43732000  1.0
  H  H10  1  0.04403000  0.80764000  0.66598000  1.0
  H  H11  1  0.95598000  0.19235000  0.33401000  1.0
  H  H12  1  0.14789000  0.99835000  0.87565000  1.0
  H  H13  1  0.85210000  0.00164000  0.12434000  1.0
  H  H14  1  0.41100000  0.22121000  0.06860000  1.0
  H  H15  1  0.58898000  0.77878000  0.93139000  1.0
  H  H16  1  0.71541000  0.38136000  0.16508000  1.0
  H  H17  1  0.28456000  0.61864000  0.83491000  1.0
  H  H18  1  0.00251000  0.44447000  0.15656000  1.0
  H  H19  1  0.99748000  0.55554000  0.84345000  1.0
  H  H20  1  0.15615000  0.37025000  0.04127000  1.0
  H  H21  1  0.84384000  0.62976000  0.95874000  1.0
  H  H22  1  0.00005000  0.16616000  0.83176000  1.0
  H  H23  1  0.99994000  0.83384000  0.16824000  1.0
  H  H24  1  0.83353000  0.92714000  0.63176000  1.0
  H  H25  1  0.16648000  0.07287000  0.36823000  1.0
  H  H26  1  0.90248000  0.08135000  0.61026000  1.0
  H  H27  1  0.09753000  0.91866000  0.38975000  1.0
  H  H28  1  0.99473000  0.35825000  0.64718000  1.0
  H  H29  1  0.00528000  0.64175000  0.35282000  1.0
  C  C30  1  0.59406000  0.59168000  0.67783000  1.0
  C  C31  1  0.40596000  0.40833000  0.32218000  1.0
  C  C32  1  0.43271000  0.52913000  0.67274000  1.0
  C  C33  1  0.56730000  0.47087000  0.32726000  1.0
  C  C34  1  0.34908000  0.38412000  0.65357000  1.0
  C  C35  1  0.65093000  0.61588000  0.34644000  1.0
  C  C36  1  0.42544000  0.29985000  0.63608000  1.0
  C  C37  1  0.57457000  0.70016000  0.36393000  1.0
  C  C38  1  0.58518000  0.36156000  0.63767000  1.0
  C  C39  1  0.41483000  0.63844000  0.36234000  1.0
  C  C40  1  0.66933000  0.50746000  0.65980000  1.0
  C  C41  1  0.33069000  0.49254000  0.34020000  1.0
  C  C42  1  0.68051000  0.74561000  0.69108000  1.0
  C  C43  1  0.31950000  0.25440000  0.30893000  1.0
  C  C44  1  0.17777000  0.31741000  0.64870000  1.0
  C  C45  1  0.82224000  0.68260000  0.35130000  1.0
  C  C46  1  0.67156000  0.27546000  0.62068000  1.0
  C  C47  1  0.32843000  0.72453000  0.37931000  1.0
  C  C48  1  0.28372000  0.87813000  0.65671000  1.0
  C  C49  1  0.71629000  0.12186000  0.34329000  1.0
  C  C50  1  0.17540000  0.88551000  0.71462000  1.0
  C  C51  1  0.82459000  0.11447000  0.28537000  1.0
  C  C52  1  0.23346000  0.99225000  0.83217000  1.0
  C  C53  1  0.76653000  0.00774000  0.16782000  1.0
  C  C54  1  0.40503000  0.09105000  0.89478000  1.0
  C  C55  1  0.59496000  0.90895000  0.10522000  1.0
  C  C56  1  0.48613000  0.20631000  0.01725000  1.0
  C  C57  1  0.51385000  0.79369000  0.98274000  1.0
  C  C58  1  0.65514000  0.29433000  0.07189000  1.0
  C  C59  1  0.34484000  0.70567000  0.92811000  1.0
  C  C60  1  0.75990000  0.27258000  0.01225000  1.0
  C  C61  1  0.24009000  0.72743000  0.98775000  1.0
  C  C62  1  0.93557000  0.35304000  0.06617000  1.0
  C  C63  1  0.06442000  0.64697000  0.93383000  1.0
  C  C64  1  0.02027000  0.31214000  0.00159000  1.0
  C  C65  1  0.97972000  0.68787000  0.99841000  1.0
  C  C66  1  0.93382000  0.19674000  0.88359000  1.0
  C  C67  1  0.06618000  0.80327000  0.11642000  1.0
  C  C68  1  0.68151000  0.15929000  0.89208000  1.0
  C  C69  1  0.31849000  0.84072000  0.10792000  1.0
  C  C70  1  0.50608000  0.07315000  0.83176000  1.0
  C  C71  1  0.49392000  0.92685000  0.16825000  1.0
  N  N72  1  0.44684000  0.97130000  0.71252000  1.0
  N  N73  1  0.55316000  0.02871000  0.28749000  1.0
  N  N74  1  0.76545000  0.12185000  0.82563000  1.0
  N  N75  1  0.23455000  0.87815000  0.17437000  1.0
  O  O76  1  0.82598000  0.79998000  0.69537000  1.0
  O  O77  1  0.17402000  0.20001000  0.30461000  1.0
  O  O78  1  0.59204000  0.81006000  0.69256000  1.0
  O  O79  1  0.40797000  0.18993000  0.30745000  1.0
  O  O80  1  0.10851000  0.40372000  0.64437000  1.0
  O  O81  1  0.89150000  0.59628000  0.35563000  1.0
  O  O82  1  0.10737000  0.19353000  0.64885000  1.0
  O  O83  1  0.89263000  0.80647000  0.35116000  1.0
  O  O84  1  0.57949000  0.13986000  0.56678000  1.0
  O  O85  1  0.42049000  0.86014000  0.43320000  1.0
  O  O86  1  0.82822000  0.33814000  0.66313000  1.0
  O  O87  1  0.17178000  0.66186000  0.33687000  1.0
  O  O88  1  0.79800000  0.99421000  0.58806000  1.0
  O  O89  1  0.20200000  0.00580000  0.41194000  1.0
