# generated using pymatgen
data_CoHC4O3
_symmetry_space_group_name_H-M   'P 1'
_cell_length_a   6.59749000
_cell_length_b   15.20203534
_cell_length_c   15.20490000
_cell_angle_alpha   117.94154658
_cell_angle_beta   98.32360000
_cell_angle_gamma   98.30278083
_symmetry_Int_Tables_number   1
_chemical_formula_structural   CoHC4O3
_chemical_formula_sum   'Co6 H6 C24 O18'
_cell_volume   1293.12704383
_cell_formula_units_Z   6
loop_
 _symmetry_equiv_pos_site_id
 _symmetry_equiv_pos_as_xyz
  1  'x, y, z'
loop_
 _atom_site_type_symbol
 _atom_site_label
 _atom_site_symmetry_multiplicity
 _atom_site_fract_x
 _atom_site_fract_y
 _atom_site_fract_z
 _atom_site_occupancy
  Co  Co0  1  0.12472000  0.30856000  0.71428000  1.0
  Co  Co1  1  0.81643000  0.40579000  0.69151000  1.0
  Co  Co2  1  0.41033000  0.28559000  0.59431000  1.0
  Co  Co3  1  0.81603000  0.69128000  0.40569000  1.0
  Co  Co4  1  0.12492000  0.71428000  0.30848000  1.0
  Co  Co5  1  0.41044000  0.59427000  0.28570000  1.0
  H  H6  1  0.25685000  0.52267000  0.99999000  1.0
  H  H7  1  0.73423000  0.47753000  0.47765000  1.0
  H  H8  1  0.25655000  0.99989000  0.52237000  1.0
  H  H9  1  0.51193000  0.41327000  0.00000000  1.0
  H  H10  1  0.09829000  0.58667000  0.58675000  1.0
  H  H11  1  0.51154000  0.99992000  0.41324000  1.0
  C  C12  1  0.94374000  0.43684000  0.90539000  1.0
  C  C13  1  0.50700000  0.46871000  0.56344000  1.0
  C  C14  1  0.03799000  0.09453000  0.53139000  1.0
  C  C15  1  0.50662000  0.56314000  0.46862000  1.0
  C  C16  1  0.94355000  0.90529000  0.43658000  1.0
  C  C17  1  0.03834000  0.53144000  0.09460000  1.0
  C  C18  1  0.09391000  0.49698000  1.00000000  1.0
  C  C19  1  0.59683000  0.50309000  0.50320000  1.0
  C  C20  1  0.09360000  0.99988000  0.49681000  1.0
  C  C21  1  0.72825000  0.40528000  0.90620000  1.0
  C  C22  1  0.32299000  0.50106000  0.59495000  1.0
  C  C23  1  0.82169000  0.09377000  0.49906000  1.0
  C  C24  1  0.32264000  0.59471000  0.50094000  1.0
  C  C25  1  0.72803000  0.90612000  0.40506000  1.0
  C  C26  1  0.82208000  0.49908000  0.09379000  1.0
  C  C27  1  0.55495000  0.34851000  0.81417000  1.0
  C  C28  1  0.20652000  0.46580000  0.65170000  1.0
  C  C29  1  0.74057000  0.18583000  0.53428000  1.0
  C  C30  1  0.20629000  0.65154000  0.46572000  1.0
  C  C31  1  0.55482000  0.81410000  0.34831000  1.0
  C  C32  1  0.74079000  0.53434000  0.18582000  1.0
  C  C33  1  0.67588000  0.43655000  0.99999000  1.0
  C  C34  1  0.23914000  0.56350000  0.56356000  1.0
  C  C35  1  0.67557000  0.99994000  0.43644000  1.0
  O  O36  1  0.00373000  0.41570000  0.81848000  1.0
  O  O37  1  0.58815000  0.40302000  0.58471000  1.0
  O  O38  1  0.18492000  0.18145000  0.59722000  1.0
  O  O39  1  0.58771000  0.58423000  0.40279000  1.0
  O  O40  1  0.00345000  0.81831000  0.41530000  1.0
  O  O41  1  0.18526000  0.59721000  0.18150000  1.0
  O  O42  1  0.60037000  0.32657000  0.72682000  1.0
  O  O43  1  0.27365000  0.40023000  0.67345000  1.0
  O  O44  1  0.87327000  0.27315000  0.59970000  1.0
  O  O45  1  0.27357000  0.67344000  0.40029000  1.0
  O  O46  1  0.60020000  0.72679000  0.32656000  1.0
  O  O47  1  0.87354000  0.59974000  0.27316000  1.0
  O  O48  1  0.36672000  0.32301000  0.81944000  1.0
  O  O49  1  0.04391000  0.49666000  0.67729000  1.0
  O  O50  1  0.54709000  0.18060000  0.50341000  1.0
  O  O51  1  0.04367000  0.67716000  0.49657000  1.0
  O  O52  1  0.36661000  0.81936000  0.32270000  1.0
  O  O53  1  0.54730000  0.50358000  0.18056000  1.0
