# generated using pymatgen
data_CuMo4H28C40N8O13
_symmetry_space_group_name_H-M   'P 1'
_cell_length_a   8.15830000
_cell_length_b   9.19923000
_cell_length_c   13.84770000
_cell_angle_alpha   78.42670000
_cell_angle_beta   84.48510000
_cell_angle_gamma   77.19550000
_symmetry_Int_Tables_number   1
_chemical_formula_structural   CuMo4H28C40N8O13
_chemical_formula_sum   'Cu1 Mo4 H28 C40 N8 O13'
_cell_volume   991.37049615
_cell_formula_units_Z   1
loop_
 _symmetry_equiv_pos_site_id
 _symmetry_equiv_pos_as_xyz
  1  'x, y, z'
loop_
 _atom_site_type_symbol
 _atom_site_label
 _atom_site_symmetry_multiplicity
 _atom_site_fract_x
 _atom_site_fract_y
 _atom_site_fract_z
 _atom_site_occupancy
  Cu  Cu0  1  0.50000000  0.50000000  0.50000000  1.0
  Mo  Mo1  1  0.16036000  0.81953000  0.42490000  1.0
  Mo  Mo2  1  0.83964000  0.18047000  0.57511000  1.0
  Mo  Mo3  1  0.30101000  0.11728000  0.55087000  1.0
  Mo  Mo4  1  0.69899000  0.88272000  0.44913000  1.0
  H  H5  1  0.37523000  0.08414000  0.30786000  1.0
  H  H6  1  0.62477000  0.91587000  0.69214000  1.0
  H  H7  1  0.33554000  0.24133000  0.14058000  1.0
  H  H8  1  0.66447000  0.75868000  0.85942000  1.0
  H  H9  1  0.04200000  0.60396000  0.27873000  1.0
  H  H10  1  0.95798000  0.39604000  0.72127000  1.0
  H  H11  1  0.09705000  0.43151000  0.44139000  1.0
  H  H12  1  0.90293000  0.56848000  0.55861000  1.0
  H  H13  1  0.35162000  0.40571000  0.01504000  1.0
  H  H14  1  0.64839000  0.59429000  0.98496000  1.0
  H  H15  1  0.03838000  0.80237000  0.85332000  1.0
  H  H16  1  0.96163000  0.19763000  0.14668000  1.0
  H  H17  1  0.36775000  0.32724000  0.86800000  1.0
  H  H18  1  0.63225000  0.67276000  0.13200000  1.0
  H  H19  1  0.49596000  0.29421000  0.70118000  1.0
  H  H20  1  0.50403000  0.70579000  0.29882000  1.0
  H  H21  1  0.38573000  0.75823000  0.59650000  1.0
  H  H22  1  0.61428000  0.24176000  0.40350000  1.0
  H  H23  1  0.25320000  0.81103000  0.75528000  1.0
  H  H24  1  0.74680000  0.18896000  0.24472000  1.0
  H  H25  1  0.85790000  0.98447000  0.85542000  1.0
  H  H26  1  0.14210000  0.01552000  0.14458000  1.0
  H  H27  1  0.63123000  0.20010000  0.86863000  1.0
  H  H28  1  0.36878000  0.79990000  0.13137000  1.0
  H  H29  1  0.57181000  0.06786000  0.17241000  1.0
  H  H30  1  0.42820000  0.93215000  0.82759000  1.0
  H  H31  1  0.80722000  0.84745000  0.17312000  1.0
  H  H32  1  0.19279000  0.15256000  0.82688000  1.0
  C  C33  1  0.30204000  0.19981000  0.29864000  1.0
  C  C34  1  0.69796000  0.80019000  0.70136000  1.0
  C  C35  1  0.27945000  0.28903000  0.20502000  1.0
  C  C36  1  0.72055000  0.71097000  0.79498000  1.0
  C  C37  1  0.18501000  0.43796000  0.19538000  1.0
  C  C38  1  0.81498000  0.56205000  0.80462000  1.0
  C  C39  1  0.11627000  0.48918000  0.28246000  1.0
  C  C40  1  0.88372000  0.51082000  0.71754000  1.0
  C  C41  1  0.14579000  0.39327000  0.37275000  1.0
  C  C42  1  0.85421000  0.60673000  0.62725000  1.0
  C  C43  1  0.15417000  0.53878000  0.09800000  1.0
  C  C44  1  0.84583000  0.46122000  0.90200000  1.0
  C  C45  1  0.24789000  0.50451000  0.01186000  1.0
  C  C46  1  0.75211000  0.49548000  0.98814000  1.0
  C  C47  1  0.20672000  0.60064000  0.92167000  1.0
  C  C48  1  0.79328000  0.39936000  0.07832000  1.0
  C  C49  1  0.07589000  0.72775000  0.92244000  1.0
  C  C50  1  0.92411000  0.27225000  0.07756000  1.0
  C  C51  1  0.99166000  0.75678000  0.01163000  1.0
  C  C52  1  0.00835000  0.24322000  0.98837000  1.0
  C  C53  1  0.29437000  0.57241000  0.82682000  1.0
  C  C54  1  0.70563000  0.42759000  0.17318000  1.0
  C  C55  1  0.36955000  0.42639000  0.81005000  1.0
  C  C56  1  0.63044000  0.57361000  0.18995000  1.0
  C  C57  1  0.44078000  0.40662000  0.71693000  1.0
  C  C58  1  0.55921000  0.59338000  0.28307000  1.0
  C  C59  1  0.37737000  0.66545000  0.65796000  1.0
  C  C60  1  0.62263000  0.33455000  0.34204000  1.0
  C  C61  1  0.30193000  0.69348000  0.74822000  1.0
  C  C62  1  0.69807000  0.30652000  0.25178000  1.0
  C  C63  1  0.85313000  0.89138000  0.01419000  1.0
  C  C64  1  0.14687000  0.10862000  0.98582000  1.0
  C  C65  1  0.80033000  0.99507000  0.92852000  1.0
  C  C66  1  0.19967000  0.00494000  0.07148000  1.0
  C  C67  1  0.66901000  0.11886000  0.93568000  1.0
  C  C68  1  0.33100000  0.88114000  0.06432000  1.0
  C  C69  1  0.63743000  0.04670000  0.10265000  1.0
  C  C70  1  0.36257000  0.95330000  0.89735000  1.0
  C  C71  1  0.76945000  0.92120000  0.10362000  1.0
  C  C72  1  0.23056000  0.07880000  0.89638000  1.0
  N  N73  1  0.23724000  0.25017000  0.38179000  1.0
  N  N74  1  0.76275000  0.74982000  0.61821000  1.0
  N  N75  1  0.44201000  0.52446000  0.64139000  1.0
  N  N76  1  0.55799000  0.47554000  0.35861000  1.0
  N  N77  1  0.58534000  0.14622000  0.02069000  1.0
  N  N78  1  0.41466000  0.85379000  0.97932000  1.0
  N  N79  1  0.03024000  0.66266000  0.09771000  1.0
  N  N80  1  0.96976000  0.33734000  0.90229000  1.0
  O  O81  1  0.37478000  0.28007000  0.54868000  1.0
  O  O82  1  0.62523000  0.71993000  0.45132000  1.0
  O  O83  1  0.50000000  0.00000000  0.50000000  1.0
  O  O84  1  0.30855000  0.02913000  0.67272000  1.0
  O  O85  1  0.69145000  0.97087000  0.32728000  1.0
  O  O86  1  0.19302000  0.94914000  0.49786000  1.0
  O  O87  1  0.80698000  0.05086000  0.50215000  1.0
  O  O88  1  0.21555000  0.88348000  0.30288000  1.0
  O  O89  1  0.78445000  0.11652000  0.69713000  1.0
  O  O90  1  0.94314000  0.79168000  0.43686000  1.0
  O  O91  1  0.05686000  0.20832000  0.56314000  1.0
  O  O92  1  0.28643000  0.63831000  0.46426000  1.0
  O  O93  1  0.71357000  0.36169000  0.53574000  1.0
