# generated using pymatgen
data_AlH7C13NO7F
_symmetry_space_group_name_H-M   'P 1'
_cell_length_a   6.60925000
_cell_length_b   11.03560000
_cell_length_c   16.83440000
_cell_angle_alpha   85.70090000
_cell_angle_beta   84.22860000
_cell_angle_gamma   73.12990000
_symmetry_Int_Tables_number   1
_chemical_formula_structural   AlH7C13NO7F
_chemical_formula_sum   'Al2 H14 C26 N2 O14 F2'
_cell_volume   1167.70262523
_cell_formula_units_Z   2
loop_
 _symmetry_equiv_pos_site_id
 _symmetry_equiv_pos_as_xyz
  1  'x, y, z'
loop_
 _atom_site_type_symbol
 _atom_site_label
 _atom_site_symmetry_multiplicity
 _atom_site_fract_x
 _atom_site_fract_y
 _atom_site_fract_z
 _atom_site_occupancy
  Al  Al0  1  0.50559000  0.49982000  0.48847000  1.0
  Al  Al1  1  0.00297000  0.50244000  0.49028000  1.0
  H  H2  1  0.23891000  0.57408000  0.39433000  1.0
  H  H3  1  0.81234000  0.34988000  0.54026000  1.0
  H  H4  1  0.86101000  0.56091000  0.72078000  1.0
  H  H5  1  0.79407000  0.56205000  0.87017000  1.0
  H  H6  1  0.46958000  0.44240000  0.89050000  1.0
  H  H7  1  0.56008000  0.54284000  0.08470000  1.0
  H  H8  1  0.23057000  0.45764000  0.10988000  1.0
  H  H9  1  0.15565000  0.45618000  0.25845000  1.0
  H  H10  1  0.87062000  0.76848000  0.61903000  1.0
  H  H11  1  0.59570000  0.23578000  0.61831000  1.0
  H  H12  1  0.10022000  0.20916000  0.43938000  1.0
  H  H13  1  0.32102000  0.77944000  0.45078000  1.0
  H  H14  1  0.06365000  0.78727000  0.71809000  1.0
  H  H15  1  0.80354000  0.22262000  0.71840000  1.0
  C  C16  1  0.64728000  0.72760000  0.50487000  1.0
  C  C17  1  0.78407000  0.49912000  0.34477000  1.0
  C  C18  1  0.35547000  0.27016000  0.49583000  1.0
  C  C19  1  0.22947000  0.50428000  0.63249000  1.0
  C  C20  1  0.19994000  0.50426000  0.72146000  1.0
  C  C21  1  0.99211000  0.53674000  0.75897000  1.0
  C  C22  1  0.95454000  0.53666000  0.84134000  1.0
  C  C23  1  0.12740000  0.50206000  0.88903000  1.0
  C  C24  1  0.33596000  0.47003000  0.85344000  1.0
  C  C25  1  0.36839000  0.47074000  0.77077000  1.0
  C  C26  1  0.69092000  0.52299000  0.12278000  1.0
  C  C27  1  0.89990000  0.50052000  0.08848000  1.0
  C  C28  1  0.06926000  0.47557000  0.13745000  1.0
  C  C29  1  0.02693000  0.47490000  0.21960000  1.0
  C  C30  1  0.81845000  0.49849000  0.25590000  1.0
  C  C31  1  0.65372000  0.52226000  0.20535000  1.0
  C  C32  1  0.55776000  0.86360000  0.51731000  1.0
  C  C33  1  0.65405000  0.93265000  0.56464000  1.0
  C  C34  1  0.37254000  0.92790000  0.47989000  1.0
  C  C35  1  0.80982000  0.87135000  0.61754000  1.0
  C  C36  1  0.88496000  0.93705000  0.66903000  1.0
  C  C37  1  0.41173000  0.13271000  0.51255000  1.0
  C  C38  1  0.30108000  0.06368000  0.47662000  1.0
  C  C39  1  0.57828000  0.06799000  0.56313000  1.0
  C  C40  1  0.65804000  0.13323000  0.61610000  1.0
  C  C41  1  0.80626000  0.07102000  0.66880000  1.0
  N  N42  1  0.10836000  0.49615000  0.97357000  1.0
  N  N43  1  0.92158000  0.50558000  0.00406000  1.0
  O  O44  1  0.52303000  0.66919000  0.47959000  1.0
  O  O45  1  0.93061000  0.52031000  0.38076000  1.0
  O  O46  1  0.16749000  0.32675000  0.47288000  1.0
  O  O47  1  0.39465000  0.52761000  0.59789000  1.0
  O  O48  1  0.49122000  0.32951000  0.50273000  1.0
  O  O49  1  0.08313000  0.48083000  0.59799000  1.0
  O  O50  1  0.84066000  0.67049000  0.51491000  1.0
  O  O51  1  0.61462000  0.47877000  0.37804000  1.0
  O  O52  1  0.23498000  0.55981000  0.45208000  1.0
  O  O53  1  0.77601000  0.43908000  0.52351000  1.0
  O  O54  1  0.13284000  0.11576000  0.43407000  1.0
  O  O55  1  0.25683000  0.87289000  0.44163000  1.0
  O  O56  1  0.02994000  0.87868000  0.72271000  1.0
  O  O57  1  0.87898000  0.13243000  0.72256000  1.0
  F  F58  1  0.57308000  0.43255000  0.73809000  1.0
  F  F59  1  0.44805000  0.54981000  0.23603000  1.0
