# generated using pymatgen
data_CuH36C44S(NO)4
_symmetry_space_group_name_H-M   'P 1'
_cell_length_a   12.64310000
_cell_length_b   13.22210000
_cell_length_c   13.72650000
_cell_angle_alpha   91.24210000
_cell_angle_beta   108.08200000
_cell_angle_gamma   116.27500000
_symmetry_Int_Tables_number   1
_chemical_formula_structural   CuH36C44S(NO)4
_chemical_formula_sum   'Cu2 H72 C88 S2 N8 O8'
_cell_volume   1921.57573641
_cell_formula_units_Z   2
loop_
 _symmetry_equiv_pos_site_id
 _symmetry_equiv_pos_as_xyz
  1  'x, y, z'
loop_
 _atom_site_type_symbol
 _atom_site_label
 _atom_site_symmetry_multiplicity
 _atom_site_fract_x
 _atom_site_fract_y
 _atom_site_fract_z
 _atom_site_occupancy
  Cu  Cu0  1  0.99999000  0.00000000  0.00000000  1.0
  Cu  Cu1  1  0.50000000  0.99999000  0.00000000  1.0
  H  H2  1  0.54384000  0.70658000  0.22281000  1.0
  H  H3  1  0.45617000  0.29341000  0.77720000  1.0
  H  H4  1  0.60961000  0.87846000  0.91941000  1.0
  H  H5  1  0.39039000  0.12154000  0.08060000  1.0
  H  H6  1  0.48438000  0.85859000  0.16676000  1.0
  H  H7  1  0.51562000  0.14139000  0.83326000  1.0
  H  H8  1  0.66441000  0.72185000  0.95891000  1.0
  H  H9  1  0.33558000  0.27814000  0.04108000  1.0
  H  H10  1  0.54697000  0.36425000  0.22653000  1.0
  H  H11  1  0.45304000  0.63574000  0.77346000  1.0
  H  H12  1  0.49956000  0.52538000  0.19018000  1.0
  H  H13  1  0.50045000  0.47461000  0.80981000  1.0
  H  H14  1  0.78958000  0.66378000  0.05648000  1.0
  H  H15  1  0.21043000  0.33622000  0.94352000  1.0
  H  H16  1  0.71422000  0.35162000  0.17669000  1.0
  H  H17  1  0.28579000  0.64837000  0.82331000  1.0
  H  H18  1  0.83569000  0.50220000  0.09140000  1.0
  H  H19  1  0.16432000  0.49780000  0.90860000  1.0
  H  H20  1  0.54236000  0.07648000  0.22670000  1.0
  H  H21  1  0.45764000  0.92351000  0.77330000  1.0
  H  H22  1  0.95070000  0.29874000  0.18412000  1.0
  H  H23  1  0.04930000  0.70126000  0.81588000  1.0
  H  H24  1  0.72530000  0.21482000  0.38061000  1.0
  H  H25  1  0.27470000  0.78518000  0.61939000  1.0
  H  H26  1  0.75528000  0.16399000  0.03632000  1.0
  H  H27  1  0.24472000  0.83601000  0.96368000  1.0
  H  H28  1  0.06446000  0.45331000  0.28674000  1.0
  H  H29  1  0.93553000  0.54668000  0.71325000  1.0
  H  H30  1  0.90394000  0.27375000  0.50610000  1.0
  H  H31  1  0.09607000  0.72626000  0.49390000  1.0
  H  H32  1  0.09506000  0.41220000  0.65170000  1.0
  H  H33  1  0.90494000  0.58781000  0.34830000  1.0
  H  H34  1  0.27281000  0.56714000  0.61568000  1.0
  H  H35  1  0.72719000  0.43288000  0.38431000  1.0
  H  H36  1  0.25573000  0.58735000  0.43167000  1.0
  H  H37  1  0.74427000  0.41265000  0.56832000  1.0
  H  H38  1  0.84867000  0.04566000  0.08912000  1.0
  H  H39  1  0.15132000  0.95434000  0.91088000  1.0
  H  H40  1  0.97956000  0.81788000  0.32699000  1.0
  H  H41  1  0.02044000  0.18212000  0.67301000  1.0
  H  H42  1  0.03961000  0.85603000  0.17243000  1.0
  H  H43  1  0.96039000  0.14397000  0.82757000  1.0
  H  H44  1  0.78574000  0.02052000  0.24536000  1.0
  H  H45  1  0.21426000  0.97948000  0.75464000  1.0
  H  H46  1  0.86599000  0.75073000  0.41942000  1.0
  H  H47  1  0.13402000  0.24927000  0.58059000  1.0
  H  H48  1  0.81739000  0.05377000  0.40068000  1.0
  H  H49  1  0.18261000  0.94623000  0.59932000  1.0
  H  H50  1  0.76426000  0.03116000  0.56136000  1.0
  H  H51  1  0.23573000  0.96885000  0.43863000  1.0
  H  H52  1  0.76995000  0.87649000  0.65376000  1.0
  H  H53  1  0.23004000  0.12353000  0.34624000  1.0
  H  H54  1  0.82369000  0.73487000  0.58309000  1.0
  H  H55  1  0.17631000  0.26514000  0.41692000  1.0
  H  H56  1  0.98102000  0.21909000  0.98740000  1.0
  H  H57  1  0.01898000  0.78092000  0.01260000  1.0
  H  H58  1  0.10162000  0.41758000  0.08735000  1.0
  H  H59  1  0.89837000  0.58242000  0.91264000  1.0
  H  H60  1  0.36336000  0.31783000  0.29059000  1.0
  H  H61  1  0.63664000  0.68217000  0.70940000  1.0
  H  H62  1  0.23555000  0.12551000  0.18138000  1.0
  H  H63  1  0.76444000  0.87450000  0.81862000  1.0
  H  H64  1  0.21018000  0.57820000  0.16471000  1.0
  H  H65  1  0.78981000  0.42179000  0.83529000  1.0
  H  H66  1  0.51739000  0.81594000  0.43371000  1.0
  H  H67  1  0.48260000  0.18406000  0.56628000  1.0
  H  H68  1  0.32750000  0.76822000  0.27066000  1.0
  H  H69  1  0.67248000  0.23179000  0.72934000  1.0
  H  H70  1  0.45273000  0.46902000  0.38122000  1.0
  H  H71  1  0.54727000  0.53098000  0.61875000  1.0
  H  H72  1  0.57688000  0.66381000  0.48483000  1.0
  H  H73  1  0.42312000  0.33619000  0.51516000  1.0
  C  C74  1  0.55818000  0.74005000  0.15362000  1.0
  C  C75  1  0.44182000  0.25994000  0.84639000  1.0
  C  C76  1  0.59529000  0.83678000  0.98509000  1.0
  C  C77  1  0.40470000  0.16321000  0.01492000  1.0
  C  C78  1  0.60940000  0.69932000  0.09496000  1.0
  C  C79  1  0.39061000  0.30067000  0.90504000  1.0
  C  C80  1  0.52736000  0.82639000  0.12514000  1.0
  C  C81  1  0.47264000  0.17359000  0.87487000  1.0
  C  C82  1  0.64077000  0.60587000  0.12030000  1.0
  C  C83  1  0.35924000  0.39412000  0.87970000  1.0
  C  C84  1  0.62755000  0.75047000  0.00916000  1.0
  C  C85  1  0.37245000  0.24952000  0.99085000  1.0
  C  C86  1  0.60121000  0.43085000  0.19023000  1.0
  C  C87  1  0.39879000  0.56914000  0.80976000  1.0
  C  C88  1  0.57457000  0.52142000  0.16998000  1.0
  C  C89  1  0.42544000  0.47857000  0.83001000  1.0
  C  C90  1  0.73528000  0.59768000  0.09280000  1.0
  C  C91  1  0.26474000  0.40232000  0.90720000  1.0
  C  C92  1  0.69444000  0.42298000  0.16163000  1.0
  C  C93  1  0.30557000  0.57701000  0.83837000  1.0
  C  C94  1  0.76187000  0.50707000  0.11320000  1.0
  C  C95  1  0.23814000  0.49293000  0.88680000  1.0
  C  C96  1  0.97040000  0.35161000  0.38514000  1.0
  C  C97  1  0.02960000  0.64840000  0.61486000  1.0
  C  C98  1  0.63530000  0.12850000  0.22154000  1.0
  C  C99  1  0.36470000  0.87149000  0.77847000  1.0
  C  C100  1  0.86238000  0.25406000  0.19783000  1.0
  C  C101  1  0.13761000  0.74594000  0.80217000  1.0
  C  C102  1  0.73883000  0.20532000  0.30701000  1.0
  C  C103  1  0.26117000  0.79467000  0.69299000  1.0
  C  C104  1  0.85716000  0.27007000  0.29741000  1.0
  C  C105  1  0.14285000  0.72992000  0.70258000  1.0
  C  C106  1  0.75541000  0.17819000  0.11516000  1.0
  C  C107  1  0.24459000  0.82180000  0.88484000  1.0
  C  C108  1  0.07126000  0.44131000  0.36630000  1.0
  C  C109  1  0.92875000  0.55869000  0.63369000  1.0
  C  C110  1  0.98043000  0.34271000  0.48914000  1.0
  C  C111  1  0.01958000  0.65730000  0.51086000  1.0
  C  C112  1  0.08839000  0.42000000  0.57135000  1.0
  C  C113  1  0.91162000  0.58002000  0.42866000  1.0
  C  C114  1  0.18847000  0.50728000  0.55111000  1.0
  C  C115  1  0.81153000  0.49273000  0.44889000  1.0
  C  C116  1  0.17937000  0.51815000  0.44835000  1.0
  C  C117  1  0.82063000  0.48185000  0.55165000  1.0
  C  C118  1  0.87811000  0.91756000  0.30279000  1.0
  C  C119  1  0.12189000  0.08243000  0.69721000  1.0
  C  C120  1  0.87762000  0.99860000  0.14655000  1.0
  C  C121  1  0.12238000  0.00139000  0.85345000  1.0
  C  C122  1  0.94697000  0.86888000  0.27712000  1.0
  C  C123  1  0.05303000  0.13111000  0.72288000  1.0
  C  C124  1  0.98065000  0.88926000  0.18938000  1.0
  C  C125  1  0.01935000  0.11073000  0.81062000  1.0
  C  C126  1  0.84569000  0.90373000  0.39772000  1.0
  C  C127  1  0.15431000  0.09627000  0.60228000  1.0
  C  C128  1  0.84292000  0.98310000  0.23342000  1.0
  C  C129  1  0.15708000  0.01690000  0.76658000  1.0
  C  C130  1  0.84621000  0.81411000  0.45057000  1.0
  C  C131  1  0.15378000  0.18589000  0.54943000  1.0
  C  C132  1  0.81582000  0.98198000  0.43884000  1.0
  C  C133  1  0.18418000  0.01802000  0.56116000  1.0
  C  C134  1  0.78737000  0.97062000  0.52944000  1.0
  C  C135  1  0.21265000  0.02941000  0.47057000  1.0
  C  C136  1  0.79055000  0.88220000  0.58216000  1.0
  C  C137  1  0.20945000  0.11782000  0.41784000  1.0
  C  C138  1  0.82057000  0.80426000  0.54270000  1.0
  C  C139  1  0.17944000  0.19575000  0.45731000  1.0
  C  C140  1  0.06748000  0.24556000  0.05499000  1.0
  C  C141  1  0.93251000  0.75445000  0.94500000  1.0
  C  C142  1  0.13587000  0.35665000  0.11263000  1.0
  C  C143  1  0.86412000  0.64335000  0.88737000  1.0
  C  C144  1  0.27991000  0.30219000  0.22443000  1.0
  C  C145  1  0.72008000  0.69780000  0.77557000  1.0
  C  C146  1  0.20800000  0.19268000  0.16375000  1.0
  C  C147  1  0.79198000  0.80732000  0.83624000  1.0
  C  C148  1  0.24572000  0.38902000  0.20065000  1.0
  C  C149  1  0.75426000  0.61098000  0.79934000  1.0
  C  C150  1  0.32004000  0.50627000  0.26409000  1.0
  C  C151  1  0.67995000  0.49374000  0.73590000  1.0
  C  C152  1  0.28897000  0.59407000  0.23559000  1.0
  C  C153  1  0.71101000  0.40593000  0.76440000  1.0
  C  C154  1  0.46153000  0.72979000  0.38644000  1.0
  C  C155  1  0.53845000  0.27022000  0.61355000  1.0
  C  C156  1  0.35754000  0.70424000  0.29614000  1.0
  C  C157  1  0.64246000  0.29576000  0.70385000  1.0
  C  C158  1  0.42460000  0.53380000  0.35577000  1.0
  C  C159  1  0.57538000  0.46620000  0.64422000  1.0
  C  C160  1  0.49479000  0.64410000  0.41556000  1.0
  C  C161  1  0.50521000  0.35590000  0.58443000  1.0
  S  S162  1  0.26752000  0.93724000  0.15298000  1.0
  S  S163  1  0.73249000  0.06279000  0.84704000  1.0
  N  N164  1  0.54587000  0.87428000  0.04212000  1.0
  N  N165  1  0.45412000  0.12571000  0.95789000  1.0
  N  N166  1  0.64396000  0.11476000  0.12708000  1.0
  N  N167  1  0.35604000  0.88522000  0.87292000  1.0
  N  N168  1  0.94676000  0.95377000  0.12496000  1.0
  N  N169  1  0.05324000  0.04622000  0.87504000  1.0
  N  N170  1  0.10304000  0.16449000  0.08013000  1.0
  N  N171  1  0.89694000  0.83551000  0.91986000  1.0
  O  O172  1  0.33085000  0.02772000  0.24794000  1.0
  O  O173  1  0.66921000  0.97238000  0.75203000  1.0
  O  O174  1  0.18028000  0.96534000  0.06876000  1.0
  O  O175  1  0.81972000  0.03464000  0.93124000  1.0
  O  O176  1  0.36549000  0.93601000  0.11305000  1.0
  O  O177  1  0.63449000  0.06396000  0.88696000  1.0
  O  O178  1  0.19250000  0.82138000  0.17291000  1.0
  O  O179  1  0.80755000  0.17869000  0.82721000  1.0
