# generated using pymatgen
data_CoH18C14Br4(NO4)2
_symmetry_space_group_name_H-M   'P 1'
_cell_length_a   8.38693000
_cell_length_b   9.15979000
_cell_length_c   9.78795000
_cell_angle_alpha   101.58730000
_cell_angle_beta   104.69360000
_cell_angle_gamma   91.56510000
_symmetry_Int_Tables_number   1
_chemical_formula_structural   CoH18C14Br4(NO4)2
_chemical_formula_sum   'Co1 H18 C14 Br4 N2 O8'
_cell_volume   710.08607239
_cell_formula_units_Z   1
loop_
 _symmetry_equiv_pos_site_id
 _symmetry_equiv_pos_as_xyz
  1  'x, y, z'
loop_
 _atom_site_type_symbol
 _atom_site_label
 _atom_site_symmetry_multiplicity
 _atom_site_fract_x
 _atom_site_fract_y
 _atom_site_fract_z
 _atom_site_occupancy
  Co  Co0  1  0.00000000  0.50000000  0.50001000  1.0
  H  H1  1  0.27945000  0.59508000  0.41710000  1.0
  H  H2  1  0.72055000  0.40492000  0.58290000  1.0
  H  H3  1  0.10337000  0.59387000  0.30850000  1.0
  H  H4  1  0.89663000  0.40613000  0.69150000  1.0
  H  H5  1  0.86254000  0.24186000  0.25374000  1.0
  H  H6  1  0.13745000  0.75814000  0.74626000  1.0
  H  H7  1  0.17909000  0.07643000  0.48714000  1.0
  H  H8  1  0.82090000  0.92357000  0.51287000  1.0
  H  H9  1  0.22751000  0.97098000  0.32923000  1.0
  H  H10  1  0.77248000  0.02902000  0.67078000  1.0
  H  H11  1  0.07950000  0.89196000  0.40188000  1.0
  H  H12  1  0.92049000  0.10804000  0.59812000  1.0
  H  H13  1  0.81409000  0.03497000  0.09825000  1.0
  H  H14  1  0.18591000  0.96504000  0.90174000  1.0
  H  H15  1  0.85333000  0.86760000  0.16794000  1.0
  H  H16  1  0.14667000  0.13241000  0.83206000  1.0
  H  H17  1  0.99597000  0.94120000  0.08750000  1.0
  H  H18  1  0.00403000  0.05880000  0.91250000  1.0
  C  C19  1  0.19307000  0.44332000  0.76631000  1.0
  C  C20  1  0.80692000  0.55669000  0.23368000  1.0
  C  C21  1  0.35349000  0.47388000  0.88579000  1.0
  C  C22  1  0.64651000  0.52612000  0.11421000  1.0
  C  C23  1  0.49237000  0.39699000  0.87221000  1.0
  C  C24  1  0.50763000  0.60301000  0.12778000  1.0
  C  C25  1  0.63798000  0.42293000  0.98503000  1.0
  C  C26  1  0.36203000  0.57706000  0.01495000  1.0
  C  C27  1  0.96069000  0.20364000  0.33333333  1.0
  C  C28  1  0.03931000  0.79636000  0.66666667  1.0
  C  C29  1  0.12890000  0.99686000  0.38410000  1.0
  C  C30  1  0.87110000  0.00313000  0.61591000  1.0
  C  C31  1  0.90908000  0.97155000  0.15400000  1.0
  C  C32  1  0.09092000  0.02845000  0.84600000  1.0
  Br  Br33  1  0.47691000  0.25471000  0.69717000  1.0
  Br  Br34  1  0.52311000  0.74531000  0.30283000  1.0
  Br  Br35  1  0.82893000  0.32424000  0.96516000  1.0
  Br  Br36  1  0.17109000  0.67576000  0.03483000  1.0
  N  N37  1  0.99749000  0.06313000  0.29376000  1.0
  N  N38  1  0.00251000  0.93687000  0.70624000  1.0
  O  O39  1  0.18486000  0.51930000  0.66839000  1.0
  O  O40  1  0.81515000  0.48070000  0.33162000  1.0
  O  O41  1  0.08522000  0.35187000  0.77679000  1.0
  O  O42  1  0.91479000  0.64813000  0.22321000  1.0
  O  O43  1  0.17817000  0.53224000  0.36569000  1.0
  O  O44  1  0.82182000  0.46775000  0.63430000  1.0
  O  O45  1  0.03082000  0.28837000  0.45356000  1.0
  O  O46  1  0.96917000  0.71163000  0.54644000  1.0
