# generated using pymatgen
data_CdH10C14(SN3)2
_symmetry_space_group_name_H-M   'P 1'
_cell_length_a   5.76807000
_cell_length_b   7.96243000
_cell_length_c   9.87895000
_cell_angle_alpha   72.75420000
_cell_angle_beta   73.83220000
_cell_angle_gamma   80.65980000
_symmetry_Int_Tables_number   1
_chemical_formula_structural   CdH10C14(SN3)2
_chemical_formula_sum   'Cd1 H10 C14 S2 N6'
_cell_volume   414.60715151
_cell_formula_units_Z   1
loop_
 _symmetry_equiv_pos_site_id
 _symmetry_equiv_pos_as_xyz
  1  'x, y, z'
loop_
 _atom_site_type_symbol
 _atom_site_label
 _atom_site_symmetry_multiplicity
 _atom_site_fract_x
 _atom_site_fract_y
 _atom_site_fract_z
 _atom_site_occupancy
  Cd  Cd0  1  0.50001000  0.00000000  0.50000000  1.0
  H  H1  1  0.68369000  0.37192000  0.41575000  1.0
  H  H2  1  0.31631000  0.62809000  0.58424000  1.0
  H  H3  1  0.66943000  0.67890000  0.24993000  1.0
  H  H4  1  0.33056000  0.32111000  0.75006000  1.0
  H  H5  1  0.10521000  0.53482000  0.10590000  1.0
  H  H6  1  0.89480000  0.46517000  0.89410000  1.0
  H  H7  1  0.14376000  0.23518000  0.27650000  1.0
  H  H8  1  0.85624000  0.76481000  0.72349000  1.0
  H  H9  1  0.23883000  0.83867000  0.99567000  1.0
  H  H10  1  0.76117000  0.16134000  0.00433000  1.0
  C  C11  1  0.56016000  0.41426000  0.34368000  1.0
  C  C12  1  0.43982000  0.58575000  0.65633000  1.0
  C  C13  1  0.55257000  0.58335000  0.25140000  1.0
  C  C14  1  0.44742000  0.41665000  0.74860000  1.0
  C  C15  1  0.38968000  0.63068000  0.16097000  1.0
  C  C16  1  0.61032000  0.36932000  0.83903000  1.0
  C  C17  1  0.23831000  0.50364000  0.17140000  1.0
  C  C18  1  0.76169000  0.49635000  0.82860000  1.0
  C  C19  1  0.25802000  0.33663000  0.26703000  1.0
  C  C20  1  0.74198000  0.66336000  0.73297000  1.0
  C  C21  1  0.37483000  0.80593000  0.06047000  1.0
  C  C22  1  0.62516000  0.19407000  0.93953000  1.0
  C  C23  1  0.91435000  0.08574000  0.64522000  1.0
  C  C24  1  0.08566000  0.91426000  0.35479000  1.0
  S  S25  1  0.12502000  0.05538000  0.73290000  1.0
  S  S26  1  0.87498000  0.94462000  0.26711000  1.0
  N  N27  1  0.41749000  0.29159000  0.35136000  1.0
  N  N28  1  0.58250000  0.70841000  0.64865000  1.0
  N  N29  1  0.52040000  0.92023000  0.04920000  1.0
  N  N30  1  0.47959000  0.07977000  0.95080000  1.0
  N  N31  1  0.75686000  0.11087000  0.58426000  1.0
  N  N32  1  0.24315000  0.88912000  0.41575000  1.0
