# generated using pymatgen
data_CuH12C14(N3Cl)2
_symmetry_space_group_name_H-M   'P 1'
_cell_length_a   7.60694000
_cell_length_b   9.50977000
_cell_length_c   10.93030000
_cell_angle_alpha   79.03460000
_cell_angle_beta   86.75340000
_cell_angle_gamma   79.92120000
_symmetry_Int_Tables_number   1
_chemical_formula_structural   CuH12C14(N3Cl)2
_chemical_formula_sum   'Cu2 H24 C28 N12 Cl4'
_cell_volume   764.06194793
_cell_formula_units_Z   2
loop_
 _symmetry_equiv_pos_site_id
 _symmetry_equiv_pos_as_xyz
  1  'x, y, z'
loop_
 _atom_site_type_symbol
 _atom_site_label
 _atom_site_symmetry_multiplicity
 _atom_site_fract_x
 _atom_site_fract_y
 _atom_site_fract_z
 _atom_site_occupancy
  Cu  Cu0  1  0.19622000  0.25733000  0.22388000  1.0
  Cu  Cu1  1  0.80376000  0.74267000  0.77613000  1.0
  H  H2  1  0.87294000  0.08011000  0.34425000  1.0
  H  H3  1  0.12710000  0.91991000  0.65571000  1.0
  H  H4  1  0.71267000  0.86867000  0.38725000  1.0
  H  H5  1  0.28734000  0.13135000  0.61273000  1.0
  H  H6  1  0.78488000  0.66865000  0.26520000  1.0
  H  H7  1  0.21511000  0.33135000  0.73482000  1.0
  H  H8  1  0.01680000  0.67180000  0.09734000  1.0
  H  H9  1  0.98317000  0.32818000  0.90268000  1.0
  H  H10  1  0.39892000  0.89203000  0.90385000  1.0
  H  H11  1  0.60106000  0.10794000  0.09612000  1.0
  H  H12  1  0.25722000  0.75792000  0.93891000  1.0
  H  H13  1  0.74281000  0.24204000  0.06107000  1.0
  H  H14  1  0.57621000  0.65658000  0.99997000  1.0
  H  H15  1  0.42384000  0.34346000  0.00003000  1.0
  H  H16  1  0.56574000  0.78510000  0.10088000  1.0
  H  H17  1  0.43425000  0.21496000  0.89911000  1.0
  H  H18  1  0.44838000  0.83445000  0.31333000  1.0
  H  H19  1  0.55162000  0.16557000  0.68670000  1.0
  H  H20  1  0.34447000  0.78774000  0.53271000  1.0
  H  H21  1  0.65552000  0.21226000  0.46731000  1.0
  H  H22  1  0.20082000  0.57572000  0.61970000  1.0
  H  H23  1  0.79918000  0.42428000  0.38028000  1.0
  H  H24  1  0.16829000  0.39071000  0.48952000  1.0
  H  H25  1  0.83175000  0.60928000  0.51045000  1.0
  C  C26  1  0.03956000  0.99166000  0.19912000  1.0
  C  C27  1  0.96044000  0.00833000  0.80085000  1.0
  C  C28  1  0.90453000  0.99192000  0.29198000  1.0
  C  C29  1  0.09547000  0.00810000  0.70801000  1.0
  C  C30  1  0.81578000  0.87377000  0.31389000  1.0
  C  C31  1  0.18422000  0.12623000  0.68610000  1.0
  C  C32  1  0.85680000  0.76030000  0.24413000  1.0
  C  C33  1  0.14319000  0.23970000  0.75587000  1.0
  C  C34  1  0.98769000  0.75966000  0.15044000  1.0
  C  C35  1  0.01229000  0.24031000  0.84956000  1.0
  C  C36  1  0.08041000  0.87736000  0.13080000  1.0
  C  C37  1  0.91960000  0.12263000  0.86917000  1.0
  C  C38  1  0.33938000  0.82084000  0.97965000  1.0
  C  C39  1  0.66065000  0.17915000  0.02032000  1.0
  C  C40  1  0.48751000  0.72127000  0.05867000  1.0
  C  C41  1  0.51249000  0.27875000  0.94131000  1.0
  C  C42  1  0.37556000  0.63197000  0.27989000  1.0
  C  C43  1  0.62449000  0.36804000  0.72010000  1.0
  C  C44  1  0.39295000  0.73649000  0.35089000  1.0
  C  C45  1  0.60708000  0.26352000  0.64913000  1.0
  C  C46  1  0.32974000  0.71088000  0.47319000  1.0
  C  C47  1  0.67027000  0.28912000  0.52682000  1.0
  C  C48  1  0.25011000  0.58756000  0.52320000  1.0
  C  C49  1  0.74990000  0.41244000  0.47682000  1.0
  C  C50  1  0.23110000  0.48491000  0.45246000  1.0
  C  C51  1  0.76893000  0.51508000  0.54754000  1.0
  C  C52  1  0.29534000  0.50910000  0.32882000  1.0
  C  C53  1  0.70472000  0.49090000  0.67118000  1.0
  N  N54  1  0.15906000  0.08479000  0.15877000  1.0
  N  N55  1  0.84095000  0.91520000  0.84116000  1.0
  N  N56  1  0.26966000  0.03536000  0.07442000  1.0
  N  N57  1  0.73031000  0.96466000  0.92554000  1.0
  N  N58  1  0.22299000  0.91144000  0.05486000  1.0
  N  N59  1  0.77699000  0.08854000  0.94509000  1.0
  N  N60  1  0.29286000  0.43463000  0.23288000  1.0
  N  N61  1  0.70721000  0.56540000  0.76710000  1.0
  N  N62  1  0.36450000  0.50131000  0.13146000  1.0
  N  N63  1  0.63553000  0.49870000  0.86854000  1.0
  N  N64  1  0.41669000  0.61988000  0.15802000  1.0
  N  N65  1  0.58337000  0.38014000  0.84197000  1.0
  Cl  Cl66  1  0.92419000  0.38340000  0.16374000  1.0
  Cl  Cl67  1  0.07572000  0.61654000  0.83641000  1.0
  Cl  Cl68  1  0.39851000  0.11769000  0.35764000  1.0
  Cl  Cl69  1  0.60118000  0.88229000  0.64253000  1.0
