# generated using pymatgen
data_Cu2H5C6N5
_symmetry_space_group_name_H-M   'P 1'
_cell_length_a   7.72825000
_cell_length_b   7.72818000
_cell_length_c   14.62470000
_cell_angle_alpha   78.01480000
_cell_angle_beta   78.01460000
_cell_angle_gamma   70.41040000
_symmetry_Int_Tables_number   1
_chemical_formula_structural   Cu2H5C6N5
_chemical_formula_sum   'Cu8 H20 C24 N20'
_cell_volume   795.88767946
_cell_formula_units_Z   4
loop_
 _symmetry_equiv_pos_site_id
 _symmetry_equiv_pos_as_xyz
  1  'x, y, z'
loop_
 _atom_site_type_symbol
 _atom_site_label
 _atom_site_symmetry_multiplicity
 _atom_site_fract_x
 _atom_site_fract_y
 _atom_site_fract_z
 _atom_site_occupancy
  Cu  Cu0  1  0.79905000  0.03852000  0.32271000  1.0
  Cu  Cu1  1  0.96148000  0.20096000  0.17729000  1.0
  Cu  Cu2  1  0.20095000  0.96148000  0.67730000  1.0
  Cu  Cu3  1  0.03852000  0.79905000  0.82271000  1.0
  Cu  Cu4  1  0.12649000  0.52616000  0.53330000  1.0
  Cu  Cu5  1  0.47384000  0.87350000  0.96670000  1.0
  Cu  Cu6  1  0.87350000  0.47384000  0.46670000  1.0
  Cu  Cu7  1  0.52616000  0.12650000  0.03331000  1.0
  H  H8  1  0.84238000  0.94015000  0.52667000  1.0
  H  H9  1  0.05986000  0.15763000  0.97333000  1.0
  H  H10  1  0.15762000  0.05986000  0.47333000  1.0
  H  H11  1  0.94015000  0.84238000  0.02667000  1.0
  H  H12  1  0.29647000  0.44810000  0.36757000  1.0
  H  H13  1  0.55190000  0.70354000  0.13243000  1.0
  H  H14  1  0.70353000  0.55190000  0.63243000  1.0
  H  H15  1  0.44810000  0.29647000  0.86757000  1.0
  H  H16  1  0.49177000  0.29417000  0.30723000  1.0
  H  H17  1  0.70583000  0.50823000  0.19277000  1.0
  H  H18  1  0.50823000  0.70583000  0.69277000  1.0
  H  H19  1  0.29417000  0.49177000  0.80723000  1.0
  H  H20  1  0.36328000  0.30857000  0.67366000  1.0
  H  H21  1  0.69142000  0.63672000  0.82634000  1.0
  H  H22  1  0.63672000  0.69142000  0.32634000  1.0
  H  H23  1  0.30858000  0.36328000  0.17366000  1.0
  H  H24  1  0.67023000  0.04960000  0.68122000  1.0
  H  H25  1  0.95040000  0.32976000  0.81878000  1.0
  H  H26  1  0.32977000  0.95039000  0.31878000  1.0
  H  H27  1  0.04960000  0.67023000  0.18122000  1.0
  C  C28  1  0.03540000  0.68920000  0.42769000  1.0
  C  C29  1  0.31079000  0.96459000  0.07232000  1.0
  C  C30  1  0.96459000  0.31079000  0.57232000  1.0
  C  C31  1  0.68921000  0.03541000  0.92769000  1.0
  C  C32  1  0.69243000  0.07447000  0.21459000  1.0
  C  C33  1  0.92553000  0.30758000  0.28541000  1.0
  C  C34  1  0.30758000  0.92553000  0.78541000  1.0
  C  C35  1  0.07447000  0.69242000  0.71459000  1.0
  C  C36  1  0.71236000  0.05372000  0.52980000  1.0
  C  C37  1  0.94629000  0.28763000  0.97020000  1.0
  C  C38  1  0.28763000  0.94629000  0.47020000  1.0
  C  C39  1  0.05372000  0.71236000  0.02980000  1.0
  C  C40  1  0.48772000  0.27239000  0.44834000  1.0
  C  C41  1  0.72762000  0.51228000  0.05166000  1.0
  C  C42  1  0.51227000  0.72762000  0.55166000  1.0
  C  C43  1  0.27239000  0.48773000  0.94834000  1.0
  C  C44  1  0.45057000  0.25480000  0.61071000  1.0
  C  C45  1  0.74520000  0.54943000  0.88929000  1.0
  C  C46  1  0.54942000  0.74520000  0.38929000  1.0
  C  C47  1  0.25480000  0.45057000  0.11071000  1.0
  C  C48  1  0.61686000  0.11246000  0.61494000  1.0
  C  C49  1  0.88755000  0.38313000  0.88506000  1.0
  C  C50  1  0.38313000  0.88754000  0.38506000  1.0
  C  C51  1  0.11246000  0.61687000  0.11494000  1.0
  N  N52  1  0.98031000  0.82114000  0.37172000  1.0
  N  N53  1  0.17886000  0.01968000  0.12828000  1.0
  N  N54  1  0.01967000  0.17886000  0.62828000  1.0
  N  N55  1  0.82114000  0.98032000  0.87172000  1.0
  N  N56  1  0.65013000  0.13032000  0.44689000  1.0
  N  N57  1  0.86968000  0.34988000  0.05310000  1.0
  N  N58  1  0.34987000  0.86968000  0.55311000  1.0
  N  N59  1  0.13032000  0.65013000  0.94690000  1.0
  N  N60  1  0.42650000  0.35543000  0.36569000  1.0
  N  N61  1  0.64457000  0.57350000  0.13431000  1.0
  N  N62  1  0.57350000  0.64457000  0.63431000  1.0
  N  N63  1  0.35543000  0.42650000  0.86569000  1.0
  N  N64  1  0.61432000  0.08477000  0.15141000  1.0
  N  N65  1  0.91523000  0.38568000  0.34859000  1.0
  N  N66  1  0.38568000  0.91523000  0.84859000  1.0
  N  N67  1  0.08477000  0.61432000  0.65141000  1.0
  N  N68  1  0.38491000  0.33554000  0.52893000  1.0
  N  N69  1  0.66446000  0.61510000  0.97107000  1.0
  N  N70  1  0.61509000  0.66446000  0.47107000  1.0
  N  N71  1  0.33555000  0.38491000  0.02893000  1.0
