# generated using pymatgen
data_KH2C4N3O
_symmetry_space_group_name_H-M   'P 1'
_cell_length_a   3.84729000
_cell_length_b   8.30006000
_cell_length_c   18.98670000
_cell_angle_alpha   86.29900000
_cell_angle_beta   89.99990000
_cell_angle_gamma   89.99970000
_symmetry_Int_Tables_number   1
_chemical_formula_structural   KH2C4N3O
_chemical_formula_sum   'K4 H8 C16 N12 O4'
_cell_volume   605.03287548
_cell_formula_units_Z   4
loop_
 _symmetry_equiv_pos_site_id
 _symmetry_equiv_pos_as_xyz
  1  'x, y, z'
loop_
 _atom_site_type_symbol
 _atom_site_label
 _atom_site_symmetry_multiplicity
 _atom_site_fract_x
 _atom_site_fract_y
 _atom_site_fract_z
 _atom_site_occupancy
  K  K0  1  0.82722000  0.33836000  0.09699000  1.0
  K  K1  1  0.67278000  0.33836000  0.59699000  1.0
  K  K2  1  0.17278000  0.66164000  0.90301000  1.0
  K  K3  1  0.32724000  0.66165000  0.40302000  1.0
  H  H4  1  0.98986000  0.61766000  0.26593000  1.0
  H  H5  1  0.51014000  0.61766000  0.76593000  1.0
  H  H6  1  0.01014000  0.38234000  0.73407000  1.0
  H  H7  1  0.48986000  0.38234000  0.23408000  1.0
  H  H8  1  0.06237000  0.82153000  0.24328000  1.0
  H  H9  1  0.43763000  0.82153000  0.74328000  1.0
  H  H10  1  0.93764000  0.17846000  0.75671000  1.0
  H  H11  1  0.56238000  0.17846000  0.25672000  1.0
  C  C12  1  0.56761000  0.74344000  0.06426000  1.0
  C  C13  1  0.93237000  0.74344000  0.56426000  1.0
  C  C14  1  0.43239000  0.25656000  0.93573000  1.0
  C  C15  1  0.06763000  0.25658000  0.43574000  1.0
  C  C16  1  0.36694000  0.95334000  0.13711000  1.0
  C  C17  1  0.13304000  0.95334000  0.63711000  1.0
  C  C18  1  0.63305000  0.04665000  0.86289000  1.0
  C  C19  1  0.86697000  0.04667000  0.36289000  1.0
  C  C20  1  0.40865000  0.79026000  0.12584000  1.0
  C  C21  1  0.09134000  0.79027000  0.62584000  1.0
  C  C22  1  0.59134000  0.20973000  0.87416000  1.0
  C  C23  1  0.90867000  0.20974000  0.37417000  1.0
  C  C24  1  0.27812000  0.66354000  0.17537000  1.0
  C  C25  1  0.22186000  0.66354000  0.67537000  1.0
  C  C26  1  0.72187000  0.33646000  0.82462000  1.0
  C  C27  1  0.77813000  0.33646000  0.32463000  1.0
  N  N28  1  0.69705000  0.69841000  0.01293000  1.0
  N  N29  1  0.80294000  0.69841000  0.51294000  1.0
  N  N30  1  0.30295000  0.30159000  0.98707000  1.0
  N  N31  1  0.19707000  0.30161000  0.48706000  1.0
  N  N32  1  0.32550000  0.08957000  0.14916000  1.0
  N  N33  1  0.17449000  0.08958000  0.64915000  1.0
  N  N34  1  0.67449000  0.91043000  0.85084000  1.0
  N  N35  1  0.82552000  0.91043000  0.35085000  1.0
  N  N36  1  0.11782000  0.70493000  0.23461000  1.0
  N  N37  1  0.38217000  0.70493000  0.73461000  1.0
  N  N38  1  0.88218000  0.29506000  0.76538000  1.0
  N  N39  1  0.61783000  0.29507000  0.26539000  1.0
  O  O40  1  0.31768000  0.51586000  0.16283000  1.0
  O  O41  1  0.18231000  0.51586000  0.66283000  1.0
  O  O42  1  0.68231000  0.48414000  0.83717000  1.0
  O  O43  1  0.81768000  0.48414000  0.33717000  1.0
