# generated using pymatgen
data_CuH18C16(N2Cl)2
_symmetry_space_group_name_H-M   'P 1'
_cell_length_a   8.57948000
_cell_length_b   10.83808565
_cell_length_c   13.00170000
_cell_angle_alpha   73.54712140
_cell_angle_beta   89.88020000
_cell_angle_gamma   66.78737059
_symmetry_Int_Tables_number   1
_chemical_formula_structural   CuH18C16(N2Cl)2
_chemical_formula_sum   'Cu2 H36 C32 N8 Cl4'
_cell_volume   1057.33998338
_cell_formula_units_Z   2
loop_
 _symmetry_equiv_pos_site_id
 _symmetry_equiv_pos_as_xyz
  1  'x, y, z'
loop_
 _atom_site_type_symbol
 _atom_site_label
 _atom_site_symmetry_multiplicity
 _atom_site_fract_x
 _atom_site_fract_y
 _atom_site_fract_z
 _atom_site_occupancy
  Cu  Cu0  1  0.28289000  0.50540000  0.23975000  1.0
  Cu  Cu1  1  0.71711000  0.49461000  0.76024000  1.0
  H  H2  1  0.25060000  0.51410000  0.63519000  1.0
  H  H3  1  0.74940000  0.48590000  0.36481000  1.0
  H  H4  1  0.22445000  0.38608000  0.47993000  1.0
  H  H5  1  0.77556000  0.61392000  0.52007000  1.0
  H  H6  1  0.39187000  0.72857000  0.23964000  1.0
  H  H7  1  0.60816000  0.27142000  0.76037000  1.0
  H  H8  1  0.47268000  0.77216000  0.34337000  1.0
  H  H9  1  0.52734000  0.22783000  0.65664000  1.0
  H  H10  1  0.25273000  0.86389000  0.29166000  1.0
  H  H11  1  0.74729000  0.13611000  0.70834000  1.0
  H  H12  1  0.42839000  0.77690000  0.51848000  1.0
  H  H13  1  0.57161000  0.22310000  0.48152000  1.0
  H  H14  1  0.35701000  0.69579000  0.63548000  1.0
  H  H15  1  0.64298000  0.30422000  0.36452000  1.0
  H  H16  1  0.01287000  0.76870000  0.61374000  1.0
  H  H17  1  0.98712000  0.23130000  0.38625000  1.0
  H  H18  1  0.25924000  0.02287000  0.42776000  1.0
  H  H19  1  0.74076000  0.97713000  0.57223000  1.0
  H  H20  1  0.99239000  0.70992000  0.84294000  1.0
  H  H21  1  0.00761000  0.29007000  0.15706000  1.0
  H  H22  1  0.29841000  0.59768000  0.98043000  1.0
  H  H23  1  0.70157000  0.40234000  0.01957000  1.0
  H  H24  1  0.94821000  0.57179000  0.26879000  1.0
  H  H25  1  0.05180000  0.42821000  0.73122000  1.0
  H  H26  1  0.77909000  0.57099000  0.18934000  1.0
  H  H27  1  0.22091000  0.42902000  0.81067000  1.0
  H  H28  1  0.77596000  0.73382000  0.19346000  1.0
  H  H29  1  0.22404000  0.26618000  0.80654000  1.0
  H  H30  1  0.66285000  0.65467000  0.99959000  1.0
  H  H31  1  0.33714000  0.34533000  0.00041000  1.0
  H  H32  1  0.69721000  0.74655000  0.87195000  1.0
  H  H33  1  0.30277000  0.25345000  0.12805000  1.0
  H  H34  1  0.78177000  0.96707000  0.93442000  1.0
  H  H35  1  0.21822000  0.03293000  0.06559000  1.0
  H  H36  1  0.39995000  0.80754000  0.03261000  1.0
  H  H37  1  0.60004000  0.19246000  0.96739000  1.0
  C  C38  1  0.32392000  0.65203000  0.39384000  1.0
  C  C39  1  0.67609000  0.34796000  0.60615000  1.0
  C  C40  1  0.26580000  0.53789000  0.55015000  1.0
  C  C41  1  0.73420000  0.46211000  0.44985000  1.0
  C  C42  1  0.25534000  0.47541000  0.47408000  1.0
  C  C43  1  0.74466000  0.52459000  0.52591000  1.0
  C  C44  1  0.36187000  0.76030000  0.31258000  1.0
  C  C45  1  0.63816000  0.23969000  0.68742000  1.0
  C  C46  1  0.32229000  0.75029000  0.54820000  1.0
  C  C47  1  0.67769000  0.24972000  0.45180000  1.0
  C  C48  1  0.15645000  0.88046000  0.52407000  1.0
  C  C49  1  0.84355000  0.11954000  0.47593000  1.0
  C  C50  1  0.00908000  0.86981000  0.56401000  1.0
  C  C51  1  0.99091000  0.13019000  0.43598000  1.0
  C  C52  1  0.14605000  0.01184000  0.45988000  1.0
  C  C53  1  0.85395000  0.98816000  0.54012000  1.0
  C  C54  1  0.96046000  0.63206000  0.10036000  1.0
  C  C55  1  0.03954000  0.36794000  0.89964000  1.0
  C  C56  1  0.01936000  0.67713000  0.93021000  1.0
  C  C57  1  0.98063000  0.32287000  0.06980000  1.0
  C  C58  1  0.16840000  0.62086000  0.99870000  1.0
  C  C59  1  0.83159000  0.37915000  0.00129000  1.0
  C  C60  1  0.86085000  0.62675000  0.19334000  1.0
  C  C61  1  0.13915000  0.37325000  0.80666000  1.0
  C  C62  1  0.70798000  0.73575000  0.95869000  1.0
  C  C63  1  0.29203000  0.26424000  0.04131000  1.0
  C  C64  1  0.60184000  0.87270000  0.98017000  1.0
  C  C65  1  0.39815000  0.12730000  0.01984000  1.0
  C  C66  1  0.65804000  0.98111000  0.96320000  1.0
  C  C67  1  0.34196000  0.01888000  0.03680000  1.0
  C  C68  1  0.44291000  0.89277000  0.01730000  1.0
  C  C69  1  0.55708000  0.10723000  0.98270000  1.0
  N  N70  1  0.29290000  0.54629000  0.37738000  1.0
  N  N71  1  0.70711000  0.45371000  0.62261000  1.0
  N  N72  1  0.30978000  0.64787000  0.49897000  1.0
  N  N73  1  0.69022000  0.35213000  0.50103000  1.0
  N  N74  1  0.13018000  0.59279000  0.10394000  1.0
  N  N75  1  0.86981000  0.40722000  0.89605000  1.0
  N  N76  1  0.89013000  0.68320000  0.99521000  1.0
  N  N77  1  0.10986000  0.31680000  0.00479000  1.0
  Cl  Cl78  1  0.52404000  0.51282000  0.17311000  1.0
  Cl  Cl79  1  0.47596000  0.48718000  0.82689000  1.0
  Cl  Cl80  1  0.22881000  0.31014000  0.30482000  1.0
  Cl  Cl81  1  0.77118000  0.68986000  0.69517000  1.0
