# generated using pymatgen
data_Zn3H6C10(N10O)2
_symmetry_space_group_name_H-M   'P 1'
_cell_length_a   9.67111000
_cell_length_b   11.26570000
_cell_length_c   12.69780000
_cell_angle_alpha   91.02630000
_cell_angle_beta   112.38300000
_cell_angle_gamma   115.41000000
_symmetry_Int_Tables_number   1
_chemical_formula_structural   Zn3H6C10(N10O)2
_chemical_formula_sum   'Zn6 H12 C20 N40 O4'
_cell_volume   1127.91325995
_cell_formula_units_Z   2
loop_
 _symmetry_equiv_pos_site_id
 _symmetry_equiv_pos_as_xyz
  1  'x, y, z'
loop_
 _atom_site_type_symbol
 _atom_site_label
 _atom_site_symmetry_multiplicity
 _atom_site_fract_x
 _atom_site_fract_y
 _atom_site_fract_z
 _atom_site_occupancy
  Zn  Zn0  1  0.26327000  0.79858000  0.43476000  1.0
  Zn  Zn1  1  0.52995000  0.70155000  0.06508000  1.0
  Zn  Zn2  1  0.73672000  0.20141000  0.56523000  1.0
  Zn  Zn3  1  0.47005000  0.29845000  0.93492000  1.0
  Zn  Zn4  1  0.13368000  0.25007000  0.24997000  1.0
  Zn  Zn5  1  0.86632000  0.74993000  0.75002000  1.0
  H  H6  1  0.81367000  0.59943000  0.27857000  1.0
  H  H7  1  0.43554000  0.90065000  0.22107000  1.0
  H  H8  1  0.18632000  0.40057000  0.72143000  1.0
  H  H9  1  0.56447000  0.09935000  0.77893000  1.0
  H  H10  1  0.28085000  0.81439000  0.65396000  1.0
  H  H11  1  0.31230000  0.68557000  0.84588000  1.0
  H  H12  1  0.71915000  0.18561000  0.34605000  1.0
  H  H13  1  0.68769000  0.31443000  0.15412000  1.0
  H  H14  1  0.08914000  0.76404000  0.56961000  1.0
  H  H15  1  0.25543000  0.73589000  0.93033000  1.0
  H  H16  1  0.91086000  0.23596000  0.43039000  1.0
  H  H17  1  0.74457000  0.26411000  0.06967000  1.0
  C  C18  1  0.86634000  0.70416000  0.27197000  1.0
  C  C19  1  0.39043000  0.79604000  0.22798000  1.0
  C  C20  1  0.13365000  0.29584000  0.72802000  1.0
  C  C21  1  0.60958000  0.20396000  0.77202000  1.0
  C  C22  1  0.04644000  0.91445000  0.30265000  1.0
  C  C23  1  0.32941000  0.58571000  0.19722000  1.0
  C  C24  1  0.95356000  0.08554000  0.69735000  1.0
  C  C25  1  0.67060000  0.41430000  0.80279000  1.0
  C  C26  1  0.88730000  0.89228000  0.22211000  1.0
  C  C27  1  0.27304000  0.60794000  0.27780000  1.0
  C  C28  1  0.11270000  0.10772000  0.77789000  1.0
  C  C29  1  0.72695000  0.39206000  0.72220000  1.0
  C  C30  1  0.21239000  0.02827000  0.35017000  1.0
  C  C31  1  0.33421000  0.47192000  0.14986000  1.0
  C  C32  1  0.78761000  0.97173000  0.64983000  1.0
  C  C33  1  0.66579000  0.52808000  0.85015000  1.0
  C  C34  1  0.82575000  0.97175000  0.15001000  1.0
  C  C35  1  0.20419000  0.52847000  0.34994000  1.0
  C  C36  1  0.17425000  0.02825000  0.84999000  1.0
  C  C37  1  0.79581000  0.47153000  0.65007000  1.0
  N  N38  1  0.03137000  0.79415000  0.33306000  1.0
  N  N39  1  0.40424000  0.70599000  0.16683000  1.0
  N  N40  1  0.96863000  0.20585000  0.66693000  1.0
  N  N41  1  0.59577000  0.29401000  0.83317000  1.0
  N  N42  1  0.77455000  0.75841000  0.20373000  1.0
  N  N43  1  0.31268000  0.74185000  0.29625000  1.0
  N  N44  1  0.22545000  0.24159000  0.79627000  1.0
  N  N45  1  0.68733000  0.25815000  0.70375000  1.0
  N  N46  1  0.90118000  0.10387000  0.15100000  1.0
  N  N47  1  0.14656000  0.39637000  0.34907000  1.0
  N  N48  1  0.09882000  0.89613000  0.84900000  1.0
  N  N49  1  0.85345000  0.60362000  0.65094000  1.0
  N  N50  1  0.78788000  0.12263000  0.05769000  1.0
  N  N51  1  0.10774000  0.37770000  0.44236000  1.0
  N  N52  1  0.21211000  0.87736000  0.94231000  1.0
  N  N53  1  0.89226000  0.62230000  0.55764000  1.0
  N  N54  1  0.65130000  0.00714000  0.00406000  1.0
  N  N55  1  0.14021000  0.49323000  0.49589000  1.0
  N  N56  1  0.34870000  0.99285000  0.99594000  1.0
  N  N57  1  0.85978000  0.50676000  0.50410000  1.0
  N  N58  1  0.66996000  0.91154000  0.06032000  1.0
  N  N59  1  0.19821000  0.58875000  0.43956000  1.0
  N  N60  1  0.33004000  0.08846000  0.93967000  1.0
  N  N61  1  0.80179000  0.41125000  0.56044000  1.0
  N  N62  1  0.34980000  0.01522000  0.41430000  1.0
  N  N63  1  0.42050000  0.48483000  0.08573000  1.0
  N  N64  1  0.65020000  0.98478000  0.58570000  1.0
  N  N65  1  0.57950000  0.51517000  0.91427000  1.0
  N  N66  1  0.48195000  0.13851000  0.44074000  1.0
  N  N67  1  0.40269000  0.36145000  0.05928000  1.0
  N  N68  1  0.51805000  0.86150000  0.55926000  1.0
  N  N69  1  0.59731000  0.63855000  0.94072000  1.0
  N  N70  1  0.43080000  0.22441000  0.39645000  1.0
  N  N71  1  0.30995000  0.27567000  0.10363000  1.0
  N  N72  1  0.56920000  0.77559000  0.60355000  1.0
  N  N73  1  0.69005000  0.72433000  0.89637000  1.0
  N  N74  1  0.26042000  0.15709000  0.33919000  1.0
  N  N75  1  0.26438000  0.34316000  0.16095000  1.0
  N  N76  1  0.73958000  0.84291000  0.66081000  1.0
  N  N77  1  0.73562000  0.65685000  0.83905000  1.0
  O  O78  1  0.20755000  0.83235000  0.58639000  1.0
  O  O79  1  0.28874000  0.66756000  0.91349000  1.0
  O  O80  1  0.79245000  0.16765000  0.41361000  1.0
  O  O81  1  0.71126000  0.33244000  0.08651000  1.0
