# generated using pymatgen
data_CeH6(C3O4)3
_symmetry_space_group_name_H-M   'P 1'
_cell_length_a   9.81892000
_cell_length_b   9.97731000
_cell_length_c   9.97774000
_cell_angle_alpha   60.05500000
_cell_angle_beta   89.99250000
_cell_angle_gamma   89.95960000
_symmetry_Int_Tables_number   1
_chemical_formula_structural   CeH6(C3O4)3
_chemical_formula_sum   'Ce2 H12 C18 O24'
_cell_volume   846.99394714
_cell_formula_units_Z   2
loop_
 _symmetry_equiv_pos_site_id
 _symmetry_equiv_pos_as_xyz
  1  'x, y, z'
loop_
 _atom_site_type_symbol
 _atom_site_label
 _atom_site_symmetry_multiplicity
 _atom_site_fract_x
 _atom_site_fract_y
 _atom_site_fract_z
 _atom_site_occupancy
  Ce  Ce0  1  0.07464000  0.66700000  0.66684000  1.0
  Ce  Ce1  1  0.92534000  0.33303000  0.33316000  1.0
  H  H2  1  0.39132000  0.11196000  0.30846000  1.0
  H  H3  1  0.28286000  0.07526000  0.53877000  1.0
  H  H4  1  0.39153000  0.57899000  0.11259000  1.0
  H  H5  1  0.28355000  0.38594000  0.07494000  1.0
  H  H6  1  0.39140000  0.30880000  0.57823000  1.0
  H  H7  1  0.28287000  0.53892000  0.38551000  1.0
  H  H8  1  0.60869000  0.88807000  0.69130000  1.0
  H  H9  1  0.71724000  0.92478000  0.46108000  1.0
  H  H10  1  0.60853000  0.42099000  0.88748000  1.0
  H  H11  1  0.71643000  0.61408000  0.92518000  1.0
  H  H12  1  0.60866000  0.69110000  0.42181000  1.0
  H  H13  1  0.71710000  0.46095000  0.61455000  1.0
  C  C14  1  0.13253000  0.03057000  0.40247000  1.0
  C  C15  1  0.37833000  0.99116000  0.40535000  1.0
  C  C16  1  0.26127000  0.97918000  0.51571000  1.0
  C  C17  1  0.13286000  0.56657000  0.03092000  1.0
  C  C18  1  0.37848000  0.60337000  0.99159000  1.0
  C  C19  1  0.26174000  0.50496000  0.97909000  1.0
  C  C20  1  0.13270000  0.40253000  0.56679000  1.0
  C  C21  1  0.37836000  0.40528000  0.60289000  1.0
  C  C22  1  0.26148000  0.51620000  0.50452000  1.0
  C  C23  1  0.86750000  0.96943000  0.59758000  1.0
  C  C24  1  0.62165000  0.00890000  0.59451000  1.0
  C  C25  1  0.73871000  0.02086000  0.48417000  1.0
  C  C26  1  0.86722000  0.43347000  0.96907000  1.0
  C  C27  1  0.62151000  0.39659000  0.00848000  1.0
  C  C28  1  0.73823000  0.49501000  0.02098000  1.0
  C  C29  1  0.86729000  0.59750000  0.43324000  1.0
  C  C30  1  0.62164000  0.59466000  0.39710000  1.0
  C  C31  1  0.73845000  0.48372000  0.49552000  1.0
  O  O32  1  0.45036000  0.88563000  0.42143000  1.0
  O  O33  1  0.05761000  0.92003000  0.42289000  1.0
  O  O34  1  0.11869000  0.17318000  0.31338000  1.0
  O  O35  1  0.23584000  0.84422000  0.64185000  1.0
  O  O36  1  0.45020000  0.69325000  0.88622000  1.0
  O  O37  1  0.05782000  0.65674000  0.92055000  1.0
  O  O38  1  0.11925000  0.51263000  0.17361000  1.0
  O  O39  1  0.23626000  0.51416000  0.84397000  1.0
  O  O40  1  0.45012000  0.42075000  0.69283000  1.0
  O  O41  1  0.05790000  0.42309000  0.65693000  1.0
  O  O42  1  0.11925000  0.31351000  0.51310000  1.0
  O  O43  1  0.23602000  0.64217000  0.51352000  1.0
  O  O44  1  0.54966000  0.11438000  0.57858000  1.0
  O  O45  1  0.94238000  0.08001000  0.57706000  1.0
  O  O46  1  0.88132000  0.82687000  0.68681000  1.0
  O  O47  1  0.76414000  0.15586000  0.35811000  1.0
  O  O48  1  0.54976000  0.30665000  0.11378000  1.0
  O  O49  1  0.94227000  0.34342000  0.07946000  1.0
  O  O50  1  0.88086000  0.48724000  0.82642000  1.0
  O  O51  1  0.76364000  0.48575000  0.15615000  1.0
  O  O52  1  0.54984000  0.57935000  0.30706000  1.0
  O  O53  1  0.94211000  0.57684000  0.34319000  1.0
  O  O54  1  0.88073000  0.68665000  0.48677000  1.0
  O  O55  1  0.76387000  0.35779000  0.48645000  1.0
