# generated using pymatgen
data_CdH16C21NO7
_symmetry_space_group_name_H-M   'P 1'
_cell_length_a   9.19218000
_cell_length_b   9.92867000
_cell_length_c   12.16310000
_cell_angle_alpha   108.19600000
_cell_angle_beta   93.98030000
_cell_angle_gamma   102.80600000
_symmetry_Int_Tables_number   1
_chemical_formula_structural   CdH16C21NO7
_chemical_formula_sum   'Cd2 H32 C42 N2 O14'
_cell_volume   1016.75734886
_cell_formula_units_Z   2
loop_
 _symmetry_equiv_pos_site_id
 _symmetry_equiv_pos_as_xyz
  1  'x, y, z'
loop_
 _atom_site_type_symbol
 _atom_site_label
 _atom_site_symmetry_multiplicity
 _atom_site_fract_x
 _atom_site_fract_y
 _atom_site_fract_z
 _atom_site_occupancy
  Cd  Cd0  1  0.51082000  0.50110000  0.25987000  1.0
  Cd  Cd1  1  0.48917000  0.49890000  0.74013000  1.0
  H  H2  1  0.50071000  0.25976000  0.29606000  1.0
  H  H3  1  0.49929000  0.74024000  0.70394000  1.0
  H  H4  1  0.58491000  0.35663000  0.42813000  1.0
  H  H5  1  0.41509000  0.64338000  0.57187000  1.0
  H  H6  1  0.73451000  0.37259000  0.90703000  1.0
  H  H7  1  0.26548000  0.62741000  0.09298000  1.0
  H  H8  1  0.05663000  0.65267000  0.21105000  1.0
  H  H9  1  0.94337000  0.34732000  0.78895000  1.0
  H  H10  1  0.52437000  0.22879000  0.96643000  1.0
  H  H11  1  0.47563000  0.77122000  0.03357000  1.0
  H  H12  1  0.13127000  0.77268000  0.76140000  1.0
  H  H13  1  0.86873000  0.22732000  0.23860000  1.0
  H  H14  1  0.25013000  0.77348000  0.56555000  1.0
  H  H15  1  0.74987000  0.22652000  0.43445000  1.0
  H  H16  1  0.07770000  0.25890000  0.00617000  1.0
  H  H17  1  0.92231000  0.74110000  0.99383000  1.0
  H  H18  1  0.07822000  0.08799000  0.71209000  1.0
  H  H19  1  0.92178000  0.91200000  0.28792000  1.0
  H  H20  1  0.01954000  0.89338000  0.67049000  1.0
  H  H21  1  0.98046000  0.10661000  0.32951000  1.0
  H  H22  1  0.15225000  0.91567000  0.12962000  1.0
  H  H23  1  0.84775000  0.08433000  0.87037000  1.0
  H  H24  1  0.32729000  0.20982000  0.80819000  1.0
  H  H25  1  0.67271000  0.79018000  0.19181000  1.0
  H  H26  1  0.15601000  0.18074000  0.56798000  1.0
  H  H27  1  0.84398000  0.81925000  0.43202000  1.0
  H  H28  1  0.32295000  0.76872000  0.91288000  1.0
  H  H29  1  0.67706000  0.23129000  0.08712000  1.0
  H  H30  1  0.37970000  0.95238000  0.29673000  1.0
  H  H31  1  0.62030000  0.04763000  0.70328000  1.0
  H  H32  1  0.27496000  0.16289000  0.38618000  1.0
  H  H33  1  0.72504000  0.83711000  0.61383000  1.0
  C  C34  1  0.88283000  0.51350000  0.06715000  1.0
  C  C35  1  0.11716000  0.48649000  0.93286000  1.0
  C  C36  1  0.44236000  0.99879000  0.95426000  1.0
  C  C37  1  0.55765000  0.00121000  0.04575000  1.0
  C  C38  1  0.85077000  0.42691000  0.94815000  1.0
  C  C39  1  0.14922000  0.57308000  0.05185000  1.0
  C  C40  1  0.19044000  0.97614000  0.57564000  1.0
  C  C41  1  0.80956000  0.02386000  0.42436000  1.0
  C  C42  1  0.75796000  0.52793000  0.13920000  1.0
  C  C43  1  0.24204000  0.47206000  0.86080000  1.0
  C  C44  1  0.03277000  0.58634000  0.11845000  1.0
  C  C45  1  0.96723000  0.41365000  0.88156000  1.0
  C  C46  1  0.32210000  0.85003000  0.42618000  1.0
  C  C47  1  0.67790000  0.14997000  0.57382000  1.0
  C  C48  1  0.44220000  0.12382000  0.92326000  1.0
  C  C49  1  0.55781000  0.87618000  0.07674000  1.0
  C  C50  1  0.12809000  0.09787000  0.07627000  1.0
  C  C51  1  0.87192000  0.90213000  0.92372000  1.0
  C  C52  1  0.39274000  0.72711000  0.37435000  1.0
  C  C53  1  0.60726000  0.27289000  0.62565000  1.0
  C  C54  1  0.22130000  0.86951000  0.80965000  1.0
  C  C55  1  0.77870000  0.13049000  0.19035000  1.0
  C  C56  1  0.25270000  0.85864000  0.52616000  1.0
  C  C57  1  0.74730000  0.14136000  0.47384000  1.0
  C  C58  1  0.04277000  0.14528000  0.00274000  1.0
  C  C59  1  0.95723000  0.85472000  0.99725000  1.0
  C  C60  1  0.11635000  0.98709000  0.68396000  1.0
  C  C61  1  0.88365000  0.01290000  0.31604000  1.0
  C  C62  1  0.08430000  0.95181000  0.07295000  1.0
  C  C63  1  0.91571000  0.04819000  0.92704000  1.0
  C  C64  1  0.26855000  0.20145000  0.15504000  1.0
  C  C65  1  0.73145000  0.79855000  0.84496000  1.0
  C  C66  1  0.33301000  0.11733000  0.83679000  1.0
  C  C67  1  0.66700000  0.88266000  0.16321000  1.0
  C  C68  1  0.19971000  0.08676000  0.52607000  1.0
  C  C69  1  0.80029000  0.91324000  0.47393000  1.0
  C  C70  1  0.32831000  0.87060000  0.89532000  1.0
  C  C71  1  0.67170000  0.12940000  0.10469000  1.0
  C  C72  1  0.32703000  0.95929000  0.37505000  1.0
  C  C73  1  0.67297000  0.04071000  0.62495000  1.0
  C  C74  1  0.26699000  0.07737000  0.42550000  1.0
  C  C75  1  0.73301000  0.92264000  0.57450000  1.0
  N  N76  1  0.22477000  0.99141000  0.78158000  1.0
  N  N77  1  0.77523000  0.00859000  0.21842000  1.0
  O  O78  1  0.43446000  0.71241000  0.27408000  1.0
  O  O79  1  0.56553000  0.28759000  0.72591000  1.0
  O  O80  1  0.63017000  0.43250000  0.09819000  1.0
  O  O81  1  0.36982000  0.56749000  0.90180000  1.0
  O  O82  1  0.41033000  0.63942000  0.42923000  1.0
  O  O83  1  0.58967000  0.36058000  0.57077000  1.0
  O  O84  1  0.78002000  0.62981000  0.23749000  1.0
  O  O85  1  0.21997000  0.37019000  0.76250000  1.0
  O  O86  1  0.35733000  0.14620000  0.20160000  1.0
  O  O87  1  0.64267000  0.85379000  0.79839000  1.0
  O  O88  1  0.28819000  0.33720000  0.16771000  1.0
  O  O89  1  0.71181000  0.66280000  0.83229000  1.0
  O  O90  1  0.58741000  0.34583000  0.34393000  1.0
  O  O91  1  0.41259000  0.65417000  0.65607000  1.0
