# generated using pymatgen
data_KH8Au(C3N)4
_symmetry_space_group_name_H-M   'P 1'
_cell_length_a   3.75192000
_cell_length_b   9.15397000
_cell_length_c   18.84440000
_cell_angle_alpha   90.00080000
_cell_angle_beta   90.00030000
_cell_angle_gamma   100.84000000
_symmetry_Int_Tables_number   1
_chemical_formula_structural   KH8Au(C3N)4
_chemical_formula_sum   'K2 H16 Au2 C24 N8'
_cell_volume   635.66152966
_cell_formula_units_Z   2
loop_
 _symmetry_equiv_pos_site_id
 _symmetry_equiv_pos_as_xyz
  1  'x, y, z'
loop_
 _atom_site_type_symbol
 _atom_site_label
 _atom_site_symmetry_multiplicity
 _atom_site_fract_x
 _atom_site_fract_y
 _atom_site_fract_z
 _atom_site_occupancy
  K  K0  1  0.75677000  0.24126000  0.49226000  1.0
  K  K1  1  0.24326000  0.75874000  0.99225000  1.0
  H  H2  1  0.37004000  0.85782000  0.45161000  1.0
  H  H3  1  0.62995000  0.14217000  0.95161000  1.0
  H  H4  1  0.56822000  0.92173000  0.57605000  1.0
  H  H5  1  0.43179000  0.07826000  0.07604000  1.0
  H  H6  1  0.63771000  0.71622000  0.65985000  1.0
  H  H7  1  0.36228000  0.28377000  0.15985000  1.0
  H  H8  1  0.48099000  0.45241000  0.61584000  1.0
  H  H9  1  0.51900000  0.54759000  0.11584000  1.0
  H  H10  1  0.54113000  0.77928000  0.34680000  1.0
  H  H11  1  0.45885000  0.22071000  0.84679000  1.0
  H  H12  1  0.36279000  0.70114000  0.22333000  1.0
  H  H13  1  0.63718000  0.29886000  0.72332000  1.0
  H  H14  1  0.94566000  0.45427000  0.20399000  1.0
  H  H15  1  0.05431000  0.54573000  0.70399000  1.0
  H  H16  1  0.73163000  0.29779000  0.31021000  1.0
  H  H17  1  0.26834000  0.70221000  0.81021000  1.0
  Au  Au18  1  0.99576000  0.01530000  0.74826000  1.0
  Au  Au19  1  0.00430000  0.98470000  0.24826000  1.0
  C  C20  1  0.13325000  0.09813000  0.65341000  1.0
  C  C21  1  0.86683000  0.90189000  0.15341000  1.0
  C  C22  1  0.86858000  0.94568000  0.84574000  1.0
  C  C23  1  0.13147000  0.05433000  0.34575000  1.0
  C  C24  1  0.33492000  0.62071000  0.46795000  1.0
  C  C25  1  0.66507000  0.37929000  0.96794000  1.0
  C  C26  1  0.40642000  0.77060000  0.48879000  1.0
  C  C27  1  0.59357000  0.22939000  0.98878000  1.0
  C  C28  1  0.51468000  0.80651000  0.55831000  1.0
  C  C29  1  0.48531000  0.19349000  0.05830000  1.0
  C  C30  1  0.54895000  0.69231000  0.60526000  1.0
  C  C31  1  0.45105000  0.30768000  0.10526000  1.0
  C  C32  1  0.46489000  0.54612000  0.58065000  1.0
  C  C33  1  0.53511000  0.45388000  0.08065000  1.0
  C  C34  1  0.22891000  0.57871000  0.39352000  1.0
  C  C35  1  0.77108000  0.42129000  0.89352000  1.0
  C  C36  1  0.35807000  0.67389000  0.33705000  1.0
  C  C37  1  0.64192000  0.32611000  0.83705000  1.0
  C  C38  1  0.26015000  0.62963000  0.26792000  1.0
  C  C39  1  0.73983000  0.37037000  0.76792000  1.0
  C  C40  1  0.03178000  0.49282000  0.25707000  1.0
  C  C41  1  0.96820000  0.50718000  0.75707000  1.0
  C  C42  1  0.91371000  0.40529000  0.31621000  1.0
  C  C43  1  0.08626000  0.59471000  0.81621000  1.0
  N  N44  1  0.22142000  0.15468000  0.59869000  1.0
  N  N45  1  0.77863000  0.84533000  0.09868000  1.0
  N  N46  1  0.79753000  0.91078000  0.90470000  1.0
  N  N47  1  0.20251000  0.08922000  0.40471000  1.0
  N  N48  1  0.35928000  0.50936000  0.51387000  1.0
  N  N49  1  0.64070000  0.49064000  0.01386000  1.0
  N  N50  1  0.01027000  0.44554000  0.38284000  1.0
  N  N51  1  0.98970000  0.55445000  0.88284000  1.0
