# generated using pymatgen
data_CuH17C13SN2O7
_symmetry_space_group_name_H-M   'P 1'
_cell_length_a   8.90404000
_cell_length_b   9.35269000
_cell_length_c   12.45260000
_cell_angle_alpha   98.32870000
_cell_angle_beta   91.61630000
_cell_angle_gamma   102.25400000
_symmetry_Int_Tables_number   1
_chemical_formula_structural   CuH17C13SN2O7
_chemical_formula_sum   'Cu2 H34 C26 S2 N4 O14'
_cell_volume   1000.83169933
_cell_formula_units_Z   2
loop_
 _symmetry_equiv_pos_site_id
 _symmetry_equiv_pos_as_xyz
  1  'x, y, z'
loop_
 _atom_site_type_symbol
 _atom_site_label
 _atom_site_symmetry_multiplicity
 _atom_site_fract_x
 _atom_site_fract_y
 _atom_site_fract_z
 _atom_site_occupancy
  Cu  Cu0  1  0.00000000  0.00000000  0.00000000  1.0
  Cu  Cu1  1  0.50000000  0.00000000  0.00000000  1.0
  H  H2  1  0.71410000  0.29895000  0.07934000  1.0
  H  H3  1  0.28590000  0.70106000  0.92065000  1.0
  H  H4  1  0.68056000  0.46367000  0.80569000  1.0
  H  H5  1  0.31944000  0.53634000  0.19430000  1.0
  H  H6  1  0.58354000  0.57790000  0.88935000  1.0
  H  H7  1  0.41647000  0.42211000  0.11065000  1.0
  H  H8  1  0.49761000  0.38339000  0.85376000  1.0
  H  H9  1  0.50239000  0.61663000  0.14624000  1.0
  H  H10  1  0.84479000  0.51966000  0.10171000  1.0
  H  H11  1  0.15521000  0.48034000  0.89829000  1.0
  H  H12  1  0.75108000  0.65492000  0.05516000  1.0
  H  H13  1  0.24892000  0.34509000  0.94484000  1.0
  H  H14  1  0.89399000  0.59077000  0.97823000  1.0
  H  H15  1  0.10601000  0.40924000  0.02177000  1.0
  H  H16  1  0.75032000  0.00695000  0.84535000  1.0
  H  H17  1  0.24968000  0.99305000  0.15465000  1.0
  H  H18  1  0.59393000  0.03644000  0.71914000  1.0
  H  H19  1  0.40607000  0.96355000  0.28086000  1.0
  H  H20  1  0.69445000  0.07635000  0.59994000  1.0
  H  H21  1  0.30555000  0.92364000  0.40006000  1.0
  H  H22  1  0.62126000  0.21666000  0.68054000  1.0
  H  H23  1  0.37874000  0.78334000  0.31946000  1.0
  H  H24  1  0.89536000  0.39269000  0.73224000  1.0
  H  H25  1  0.10464000  0.60730000  0.26776000  1.0
  H  H26  1  0.94758000  0.26242000  0.62968000  1.0
  H  H27  1  0.05242000  0.73757000  0.37032000  1.0
  H  H28  1  0.04177000  0.29663000  0.76252000  1.0
  H  H29  1  0.95823000  0.70336000  0.23747000  1.0
  H  H30  1  0.64335000  0.85514000  0.27681000  1.0
  H  H31  1  0.35665000  0.14486000  0.72320000  1.0
  H  H32  1  0.76497000  0.82478000  0.44877000  1.0
  H  H33  1  0.23503000  0.17521000  0.55123000  1.0
  H  H34  1  0.13182000  0.20142000  0.41825000  1.0
  H  H35  1  0.86818000  0.79857000  0.58176000  1.0
  C  C36  1  0.64758000  0.30730000  0.00579000  1.0
  C  C37  1  0.35243000  0.69271000  0.99421000  1.0
  C  C38  1  0.60548000  0.46596000  0.87411000  1.0
  C  C39  1  0.39453000  0.53405000  0.12589000  1.0
  C  C40  1  0.80011000  0.55766000  0.03072000  1.0
  C  C41  1  0.19990000  0.44234000  0.96928000  1.0
  C  C42  1  0.84434000  0.09828000  0.83171000  1.0
  C  C43  1  0.15565000  0.90172000  0.16829000  1.0
  C  C44  1  0.67341000  0.12074000  0.68356000  1.0
  C  C45  1  0.32659000  0.87925000  0.31644000  1.0
  C  C46  1  0.93252000  0.28730000  0.71713000  1.0
  C  C47  1  0.06748000  0.71270000  0.28287000  1.0
  C  C48  1  0.73826000  0.04266000  0.14286000  1.0
  C  C49  1  0.26173000  0.95734000  0.85714000  1.0
  C  C50  1  0.81964000  0.03936000  0.24863000  1.0
  C  C51  1  0.18036000  0.96064000  0.75137000  1.0
  C  C52  1  0.75142000  0.92990000  0.30882000  1.0
  C  C53  1  0.24857000  0.07009000  0.69118000  1.0
  C  C54  1  0.82089000  0.91373000  0.40631000  1.0
  C  C55  1  0.17911000  0.08626000  0.59369000  1.0
  C  C56  1  0.96126000  0.00855000  0.44866000  1.0
  C  C57  1  0.03874000  0.99144000  0.55134000  1.0
  C  C58  1  0.02600000  0.12094000  0.38936000  1.0
  C  C59  1  0.97400000  0.87906000  0.61064000  1.0
  C  C60  1  0.95789000  0.13600000  0.29088000  1.0
  C  C61  1  0.04211000  0.86400000  0.70912000  1.0
  S  S62  1  0.05411000  0.27991000  0.22017000  1.0
  S  S63  1  0.94589000  0.72009000  0.77983000  1.0
  N  N64  1  0.68170000  0.43735000  0.97146000  1.0
  N  N65  1  0.31831000  0.56266000  0.02853000  1.0
  N  N66  1  0.81818000  0.16714000  0.74903000  1.0
  N  N67  1  0.18181000  0.83285000  0.25097000  1.0
  O  O68  1  0.79408000  0.01506000  0.05127000  1.0
  O  O69  1  0.20592000  0.98494000  0.94874000  1.0
  O  O70  1  0.60071000  0.06316000  0.14798000  1.0
  O  O71  1  0.39929000  0.93684000  0.85202000  1.0
  O  O72  1  0.54565000  0.19895000  0.95673000  1.0
  O  O73  1  0.45436000  0.80106000  0.04327000  1.0
  O  O74  1  0.96825000  0.13208000  0.89091000  1.0
  O  O75  1  0.03174000  0.86792000  0.10909000  1.0
  O  O76  1  0.13360000  0.20280000  0.13495000  1.0
  O  O77  1  0.86640000  0.79720000  0.86505000  1.0
  O  O78  1  0.16063000  0.38428000  0.30110000  1.0
  O  O79  1  0.83937000  0.61571000  0.69891000  1.0
  O  O80  1  0.93084000  0.34091000  0.17599000  1.0
  O  O81  1  0.06916000  0.65910000  0.82402000  1.0
