# generated using pymatgen
data_ZnH7C10N3O5
_symmetry_space_group_name_H-M   'P 1'
_cell_length_a   7.49507000
_cell_length_b   11.44860000
_cell_length_c   12.88580000
_cell_angle_alpha   90.00000000
_cell_angle_beta   105.59200000
_cell_angle_gamma   90.00000000
_symmetry_Int_Tables_number   1
_chemical_formula_structural   ZnH7C10N3O5
_chemical_formula_sum   'Zn4 H28 C40 N12 O20'
_cell_volume   1065.01563420
_cell_formula_units_Z   4
loop_
 _symmetry_equiv_pos_site_id
 _symmetry_equiv_pos_as_xyz
  1  'x, y, z'
loop_
 _atom_site_type_symbol
 _atom_site_label
 _atom_site_symmetry_multiplicity
 _atom_site_fract_x
 _atom_site_fract_y
 _atom_site_fract_z
 _atom_site_occupancy
  Zn  Zn0  1  0.63305000  0.72404000  0.31660000  1.0
  Zn  Zn1  1  0.86694000  0.22404000  0.18340000  1.0
  Zn  Zn2  1  0.36695000  0.27596000  0.68340000  1.0
  Zn  Zn3  1  0.13305000  0.77596000  0.81659000  1.0
  H  H4  1  0.21038000  0.93900000  0.46604000  1.0
  H  H5  1  0.28962000  0.43900000  0.03396000  1.0
  H  H6  1  0.78962000  0.06100000  0.53396000  1.0
  H  H7  1  0.71038000  0.56100000  0.96604000  1.0
  H  H8  1  0.47376000  0.69449000  0.56199000  1.0
  H  H9  1  0.02624000  0.19449000  0.93801000  1.0
  H  H10  1  0.52624000  0.30551000  0.43801000  1.0
  H  H11  1  0.97376000  0.80551000  0.06199000  1.0
  H  H12  1  0.97175000  0.48656000  0.67337000  1.0
  H  H13  1  0.52825000  0.98656000  0.82663000  1.0
  H  H14  1  0.02826000  0.51344000  0.32663000  1.0
  H  H15  1  0.47175000  0.01344000  0.17337000  1.0
  H  H16  1  0.77624000  0.32735000  0.71192000  1.0
  H  H17  1  0.72376000  0.82735000  0.78808000  1.0
  H  H18  1  0.22376000  0.67265000  0.28808000  1.0
  H  H19  1  0.27624000  0.17265000  0.21192000  1.0
  H  H20  1  0.29907000  0.52669000  0.61189000  1.0
  H  H21  1  0.20093000  0.02669000  0.88810000  1.0
  H  H22  1  0.70093000  0.47331000  0.38810000  1.0
  H  H23  1  0.79907000  0.97331000  0.11189000  1.0
  H  H24  1  0.56102000  0.93141000  0.39014000  1.0
  H  H25  1  0.93898000  0.43141000  0.10986000  1.0
  H  H26  1  0.43898000  0.06859000  0.60986000  1.0
  H  H27  1  0.06102000  0.56859000  0.89014000  1.0
  H  H28  1  0.35899000  0.87739000  0.34918000  1.0
  H  H29  1  0.14101000  0.37739000  0.15082000  1.0
  H  H30  1  0.64102000  0.12261000  0.65082000  1.0
  H  H31  1  0.85898000  0.62261000  0.84918000  1.0
  C  C32  1  0.98362000  0.86118000  0.37987000  1.0
  C  C33  1  0.51637000  0.36118000  0.12013000  1.0
  C  C34  1  0.01637000  0.13882000  0.62013000  1.0
  C  C35  1  0.48362000  0.63882000  0.87987000  1.0
  C  C36  1  0.96985000  0.80615000  0.47967000  1.0
  C  C37  1  0.53014000  0.30616000  0.02033000  1.0
  C  C38  1  0.03014000  0.19384000  0.52033000  1.0
  C  C39  1  0.46986000  0.69385000  0.97967000  1.0
  C  C40  1  0.85027000  0.69477000  0.57894000  1.0
  C  C41  1  0.64973000  0.19477000  0.92106000  1.0
  C  C42  1  0.14973000  0.30523000  0.42106000  1.0
  C  C43  1  0.35027000  0.80523000  0.07894000  1.0
  C  C44  1  0.73688000  0.60335000  0.61070000  1.0
  C  C45  1  0.76312000  0.10335000  0.88930000  1.0
  C  C46  1  0.26312000  0.39665000  0.38930000  1.0
  C  C47  1  0.23688000  0.89665000  0.11070000  1.0
  C  C48  1  0.54559000  0.61444000  0.59488000  1.0
  C  C49  1  0.95441000  0.11444000  0.90512000  1.0
  C  C50  1  0.45442000  0.38556000  0.40512000  1.0
  C  C51  1  0.04559000  0.88556000  0.09488000  1.0
  C  C52  1  0.82249000  0.49929000  0.65593000  1.0
  C  C53  1  0.67751000  0.99930000  0.84407000  1.0
  C  C54  1  0.17751000  0.50070000  0.34407000  1.0
  C  C55  1  0.32249000  0.00071000  0.15593000  1.0
  C  C56  1  0.07490000  0.81658000  0.58680000  1.0
  C  C57  1  0.42510000  0.31658000  0.91320000  1.0
  C  C58  1  0.92510000  0.18342000  0.41320000  1.0
  C  C59  1  0.57490000  0.68342000  0.08680000  1.0
  C  C60  1  0.23337000  0.89203000  0.63804000  1.0
  C  C61  1  0.26663000  0.39203000  0.86196000  1.0
  C  C62  1  0.76663000  0.10797000  0.36196000  1.0
  C  C63  1  0.73338000  0.60797000  0.13804000  1.0
  C  C64  1  0.71358000  0.40993000  0.67847000  1.0
  C  C65  1  0.78642000  0.90993000  0.82153000  1.0
  C  C66  1  0.28642000  0.59007000  0.32154000  1.0
  C  C67  1  0.21358000  0.09007000  0.17847000  1.0
  C  C68  1  0.44749000  0.52089000  0.62143000  1.0
  C  C69  1  0.05251000  0.02089000  0.87858000  1.0
  C  C70  1  0.55251000  0.47910000  0.37857000  1.0
  C  C71  1  0.94749000  0.97910000  0.12143000  1.0
  N  N72  1  0.82740000  0.72975000  0.47568000  1.0
  N  N73  1  0.67259000  0.22975000  0.02432000  1.0
  N  N74  1  0.17260000  0.27025000  0.52432000  1.0
  N  N75  1  0.32741000  0.77025000  0.97568000  1.0
  N  N76  1  0.99857000  0.74567000  0.64865000  1.0
  N  N77  1  0.50143000  0.24567000  0.85135000  1.0
  N  N78  1  0.00143000  0.25433000  0.35135000  1.0
  N  N79  1  0.49857000  0.75433000  0.14865000  1.0
  N  N80  1  0.52861000  0.41919000  0.65987000  1.0
  N  N81  1  0.97139000  0.91919000  0.84013000  1.0
  N  N82  1  0.47139000  0.58081000  0.34013000  1.0
  N  N83  1  0.02861000  0.08081000  0.15987000  1.0
  O  O84  1  0.13014000  0.92766000  0.38334000  1.0
  O  O85  1  0.36986000  0.42766000  0.11666000  1.0
  O  O86  1  0.86986000  0.07234000  0.61666000  1.0
  O  O87  1  0.63014000  0.57234000  0.88334000  1.0
  O  O88  1  0.86074000  0.84496000  0.29453000  1.0
  O  O89  1  0.63925000  0.34497000  0.20547000  1.0
  O  O90  1  0.13926000  0.15503000  0.70547000  1.0
  O  O91  1  0.36074000  0.65503000  0.79453000  1.0
  O  O92  1  0.28932000  0.89396000  0.73941000  1.0
  O  O93  1  0.21068000  0.39396000  0.76059000  1.0
  O  O94  1  0.71067000  0.10604000  0.26059000  1.0
  O  O95  1  0.78932000  0.60604000  0.23941000  1.0
  O  O96  1  0.30502000  0.95337000  0.57502000  1.0
  O  O97  1  0.19498000  0.45338000  0.92498000  1.0
  O  O98  1  0.69498000  0.04662000  0.42498000  1.0
  O  O99  1  0.80503000  0.54663000  0.07502000  1.0
  O  O100  1  0.48950000  0.85608000  0.37740000  1.0
  O  O101  1  0.01051000  0.35608000  0.12260000  1.0
  O  O102  1  0.51051000  0.14392000  0.62260000  1.0
  O  O103  1  0.98949000  0.64392000  0.87740000  1.0
