# generated using pymatgen
data_TbH8C9NO8
_symmetry_space_group_name_H-M   'P 1'
_cell_length_a   8.35675000
_cell_length_b   9.78093000
_cell_length_c   14.74430000
_cell_angle_alpha   90.00000000
_cell_angle_beta   90.00000000
_cell_angle_gamma   96.63430000
_symmetry_Int_Tables_number   1
_chemical_formula_structural   TbH8C9NO8
_chemical_formula_sum   'Tb4 H32 C36 N4 O32'
_cell_volume   1197.08174519
_cell_formula_units_Z   4
loop_
 _symmetry_equiv_pos_site_id
 _symmetry_equiv_pos_as_xyz
  1  'x, y, z'
loop_
 _atom_site_type_symbol
 _atom_site_label
 _atom_site_symmetry_multiplicity
 _atom_site_fract_x
 _atom_site_fract_y
 _atom_site_fract_z
 _atom_site_occupancy
  Tb  Tb0  1  0.00462000  0.11243000  0.38697000  1.0
  Tb  Tb1  1  0.49538000  0.88757000  0.88697000  1.0
  Tb  Tb2  1  0.99538000  0.88757000  0.61303000  1.0
  Tb  Tb3  1  0.50462000  0.11243000  0.11303000  1.0
  H  H4  1  0.33803000  0.53769000  0.17543000  1.0
  H  H5  1  0.16197000  0.46231000  0.67543000  1.0
  H  H6  1  0.66197000  0.46231000  0.82457000  1.0
  H  H7  1  0.83803000  0.53769000  0.32457000  1.0
  H  H8  1  0.28649000  0.77038000  0.23805000  1.0
  H  H9  1  0.21352000  0.22962000  0.73805000  1.0
  H  H10  1  0.71352000  0.22962000  0.76195000  1.0
  H  H11  1  0.78648000  0.77038000  0.26195000  1.0
  H  H12  1  0.12745000  0.55864000  0.48423000  1.0
  H  H13  1  0.37255000  0.44136000  0.98423000  1.0
  H  H14  1  0.87255000  0.44136000  0.51577000  1.0
  H  H15  1  0.62745000  0.55864000  0.01577000  1.0
  H  H16  1  0.55946000  0.84736000  0.54101000  1.0
  H  H17  1  0.94054000  0.15264000  0.04101000  1.0
  H  H18  1  0.44054000  0.15264000  0.45899000  1.0
  H  H19  1  0.05946000  0.84736000  0.95899000  1.0
  H  H20  1  0.61189000  0.71761000  0.46747000  1.0
  H  H21  1  0.88811000  0.28239000  0.96747000  1.0
  H  H22  1  0.38811000  0.28239000  0.53253000  1.0
  H  H23  1  0.11189000  0.71761000  0.03253000  1.0
  H  H24  1  0.47503000  0.83514000  0.42946000  1.0
  H  H25  1  0.02497000  0.16485000  0.92946000  1.0
  H  H26  1  0.52496000  0.16485000  0.57054000  1.0
  H  H27  1  0.97503000  0.83514000  0.07054000  1.0
  H  H28  1  0.85624000  0.01830000  0.21290000  1.0
  H  H29  1  0.64376000  0.98170000  0.71290000  1.0
  H  H30  1  0.14376000  0.98170000  0.78710000  1.0
  H  H31  1  0.35624000  0.01830000  0.28710000  1.0
  H  H32  1  0.04434000  0.00081000  0.19960000  1.0
  H  H33  1  0.45566000  0.99919000  0.69960000  1.0
  H  H34  1  0.95566000  0.99919000  0.80040000  1.0
  H  H35  1  0.54434000  0.00081000  0.30040000  1.0
  C  C36  1  0.29332000  0.29007000  0.25738000  1.0
  C  C37  1  0.20668000  0.70993000  0.75738000  1.0
  C  C38  1  0.70668000  0.70993000  0.74262000  1.0
  C  C39  1  0.79333000  0.29007000  0.24262000  1.0
  C  C40  1  0.25594000  0.42716000  0.29344000  1.0
  C  C41  1  0.24406000  0.57284000  0.79344000  1.0
  C  C42  1  0.74406000  0.57284000  0.70656000  1.0
  C  C43  1  0.75594000  0.42716000  0.20656000  1.0
  C  C44  1  0.28828000  0.54821000  0.24300000  1.0
  C  C45  1  0.21172000  0.45180000  0.74300000  1.0
  C  C46  1  0.71172000  0.45179000  0.75700000  1.0
  C  C47  1  0.78828000  0.54821000  0.25700000  1.0
  C  C48  1  0.26010000  0.67595000  0.27711000  1.0
  C  C49  1  0.23990000  0.32405000  0.77711000  1.0
  C  C50  1  0.73990000  0.32405000  0.72289000  1.0
  C  C51  1  0.76010000  0.67595000  0.22289000  1.0
  C  C52  1  0.20289000  0.68114000  0.36620000  1.0
  C  C53  1  0.29711000  0.31887000  0.86620000  1.0
  C  C54  1  0.79711000  0.31887000  0.63380000  1.0
  C  C55  1  0.70289000  0.68114000  0.13380000  1.0
  C  C56  1  0.16930000  0.81076000  0.41526000  1.0
  C  C57  1  0.33070000  0.18924000  0.91526000  1.0
  C  C58  1  0.83070000  0.18924000  0.58474000  1.0
  C  C59  1  0.66930000  0.81076000  0.08474000  1.0
  C  C60  1  0.17176000  0.56019000  0.41501000  1.0
  C  C61  1  0.32823000  0.43981000  0.91501000  1.0
  C  C62  1  0.82823000  0.43981000  0.58499000  1.0
  C  C63  1  0.67176000  0.56019000  0.08499000  1.0
  C  C64  1  0.72332000  0.91905000  0.43548000  1.0
  C  C65  1  0.77668000  0.08095000  0.93548000  1.0
  C  C66  1  0.27668000  0.08095000  0.56452000  1.0
  C  C67  1  0.22332000  0.91905000  0.06452000  1.0
  C  C68  1  0.58250000  0.82404000  0.46964000  1.0
  C  C69  1  0.91750000  0.17595000  0.96964000  1.0
  C  C70  1  0.41750000  0.17595000  0.53036000  1.0
  C  C71  1  0.08250000  0.82404000  0.03036000  1.0
  N  N72  1  0.19316000  0.43527000  0.37974000  1.0
  N  N73  1  0.30684000  0.56473000  0.87974000  1.0
  N  N74  1  0.80684000  0.56473000  0.62026000  1.0
  N  N75  1  0.69316000  0.43527000  0.12026000  1.0
  O  O76  1  0.15572000  0.32867000  0.43235000  1.0
  O  O77  1  0.34428000  0.67133000  0.93235000  1.0
  O  O78  1  0.84428000  0.67133000  0.56765000  1.0
  O  O79  1  0.65572000  0.32867000  0.06765000  1.0
  O  O80  1  0.22409000  0.18047000  0.29196000  1.0
  O  O81  1  0.27591000  0.81953000  0.79196000  1.0
  O  O82  1  0.77591000  0.81953000  0.70804000  1.0
  O  O83  1  0.72409000  0.18047000  0.20804000  1.0
  O  O84  1  0.39564000  0.29492000  0.19363000  1.0
  O  O85  1  0.10436000  0.70508000  0.69363000  1.0
  O  O86  1  0.60436000  0.70507000  0.80637000  1.0
  O  O87  1  0.89564000  0.29492000  0.30637000  1.0
  O  O88  1  0.16629000  0.91989000  0.36927000  1.0
  O  O89  1  0.33371000  0.08011000  0.86927000  1.0
  O  O90  1  0.83371000  0.08011000  0.63073000  1.0
  O  O91  1  0.66629000  0.91989000  0.13073000  1.0
  O  O92  1  0.14624000  0.79623000  0.49979000  1.0
  O  O93  1  0.35376000  0.20377000  0.99980000  1.0
  O  O94  1  0.85376000  0.20377000  0.50020000  1.0
  O  O95  1  0.64624000  0.79623000  0.00021000  1.0
  O  O96  1  0.70816000  0.00409000  0.37195000  1.0
  O  O97  1  0.79184000  0.99591000  0.87195000  1.0
  O  O98  1  0.29184000  0.99591000  0.62805000  1.0
  O  O99  1  0.20816000  0.00409000  0.12805000  1.0
  O  O100  1  0.95431000  0.99784000  0.24433000  1.0
  O  O101  1  0.54569000  0.00216000  0.74432000  1.0
  O  O102  1  0.04569000  0.00216000  0.75568000  1.0
  O  O103  1  0.45431000  0.99784000  0.25567000  1.0
  O  O104  1  0.86321000  0.91484000  0.47119000  1.0
  O  O105  1  0.63679000  0.08516000  0.97119000  1.0
  O  O106  1  0.13679000  0.08516000  0.52881000  1.0
  O  O107  1  0.36321000  0.91484000  0.02881000  1.0
