# generated using pymatgen
data_Ag2H10C15NO4
_symmetry_space_group_name_H-M   'P 1'
_cell_length_a   8.01808000
_cell_length_b   10.28830000
_cell_length_c   17.37800000
_cell_angle_alpha   98.84060000
_cell_angle_beta   96.77050000
_cell_angle_gamma   104.98000000
_symmetry_Int_Tables_number   1
_chemical_formula_structural   Ag2H10C15NO4
_chemical_formula_sum   'Ag8 H40 C60 N4 O16'
_cell_volume   1349.59907341
_cell_formula_units_Z   4
loop_
 _symmetry_equiv_pos_site_id
 _symmetry_equiv_pos_as_xyz
  1  'x, y, z'
loop_
 _atom_site_type_symbol
 _atom_site_label
 _atom_site_symmetry_multiplicity
 _atom_site_fract_x
 _atom_site_fract_y
 _atom_site_fract_z
 _atom_site_occupancy
  Ag  Ag0  1  0.41755000  0.95514000  0.41614000  1.0
  Ag  Ag1  1  0.58245000  0.04486000  0.58386000  1.0
  Ag  Ag2  1  0.24448000  0.09019000  0.51963000  1.0
  Ag  Ag3  1  0.75552000  0.90981000  0.48037000  1.0
  Ag  Ag4  1  0.42294000  0.53575000  0.91582000  1.0
  Ag  Ag5  1  0.57706000  0.46425000  0.08418000  1.0
  Ag  Ag6  1  0.35893000  0.64618000  0.06284000  1.0
  Ag  Ag7  1  0.64108000  0.35382000  0.93716000  1.0
  H  H8  1  0.66939000  0.47847000  0.54232000  1.0
  H  H9  1  0.33061000  0.52153000  0.45768000  1.0
  H  H10  1  0.06338000  0.64533000  0.28823000  1.0
  H  H11  1  0.93662000  0.35468000  0.71177000  1.0
  H  H12  1  0.75299000  0.24332000  0.16778000  1.0
  H  H13  1  0.24701000  0.75668000  0.83222000  1.0
  H  H14  1  0.62525000  0.20532000  0.28782000  1.0
  H  H15  1  0.37475000  0.79468000  0.71218000  1.0
  H  H16  1  0.89509000  0.69571000  0.54462000  1.0
  H  H17  1  0.10491000  0.30429000  0.45538000  1.0
  H  H18  1  0.97374000  0.46335000  0.16767000  1.0
  H  H19  1  0.02626000  0.53666000  0.83233000  1.0
  H  H20  1  0.52041000  0.35856000  0.61332000  1.0
  H  H21  1  0.47960000  0.64143000  0.38668000  1.0
  H  H22  1  0.23205000  0.22954000  0.83160000  1.0
  H  H23  1  0.76795000  0.77046000  0.16840000  1.0
  H  H24  1  0.73124000  0.56358000  0.80226000  1.0
  H  H25  1  0.26877000  0.43642000  0.19774000  1.0
  H  H26  1  0.69405000  0.57316000  0.70000000  1.0
  H  H27  1  0.30596000  0.42684000  0.30000000  1.0
  H  H28  1  0.56992000  0.63885000  0.76735000  1.0
  H  H29  1  0.43008000  0.36115000  0.23265000  1.0
  H  H30  1  0.18021000  0.95028000  0.66332000  1.0
  H  H31  1  0.81979000  0.04972000  0.33668000  1.0
  H  H32  1  0.09291000  0.99982000  0.74993000  1.0
  H  H33  1  0.90709000  0.00018000  0.25007000  1.0
  H  H34  1  0.00734000  0.02793000  0.65666000  1.0
  H  H35  1  0.99266000  0.97207000  0.34334000  1.0
  H  H36  1  0.94885000  0.33041000  0.85739000  1.0
  H  H37  1  0.05115000  0.66959000  0.14261000  1.0
  H  H38  1  0.05748000  0.23246000  0.11616000  1.0
  H  H39  1  0.94253000  0.76754000  0.88384000  1.0
  H  H40  1  0.53460000  0.87280000  0.84552000  1.0
  H  H41  1  0.46541000  0.12720000  0.15448000  1.0
  H  H42  1  0.83860000  0.00801000  0.11194000  1.0
  H  H43  1  0.16140000  0.99199000  0.88806000  1.0
  H  H44  1  0.73316000  0.21619000  0.73631000  1.0
  H  H45  1  0.26684000  0.78381000  0.26369000  1.0
  H  H46  1  0.52888000  0.98578000  0.72980000  1.0
  H  H47  1  0.47112000  0.01421000  0.27020000  1.0
  C  C48  1  0.77008000  0.40267000  0.35800000  1.0
  C  C49  1  0.22992000  0.59733000  0.64200000  1.0
  C  C50  1  0.89818000  0.53044000  0.35830000  1.0
  C  C51  1  0.10183000  0.46956000  0.64170000  1.0
  C  C52  1  0.94450000  0.63531000  0.42804000  1.0
  C  C53  1  0.05550000  0.36469000  0.57196000  1.0
  C  C54  1  0.73368000  0.49157000  0.49120000  1.0
  C  C55  1  0.26632000  0.50843000  0.50880000  1.0
  C  C56  1  0.96838000  0.54868000  0.28813000  1.0
  C  C57  1  0.03163000  0.45132000  0.71187000  1.0
  C  C58  1  0.56263000  0.25333000  0.43387000  1.0
  C  C59  1  0.43737000  0.74667000  0.56613000  1.0
  C  C60  1  0.69046000  0.38486000  0.42670000  1.0
  C  C61  1  0.30953000  0.61514000  0.57329000  1.0
  C  C62  1  0.79331000  0.32272000  0.22099000  1.0
  C  C63  1  0.20670000  0.67728000  0.77901000  1.0
  C  C64  1  0.72169000  0.30120000  0.28785000  1.0
  C  C65  1  0.27832000  0.69880000  0.71215000  1.0
  C  C66  1  0.86048000  0.61496000  0.49219000  1.0
  C  C67  1  0.13952000  0.38504000  0.50781000  1.0
  C  C68  1  0.91799000  0.44772000  0.22099000  1.0
  C  C69  1  0.08201000  0.55228000  0.77901000  1.0
  C  C70  1  0.08231000  0.76891000  0.43623000  1.0
  C  C71  1  0.91769000  0.23109000  0.56377000  1.0
  C  C72  1  0.45753000  0.33078000  0.66305000  1.0
  C  C73  1  0.54248000  0.66922000  0.33695000  1.0
  C  C74  1  0.49757000  0.41991000  0.73634000  1.0
  C  C75  1  0.50244000  0.58009000  0.26366000  1.0
  C  C76  1  0.29637000  0.25687000  0.78210000  1.0
  C  C77  1  0.70363000  0.74313000  0.21790000  1.0
  C  C78  1  0.25812000  0.16677000  0.70914000  1.0
  C  C79  1  0.74188000  0.83322000  0.29087000  1.0
  C  C80  1  0.63086000  0.55637000  0.75166000  1.0
  C  C81  1  0.36914000  0.44363000  0.24834000  1.0
  C  C82  1  0.12803000  0.02852000  0.69450000  1.0
  C  C83  1  0.87197000  0.97148000  0.30550000  1.0
  C  C84  1  0.85639000  0.23136000  0.85501000  1.0
  C  C85  1  0.14361000  0.76864000  0.14499000  1.0
  C  C86  1  0.97931000  0.23788000  0.99520000  1.0
  C  C87  1  0.02069000  0.76212000  0.00480000  1.0
  C  C88  1  0.86276000  0.16928000  0.92298000  1.0
  C  C89  1  0.13723000  0.83072000  0.07702000  1.0
  C  C90  1  0.96766000  0.17970000  0.06176000  1.0
  C  C91  1  0.03234000  0.82030000  0.93824000  1.0
  C  C92  1  0.12056000  0.36816000  0.99911000  1.0
  C  C93  1  0.87944000  0.63184000  0.00089000  1.0
  C  C94  1  0.73708000  0.97929000  0.98957000  1.0
  C  C95  1  0.26293000  0.02071000  0.01043000  1.0
  C  C96  1  0.74169000  0.03702000  0.91963000  1.0
  C  C97  1  0.25830000  0.96298000  0.08037000  1.0
  C  C98  1  0.62446000  0.97291000  0.84801000  1.0
  C  C99  1  0.37554000  0.02708000  0.15199000  1.0
  C  C100  1  0.84621000  0.05242000  0.05902000  1.0
  C  C101  1  0.15379000  0.94758000  0.94098000  1.0
  C  C102  1  0.73776000  0.16635000  0.78721000  1.0
  C  C103  1  0.26223000  0.83365000  0.21279000  1.0
  C  C104  1  0.61687000  0.84087000  0.99113000  1.0
  C  C105  1  0.38312000  0.15913000  0.00887000  1.0
  C  C106  1  0.62199000  0.03594000  0.78369000  1.0
  C  C107  1  0.37800000  0.96406000  0.21631000  1.0
  N  N108  1  0.34095000  0.20656000  0.64975000  1.0
  N  N109  1  0.65905000  0.79343000  0.35025000  1.0
  N  N110  1  0.41388000  0.38056000  0.79558000  1.0
  N  N111  1  0.58612000  0.61944000  0.20442000  1.0
  O  O112  1  0.59375000  0.14150000  0.40335000  1.0
  O  O113  1  0.40625000  0.85850000  0.59665000  1.0
  O  O114  1  0.43860000  0.26195000  0.47111000  1.0
  O  O115  1  0.56140000  0.73805000  0.52889000  1.0
  O  O116  1  0.22082000  0.76673000  0.40679000  1.0
  O  O117  1  0.77918000  0.23326000  0.59321000  1.0
  O  O118  1  0.05410000  0.87574000  0.47364000  1.0
  O  O119  1  0.94590000  0.12426000  0.52636000  1.0
  O  O120  1  0.15577000  0.45875000  0.06248000  1.0
  O  O121  1  0.84423000  0.54125000  0.93752000  1.0
  O  O122  1  0.55943000  0.82792000  0.05567000  1.0
  O  O123  1  0.44057000  0.17208000  0.94433000  1.0
  O  O124  1  0.58509000  0.74857000  0.92915000  1.0
  O  O125  1  0.41490000  0.25143000  0.07085000  1.0
  O  O126  1  0.19617000  0.37600000  0.93915000  1.0
  O  O127  1  0.80383000  0.62400000  0.06085000  1.0
