# generated using pymatgen
data_ZnH15C18N(O2F)2
_symmetry_space_group_name_H-M   'P 1'
_cell_length_a   8.98017000
_cell_length_b   14.68250000
_cell_length_c   16.14520000
_cell_angle_alpha   91.52770000
_cell_angle_beta   90.14890000
_cell_angle_gamma   98.50310000
_symmetry_Int_Tables_number   1
_chemical_formula_structural   ZnH15C18N(O2F)2
_chemical_formula_sum   'Zn2 H30 C36 N2 O8 F4'
_cell_volume   2104.57225695
_cell_formula_units_Z   2
loop_
 _symmetry_equiv_pos_site_id
 _symmetry_equiv_pos_as_xyz
  1  'x, y, z'
loop_
 _atom_site_type_symbol
 _atom_site_label
 _atom_site_symmetry_multiplicity
 _atom_site_fract_x
 _atom_site_fract_y
 _atom_site_fract_z
 _atom_site_occupancy
  Zn  Zn0  1  0.48955000  0.40318000  0.49667000  1.0
  Zn  Zn1  1  0.51043000  0.59686000  0.50334000  1.0
  H  H2  1  0.43448000  0.21592000  0.00908000  1.0
  H  H3  1  0.37687000  0.65118000  0.86590000  1.0
  H  H4  1  0.80135000  0.83154000  0.48568000  1.0
  H  H5  1  0.90406000  0.94482000  0.49289000  1.0
  H  H6  1  0.93880000  0.85982000  0.56445000  1.0
  H  H7  1  0.78726000  0.96430000  0.63631000  1.0
  H  H8  1  0.67601000  0.85627000  0.62028000  1.0
  H  H9  1  0.09582000  0.05510000  0.50693000  1.0
  H  H10  1  0.19860000  0.16833000  0.51432000  1.0
  H  H11  1  0.06128000  0.14025000  0.43549000  1.0
  H  H12  1  0.32398000  0.14381000  0.37966000  1.0
  H  H13  1  0.63356000  0.24168000  0.00887000  1.0
  H  H14  1  0.21282000  0.03577000  0.36358000  1.0
  H  H15  1  0.61230000  0.18495000  0.67195000  1.0
  H  H16  1  0.68900000  0.08823000  0.70796000  1.0
  H  H17  1  0.80620000  0.19638000  0.69826000  1.0
  H  H18  1  0.85443000  0.09326000  0.57933000  1.0
  H  H19  1  0.77321000  0.18704000  0.54447000  1.0
  H  H20  1  0.31107000  0.91177000  0.29197000  1.0
  H  H21  1  0.38764000  0.81500000  0.32801000  1.0
  H  H22  1  0.19377000  0.80367000  0.30169000  1.0
  H  H23  1  0.22678000  0.81301000  0.45550000  1.0
  H  H24  1  0.54029000  0.18625000  0.09470000  1.0
  H  H25  1  0.14559000  0.90681000  0.42059000  1.0
  H  H26  1  0.62326000  0.34880000  0.13411000  1.0
  H  H27  1  0.42824000  0.32288000  0.13561000  1.0
  H  H28  1  0.36661000  0.75828000  0.99115000  1.0
  H  H29  1  0.56570000  0.78402000  0.99094000  1.0
  H  H30  1  0.45991000  0.81371000  0.90532000  1.0
  H  H31  1  0.57188000  0.67707000  0.86439000  1.0
  C  C32  1  0.50204000  0.49813000  0.66126000  1.0
  C  C33  1  0.20788000  0.46975000  0.50009000  1.0
  C  C34  1  0.95989000  0.53572000  0.49955000  1.0
  C  C35  1  0.04009000  0.46427000  0.50047000  1.0
  C  C36  1  0.51221000  0.41510000  0.04264000  1.0
  C  C37  1  0.48787000  0.58484000  0.95736000  1.0
  C  C38  1  0.49959000  0.49910000  0.08638000  1.0
  C  C39  1  0.50049000  0.50085000  0.91362000  1.0
  C  C40  1  0.48795000  0.58001000  0.04318000  1.0
  C  C41  1  0.51216000  0.41993000  0.95682000  1.0
  C  C42  1  0.49860000  0.50218000  0.17379000  1.0
  C  C43  1  0.49794000  0.50190000  0.33874000  1.0
  C  C44  1  0.50146000  0.49777000  0.82621000  1.0
  C  C45  1  0.50201000  0.49748000  0.75074000  1.0
  C  C46  1  0.49801000  0.50251000  0.24926000  1.0
  C  C47  1  0.62500000  0.05817000  0.53918000  1.0
  C  C48  1  0.37505000  0.94187000  0.46072000  1.0
  C  C49  1  0.52458000  0.33097000  0.09287000  1.0
  C  C50  1  0.53369000  0.23887000  0.04821000  1.0
  C  C51  1  0.47555000  0.66899000  0.90715000  1.0
  C  C52  1  0.46648000  0.76109000  0.95181000  1.0
  C  C53  1  0.73204000  0.91692000  0.58804000  1.0
  C  C54  1  0.50869000  0.09257000  0.49603000  1.0
  C  C55  1  0.85089000  0.88664000  0.52909000  1.0
  C  C56  1  0.26800000  0.08312000  0.41188000  1.0
  C  C57  1  0.14910000  0.11332000  0.47082000  1.0
  C  C58  1  0.75004000  0.12391000  0.58034000  1.0
  C  C59  1  0.71198000  0.14968000  0.66995000  1.0
  C  C60  1  0.24996000  0.87613000  0.41960000  1.0
  C  C61  1  0.28801000  0.85033000  0.32999000  1.0
  C  C62  1  0.49137000  0.90747000  0.50386000  1.0
  C  C63  1  0.38476000  0.03780000  0.45605000  1.0
  C  C64  1  0.61526000  0.96224000  0.54388000  1.0
  C  C65  1  0.51343000  0.18947000  0.49375000  1.0
  C  C66  1  0.48659000  0.81058000  0.50619000  1.0
  C  C67  1  0.79210000  0.53024000  0.49992000  1.0
  N  N68  1  0.48851000  0.73177000  0.50772000  1.0
  N  N69  1  0.51148000  0.26825000  0.49224000  1.0
  O  O70  1  0.48784000  0.41992000  0.62372000  1.0
  O  O71  1  0.51213000  0.58011000  0.37628000  1.0
  O  O72  1  0.51609000  0.57716000  0.62891000  1.0
  O  O73  1  0.48390000  0.42287000  0.37109000  1.0
  O  O74  1  0.71651000  0.45010000  0.49760000  1.0
  O  O75  1  0.28348000  0.54990000  0.50241000  1.0
  O  O76  1  0.74178000  0.60668000  0.50248000  1.0
  O  O77  1  0.25819000  0.39332000  0.49753000  1.0
  F  F78  1  0.03371000  0.62290000  0.49829000  1.0
  F  F79  1  0.96627000  0.37709000  0.50173000  1.0
  F  F80  1  0.52401000  0.34346000  0.90904000  1.0
  F  F81  1  0.47605000  0.65648000  0.09096000  1.0
