# generated using pymatgen
data_ZnH10C15NO5
_symmetry_space_group_name_H-M   'P 1'
_cell_length_a   11.25680000
_cell_length_b   14.01330000
_cell_length_c   15.34550000
_cell_angle_alpha   90.39980000
_cell_angle_beta   92.37370000
_cell_angle_gamma   104.74300000
_symmetry_Int_Tables_number   1
_chemical_formula_structural   ZnH10C15NO5
_chemical_formula_sum   'Zn2 H20 C30 N2 O10'
_cell_volume   2338.58571214
_cell_formula_units_Z   2
loop_
 _symmetry_equiv_pos_site_id
 _symmetry_equiv_pos_as_xyz
  1  'x, y, z'
loop_
 _atom_site_type_symbol
 _atom_site_label
 _atom_site_symmetry_multiplicity
 _atom_site_fract_x
 _atom_site_fract_y
 _atom_site_fract_z
 _atom_site_occupancy
  Zn  Zn0  1  0.48664000  0.39675000  0.50608000  1.0
  Zn  Zn1  1  0.49768000  0.60154000  0.50494000  1.0
  H  H2  1  0.11545000  0.58592000  0.51498000  1.0
  H  H3  1  0.87238000  0.41616000  0.50514000  1.0
  H  H4  1  0.31809000  0.88955000  0.43752000  1.0
  H  H5  1  0.58650000  0.09170000  0.62775000  1.0
  H  H6  1  0.06983000  0.35920000  0.50967000  1.0
  H  H7  1  0.92100000  0.64246000  0.52305000  1.0
  H  H8  1  0.57219000  0.36640000  0.94572000  1.0
  H  H9  1  0.57554000  0.65699000  0.06897000  1.0
  H  H10  1  0.56943000  0.36545000  0.78346000  1.0
  H  H11  1  0.56264000  0.65434000  0.23053000  1.0
  H  H12  1  0.45292000  0.63384000  0.78054000  1.0
  H  H13  1  0.42670000  0.33838000  0.21872000  1.0
  H  H14  1  0.45021000  0.63411000  0.94282000  1.0
  H  H15  1  0.43601000  0.34052000  0.05852000  1.0
  H  H16  1  0.68158000  0.97624000  0.56423000  1.0
  H  H17  1  0.40698000  0.04443000  0.37004000  1.0
  H  H18  1  0.33453000  0.71503000  0.44392000  1.0
  H  H19  1  0.57615000  0.26760000  0.61835000  1.0
  H  H20  1  0.70715000  0.72908000  0.55487000  1.0
  H  H21  1  0.41863000  0.30030000  0.35634000  1.0
  C  C22  1  0.50667000  0.49780000  0.67468000  1.0
  C  C23  1  0.48830000  0.49750000  0.33240000  1.0
  C  C24  1  0.51030000  0.49993000  0.95597000  1.0
  C  C25  1  0.50630000  0.49894000  0.05191000  1.0
  C  C26  1  0.60138000  0.92149000  0.53747000  1.0
  C  C27  1  0.44455000  0.09005000  0.42739000  1.0
  C  C28  1  0.60493000  0.82176000  0.53627000  1.0
  C  C29  1  0.44551000  0.19073000  0.42612000  1.0
  C  C30  1  0.40908000  0.77631000  0.46871000  1.0
  C  C31  1  0.54117000  0.21476000  0.56499000  1.0
  C  C32  1  0.40075000  0.87281000  0.46546000  1.0
  C  C33  1  0.54656000  0.11761000  0.56966000  1.0
  C  C34  1  0.49937000  0.94802000  0.50122000  1.0
  C  C35  1  0.49594000  0.05276000  0.49929000  1.0
  C  C36  1  0.73451000  0.54445000  0.50836000  1.0
  C  C37  1  0.25516000  0.45915000  0.50625000  1.0
  C  C38  1  0.86993000  0.56521000  0.51513000  1.0
  C  C39  1  0.11942000  0.43707000  0.50956000  1.0
  C  C40  1  0.92855000  0.49224000  0.51165000  1.0
  C  C41  1  0.05998000  0.50944000  0.51303000  1.0
  C  C42  1  0.54387000  0.42442000  0.90981000  1.0
  C  C43  1  0.54108000  0.58716000  0.10168000  1.0
  C  C44  1  0.54356000  0.42398000  0.81920000  1.0
  C  C45  1  0.53487000  0.58611000  0.19194000  1.0
  C  C46  1  0.51038000  0.49932000  0.77220000  1.0
  C  C47  1  0.49373000  0.49670000  0.23537000  1.0
  C  C48  1  0.47883000  0.57572000  0.81768000  1.0
  C  C49  1  0.45947000  0.40841000  0.18627000  1.0
  C  C50  1  0.47853000  0.57586000  0.90826000  1.0
  C  C51  1  0.46574000  0.40960000  0.09594000  1.0
  N  N52  1  0.50869000  0.75031000  0.50343000  1.0
  N  N53  1  0.49121000  0.25138000  0.49511000  1.0
  O  O54  1  0.52352000  0.42100000  0.63684000  1.0
  O  O55  1  0.51696000  0.58007000  0.37240000  1.0
  O  O56  1  0.48625000  0.57267000  0.63631000  1.0
  O  O57  1  0.45508000  0.41427000  0.37124000  1.0
  O  O58  1  0.67227000  0.45777000  0.48816000  1.0
  O  O59  1  0.31270000  0.54782000  0.48990000  1.0
  O  O60  1  0.68672000  0.61724000  0.52285000  1.0
  O  O61  1  0.30364000  0.38725000  0.51949000  1.0
  O  O62  1  0.70627000  0.79978000  0.56813000  1.0
  O  O63  1  0.40075000  0.22518000  0.35491000  1.0
