# generated using pymatgen
data_UH17C10N2O9
_symmetry_space_group_name_H-M   'P 1'
_cell_length_a   8.47984000
_cell_length_b   8.59558000
_cell_length_c   10.79410000
_cell_angle_alpha   72.57460000
_cell_angle_beta   75.91900000
_cell_angle_gamma   79.68030000
_symmetry_Int_Tables_number   1
_chemical_formula_structural   UH17C10N2O9
_chemical_formula_sum   'U2 H34 C20 N4 O18'
_cell_volume   723.29274142
_cell_formula_units_Z   2
loop_
 _symmetry_equiv_pos_site_id
 _symmetry_equiv_pos_as_xyz
  1  'x, y, z'
loop_
 _atom_site_type_symbol
 _atom_site_label
 _atom_site_symmetry_multiplicity
 _atom_site_fract_x
 _atom_site_fract_y
 _atom_site_fract_z
 _atom_site_occupancy
  U  U0  1  0.81682000  0.55945000  0.78169000  1.0
  U  U1  1  0.18316000  0.44055000  0.21831000  1.0
  H  H2  1  0.73798000  0.71129000  0.98666000  1.0
  H  H3  1  0.26201000  0.28871000  0.01334000  1.0
  H  H4  1  0.57238000  0.64191000  0.00116000  1.0
  H  H5  1  0.42762000  0.35809000  0.99884000  1.0
  H  H6  1  0.59916000  0.08021000  0.23785000  1.0
  H  H7  1  0.40084000  0.91979000  0.76214000  1.0
  H  H8  1  0.81097000  0.16635000  0.55254000  1.0
  H  H9  1  0.18903000  0.83365000  0.44746000  1.0
  H  H10  1  0.68556000  0.35649000  0.52819000  1.0
  H  H11  1  0.31444000  0.64351000  0.47181000  1.0
  H  H12  1  0.54116000  0.24179000  0.39088000  1.0
  H  H13  1  0.45884000  0.75821000  0.60912000  1.0
  H  H14  1  0.74008000  0.29689000  0.32436000  1.0
  H  H15  1  0.25992000  0.70311000  0.67564000  1.0
  H  H16  1  0.85562000  0.99614000  0.39763000  1.0
  H  H17  1  0.14438000  0.00386000  0.60237000  1.0
  H  H18  1  0.65354000  0.94536000  0.46480000  1.0
  H  H19  1  0.34646000  0.05464000  0.53520000  1.0
  H  H20  1  0.84721000  0.78985000  0.25793000  1.0
  H  H21  1  0.15279000  0.21015000  0.74207000  1.0
  H  H22  1  0.71848000  0.86604000  0.14076000  1.0
  H  H23  1  0.28152000  0.13396000  0.85924000  1.0
  H  H24  1  0.40463000  0.35966000  0.68795000  1.0
  H  H25  1  0.59537000  0.64034000  0.31205000  1.0
  H  H26  1  0.37988000  0.28480000  0.55853000  1.0
  H  H27  1  0.62012000  0.71521000  0.44147000  1.0
  H  H28  1  0.52742000  0.12142000  0.85775000  1.0
  H  H29  1  0.47258000  0.87858000  0.14225000  1.0
  H  H30  1  0.70964000  0.20251000  0.77077000  1.0
  H  H31  1  0.29036000  0.79749000  0.22923000  1.0
  H  H32  1  0.93329000  0.02993000  0.10733000  1.0
  H  H33  1  0.06672000  0.97007000  0.89268000  1.0
  H  H34  1  0.88843000  0.19770000  0.17805000  1.0
  H  H35  1  0.11157000  0.80230000  0.82195000  1.0
  C  C36  1  0.68874000  0.22438000  0.53561000  1.0
  C  C37  1  0.31126000  0.77562000  0.46439000  1.0
  C  C38  1  0.66888000  0.20730000  0.40341000  1.0
  C  C39  1  0.33112000  0.79270000  0.59659000  1.0
  C  C40  1  0.72732000  0.03452000  0.38885000  1.0
  C  C41  1  0.27268000  0.96548000  0.61115000  1.0
  C  C42  1  0.72523000  0.85062000  0.24397000  1.0
  C  C43  1  0.27477000  0.14938000  0.75603000  1.0
  C  C44  1  0.40807000  0.24593000  0.65813000  1.0
  C  C45  1  0.59192000  0.75407000  0.34187000  1.0
  C  C46  1  0.62939000  0.11312000  0.77389000  1.0
  C  C47  1  0.37061000  0.88688000  0.22611000  1.0
  C  C48  1  0.71866000  0.94206000  0.81676000  1.0
  C  C49  1  0.28134000  0.05793000  0.18325000  1.0
  C  C50  1  0.83387000  0.11586000  0.14364000  1.0
  C  C51  1  0.16613000  0.88414000  0.85636000  1.0
  C  C52  1  0.74682000  0.22244000  0.03418000  1.0
  C  C53  1  0.25319000  0.77757000  0.96581000  1.0
  C  C54  1  0.98359000  0.59213000  0.46735000  1.0
  C  C55  1  0.01642000  0.40786000  0.53264000  1.0
  N  N56  1  0.56875000  0.14880000  0.65153000  1.0
  N  N57  1  0.43125000  0.85120000  0.34847000  1.0
  N  N58  1  0.71401000  0.02285000  0.25557000  1.0
  N  N59  1  0.28600000  0.97715000  0.74443000  1.0
  O  O60  1  0.01418000  0.59371000  0.79913000  1.0
  O  O61  1  0.98583000  0.40629000  0.20088000  1.0
  O  O62  1  0.62243000  0.52699000  0.75736000  1.0
  O  O63  1  0.37758000  0.47300000  0.24264000  1.0
  O  O64  1  0.73335000  0.84250000  0.74488000  1.0
  O  O65  1  0.26665000  0.15750000  0.25512000  1.0
  O  O66  1  0.76850000  0.90466000  0.92423000  1.0
  O  O67  1  0.23150000  0.09534000  0.07577000  1.0
  O  O68  1  0.84204000  0.29877000  0.93071000  1.0
  O  O69  1  0.15796000  0.70124000  0.06929000  1.0
  O  O70  1  0.59417000  0.23139000  0.05545000  1.0
  O  O71  1  0.40583000  0.76861000  0.94454000  1.0
  O  O72  1  0.90135000  0.67983000  0.54162000  1.0
  O  O73  1  0.09864000  0.32017000  0.45838000  1.0
  O  O74  1  0.04172000  0.64046000  0.34441000  1.0
  O  O75  1  0.95828000  0.35954000  0.65560000  1.0
  O  O76  1  0.69203000  0.60611000  0.99631000  1.0
  O  O77  1  0.30797000  0.39389000  0.00369000  1.0
