# generated using pymatgen
data_KH7C7(N2O)4
_symmetry_space_group_name_H-M   'P 1'
_cell_length_a   9.33906000
_cell_length_b   9.38415000
_cell_length_c   13.88340000
_cell_angle_alpha   90.00000000
_cell_angle_beta   90.00000000
_cell_angle_gamma   111.21600000
_symmetry_Int_Tables_number   1
_chemical_formula_structural   KH7C7(N2O)4
_chemical_formula_sum   'K4 H28 C28 N32 O16'
_cell_volume   1134.26271013
_cell_formula_units_Z   4
loop_
 _symmetry_equiv_pos_site_id
 _symmetry_equiv_pos_as_xyz
  1  'x, y, z'
loop_
 _atom_site_type_symbol
 _atom_site_label
 _atom_site_symmetry_multiplicity
 _atom_site_fract_x
 _atom_site_fract_y
 _atom_site_fract_z
 _atom_site_occupancy
  K  K0  1  0.42362000  0.26762000  0.01498000  1.0
  K  K1  1  0.07638000  0.73239000  0.51499000  1.0
  K  K2  1  0.57638000  0.73239000  0.98501000  1.0
  K  K3  1  0.92361000  0.26761000  0.48501000  1.0
  H  H4  1  0.18026000  0.58783000  0.11994000  1.0
  H  H5  1  0.31974000  0.41217000  0.61994000  1.0
  H  H6  1  0.81974000  0.41217000  0.88006000  1.0
  H  H7  1  0.68026000  0.58783000  0.38006000  1.0
  H  H8  1  0.06363000  0.26415000  0.06152000  1.0
  H  H9  1  0.43637000  0.73585000  0.56152000  1.0
  H  H10  1  0.93637000  0.73585000  0.93848000  1.0
  H  H11  1  0.56363000  0.26414000  0.43848000  1.0
  H  H12  1  0.02901000  0.31057000  0.18121000  1.0
  H  H13  1  0.47099000  0.68943000  0.68121000  1.0
  H  H14  1  0.97099000  0.68943000  0.81879000  1.0
  H  H15  1  0.52901000  0.31057000  0.31879000  1.0
  H  H16  1  0.88894000  0.29391000  0.08911000  1.0
  H  H17  1  0.61106000  0.70609000  0.58911000  1.0
  H  H18  1  0.11106000  0.70609000  0.91089000  1.0
  H  H19  1  0.38894000  0.29391000  0.41089000  1.0
  H  H20  1  0.69411000  0.92503000  0.19418000  1.0
  H  H21  1  0.80589000  0.07497000  0.69418000  1.0
  H  H22  1  0.30589000  0.07497000  0.80582000  1.0
  H  H23  1  0.19411000  0.92503000  0.30582000  1.0
  H  H24  1  0.66450000  0.05860000  0.11225000  1.0
  H  H25  1  0.83550000  0.94140000  0.61225000  1.0
  H  H26  1  0.33550000  0.94140000  0.88775000  1.0
  H  H27  1  0.16450000  0.05860000  0.38775000  1.0
  H  H28  1  0.73346000  0.11954000  0.23057000  1.0
  H  H29  1  0.76654000  0.88046000  0.73057000  1.0
  H  H30  1  0.26654000  0.88046000  0.76943000  1.0
  H  H31  1  0.23346000  0.11954000  0.26943000  1.0
  C  C32  1  0.20564000  0.70882000  0.10852000  1.0
  C  C33  1  0.29436000  0.29118000  0.60852000  1.0
  C  C34  1  0.79436000  0.29118000  0.89148000  1.0
  C  C35  1  0.70564000  0.70882000  0.39148000  1.0
  C  C36  1  0.18145000  0.93384000  0.09686000  1.0
  C  C37  1  0.31855000  0.06616000  0.59686000  1.0
  C  C38  1  0.81855000  0.06616000  0.90314000  1.0
  C  C39  1  0.68145000  0.93384000  0.40314000  1.0
  C  C40  1  0.97000000  0.98898000  0.13114000  1.0
  C  C41  1  0.53000000  0.01102000  0.63114000  1.0
  C  C42  1  0.03000000  0.01102000  0.86886000  1.0
  C  C43  1  0.47000000  0.98898000  0.36886000  1.0
  C  C44  1  0.95289000  0.73894000  0.15514000  1.0
  C  C45  1  0.54711000  0.26106000  0.65514000  1.0
  C  C46  1  0.04711000  0.26106000  0.84486000  1.0
  C  C47  1  0.45289000  0.73894000  0.34486000  1.0
  C  C48  1  0.86861000  0.57985000  0.18532000  1.0
  C  C49  1  0.63139000  0.42015000  0.68532000  1.0
  C  C50  1  0.13139000  0.42015000  0.81468000  1.0
  C  C51  1  0.36861000  0.57985000  0.31468000  1.0
  C  C52  1  0.97436000  0.24857000  0.11572000  1.0
  C  C53  1  0.52564000  0.75143000  0.61572000  1.0
  C  C54  1  0.02564000  0.75143000  0.88428000  1.0
  C  C55  1  0.47436000  0.24857000  0.38428000  1.0
  C  C56  1  0.73724000  0.04424000  0.17089000  1.0
  C  C57  1  0.76276000  0.95576000  0.67089000  1.0
  C  C58  1  0.26276000  0.95576000  0.82911000  1.0
  C  C59  1  0.23724000  0.04424000  0.32911000  1.0
  N  N60  1  0.10237000  0.78073000  0.12297000  1.0
  N  N61  1  0.39763000  0.21928000  0.62297000  1.0
  N  N62  1  0.89763000  0.21928000  0.87703000  1.0
  N  N63  1  0.60237000  0.78072000  0.37703000  1.0
  N  N64  1  0.11648000  0.03945000  0.10027000  1.0
  N  N65  1  0.38352000  0.96055000  0.60027000  1.0
  N  N66  1  0.88352000  0.96055000  0.89973000  1.0
  N  N67  1  0.61648000  0.03945000  0.39973000  1.0
  N  N68  1  0.32339000  0.95102000  0.06965000  1.0
  N  N69  1  0.17661000  0.04898000  0.56965000  1.0
  N  N70  1  0.67661000  0.04898000  0.93035000  1.0
  N  N71  1  0.82339000  0.95102000  0.43035000  1.0
  N  N72  1  0.88737000  0.83959000  0.15872000  1.0
  N  N73  1  0.61263000  0.16041000  0.65872000  1.0
  N  N74  1  0.11263000  0.16041000  0.84128000  1.0
  N  N75  1  0.38737000  0.83959000  0.34128000  1.0
  N  N76  1  0.33576000  0.80873000  0.07652000  1.0
  N  N77  1  0.16424000  0.19127000  0.57652000  1.0
  N  N78  1  0.66424000  0.19127000  0.92348000  1.0
  N  N79  1  0.83576000  0.80873000  0.42348000  1.0
  N  N80  1  0.74717000  0.48920000  0.12916000  1.0
  N  N81  1  0.75283000  0.51081000  0.62916000  1.0
  N  N82  1  0.25283000  0.51080000  0.87084000  1.0
  N  N83  1  0.24717000  0.48919000  0.37084000  1.0
  N  N84  1  0.90745000  0.53508000  0.27411000  1.0
  N  N85  1  0.59255000  0.46492000  0.77411000  1.0
  N  N86  1  0.09255000  0.46492000  0.72589000  1.0
  N  N87  1  0.40745000  0.53508000  0.22589000  1.0
  N  N88  1  0.89518000  0.08730000  0.13717000  1.0
  N  N89  1  0.60482000  0.91270000  0.63717000  1.0
  N  N90  1  0.10482000  0.91270000  0.86283000  1.0
  N  N91  1  0.39518000  0.08730000  0.36283000  1.0
  O  O92  1  0.73630000  0.54107000  0.04569000  1.0
  O  O93  1  0.76370000  0.45893000  0.54569000  1.0
  O  O94  1  0.26369000  0.45893000  0.95431000  1.0
  O  O95  1  0.23630000  0.54107000  0.45431000  1.0
  O  O96  1  0.65483000  0.36255000  0.15732000  1.0
  O  O97  1  0.84517000  0.63745000  0.65732000  1.0
  O  O98  1  0.34517000  0.63745000  0.84268000  1.0
  O  O99  1  0.15483000  0.36255000  0.34268000  1.0
  O  O100  1  0.83591000  0.40770000  0.31144000  1.0
  O  O101  1  0.66409000  0.59230000  0.81144000  1.0
  O  O102  1  0.16409000  0.59230000  0.68856000  1.0
  O  O103  1  0.33591000  0.40770000  0.18856000  1.0
  O  O104  1  0.02273000  0.63441000  0.31445000  1.0
  O  O105  1  0.47727000  0.36560000  0.81445000  1.0
  O  O106  1  0.97727000  0.36560000  0.68555000  1.0
  O  O107  1  0.52273000  0.63440000  0.18555000  1.0
