# generated using pymatgen
data_ZnH16C26N4(ClO2)2
_symmetry_space_group_name_H-M   'P 1'
_cell_length_a   11.00340000
_cell_length_b   11.37360000
_cell_length_c   11.37360000
_cell_angle_alpha   110.18900000
_cell_angle_beta   99.79050000
_cell_angle_gamma   99.79090000
_symmetry_Int_Tables_number   1
_chemical_formula_structural   ZnH16C26N4(ClO2)2
_chemical_formula_sum   'Zn2 H32 C52 N8 Cl4 O8'
_cell_volume   1275.58006782
_cell_formula_units_Z   2
loop_
 _symmetry_equiv_pos_site_id
 _symmetry_equiv_pos_as_xyz
  1  'x, y, z'
loop_
 _atom_site_type_symbol
 _atom_site_label
 _atom_site_symmetry_multiplicity
 _atom_site_fract_x
 _atom_site_fract_y
 _atom_site_fract_z
 _atom_site_occupancy
  Zn  Zn0  1  0.75000000  0.77840000  0.22160000  1.0
  Zn  Zn1  1  0.25000000  0.22160000  0.77840000  1.0
  H  H2  1  0.96025000  0.02050000  0.37001000  1.0
  H  H3  1  0.53974000  0.62998000  0.97949000  1.0
  H  H4  1  0.03975000  0.97950000  0.62998000  1.0
  H  H5  1  0.46025000  0.37002000  0.02051000  1.0
  H  H6  1  0.99816000  0.25539000  0.41283000  1.0
  H  H7  1  0.50183000  0.58717000  0.74460000  1.0
  H  H8  1  0.00184000  0.74460000  0.58717000  1.0
  H  H9  1  0.49816000  0.41283000  0.25541000  1.0
  H  H10  1  0.61094000  0.18059000  0.19852000  1.0
  H  H11  1  0.88906000  0.80148000  0.81940000  1.0
  H  H12  1  0.38905000  0.81940000  0.80148000  1.0
  H  H13  1  0.11094000  0.19852000  0.18060000  1.0
  H  H14  1  0.58632000  0.94707000  0.16839000  1.0
  H  H15  1  0.91368000  0.83160000  0.05293000  1.0
  H  H16  1  0.41368000  0.05292000  0.83160000  1.0
  H  H17  1  0.08632000  0.16839000  0.94707000  1.0
  H  H18  1  0.73431000  0.40538000  0.32994000  1.0
  H  H19  1  0.76569000  0.67007000  0.59462000  1.0
  H  H20  1  0.26568000  0.59462000  0.67006000  1.0
  H  H21  1  0.23431000  0.32993000  0.40538000  1.0
  H  H22  1  0.89148000  0.43787000  0.42561000  1.0
  H  H23  1  0.60853000  0.57439000  0.56212000  1.0
  H  H24  1  0.10852000  0.56213000  0.57439000  1.0
  H  H25  1  0.39147000  0.42561000  0.43787000  1.0
  H  H26  1  0.65941000  0.37791000  0.89021000  1.0
  H  H27  1  0.84059000  0.10980000  0.62210000  1.0
  H  H28  1  0.34059000  0.62209000  0.10980000  1.0
  H  H29  1  0.15941000  0.89020000  0.37790000  1.0
  H  H30  1  0.25340000  0.55675000  0.27331000  1.0
  H  H31  1  0.24660000  0.72669000  0.44326000  1.0
  H  H32  1  0.74660000  0.44326000  0.72669000  1.0
  H  H33  1  0.75340000  0.27331000  0.55674000  1.0
  C  C34  1  0.88513000  0.05988000  0.33410000  1.0
  C  C35  1  0.61486000  0.66589000  0.94012000  1.0
  C  C36  1  0.11486000  0.94012000  0.66589000  1.0
  C  C37  1  0.38513000  0.33411000  0.05988000  1.0
  C  C38  1  0.90580000  0.19075000  0.35613000  1.0
  C  C39  1  0.59420000  0.64387000  0.80924000  1.0
  C  C40  1  0.09420000  0.80924000  0.64387000  1.0
  C  C41  1  0.40580000  0.35613000  0.19076000  1.0
  C  C42  1  0.80711000  0.23714000  0.30749000  1.0
  C  C43  1  0.69289000  0.69251000  0.76285000  1.0
  C  C44  1  0.19289000  0.76285000  0.69251000  1.0
  C  C45  1  0.30711000  0.30749000  0.23715000  1.0
  C  C46  1  0.69015000  0.14812000  0.23772000  1.0
  C  C47  1  0.80985000  0.76228000  0.85187000  1.0
  C  C48  1  0.30985000  0.85188000  0.76228000  1.0
  C  C49  1  0.19015000  0.23772000  0.14813000  1.0
  C  C50  1  0.67630000  0.01915000  0.22034000  1.0
  C  C51  1  0.82370000  0.77965000  0.98085000  1.0
  C  C52  1  0.32370000  0.98085000  0.77966000  1.0
  C  C53  1  0.17630000  0.22034000  0.01915000  1.0
  C  C54  1  0.82543000  0.37894000  0.33168000  1.0
  C  C55  1  0.67457000  0.66832000  0.62105000  1.0
  C  C56  1  0.17457000  0.62105000  0.66832000  1.0
  C  C57  1  0.32543000  0.33168000  0.37895000  1.0
  C  C58  1  0.79089000  0.39393000  0.11941000  1.0
  C  C59  1  0.70912000  0.88059000  0.60607000  1.0
  C  C60  1  0.20911000  0.60607000  0.88059000  1.0
  C  C61  1  0.29089000  0.11941000  0.39393000  1.0
  C  C62  1  0.84290000  0.43125000  0.02249000  1.0
  C  C63  1  0.65710000  0.97752000  0.56874000  1.0
  C  C64  1  0.15710000  0.56875000  0.97752000  1.0
  C  C65  1  0.34290000  0.02249000  0.43125000  1.0
  C  C66  1  0.97537000  0.48185000  0.04678000  1.0
  C  C67  1  0.52463000  0.95322000  0.51814000  1.0
  C  C68  1  0.02463000  0.51814000  0.95322000  1.0
  C  C69  1  0.47537000  0.04678000  0.48186000  1.0
  C  C70  1  0.05990000  0.49703000  0.16247000  1.0
  C  C71  1  0.44011000  0.83753000  0.50297000  1.0
  C  C72  1  0.94010000  0.50297000  0.83753000  1.0
  C  C73  1  0.55990000  0.16247000  0.49703000  1.0
  C  C74  1  0.01006000  0.45970000  0.26053000  1.0
  C  C75  1  0.48994000  0.73947000  0.54030000  1.0
  C  C76  1  0.98994000  0.54030000  0.73947000  1.0
  C  C77  1  0.51006000  0.26053000  0.45970000  1.0
  C  C78  1  0.76147000  0.41708000  0.90810000  1.0
  C  C79  1  0.73854000  0.09191000  0.58292000  1.0
  C  C80  1  0.23854000  0.58292000  0.09191000  1.0
  C  C81  1  0.26147000  0.90809000  0.41708000  1.0
  C  C82  1  0.18975000  0.54663000  0.18396000  1.0
  C  C83  1  0.31025000  0.81604000  0.45337000  1.0
  C  C84  1  0.81025000  0.45337000  0.81604000  1.0
  C  C85  1  0.68975000  0.18397000  0.54663000  1.0
  N  N86  1  0.77227000  0.97532000  0.26733000  1.0
  N  N87  1  0.72772000  0.73266000  0.02468000  1.0
  N  N88  1  0.22773000  0.02468000  0.73266000  1.0
  N  N89  1  0.27227000  0.26733000  0.97532000  1.0
  N  N90  1  0.87831000  0.41091000  0.23282000  1.0
  N  N91  1  0.62170000  0.76719000  0.58909000  1.0
  N  N92  1  0.12169000  0.58909000  0.76718000  1.0
  N  N93  1  0.37831000  0.23282000  0.41091000  1.0
  Cl  Cl94  1  0.93223000  0.75028000  0.31265000  1.0
  Cl  Cl95  1  0.56778000  0.68735000  0.24973000  1.0
  Cl  Cl96  1  0.06778000  0.24973000  0.68735000  1.0
  Cl  Cl97  1  0.43223000  0.31264000  0.75028000  1.0
  O  O98  1  0.67638000  0.34891000  0.10380000  1.0
  O  O99  1  0.82362000  0.89621000  0.65109000  1.0
  O  O100  1  0.32362000  0.65109000  0.89620000  1.0
  O  O101  1  0.17638000  0.10380000  0.34891000  1.0
  O  O102  1  0.08030000  0.46882000  0.36206000  1.0
  O  O103  1  0.41970000  0.63794000  0.53118000  1.0
  O  O104  1  0.91970000  0.53118000  0.63794000  1.0
  O  O105  1  0.58030000  0.36206000  0.46882000  1.0
