# generated using pymatgen
data_KSiBH19C7N
_symmetry_space_group_name_H-M   'P 1'
_cell_length_a   5.98220000
_cell_length_b   11.38920000
_cell_length_c   15.57210000
_cell_angle_alpha   89.99910000
_cell_angle_beta   90.00060000
_cell_angle_gamma   89.99970000
_symmetry_Int_Tables_number   1
_chemical_formula_structural   KSiBH19C7N
_chemical_formula_sum   'K4 Si4 B4 H76 C28 N4'
_cell_volume   1060.96567076
_cell_formula_units_Z   4
loop_
 _symmetry_equiv_pos_site_id
 _symmetry_equiv_pos_as_xyz
  1  'x, y, z'
loop_
 _atom_site_type_symbol
 _atom_site_label
 _atom_site_symmetry_multiplicity
 _atom_site_fract_x
 _atom_site_fract_y
 _atom_site_fract_z
 _atom_site_occupancy
  K  K0  1  0.54272000  0.19546000  0.41434000  1.0
  K  K1  1  0.95730000  0.80453000  0.91434000  1.0
  K  K2  1  0.45725000  0.69544000  0.08566000  1.0
  K  K3  1  0.04273000  0.30454000  0.58565000  1.0
  Si  Si4  1  0.12295000  0.03279000  0.28577000  1.0
  Si  Si5  1  0.37707000  0.96722000  0.78578000  1.0
  Si  Si6  1  0.87708000  0.53278000  0.21423000  1.0
  Si  Si7  1  0.62292000  0.46723000  0.71422000  1.0
  B  B8  1  0.08213000  0.10245000  0.45894000  1.0
  B  B9  1  0.41786000  0.89754000  0.95894000  1.0
  B  B10  1  0.91785000  0.60244000  0.04106000  1.0
  B  B11  1  0.58212000  0.39756000  0.54106000  1.0
  H  H12  1  0.39523000  0.92495000  0.47944000  1.0
  H  H13  1  0.10478000  0.07506000  0.97944000  1.0
  H  H14  1  0.60475000  0.42492000  0.02058000  1.0
  H  H15  1  0.89522000  0.57507000  0.52055000  1.0
  H  H16  1  0.22521000  0.13201000  0.51392000  1.0
  H  H17  1  0.27477000  0.86799000  0.01393000  1.0
  H  H18  1  0.77475000  0.63200000  0.98608000  1.0
  H  H19  1  0.72520000  0.36800000  0.48608000  1.0
  H  H20  1  0.34280000  0.85199000  0.38126000  1.0
  H  H21  1  0.15721000  0.14802000  0.88126000  1.0
  H  H22  1  0.65722000  0.35198000  0.11876000  1.0
  H  H23  1  0.84277000  0.64803000  0.61873000  1.0
  H  H24  1  0.13170000  0.75907000  0.49906000  1.0
  H  H25  1  0.36833000  0.24092000  0.99907000  1.0
  H  H26  1  0.86830000  0.25905000  0.00097000  1.0
  H  H27  1  0.63170000  0.74093000  0.50093000  1.0
  H  H28  1  0.01793000  0.19461000  0.42313000  1.0
  H  H29  1  0.48204000  0.80538000  0.92314000  1.0
  H  H30  1  0.98206000  0.69460000  0.07686000  1.0
  H  H31  1  0.51792000  0.30540000  0.57687000  1.0
  H  H32  1  0.94246000  0.82376000  0.42536000  1.0
  H  H33  1  0.55756000  0.17624000  0.92537000  1.0
  H  H34  1  0.05754000  0.32375000  0.07466000  1.0
  H  H35  1  0.44245000  0.67626000  0.57463000  1.0
  H  H36  1  0.09973000  0.93383000  0.59441000  1.0
  H  H37  1  0.40027000  0.06616000  0.09442000  1.0
  H  H38  1  0.90023000  0.43379000  0.90560000  1.0
  H  H39  1  0.59971000  0.56618000  0.40558000  1.0
  H  H40  1  0.83707000  0.86683000  0.57875000  1.0
  H  H41  1  0.66296000  0.13315000  0.07876000  1.0
  H  H42  1  0.16290000  0.36681000  0.92125000  1.0
  H  H43  1  0.33705000  0.63317000  0.42124000  1.0
  H  H44  1  0.80723000  0.08547000  0.56412000  1.0
  H  H45  1  0.69277000  0.91450000  0.06413000  1.0
  H  H46  1  0.19270000  0.58546000  0.93586000  1.0
  H  H47  1  0.30722000  0.41453000  0.43588000  1.0
  H  H48  1  0.74118000  0.01150000  0.46793000  1.0
  H  H49  1  0.75881000  0.98848000  0.96794000  1.0
  H  H50  1  0.25880000  0.51149000  0.03205000  1.0
  H  H51  1  0.24117000  0.48851000  0.53206000  1.0
  H  H52  1  0.40775000  0.17790000  0.22933000  1.0
  H  H53  1  0.09230000  0.82210000  0.72933000  1.0
  H  H54  1  0.59231000  0.67792000  0.27067000  1.0
  H  H55  1  0.90770000  0.32211000  0.77066000  1.0
  H  H56  1  0.18369000  0.24974000  0.28431000  1.0
  H  H57  1  0.31635000  0.75026000  0.78432000  1.0
  H  H58  1  0.81636000  0.74975000  0.21568000  1.0
  H  H59  1  0.68364000  0.25027000  0.71568000  1.0
  H  H60  1  0.14673000  0.19672000  0.17877000  1.0
  H  H61  1  0.35332000  0.80328000  0.67878000  1.0
  H  H62  1  0.85333000  0.69673000  0.32122000  1.0
  H  H63  1  0.64668000  0.30329000  0.82123000  1.0
  H  H64  1  0.20066000  0.91617000  0.15431000  1.0
  H  H65  1  0.29935000  0.08385000  0.65430000  1.0
  H  H66  1  0.79938000  0.41616000  0.34571000  1.0
  H  H67  1  0.70063000  0.58384000  0.84569000  1.0
  H  H68  1  0.16914000  0.82266000  0.24491000  1.0
  H  H69  1  0.33087000  0.17735000  0.74491000  1.0
  H  H70  1  0.83088000  0.32265000  0.25510000  1.0
  H  H71  1  0.66912000  0.67736000  0.75508000  1.0
  H  H72  1  0.42450000  0.90090000  0.22913000  1.0
  H  H73  1  0.07552000  0.09910000  0.72913000  1.0
  H  H74  1  0.57553000  0.40089000  0.27089000  1.0
  H  H75  1  0.92447000  0.59911000  0.77086000  1.0
  H  H76  1  0.71812000  0.97934000  0.31209000  1.0
  H  H77  1  0.78191000  0.02068000  0.81210000  1.0
  H  H78  1  0.28191000  0.47931000  0.18790000  1.0
  H  H79  1  0.21808000  0.52069000  0.68790000  1.0
  H  H80  1  0.74402000  0.12277000  0.26645000  1.0
  H  H81  1  0.75601000  0.87726000  0.76646000  1.0
  H  H82  1  0.25603000  0.62274000  0.23354000  1.0
  H  H83  1  0.24397000  0.37727000  0.73354000  1.0
  H  H84  1  0.77286000  0.99870000  0.20091000  1.0
  H  H85  1  0.72718000  0.00135000  0.70092000  1.0
  H  H86  1  0.22720000  0.49865000  0.29908000  1.0
  H  H87  1  0.27279000  0.50134000  0.79908000  1.0
  C  C88  1  0.26515000  0.90893000  0.43002000  1.0
  C  C89  1  0.23486000  0.09107000  0.93002000  1.0
  C  C90  1  0.73486000  0.40891000  0.06999000  1.0
  C  C91  1  0.76513000  0.59108000  0.56997000  1.0
  C  C92  1  0.07197000  0.84365000  0.47379000  1.0
  C  C93  1  0.42804000  0.15634000  0.97380000  1.0
  C  C94  1  0.92802000  0.34364000  0.02622000  1.0
  C  C95  1  0.57196000  0.65635000  0.52620000  1.0
  C  C96  1  0.96949000  0.91702000  0.54594000  1.0
  C  C97  1  0.53052000  0.08297000  0.04595000  1.0
  C  C98  1  0.03049000  0.41700000  0.95407000  1.0
  C  C99  1  0.46947000  0.58298000  0.45405000  1.0
  C  C100  1  0.88226000  0.03416000  0.51087000  1.0
  C  C101  1  0.61774000  0.96582000  0.01087000  1.0
  C  C102  1  0.11770000  0.53414000  0.98913000  1.0
  C  C103  1  0.38225000  0.46585000  0.48913000  1.0
  C  C104  1  0.22656000  0.17712000  0.24076000  1.0
  C  C105  1  0.27349000  0.82288000  0.74076000  1.0
  C  C106  1  0.77351000  0.67713000  0.25924000  1.0
  C  C107  1  0.72650000  0.32289000  0.75924000  1.0
  C  C108  1  0.24192000  0.90588000  0.22275000  1.0
  C  C109  1  0.25810000  0.09413000  0.72275000  1.0
  C  C110  1  0.75811000  0.40587000  0.27726000  1.0
  C  C111  1  0.74188000  0.59414000  0.77724000  1.0
  C  C112  1  0.81051000  0.03288000  0.26534000  1.0
  C  C113  1  0.68952000  0.96715000  0.76535000  1.0
  C  C114  1  0.18953000  0.53284000  0.23465000  1.0
  C  C115  1  0.31047000  0.46715000  0.73464000  1.0
  N  N116  1  0.19867000  0.02173000  0.39249000  1.0
  N  N117  1  0.30133000  0.97827000  0.89249000  1.0
  N  N118  1  0.80131000  0.52172000  0.10752000  1.0
  N  N119  1  0.69866000  0.47828000  0.60751000  1.0
