# generated using pymatgen
data_Mn2H3C9O6F
_symmetry_space_group_name_H-M   'P 1'
_cell_length_a   5.22177000
_cell_length_b   9.72261000
_cell_length_c   11.02000000
_cell_angle_alpha   115.19600000
_cell_angle_beta   102.02000000
_cell_angle_gamma   93.73280000
_symmetry_Int_Tables_number   1
_chemical_formula_structural   Mn2H3C9O6F
_chemical_formula_sum   'Mn4 H6 C18 O12 F2'
_cell_volume   487.61688896
_cell_formula_units_Z   2
loop_
 _symmetry_equiv_pos_site_id
 _symmetry_equiv_pos_as_xyz
  1  'x, y, z'
loop_
 _atom_site_type_symbol
 _atom_site_label
 _atom_site_symmetry_multiplicity
 _atom_site_fract_x
 _atom_site_fract_y
 _atom_site_fract_z
 _atom_site_occupancy
  Mn  Mn0  1  0.07915000  0.20956000  0.11181000  1.0
  Mn  Mn1  1  0.53232000  0.90223000  0.11166000  1.0
  Mn  Mn2  1  0.92085000  0.79044000  0.88819000  1.0
  Mn  Mn3  1  0.46768000  0.09777000  0.88834000  1.0
  H  H4  1  0.71071000  0.46068000  0.92151000  1.0
  H  H5  1  0.28929000  0.53932000  0.07849000  1.0
  H  H6  1  0.79276000  0.11141000  0.53346000  1.0
  H  H7  1  0.24076000  0.42190000  0.53334000  1.0
  H  H8  1  0.20724000  0.88859000  0.46655000  1.0
  H  H9  1  0.75924000  0.57810000  0.46666000  1.0
  C  C10  1  0.43162000  0.18161000  0.36338000  1.0
  C  C11  1  0.56838000  0.81839000  0.63662000  1.0
  C  C12  1  0.94725000  0.21552000  0.81725000  1.0
  C  C13  1  0.37035000  0.60171000  0.81720000  1.0
  C  C14  1  0.05275000  0.78448000  0.18275000  1.0
  C  C15  1  0.62965000  0.39829000  0.18280000  1.0
  C  C16  1  0.50934000  0.25929000  0.51874000  1.0
  C  C17  1  0.49066000  0.74071000  0.48126000  1.0
  C  C18  1  0.65413000  0.40407000  0.80823000  1.0
  C  C19  1  0.34587000  0.59593000  0.19177000  1.0
  C  C20  1  0.70083000  0.20756000  0.59110000  1.0
  C  C21  1  0.39036000  0.38345000  0.59105000  1.0
  C  C22  1  0.29918000  0.79244000  0.40890000  1.0
  C  C23  1  0.60964000  0.61655000  0.40896000  1.0
  C  C24  1  0.76563000  0.27659000  0.73615000  1.0
  C  C25  1  0.47063000  0.45950000  0.73609000  1.0
  C  C26  1  0.23438000  0.72341000  0.26386000  1.0
  C  C27  1  0.52937000  0.54050000  0.26391000  1.0
  O  O28  1  0.24778000  0.22800000  0.30279000  1.0
  O  O29  1  0.55502000  0.07470000  0.30278000  1.0
  O  O30  1  0.75222000  0.77200000  0.69722000  1.0
  O  O31  1  0.44498000  0.92530000  0.69722000  1.0
  O  O32  1  0.87076000  0.20894000  0.91992000  1.0
  O  O33  1  0.54956000  0.71098000  0.91983000  1.0
  O  O34  1  0.12924000  0.79106000  0.08008000  1.0
  O  O35  1  0.45044000  0.28902000  0.08017000  1.0
  O  O36  1  0.15692000  0.17458000  0.78539000  1.0
  O  O37  1  0.12883000  0.61084000  0.78544000  1.0
  O  O38  1  0.84308000  0.82542000  0.21461000  1.0
  O  O39  1  0.87117000  0.38916000  0.21456000  1.0
  F  F40  1  0.76439000  0.01468000  0.02901000  1.0
  F  F41  1  0.23561000  0.98532000  0.97099000  1.0
