# generated using pymatgen
data_Cu2H56Ru(C15N7)2
_symmetry_space_group_name_H-M   'P 1'
_cell_length_a   12.81550000
_cell_length_b   12.81540000
_cell_length_c   15.32620000
_cell_angle_alpha   67.54430000
_cell_angle_beta   67.54470000
_cell_angle_gamma   87.00410000
_symmetry_Int_Tables_number   1
_chemical_formula_structural   Cu2H56Ru(C15N7)2
_chemical_formula_sum   'Cu4 H112 Ru2 C60 N28'
_cell_volume   2136.91125348
_cell_formula_units_Z   2
loop_
 _symmetry_equiv_pos_site_id
 _symmetry_equiv_pos_as_xyz
  1  'x, y, z'
loop_
 _atom_site_type_symbol
 _atom_site_label
 _atom_site_symmetry_multiplicity
 _atom_site_fract_x
 _atom_site_fract_y
 _atom_site_fract_z
 _atom_site_occupancy
  Cu  Cu0  1  0.14908000  0.83858000  0.76342000  1.0
  Cu  Cu1  1  0.16142000  0.85091000  0.23658000  1.0
  Cu  Cu2  1  0.15610000  0.33795000  0.25426000  1.0
  Cu  Cu3  1  0.66204000  0.84390000  0.74574000  1.0
  H  H4  1  0.02374000  0.95352000  0.91071000  1.0
  H  H5  1  0.04649000  0.97625000  0.08929000  1.0
  H  H6  1  0.01639000  0.98475000  0.71224000  1.0
  H  H7  1  0.01525000  0.98360000  0.28776000  1.0
  H  H8  1  0.94281000  0.88693000  0.82595000  1.0
  H  H9  1  0.11308000  0.05718000  0.17405000  1.0
  H  H10  1  0.97322000  0.15439000  0.74737000  1.0
  H  H11  1  0.84563000  0.02678000  0.25260000  1.0
  H  H12  1  0.87564000  0.07196000  0.87197000  1.0
  H  H13  1  0.92806000  0.12436000  0.12801000  1.0
  H  H14  1  0.31424000  0.97740000  0.72987000  1.0
  H  H15  1  0.02260000  0.68575000  0.27013000  1.0
  H  H16  1  0.23431000  0.91539000  0.85173000  1.0
  H  H17  1  0.08462000  0.76568000  0.14827000  1.0
  H  H18  1  0.97691000  0.14204000  0.95106000  1.0
  H  H19  1  0.85798000  0.02308000  0.04892000  1.0
  H  H20  1  0.94697000  0.25883000  0.85953000  1.0
  H  H21  1  0.74119000  0.05304000  0.14044000  1.0
  H  H22  1  0.03277000  0.65655000  0.83598000  1.0
  H  H23  1  0.34345000  0.96723000  0.16403000  1.0
  H  H24  1  0.99605000  0.73842000  0.73974000  1.0
  H  H25  1  0.26158000  0.00395000  0.26026000  1.0
  H  H26  1  0.14444000  0.28280000  0.73368000  1.0
  H  H27  1  0.71720000  0.85557000  0.26632000  1.0
  H  H28  1  0.14540000  0.28119000  0.84898000  1.0
  H  H29  1  0.71881000  0.85460000  0.15102000  1.0
  H  H30  1  0.32626000  0.81114000  0.64454000  1.0
  H  H31  1  0.18886000  0.67373000  0.35547000  1.0
  H  H32  1  0.33828000  0.74765000  0.75799000  1.0
  H  H33  1  0.25234000  0.66171000  0.24202000  1.0
  H  H34  1  0.18597000  0.07821000  0.90079000  1.0
  H  H35  1  0.92179000  0.81403000  0.09922000  1.0
  H  H36  1  0.28829000  0.16155000  0.77858000  1.0
  H  H37  1  0.83845000  0.71171000  0.22143000  1.0
  H  H38  1  0.18355000  0.10331000  0.69409000  1.0
  H  H39  1  0.89670000  0.81645000  0.30590000  1.0
  H  H40  1  0.17522000  0.73130000  0.61503000  1.0
  H  H41  1  0.26870000  0.82478000  0.38497000  1.0
  H  H42  1  0.06457000  0.49242000  0.77107000  1.0
  H  H43  1  0.50758000  0.93543000  0.22893000  1.0
  H  H44  1  0.03190000  0.57873000  0.66415000  1.0
  H  H45  1  0.42128000  0.96811000  0.33585000  1.0
  H  H46  1  0.23918000  0.31643000  0.08161000  1.0
  H  H47  1  0.68356000  0.76081000  0.91840000  1.0
  H  H48  1  0.21590000  0.44868000  0.06128000  1.0
  H  H49  1  0.55132000  0.78410000  0.93872000  1.0
  H  H50  1  0.22567000  0.57857000  0.54459000  1.0
  H  H51  1  0.42145000  0.77433000  0.45541000  1.0
  H  H52  1  0.16279000  0.43791000  0.62201000  1.0
  H  H53  1  0.56210000  0.83721000  0.37798000  1.0
  H  H54  1  0.95242000  0.23424000  0.31577000  1.0
  H  H55  1  0.76575000  0.04758000  0.68423000  1.0
  H  H56  1  0.94117000  0.35495000  0.33233000  1.0
  H  H57  1  0.64505000  0.05883000  0.66768000  1.0
  H  H58  1  0.26654000  0.41913000  0.73485000  1.0
  H  H59  1  0.58087000  0.73347000  0.26514000  1.0
  H  H60  1  0.36393000  0.45917000  0.60668000  1.0
  H  H61  1  0.54084000  0.63607000  0.39332000  1.0
  H  H62  1  0.06151000  0.27145000  0.45614000  1.0
  H  H63  1  0.72854000  0.93850000  0.54386000  1.0
  H  H64  1  0.11876000  0.40700000  0.39005000  1.0
  H  H65  1  0.59299000  0.88123000  0.60995000  1.0
  H  H66  1  0.40328000  0.56861000  0.70058000  1.0
  H  H67  1  0.43139000  0.59672000  0.29942000  1.0
  H  H68  1  0.38616000  0.65727000  0.58615000  1.0
  H  H69  1  0.34274000  0.61384000  0.41385000  1.0
  H  H70  1  0.37141000  0.43620000  0.16244000  1.0
  H  H71  1  0.56379000  0.62858000  0.83756000  1.0
  H  H72  1  0.35904000  0.29399000  0.21387000  1.0
  H  H73  1  0.70600000  0.64096000  0.78614000  1.0
  H  H74  1  0.21701000  0.58730000  0.80757000  1.0
  H  H75  1  0.41270000  0.78300000  0.19243000  1.0
  H  H76  1  0.24166000  0.20330000  0.41861000  1.0
  H  H77  1  0.79670000  0.75834000  0.58140000  1.0
  H  H78  1  0.16249000  0.24361000  0.57571000  1.0
  H  H79  1  0.75638000  0.83751000  0.42429000  1.0
  H  H80  1  0.22701000  0.38560000  0.50446000  1.0
  H  H81  1  0.61439000  0.77300000  0.49554000  1.0
  H  H82  1  0.35473000  0.17336000  0.52994000  1.0
  H  H83  1  0.82663000  0.64527000  0.47007000  1.0
  H  H84  1  0.34887000  0.26786000  0.59088000  1.0
  H  H85  1  0.73214000  0.65114000  0.40912000  1.0
  H  H86  1  0.44724000  0.42614000  0.42389000  1.0
  H  H87  1  0.57386000  0.55275000  0.57611000  1.0
  H  H88  1  0.53012000  0.31103000  0.43351000  1.0
  H  H89  1  0.68897000  0.46988000  0.56650000  1.0
  H  H90  1  0.46383000  0.25433000  0.32495000  1.0
  H  H91  1  0.74567000  0.53617000  0.67506000  1.0
  H  H92  1  0.51741000  0.40083000  0.25951000  1.0
  H  H93  1  0.59916000  0.48259000  0.74049000  1.0
  H  H94  1  0.32443000  0.45702000  0.31089000  1.0
  H  H95  1  0.54298000  0.67558000  0.68911000  1.0
  H  H96  1  0.05662000  0.25120000  0.12758000  1.0
  H  H97  1  0.74880000  0.94338000  0.87242000  1.0
  H  H98  1  0.09220000  0.49722000  0.97276000  1.0
  H  H99  1  0.50278000  0.90780000  0.02724000  1.0
  H  H100  1  0.13951000  0.37902000  0.94121000  1.0
  H  H101  1  0.62098000  0.86049000  0.05879000  1.0
  H  H102  1  0.95560000  0.43039000  0.91911000  1.0
  H  H103  1  0.56962000  0.04441000  0.08088000  1.0
  H  H104  1  0.93769000  0.29329000  0.01392000  1.0
  H  H105  1  0.70672000  0.06232000  0.98607000  1.0
  H  H106  1  0.77769000  0.40027000  0.07534000  1.0
  H  H107  1  0.59973000  0.22232000  0.92465000  1.0
  H  H108  1  0.87441000  0.51096000  0.05187000  1.0
  H  H109  1  0.48904000  0.12558000  0.94813000  1.0
  H  H110  1  0.79563000  0.38518000  0.23765000  1.0
  H  H111  1  0.61482000  0.20437000  0.76235000  1.0
  H  H112  1  0.83942000  0.26451000  0.20963000  1.0
  H  H113  1  0.73548000  0.16058000  0.79037000  1.0
  H  H114  1  0.99684000  0.46958000  0.16071000  1.0
  H  H115  1  0.53041000  0.00315000  0.83929000  1.0
  Ru  Ru116  1  0.02361000  0.97638000  0.50000000  1.0
  Ru  Ru117  1  0.29912000  0.70089000  0.00000000  1.0
  C  C118  1  0.90321000  0.02272000  0.44227000  1.0
  C  C119  1  0.97728000  0.09679000  0.55773000  1.0
  C  C120  1  0.13098000  0.08137000  0.36045000  1.0
  C  C121  1  0.91863000  0.86902000  0.63955000  1.0
  C  C122  1  0.16085000  0.95489000  0.53884000  1.0
  C  C123  1  0.04510000  0.83912000  0.46118000  1.0
  C  C124  1  0.03968000  0.00983000  0.83049000  1.0
  C  C125  1  0.99018000  0.96032000  0.16950000  1.0
  C  C126  1  0.96534000  0.10724000  0.82710000  1.0
  C  C127  1  0.89277000  0.03467000  0.17289000  1.0
  C  C128  1  0.99780000  0.18654000  0.86825000  1.0
  C  C129  1  0.81348000  0.00220000  0.13173000  1.0
  C  C130  1  0.12432000  0.22829000  0.81477000  1.0
  C  C131  1  0.77172000  0.87568000  0.18523000  1.0
  C  C132  1  0.19746000  0.12976000  0.82063000  1.0
  C  C133  1  0.87024000  0.80253000  0.17937000  1.0
  C  C134  1  0.16619000  0.05413000  0.77581000  1.0
  C  C135  1  0.94587000  0.83380000  0.22418000  1.0
  C  C136  1  0.14698000  0.66466000  0.69327000  1.0
  C  C137  1  0.33535000  0.85301000  0.30674000  1.0
  C  C138  1  0.10053000  0.55826000  0.69243000  1.0
  C  C139  1  0.44175000  0.89947000  0.30757000  1.0
  C  C140  1  0.19608000  0.51397000  0.62369000  1.0
  C  C141  1  0.48604000  0.80392000  0.37631000  1.0
  C  C142  1  0.29516000  0.48891000  0.65847000  1.0
  C  C143  1  0.51109000  0.70485000  0.34152000  1.0
  C  C144  1  0.34172000  0.59261000  0.66419000  1.0
  C  C145  1  0.40740000  0.65828000  0.33581000  1.0
  C  C146  1  0.24763000  0.64504000  0.72592000  1.0
  C  C147  1  0.35496000  0.75237000  0.27408000  1.0
  C  C148  1  0.15798000  0.71833000  0.96860000  1.0
  C  C149  1  0.28166000  0.84205000  0.03141000  1.0
  C  C150  1  0.19299000  0.59989000  0.14270000  1.0
  C  C151  1  0.40011000  0.80702000  0.85730000  1.0
  C  C152  1  0.42026000  0.65324000  0.05923000  1.0
  C  C153  1  0.34676000  0.57976000  0.94077000  1.0
  C  C154  1  0.23571000  0.29175000  0.41250000  1.0
  C  C155  1  0.70825000  0.76429000  0.58750000  1.0
  C  C156  1  0.23667000  0.29772000  0.50955000  1.0
  C  C157  1  0.70227000  0.76333000  0.49045000  1.0
  C  C158  1  0.34834000  0.26283000  0.52091000  1.0
  C  C159  1  0.73716000  0.65166000  0.47909000  1.0
  C  C160  1  0.44984000  0.33877000  0.42677000  1.0
  C  C161  1  0.66122000  0.55017000  0.57323000  1.0
  C  C162  1  0.44906000  0.33936000  0.32661000  1.0
  C  C163  1  0.66063000  0.55095000  0.67339000  1.0
  C  C164  1  0.33526000  0.36868000  0.31771000  1.0
  C  C165  1  0.63131000  0.66474000  0.68229000  1.0
  C  C166  1  0.07172000  0.34390000  0.10337000  1.0
  C  C167  1  0.65610000  0.92828000  0.89663000  1.0
  C  C168  1  0.07148000  0.40554000  0.99620000  1.0
  C  C169  1  0.59446000  0.92852000  0.00380000  1.0
  C  C170  1  0.95512000  0.38396000  0.99625000  1.0
  C  C171  1  0.61605000  0.04488000  0.00375000  1.0
  C  C172  1  0.86098000  0.41843000  0.07472000  1.0
  C  C173  1  0.58157000  0.13902000  0.92527000  1.0
  C  C174  1  0.86089000  0.35678000  0.18239000  1.0
  C  C175  1  0.64322000  0.13911000  0.81762000  1.0
  C  C176  1  0.97736000  0.37823000  0.18204000  1.0
  C  C177  1  0.62176000  0.02264000  0.81796000  1.0
  N  N178  1  0.83920000  0.06018000  0.40186000  1.0
  N  N179  1  0.93981000  0.16078000  0.59815000  1.0
  N  N180  1  0.19349000  0.14132000  0.27645000  1.0
  N  N181  1  0.85868000  0.80649000  0.72355000  1.0
  N  N182  1  0.24329000  0.94976000  0.55698000  1.0
  N  N183  1  0.05025000  0.75671000  0.44299000  1.0
  N  N184  1  0.01873000  0.93683000  0.78266000  1.0
  N  N185  1  0.06318000  0.98127000  0.21734000  1.0
  N  N186  1  0.23128000  0.95552000  0.78063000  1.0
  N  N187  1  0.04448000  0.76872000  0.21937000  1.0
  N  N188  1  0.06363000  0.71282000  0.76079000  1.0
  N  N189  1  0.28718000  0.93636000  0.23922000  1.0
  N  N190  1  0.28641000  0.75506000  0.71948000  1.0
  N  N191  1  0.24494000  0.71358000  0.28052000  1.0
  N  N192  1  0.07169000  0.72291000  0.95634000  1.0
  N  N193  1  0.27708000  0.92834000  0.04366000  1.0
  N  N194  1  0.13041000  0.54466000  0.22806000  1.0
  N  N195  1  0.45533000  0.86960000  0.77194000  1.0
  N  N196  1  0.48005000  0.61311000  0.10348000  1.0
  N  N197  1  0.38690000  0.51994000  0.89655000  1.0
  N  N198  1  0.18101000  0.36602000  0.10838000  1.0
  N  N199  1  0.63398000  0.81899000  0.89163000  1.0
  N  N200  1  0.98597000  0.31827000  0.28255000  1.0
  N  N201  1  0.68172000  0.01403000  0.71745000  1.0
  N  N202  1  0.13074000  0.32513000  0.39608000  1.0
  N  N203  1  0.67486000  0.86927000  0.60392000  1.0
  N  N204  1  0.32677000  0.36456000  0.22539000  1.0
  N  N205  1  0.63544000  0.67323000  0.77461000  1.0
