# generated using pymatgen
data_Al2H17C33N5O13
_symmetry_space_group_name_H-M   'P 1'
_cell_length_a   6.70125000
_cell_length_b   21.87520000
_cell_length_c   24.37710000
_cell_angle_alpha   109.97000000
_cell_angle_beta   89.99070000
_cell_angle_gamma   89.99550000
_symmetry_Int_Tables_number   1
_chemical_formula_structural   Al2H17C33N5O13
_chemical_formula_sum   'Al4 H34 C66 N10 O26'
_cell_volume   3358.60086732
_cell_formula_units_Z   2
loop_
 _symmetry_equiv_pos_site_id
 _symmetry_equiv_pos_as_xyz
  1  'x, y, z'
loop_
 _atom_site_type_symbol
 _atom_site_label
 _atom_site_symmetry_multiplicity
 _atom_site_fract_x
 _atom_site_fract_y
 _atom_site_fract_z
 _atom_site_occupancy
  Al  Al0  1  0.09987000  0.50159000  0.50016000  1.0
  Al  Al1  1  0.59986000  0.49838000  0.49980000  1.0
  Al  Al2  1  0.68103000  0.99973000  0.99898000  1.0
  Al  Al3  1  0.18099000  0.00026000  0.00101000  1.0
  H  H4  1  0.06448000  0.78140000  0.94179000  1.0
  H  H5  1  0.56326000  0.21871000  0.05813000  1.0
  H  H6  1  0.08118000  0.67254000  0.86816000  1.0
  H  H7  1  0.57939000  0.32758000  0.13176000  1.0
  H  H8  1  0.83042000  0.85837000  0.81489000  1.0
  H  H9  1  0.33094000  0.14155000  0.18511000  1.0
  H  H10  1  0.75096000  0.71850000  0.55521000  1.0
  H  H11  1  0.25245000  0.28137000  0.44489000  1.0
  H  H12  1  0.81101000  0.84883000  0.73198000  1.0
  H  H13  1  0.31159000  0.15109000  0.26806000  1.0
  H  H14  1  0.94930000  0.58107000  0.66275000  1.0
  H  H15  1  0.44837000  0.41892000  0.33724000  1.0
  H  H16  1  0.62193000  0.13063000  0.91422000  1.0
  H  H17  1  0.12195000  0.86940000  0.08581000  1.0
  H  H18  1  0.62641000  0.20194000  0.85215000  1.0
  H  H19  1  0.12645000  0.79811000  0.14791000  1.0
  H  H20  1  0.24102000  0.08602000  0.87470000  1.0
  H  H21  1  0.74104000  0.91398000  0.12527000  1.0
  H  H22  1  0.56739000  0.31783000  0.67061000  1.0
  H  H23  1  0.06751000  0.68217000  0.32940000  1.0
  H  H24  1  0.54378000  0.38214000  0.60448000  1.0
  H  H25  1  0.04392000  0.61785000  0.39552000  1.0
  H  H26  1  0.18262000  0.40603000  0.61166000  1.0
  H  H27  1  0.68278000  0.59400000  0.38833000  1.0
  H  H28  1  0.37711000  0.12474000  0.80748000  1.0
  H  H29  1  0.87709000  0.87530000  0.19251000  1.0
  H  H30  1  0.22815000  0.32133000  0.71233000  1.0
  H  H31  1  0.72828000  0.67875000  0.28769000  1.0
  H  H32  1  0.05693000  0.59653000  0.80665000  1.0
  H  H33  1  0.55524000  0.40359000  0.19332000  1.0
  H  H34  1  0.35195000  0.54134000  0.57553000  1.0
  H  H35  1  0.85206000  0.45864000  0.42443000  1.0
  H  H36  1  0.42739000  0.95272000  0.92650000  1.0
  H  H37  1  0.92724000  0.04734000  0.07345000  1.0
  C  C38  1  0.35241000  0.56132000  0.43399000  1.0
  C  C39  1  0.85233000  0.43867000  0.56598000  1.0
  C  C40  1  0.34728000  0.39238000  0.42696000  1.0
  C  C41  1  0.84711000  0.60759000  0.57304000  1.0
  C  C42  1  0.02686000  0.71253000  0.85494000  1.0
  C  C43  1  0.52569000  0.28754000  0.14500000  1.0
  C  C44  1  0.94238000  0.82595000  0.88210000  1.0
  C  C45  1  0.44208000  0.17407000  0.11788000  1.0
  C  C46  1  0.78572000  0.72613000  0.60073000  1.0
  C  C47  1  0.28681000  0.27377000  0.39934000  1.0
  C  C48  1  0.77827000  0.78960000  0.64249000  1.0
  C  C49  1  0.27925000  0.21031000  0.35756000  1.0
  C  C50  1  0.81801000  0.79937000  0.70102000  1.0
  C  C51  1  0.31859000  0.20055000  0.29901000  1.0
  C  C52  1  0.86821000  0.74717000  0.71964000  1.0
  C  C53  1  0.36823000  0.25278000  0.28037000  1.0
  C  C54  1  0.88398000  0.68334000  0.67724000  1.0
  C  C55  1  0.38370000  0.31662000  0.32275000  1.0
  C  C56  1  0.90883000  0.75595000  0.78036000  1.0
  C  C57  1  0.40856000  0.24404000  0.21963000  1.0
  C  C58  1  0.97358000  0.70204000  0.79630000  1.0
  C  C59  1  0.47274000  0.29799000  0.20367000  1.0
  C  C60  1  0.98344000  0.63860000  0.75179000  1.0
  C  C61  1  0.48236000  0.36144000  0.24819000  1.0
  C  C62  1  0.93928000  0.62995000  0.69475000  1.0
  C  C63  1  0.43846000  0.37004000  0.30523000  1.0
  C  C64  1  0.88749000  0.81683000  0.82505000  1.0
  C  C65  1  0.38750000  0.18314000  0.17494000  1.0
  C  C66  1  0.01710000  0.77359000  0.89713000  1.0
  C  C67  1  0.51620000  0.22647000  0.10281000  1.0
  C  C68  1  0.83941000  0.67449000  0.61792000  1.0
  C  C69  1  0.33974000  0.32545000  0.38210000  1.0
  C  C70  1  0.75630000  0.13614000  0.89116000  1.0
  C  C71  1  0.25632000  0.86389000  0.10887000  1.0
  C  C72  1  0.75911000  0.17530000  0.85684000  1.0
  C  C73  1  0.25912000  0.82476000  0.14321000  1.0
  C  C74  1  0.93294000  0.18305000  0.82726000  1.0
  C  C75  1  0.43295000  0.81699000  0.17277000  1.0
  C  C76  1  0.10845000  0.14952000  0.83320000  1.0
  C  C77  1  0.60843000  0.85052000  0.16682000  1.0
  C  C78  1  0.10610000  0.11120000  0.86896000  1.0
  C  C79  1  0.60610000  0.88881000  0.13103000  1.0
  C  C80  1  0.93172000  0.10398000  0.89743000  1.0
  C  C81  1  0.43174000  0.89604000  0.10257000  1.0
  C  C82  1  0.89578000  0.29246000  0.72205000  1.0
  C  C83  1  0.39590000  0.70756000  0.27796000  1.0
  C  C84  1  0.92382000  0.22523000  0.79173000  1.0
  C  C85  1  0.42385000  0.77480000  0.20828000  1.0
  C  C86  1  0.70171000  0.33697000  0.65748000  1.0
  C  C87  1  0.20184000  0.66305000  0.34253000  1.0
  C  C88  1  0.68787000  0.37268000  0.62051000  1.0
  C  C89  1  0.18798000  0.62733000  0.37949000  1.0
  C  C90  1  0.86244000  0.39785000  0.60413000  1.0
  C  C91  1  0.36257000  0.60217000  0.39587000  1.0
  C  C92  1  0.04816000  0.38642000  0.62446000  1.0
  C  C93  1  0.54833000  0.61362000  0.37555000  1.0
  C  C94  1  0.06363000  0.35139000  0.66281000  1.0
  C  C95  1  0.56379000  0.64867000  0.33722000  1.0
  C  C96  1  0.88722000  0.32619000  0.68003000  1.0
  C  C97  1  0.38735000  0.67386000  0.32000000  1.0
  C  C98  1  0.43330000  0.10751000  0.07297000  1.0
  C  C99  1  0.93345000  0.89250000  0.92701000  1.0
  C  C100  1  0.43202000  0.93822000  0.06564000  1.0
  C  C101  1  0.93189000  0.06179000  0.93436000  1.0
  C  C102  1  0.72996000  0.84380000  0.62512000  1.0
  C  C103  1  0.23144000  0.15609000  0.37498000  1.0
  N  N104  1  0.09087000  0.25440000  0.78208000  1.0
  N  N105  1  0.59095000  0.74565000  0.21793000  1.0
  N  N106  1  0.07511000  0.28701000  0.74582000  1.0
  N  N107  1  0.57522000  0.71304000  0.25420000  1.0
  N  N108  1  0.72315000  0.27297000  0.74107000  1.0
  N  N109  1  0.22323000  0.72701000  0.25892000  1.0
  N  N110  1  0.73861000  0.23822000  0.77502000  1.0
  N  N111  1  0.23865000  0.76175000  0.22497000  1.0
  N  N112  1  0.69069000  0.88861000  0.61136000  1.0
  N  N113  1  0.19229000  0.11131000  0.38878000  1.0
  O  O114  1  0.51858000  0.41643000  0.44347000  1.0
  O  O115  1  0.01843000  0.58352000  0.55653000  1.0
  O  O116  1  0.18046000  0.54753000  0.44895000  1.0
  O  O117  1  0.68041000  0.45246000  0.55103000  1.0
  O  O118  1  0.18011000  0.41948000  0.44406000  1.0
  O  O119  1  0.67998000  0.58050000  0.55591000  1.0
  O  O120  1  0.01854000  0.45794000  0.55233000  1.0
  O  O121  1  0.51859000  0.54201000  0.44762000  1.0
  O  O122  1  0.35010000  0.51219000  0.53537000  1.0
  O  O123  1  0.85016000  0.48780000  0.46459000  1.0
  O  O124  1  0.26173000  0.95477000  0.05216000  1.0
  O  O125  1  0.76158000  0.04539000  0.94794000  1.0
  O  O126  1  0.60096000  0.08224000  0.05340000  1.0
  O  O127  1  0.10105000  0.91769000  0.94671000  1.0
  O  O128  1  0.60118000  0.95491000  0.05127000  1.0
  O  O129  1  0.10101000  0.04494000  0.94861000  1.0
  O  O130  1  0.76316000  0.91877000  0.94133000  1.0
  O  O131  1  0.26298000  0.08131000  0.05851000  1.0
  O  O132  1  0.42979000  0.98703000  0.96431000  1.0
  O  O133  1  0.92977000  0.01296000  0.03568000  1.0
  O  O134  1  0.27461000  0.15440000  0.80304000  1.0
  O  O135  1  0.77458000  0.84566000  0.19698000  1.0
  O  O136  1  0.24640000  0.34404000  0.68267000  1.0
  O  O137  1  0.74655000  0.65605000  0.31737000  1.0
  O  O138  1  0.03730000  0.58494000  0.76478000  1.0
  O  O139  1  0.53564000  0.41514000  0.23520000  1.0
