# generated using pymatgen
data_CoH14C14(NO4)2
_symmetry_space_group_name_H-M   'P 1'
_cell_length_a   5.11793000
_cell_length_b   7.34422000
_cell_length_c   9.51122000
_cell_angle_alpha   86.31640000
_cell_angle_beta   82.63500000
_cell_angle_gamma   77.92720000
_symmetry_Int_Tables_number   1
_chemical_formula_structural   CoH14C14(NO4)2
_chemical_formula_sum   'Co1 H14 C14 N2 O8'
_cell_volume   346.45054743
_cell_formula_units_Z   1
loop_
 _symmetry_equiv_pos_site_id
 _symmetry_equiv_pos_as_xyz
  1  'x, y, z'
loop_
 _atom_site_type_symbol
 _atom_site_label
 _atom_site_symmetry_multiplicity
 _atom_site_fract_x
 _atom_site_fract_y
 _atom_site_fract_z
 _atom_site_occupancy
  Co  Co0  1  0.50000000  0.00000000  0.50000000  1.0
  H  H1  1  0.85750000  0.82750000  0.34846000  1.0
  H  H2  1  0.14250000  0.17251000  0.65154000  1.0
  H  H3  1  0.99616000  0.82819000  0.49568000  1.0
  H  H4  1  0.00385000  0.17180000  0.50431000  1.0
  H  H5  1  0.78655000  0.00366000  0.92710000  1.0
  H  H6  1  0.21344000  0.99633000  0.07291000  1.0
  H  H7  1  0.29286000  0.46516000  0.42372000  1.0
  H  H8  1  0.70713000  0.53483000  0.57628000  1.0
  H  H9  1  0.17046000  0.61364000  0.19189000  1.0
  H  H10  1  0.82953000  0.38634000  0.80811000  1.0
  H  H11  1  0.94344000  0.30957000  0.99895000  1.0
  H  H12  1  0.05657000  0.69042000  0.00104000  1.0
  H  H13  1  0.02993000  0.17906000  0.24071000  1.0
  H  H14  1  0.97007000  0.82094000  0.75929000  1.0
  C  C15  1  0.43895000  0.05681000  0.80430000  1.0
  C  C16  1  0.56105000  0.94319000  0.19570000  1.0
  C  C17  1  0.56931000  0.01439000  0.93686000  1.0
  C  C18  1  0.43068000  0.98561000  0.06314000  1.0
  C  C19  1  0.42315000  0.43872000  0.32491000  1.0
  C  C20  1  0.57688000  0.56127000  0.67510000  1.0
  C  C21  1  0.36106000  0.51557000  0.19508000  1.0
  C  C22  1  0.63892000  0.48444000  0.80493000  1.0
  C  C23  1  0.53688000  0.46687000  0.06915000  1.0
  C  C24  1  0.46313000  0.53313000  0.93084000  1.0
  C  C25  1  0.78916000  0.34914000  0.08796000  1.0
  C  C26  1  0.21081000  0.65087000  0.91206000  1.0
  C  C27  1  0.84471000  0.27431000  0.21927000  1.0
  C  C28  1  0.15530000  0.72568000  0.78073000  1.0
  N  N29  1  0.65830000  0.31266000  0.33542000  1.0
  N  N30  1  0.34170000  0.68735000  0.66459000  1.0
  O  O31  1  0.82767000  0.81578000  0.45670000  1.0
  O  O32  1  0.17235000  0.18422000  0.54329000  1.0
  O  O33  1  0.59513000  0.99975000  0.69059000  1.0
  O  O34  1  0.40487000  0.00026000  0.30941000  1.0
  O  O35  1  0.19413000  0.13769000  0.80893000  1.0
  O  O36  1  0.80586000  0.86232000  0.19107000  1.0
  O  O37  1  0.69608000  0.21478000  0.45755000  1.0
  O  O38  1  0.30392000  0.78524000  0.54243000  1.0
