# generated using pymatgen
data_CdH12(CN3)4
_symmetry_space_group_name_H-M   'P 1'
_cell_length_a   7.24166000
_cell_length_b   11.46670000
_cell_length_c   13.37850000
_cell_angle_alpha   89.99990000
_cell_angle_beta   76.02200000
_cell_angle_gamma   89.99990000
_symmetry_Int_Tables_number   1
_chemical_formula_structural   CdH12(CN3)4
_chemical_formula_sum   'Cd4 H48 C16 N48'
_cell_volume   1078.02706803
_cell_formula_units_Z   4
loop_
 _symmetry_equiv_pos_site_id
 _symmetry_equiv_pos_as_xyz
  1  'x, y, z'
loop_
 _atom_site_type_symbol
 _atom_site_label
 _atom_site_symmetry_multiplicity
 _atom_site_fract_x
 _atom_site_fract_y
 _atom_site_fract_z
 _atom_site_occupancy
  Cd  Cd0  1  0.05282000  0.26650000  0.18160000  1.0
  Cd  Cd1  1  0.44718000  0.76650000  0.31840000  1.0
  Cd  Cd2  1  0.94718000  0.73350000  0.81841000  1.0
  Cd  Cd3  1  0.55282000  0.23350000  0.68160000  1.0
  H  H4  1  0.30517000  0.35538000  0.34025000  1.0
  H  H5  1  0.19483000  0.85538000  0.15975000  1.0
  H  H6  1  0.69483000  0.64462000  0.65976000  1.0
  H  H7  1  0.80517000  0.14462000  0.84025000  1.0
  H  H8  1  0.32101000  0.48569000  0.40260000  1.0
  H  H9  1  0.17899000  0.98569000  0.09740000  1.0
  H  H10  1  0.67898000  0.51431000  0.59740000  1.0
  H  H11  1  0.82102000  0.01431000  0.90260000  1.0
  H  H12  1  0.95598000  0.07786000  0.37803000  1.0
  H  H13  1  0.54402000  0.57786000  0.12197000  1.0
  H  H14  1  0.04402000  0.92214000  0.62197000  1.0
  H  H15  1  0.45598000  0.42214000  0.87803000  1.0
  H  H16  1  0.79647000  0.06437000  0.49444000  1.0
  H  H17  1  0.70353000  0.56437000  0.00556000  1.0
  H  H18  1  0.20353000  0.93563000  0.50556000  1.0
  H  H19  1  0.29647000  0.43563000  0.99444000  1.0
  H  H20  1  0.82783000  0.45650000  0.12673000  1.0
  H  H21  1  0.67217000  0.95651000  0.37327000  1.0
  H  H22  1  0.17217000  0.54349000  0.87327000  1.0
  H  H23  1  0.32783000  0.04350000  0.62673000  1.0
  H  H24  1  0.90824000  0.38425000  0.02106000  1.0
  H  H25  1  0.59176000  0.88425000  0.47894000  1.0
  H  H26  1  0.09176000  0.61575000  0.97894000  1.0
  H  H27  1  0.40824000  0.11575000  0.52106000  1.0
  H  H28  1  0.58487000  0.33975000  0.05697000  1.0
  H  H29  1  0.91513000  0.83975000  0.44303000  1.0
  H  H30  1  0.41513000  0.66025000  0.94303000  1.0
  H  H31  1  0.08487000  0.16025000  0.55697000  1.0
  H  H32  1  0.58076000  0.32819000  0.19003000  1.0
  H  H33  1  0.91924000  0.82819000  0.30997000  1.0
  H  H34  1  0.41924000  0.67181000  0.80997000  1.0
  H  H35  1  0.08076000  0.17181000  0.69003000  1.0
  H  H36  1  0.56956000  0.13418000  0.09854000  1.0
  H  H37  1  0.93044000  0.63418000  0.40146000  1.0
  H  H38  1  0.43044000  0.86582000  0.90146000  1.0
  H  H39  1  0.06956000  0.36582000  0.59854000  1.0
  H  H40  1  0.80248000  0.16413000  0.02343000  1.0
  H  H41  1  0.69752000  0.66413000  0.47657000  1.0
  H  H42  1  0.19752000  0.83587000  0.97657000  1.0
  H  H43  1  0.30248000  0.33587000  0.52343000  1.0
  H  H44  1  0.82587000  0.04965000  0.16442000  1.0
  H  H45  1  0.67413000  0.54965000  0.33558000  1.0
  H  H46  1  0.17413000  0.95035000  0.83558000  1.0
  H  H47  1  0.32587000  0.45036000  0.66442000  1.0
  H  H48  1  0.69696000  0.13852000  0.24840000  1.0
  H  H49  1  0.80304000  0.63851000  0.25160000  1.0
  H  H50  1  0.30304000  0.86149000  0.75160000  1.0
  H  H51  1  0.19696000  0.36149000  0.74840000  1.0
  C  C52  1  0.27095000  0.50149000  0.26169000  1.0
  C  C53  1  0.22905000  0.00149000  0.23831000  1.0
  C  C54  1  0.72905000  0.49851000  0.73831000  1.0
  C  C55  1  0.77095000  0.99851000  0.76169000  1.0
  C  C56  1  0.82501000  0.22768000  0.43373000  1.0
  C  C57  1  0.67499000  0.72768000  0.06627000  1.0
  C  C58  1  0.17499000  0.77232000  0.56627000  1.0
  C  C59  1  0.32501000  0.27232000  0.93373000  1.0
  C  C60  1  0.66686000  0.31056000  0.11181000  1.0
  C  C61  1  0.83314000  0.81056000  0.38819000  1.0
  C  C62  1  0.33315000  0.68944000  0.88819000  1.0
  C  C63  1  0.16686000  0.18944000  0.61181000  1.0
  C  C64  1  0.70281000  0.18021000  0.09825000  1.0
  C  C65  1  0.79719000  0.68021000  0.40175000  1.0
  C  C66  1  0.29719000  0.81979000  0.90175000  1.0
  C  C67  1  0.20281000  0.31979000  0.59825000  1.0
  N  N68  1  0.20199000  0.45346000  0.18595000  1.0
  N  N69  1  0.29801000  0.95346000  0.31405000  1.0
  N  N70  1  0.79801000  0.54654000  0.81405000  1.0
  N  N71  1  0.70199000  0.04654000  0.68595000  1.0
  N  N72  1  0.15710000  0.54504000  0.13095000  1.0
  N  N73  1  0.34289000  0.04505000  0.36905000  1.0
  N  N74  1  0.84289000  0.45495000  0.86905000  1.0
  N  N75  1  0.65710000  0.95496000  0.63095000  1.0
  N  N76  1  0.19837000  0.64307000  0.17065000  1.0
  N  N77  1  0.30163000  0.14307000  0.32934000  1.0
  N  N78  1  0.80164000  0.35693000  0.82934000  1.0
  N  N79  1  0.69837000  0.85693000  0.67066000  1.0
  N  N80  1  0.27179000  0.61944000  0.25293000  1.0
  N  N81  1  0.22821000  0.11944000  0.24707000  1.0
  N  N82  1  0.72821000  0.38056000  0.74707000  1.0
  N  N83  1  0.77179000  0.88056000  0.75293000  1.0
  N  N84  1  0.33931000  0.44189000  0.33325000  1.0
  N  N85  1  0.16069000  0.94189000  0.16675000  1.0
  N  N86  1  0.66069000  0.55811000  0.66675000  1.0
  N  N87  1  0.83932000  0.05811000  0.83325000  1.0
  N  N88  1  0.89979000  0.30190000  0.35649000  1.0
  N  N89  1  0.60020000  0.80190000  0.14352000  1.0
  N  N90  1  0.10020000  0.69810000  0.64352000  1.0
  N  N91  1  0.39980000  0.19810000  0.85648000  1.0
  N  N92  1  0.84713000  0.40992000  0.39376000  1.0
  N  N93  1  0.65287000  0.90992000  0.10624000  1.0
  N  N94  1  0.15287000  0.59008000  0.60624000  1.0
  N  N95  1  0.34713000  0.09008000  0.89376000  1.0
  N  N96  1  0.74578000  0.40119000  0.48834000  1.0
  N  N97  1  0.75422000  0.90119000  0.01166000  1.0
  N  N98  1  0.25422000  0.59881000  0.51166000  1.0
  N  N99  1  0.24578000  0.09881000  0.98834000  1.0
  N  N100  1  0.72956000  0.28710000  0.51671000  1.0
  N  N101  1  0.77044000  0.78710000  0.98329000  1.0
  N  N102  1  0.27044000  0.71290000  0.48329000  1.0
  N  N103  1  0.22956000  0.21290000  0.01671000  1.0
  N  N104  1  0.83516000  0.10836000  0.42633000  1.0
  N  N105  1  0.66484000  0.60837000  0.07367000  1.0
  N  N106  1  0.16484000  0.89163000  0.57367000  1.0
  N  N107  1  0.33515000  0.39164000  0.92633000  1.0
  N  N108  1  0.84841000  0.37360000  0.09820000  1.0
  N  N109  1  0.65159000  0.87360000  0.40179000  1.0
  N  N110  1  0.15159000  0.62640000  0.90179000  1.0
  N  N111  1  0.34841000  0.12640000  0.59821000  1.0
  N  N112  1  0.79342000  0.13598000  0.17844000  1.0
  N  N113  1  0.70658000  0.63598000  0.32156000  1.0
  N  N114  1  0.20658000  0.86402000  0.82156000  1.0
  N  N115  1  0.29342000  0.36402000  0.67844000  1.0
