# generated using pymatgen
data_CdH40C34S2(N7O)2
_symmetry_space_group_name_H-M   'P 1'
_cell_length_a   9.34101000
_cell_length_b   9.45212000
_cell_length_c   11.27270000
_cell_angle_alpha   109.42800000
_cell_angle_beta   96.61130000
_cell_angle_gamma   91.92930000
_symmetry_Int_Tables_number   1
_chemical_formula_structural   CdH40C34S2(N7O)2
_chemical_formula_sum   'Cd1 H40 C34 S2 N14 O2'
_cell_volume   929.62456955
_cell_formula_units_Z   1
loop_
 _symmetry_equiv_pos_site_id
 _symmetry_equiv_pos_as_xyz
  1  'x, y, z'
loop_
 _atom_site_type_symbol
 _atom_site_label
 _atom_site_symmetry_multiplicity
 _atom_site_fract_x
 _atom_site_fract_y
 _atom_site_fract_z
 _atom_site_occupancy
  Cd  Cd0  1  0.50000000  0.50000000  0.50000000  1.0
  H  H1  1  0.65144000  0.06220000  0.98930000  1.0
  H  H2  1  0.34856000  0.93779000  0.01070000  1.0
  H  H3  1  0.83482000  0.38164000  0.38126000  1.0
  H  H4  1  0.16518000  0.61836000  0.61873000  1.0
  H  H5  1  0.41292000  0.22048000  0.19886000  1.0
  H  H6  1  0.58708000  0.77951000  0.80114000  1.0
  H  H7  1  0.85894000  0.01686000  0.13223000  1.0
  H  H8  1  0.14106000  0.98314000  0.86777000  1.0
  H  H9  1  0.96946000  0.17899000  0.23055000  1.0
  H  H10  1  0.03054000  0.82101000  0.76945000  1.0
  H  H11  1  0.03181000  0.22381000  0.73577000  1.0
  H  H12  1  0.96819000  0.77619000  0.26423000  1.0
  H  H13  1  0.10870000  0.29966000  0.13693000  1.0
  H  H14  1  0.89130000  0.70034000  0.86307000  1.0
  H  H15  1  0.84838000  0.03282000  0.60883000  1.0
  H  H16  1  0.15162000  0.96718000  0.39117000  1.0
  H  H17  1  0.72172000  0.95135000  0.67798000  1.0
  H  H18  1  0.27828000  0.04865000  0.32202000  1.0
  H  H19  1  0.45528000  0.29860000  0.92530000  1.0
  H  H20  1  0.54472000  0.70140000  0.07470000  1.0
  H  H21  1  0.32144000  0.16352000  0.82074000  1.0
  H  H22  1  0.67856000  0.83648000  0.17925000  1.0
  H  H23  1  0.35163000  0.18130000  0.98334000  1.0
  H  H24  1  0.64836000  0.81870000  0.01666000  1.0
  H  H25  1  0.14786000  0.53013000  0.87090000  1.0
  H  H26  1  0.85214000  0.46988000  0.12910000  1.0
  H  H27  1  0.20453000  0.37257000  0.75352000  1.0
  H  H28  1  0.79547000  0.62744000  0.24648000  1.0
  H  H29  1  0.33536000  0.50732000  0.86248000  1.0
  H  H30  1  0.66464000  0.49268000  0.13752000  1.0
  H  H31  1  0.29541000  0.42498000  0.15471000  1.0
  H  H32  1  0.70459000  0.57502000  0.84529000  1.0
  H  H33  1  0.19617000  0.55853000  0.10672000  1.0
  H  H34  1  0.80383000  0.44147000  0.89328000  1.0
  H  H35  1  0.38059000  0.53991000  0.08391000  1.0
  H  H36  1  0.61941000  0.46009000  0.91609000  1.0
  H  H37  1  0.78073000  0.32693000  0.61643000  1.0
  H  H38  1  0.21927000  0.67307000  0.38357000  1.0
  H  H39  1  0.33825000  0.21131000  0.59820000  1.0
  H  H40  1  0.66175000  0.78869000  0.40181000  1.0
  C  C41  1  0.74209000  0.32111000  0.31421000  1.0
  C  C42  1  0.25791000  0.67889000  0.68579000  1.0
  C  C43  1  0.52965000  0.23744000  0.21884000  1.0
  C  C44  1  0.47036000  0.76256000  0.78116000  1.0
  C  C45  1  0.87874000  0.13873000  0.15387000  1.0
  C  C46  1  0.12126000  0.86127000  0.84613000  1.0
  C  C47  1  0.91255000  0.17202000  0.03786000  1.0
  C  C48  1  0.08745000  0.82798000  0.96214000  1.0
  C  C49  1  0.82217000  0.11209000  0.92091000  1.0
  C  C50  1  0.17783000  0.88791000  0.07909000  1.0
  C  C51  1  0.86772000  0.13036000  0.81172000  1.0
  C  C52  1  0.13227000  0.86964000  0.18828000  1.0
  C  C53  1  0.99862000  0.21274000  0.82228000  1.0
  C  C54  1  0.00138000  0.78726000  0.17772000  1.0
  C  C55  1  0.08760000  0.27899000  0.93847000  1.0
  C  C56  1  0.91240000  0.72100000  0.06153000  1.0
  C  C57  1  0.04164000  0.25514000  0.04471000  1.0
  C  C58  1  0.95836000  0.74486000  0.95529000  1.0
  C  C59  1  0.77820000  0.05732000  0.68383000  1.0
  C  C60  1  0.22179000  0.94268000  0.31617000  1.0
  C  C61  1  0.23396000  0.36217000  0.94746000  1.0
  C  C62  1  0.76604000  0.63783000  0.05254000  1.0
  C  C63  1  0.34684000  0.24463000  0.91745000  1.0
  C  C64  1  0.65316000  0.75537000  0.08255000  1.0
  C  C65  1  0.22941000  0.44728000  0.85261000  1.0
  C  C66  1  0.77059000  0.55272000  0.14739000  1.0
  C  C67  1  0.27836000  0.47718000  0.08110000  1.0
  C  C68  1  0.72164000  0.52282000  0.91890000  1.0
  C  C69  1  0.67835000  0.27154000  0.62007000  1.0
  C  C70  1  0.32165000  0.72846000  0.37993000  1.0
  C  C71  1  0.45514000  0.21042000  0.61230000  1.0
  C  C72  1  0.54486000  0.78958000  0.38770000  1.0
  C  C73  1  0.17152000  0.33231000  0.44716000  1.0
  C  C74  1  0.82849000  0.66770000  0.55285000  1.0
  S  S75  1  0.04377000  0.26197000  0.50178000  1.0
  S  S76  1  0.95622000  0.73803000  0.49821000  1.0
  N  N77  1  0.60250000  0.34223000  0.32473000  1.0
  N  N78  1  0.39750000  0.65777000  0.67526000  1.0
  N  N79  1  0.61690000  0.15347000  0.14370000  1.0
  N  N80  1  0.38310000  0.84653000  0.85630000  1.0
  N  N81  1  0.75155000  0.20766000  0.20636000  1.0
  N  N82  1  0.24845000  0.79234000  0.79364000  1.0
  N  N83  1  0.66433000  0.14767000  0.65278000  1.0
  N  N84  1  0.33567000  0.85233000  0.34723000  1.0
  N  N85  1  0.54706000  0.31441000  0.59387000  1.0
  N  N86  1  0.45295000  0.68560000  0.40613000  1.0
  N  N87  1  0.52211000  0.10697000  0.64847000  1.0
  N  N88  1  0.47788000  0.89304000  0.35154000  1.0
  N  N89  1  0.26637000  0.38218000  0.40679000  1.0
  N  N90  1  0.73363000  0.61782000  0.59321000  1.0
  O  O91  1  0.69392000  0.03212000  0.90732000  1.0
  O  O92  1  0.30608000  0.96787000  0.09267000  1.0
