# generated using pymatgen
data_TbH23C30NO9
_symmetry_space_group_name_H-M   'P 1'
_cell_length_a   9.82458000
_cell_length_b   12.10760000
_cell_length_c   14.62790000
_cell_angle_alpha   109.75400000
_cell_angle_beta   103.62000000
_cell_angle_gamma   100.13100000
_symmetry_Int_Tables_number   1
_chemical_formula_structural   TbH23C30NO9
_chemical_formula_sum   'Tb2 H46 C60 N2 O18'
_cell_volume   1528.22495489
_cell_formula_units_Z   2
loop_
 _symmetry_equiv_pos_site_id
 _symmetry_equiv_pos_as_xyz
  1  'x, y, z'
loop_
 _atom_site_type_symbol
 _atom_site_label
 _atom_site_symmetry_multiplicity
 _atom_site_fract_x
 _atom_site_fract_y
 _atom_site_fract_z
 _atom_site_occupancy
  Tb  Tb0  1  0.75820000  0.02137000  0.99728000  1.0
  Tb  Tb1  1  0.24180000  0.97863000  0.00272000  1.0
  H  H2  1  0.94534000  0.20909000  0.97526000  1.0
  H  H3  1  0.05466000  0.79091000  0.02474000  1.0
  H  H4  1  0.05584000  0.19808000  0.06572000  1.0
  H  H5  1  0.94416000  0.80192000  0.93428000  1.0
  H  H6  1  0.55973000  0.91458000  0.08338000  1.0
  H  H7  1  0.44027000  0.08542000  0.91662000  1.0
  H  H8  1  0.61599000  0.80979000  0.01725000  1.0
  H  H9  1  0.38401000  0.19021000  0.98275000  1.0
  H  H10  1  0.42262000  0.11580000  0.27557000  1.0
  H  H11  1  0.57738000  0.88420000  0.72443000  1.0
  H  H12  1  0.80365000  0.36266000  0.28544000  1.0
  H  H13  1  0.19635000  0.63734000  0.71456000  1.0
  H  H14  1  0.92545000  0.56085000  0.43779000  1.0
  H  H15  1  0.07455000  0.43915000  0.56221000  1.0
  H  H16  1  0.94581000  0.69827000  0.61238000  1.0
  H  H17  1  0.05420000  0.30173000  0.38762000  1.0
  H  H18  1  0.85401000  0.74433000  0.76115000  1.0
  H  H19  1  0.14599000  0.25567000  0.23885000  1.0
  H  H20  1  0.47901000  0.49426000  0.75416000  1.0
  H  H21  1  0.52099000  0.50574000  0.24584000  1.0
  H  H22  1  0.35829000  0.29523000  0.60272000  1.0
  H  H23  1  0.64171000  0.70477000  0.39728000  1.0
  H  H24  1  0.33876000  0.15757000  0.42869000  1.0
  H  H25  1  0.66124000  0.84243000  0.57131000  1.0
  H  H26  1  0.86403000  0.08174000  0.25591000  1.0
  H  H27  1  0.13597000  0.91826000  0.74409000  1.0
  H  H28  1  0.21670000  0.91928000  0.29632000  1.0
  H  H29  1  0.78330000  0.08072000  0.70368000  1.0
  H  H30  1  0.73923000  0.13327000  0.38807000  1.0
  H  H31  1  0.26077000  0.86673000  0.61193000  1.0
  H  H32  1  0.29101000  0.86642000  0.44915000  1.0
  H  H33  1  0.70899000  0.13358000  0.55085000  1.0
  H  H34  1  0.72824000  0.33677000  0.05680000  1.0
  H  H35  1  0.27176000  0.66323000  0.94320000  1.0
  H  H36  1  0.70581000  0.50508000  0.03936000  1.0
  H  H37  1  0.29419000  0.49492000  0.96064000  1.0
  H  H38  1  0.56409000  0.49255000  0.93114000  1.0
  H  H39  1  0.43591000  0.50745000  0.06886000  1.0
  H  H40  1  0.74524000  0.51255000  0.92765000  1.0
  H  H41  1  0.25476000  0.48745000  0.07235000  1.0
  H  H42  1  0.56958000  0.17398000  0.78473000  1.0
  H  H43  1  0.43042000  0.82602000  0.21527000  1.0
  H  H44  1  0.64395000  0.30697000  0.76401000  1.0
  H  H45  1  0.35605000  0.69303000  0.23599000  1.0
  H  H46  1  0.46722000  0.28118000  0.77808000  1.0
  H  H47  1  0.53278000  0.71882000  0.22192000  1.0
  C  C48  1  0.51187000  0.19972000  0.31816000  1.0
  C  C49  1  0.48813000  0.80028000  0.68184000  1.0
  C  C50  1  0.61266000  0.23181000  0.27155000  1.0
  C  C51  1  0.38734000  0.76819000  0.72845000  1.0
  C  C52  1  0.72625000  0.34032000  0.32344000  1.0
  C  C53  1  0.27375000  0.65968000  0.67656000  1.0
  C  C54  1  0.85010000  0.53520000  0.47603000  1.0
  C  C55  1  0.14991000  0.46480000  0.52397000  1.0
  C  C56  1  0.86187000  0.61085000  0.57270000  1.0
  C  C57  1  0.13813000  0.38915000  0.42730000  1.0
  C  C58  1  0.77020000  0.65704000  0.72178000  1.0
  C  C59  1  0.22980000  0.34296000  0.27822000  1.0
  C  C60  1  0.66846000  0.62631000  0.76839000  1.0
  C  C61  1  0.33154000  0.37369000  0.23161000  1.0
  C  C62  1  0.55923000  0.51511000  0.71772000  1.0
  C  C63  1  0.44077000  0.48489000  0.28228000  1.0
  C  C64  1  0.43715000  0.31908000  0.56613000  1.0
  C  C65  1  0.56285000  0.68092000  0.43387000  1.0
  C  C66  1  0.42596000  0.24291000  0.46971000  1.0
  C  C67  1  0.57404000  0.75709000  0.53029000  1.0
  C  C68  1  0.52523000  0.27424000  0.41877000  1.0
  C  C69  1  0.47477000  0.72576000  0.58123000  1.0
  C  C70  1  0.63953000  0.38627000  0.47156000  1.0
  C  C71  1  0.36047000  0.61373000  0.52844000  1.0
  C  C72  1  0.73985000  0.42018000  0.42239000  1.0
  C  C73  1  0.26015000  0.57982000  0.57761000  1.0
  C  C74  1  0.76330000  0.57886000  0.62401000  1.0
  C  C75  1  0.23670000  0.42114000  0.37599000  1.0
  C  C76  1  0.65140000  0.46527000  0.57207000  1.0
  C  C77  1  0.34860000  0.53473000  0.42793000  1.0
  C  C78  1  0.54896000  0.43302000  0.62031000  1.0
  C  C79  1  0.45104000  0.56698000  0.37969000  1.0
  C  C80  1  0.60013000  0.14738000  0.16639000  1.0
  C  C81  1  0.39987000  0.85262000  0.83361000  1.0
  C  C82  1  0.67129000  0.71475000  0.87020000  1.0
  C  C83  1  0.32871000  0.28525000  0.12981000  1.0
  C  C84  1  0.04219000  0.00073000  0.26777000  1.0
  C  C85  1  0.95781000  0.99927000  0.73223000  1.0
  C  C86  1  0.93432000  0.04680000  0.30206000  1.0
  C  C87  1  0.06568000  0.95320000  0.69794000  1.0
  C  C88  1  0.91660000  0.04828000  0.39479000  1.0
  C  C89  1  0.08340000  0.95171000  0.60521000  1.0
  C  C90  1  0.00854000  0.99998000  0.45310000  1.0
  C  C91  1  0.99145000  0.00002000  0.54690000  1.0
  C  C92  1  0.11761000  0.95153000  0.41700000  1.0
  C  C93  1  0.88239000  0.04847000  0.58300000  1.0
  C  C94  1  0.13305000  0.95395000  0.32480000  1.0
  C  C95  1  0.86695000  0.04605000  0.67519000  1.0
  C  C96  1  0.06092000  0.00049000  0.16922000  1.0
  C  C97  1  0.93908000  0.99951000  0.83078000  1.0
  C  C98  1  0.80857000  0.09657000  0.43298000  1.0
  C  C99  1  0.19143000  0.90343000  0.56702000  1.0
  C  C100  1  0.20795000  0.90333000  0.47691000  1.0
  C  C101  1  0.79205000  0.09667000  0.52309000  1.0
  C  C102  1  0.67959000  0.27862000  0.97429000  1.0
  C  C103  1  0.32041000  0.72138000  0.02571000  1.0
  C  C104  1  0.66550000  0.46895000  0.95549000  1.0
  C  C105  1  0.33450000  0.53105000  0.04451000  1.0
  C  C106  1  0.57694000  0.27075000  0.80348000  1.0
  C  C107  1  0.42306000  0.72925000  0.19652000  1.0
  N  N108  1  0.64174000  0.33741000  0.91399000  1.0
  N  N109  1  0.35826000  0.66259000  0.08601000  1.0
  O  O110  1  0.95749000  0.21138000  0.04401000  1.0
  O  O111  1  0.04251000  0.78862000  0.95599000  1.0
  O  O112  1  0.64916000  0.89412000  0.07385000  1.0
  O  O113  1  0.35084000  0.10588000  0.92615000  1.0
  O  O114  1  0.71335000  0.15590000  0.13832000  1.0
  O  O115  1  0.28665000  0.84410000  0.86168000  1.0
  O  O116  1  0.47826000  0.06778000  0.11141000  1.0
  O  O117  1  0.52174000  0.93221000  0.88859000  1.0
  O  O118  1  0.77203000  0.81791000  0.91177000  1.0
  O  O119  1  0.22797000  0.18209000  0.08823000  1.0
  O  O120  1  0.57700000  0.68651000  0.91013000  1.0
  O  O121  1  0.42300000  0.31349000  0.08988000  1.0
  O  O122  1  0.96264000  0.02218000  0.10923000  1.0
  O  O123  1  0.03736000  0.97782000  0.89077000  1.0
  O  O124  1  0.17493000  0.97731000  0.14960000  1.0
  O  O125  1  0.82507000  0.02269000  0.85040000  1.0
  O  O126  1  0.66121000  0.16547000  0.94038000  1.0
  O  O127  1  0.33879000  0.83453000  0.05962000  1.0
