# generated using pymatgen
data_AgH9C12S(NO2)2
_symmetry_space_group_name_H-M   'P 1'
_cell_length_a   8.33850000
_cell_length_b   9.72659000
_cell_length_c   14.93400000
_cell_angle_alpha   90.00000000
_cell_angle_beta   94.37570000
_cell_angle_gamma   90.00000000
_symmetry_Int_Tables_number   1
_chemical_formula_structural   AgH9C12S(NO2)2
_chemical_formula_sum   'Ag4 H36 C48 S4 N8 O16'
_cell_volume   1207.69414223
_cell_formula_units_Z   4
loop_
 _symmetry_equiv_pos_site_id
 _symmetry_equiv_pos_as_xyz
  1  'x, y, z'
loop_
 _atom_site_type_symbol
 _atom_site_label
 _atom_site_symmetry_multiplicity
 _atom_site_fract_x
 _atom_site_fract_y
 _atom_site_fract_z
 _atom_site_occupancy
  Ag  Ag0  1  0.15605000  0.78493000  0.41557000  1.0
  Ag  Ag1  1  0.34395000  0.28493000  0.08443000  1.0
  Ag  Ag2  1  0.84395000  0.21508000  0.58443000  1.0
  Ag  Ag3  1  0.65605000  0.71507000  0.91557000  1.0
  H  H4  1  0.07301000  0.29322000  0.99700000  1.0
  H  H5  1  0.42698000  0.79322000  0.50300000  1.0
  H  H6  1  0.92698000  0.70678000  0.00301000  1.0
  H  H7  1  0.57302000  0.20678000  0.49700000  1.0
  H  H8  1  0.64651000  0.25911000  0.32834000  1.0
  H  H9  1  0.85349000  0.75911000  0.17166000  1.0
  H  H10  1  0.35349000  0.74089000  0.67166000  1.0
  H  H11  1  0.14651000  0.24089000  0.82834000  1.0
  H  H12  1  0.65890000  0.81835000  0.30011000  1.0
  H  H13  1  0.84110000  0.31835000  0.19989000  1.0
  H  H14  1  0.34110000  0.18165000  0.69989000  1.0
  H  H15  1  0.15890000  0.68165000  0.80011000  1.0
  H  H16  1  0.38414000  0.82281000  0.22321000  1.0
  H  H17  1  0.11585000  0.32281000  0.27680000  1.0
  H  H18  1  0.61585000  0.17719000  0.77679000  1.0
  H  H19  1  0.88415000  0.67719000  0.72321000  1.0
  H  H20  1  0.63702000  0.00286000  0.10569000  1.0
  H  H21  1  0.86298000  0.50286000  0.39431000  1.0
  H  H22  1  0.36298000  0.99714000  0.89431000  1.0
  H  H23  1  0.13702000  0.49714000  0.60569000  1.0
  H  H24  1  0.91840000  0.98302000  0.17754000  1.0
  H  H25  1  0.58159000  0.48302000  0.32246000  1.0
  H  H26  1  0.08160000  0.01698000  0.82245000  1.0
  H  H27  1  0.41841000  0.51698000  0.67754000  1.0
  H  H28  1  0.79397000  0.31512000  0.92719000  1.0
  H  H29  1  0.70603000  0.81512000  0.57281000  1.0
  H  H30  1  0.20603000  0.68488000  0.07281000  1.0
  H  H31  1  0.29397000  0.18488000  0.42719000  1.0
  H  H32  1  0.52469000  0.24094000  0.93104000  1.0
  H  H33  1  0.97530000  0.74094000  0.56896000  1.0
  H  H34  1  0.47530000  0.75906000  0.06896000  1.0
  H  H35  1  0.02470000  0.25906000  0.43104000  1.0
  H  H36  1  0.37188000  0.26521000  0.25419000  1.0
  H  H37  1  0.12812000  0.76521000  0.24581000  1.0
  H  H38  1  0.62811000  0.73479000  0.74581000  1.0
  H  H39  1  0.87189000  0.23479000  0.75419000  1.0
  C  C40  1  0.66819000  0.03867000  0.31834000  1.0
  C  C41  1  0.83181000  0.53867000  0.18166000  1.0
  C  C42  1  0.33181000  0.96133000  0.68166000  1.0
  C  C43  1  0.16820000  0.46133000  0.81834000  1.0
  C  C44  1  0.58871000  0.16413000  0.30464000  1.0
  C  C45  1  0.91128000  0.66413000  0.19536000  1.0
  C  C46  1  0.41128000  0.83587000  0.69536000  1.0
  C  C47  1  0.08872000  0.33587000  0.80465000  1.0
  C  C48  1  0.43539000  0.16724000  0.26071000  1.0
  C  C49  1  0.06461000  0.66725000  0.23929000  1.0
  C  C50  1  0.56461000  0.83276000  0.73929000  1.0
  C  C51  1  0.93539000  0.33275000  0.76071000  1.0
  C  C52  1  0.36152000  0.04359000  0.23029000  1.0
  C  C53  1  0.13848000  0.54359000  0.26972000  1.0
  C  C54  1  0.63848000  0.95641000  0.76971000  1.0
  C  C55  1  0.86152000  0.45641000  0.73029000  1.0
  C  C56  1  0.44129000  0.91788000  0.24696000  1.0
  C  C57  1  0.05871000  0.41788000  0.25304000  1.0
  C  C58  1  0.55871000  0.08212000  0.75304000  1.0
  C  C59  1  0.94129000  0.58212000  0.74696000  1.0
  C  C60  1  0.59519000  0.91526000  0.28956000  1.0
  C  C61  1  0.90481000  0.41526000  0.21044000  1.0
  C  C62  1  0.40481000  0.08474000  0.71044000  1.0
  C  C63  1  0.09519000  0.58474000  0.78956000  1.0
  C  C64  1  0.01339000  0.13438000  0.09005000  1.0
  C  C65  1  0.48661000  0.63438000  0.40995000  1.0
  C  C66  1  0.98661000  0.86562000  0.90995000  1.0
  C  C67  1  0.51340000  0.36562000  0.59005000  1.0
  C  C68  1  0.97718000  0.22797000  0.01960000  1.0
  C  C69  1  0.52282000  0.72797000  0.48040000  1.0
  C  C70  1  0.02281000  0.77203000  0.98040000  1.0
  C  C71  1  0.47719000  0.27203000  0.51960000  1.0
  C  C72  1  0.82209000  0.24017000  0.98022000  1.0
  C  C73  1  0.67791000  0.74018000  0.51978000  1.0
  C  C74  1  0.17791000  0.75983000  0.01978000  1.0
  C  C75  1  0.32210000  0.25982000  0.48022000  1.0
  C  C76  1  0.69934000  0.15879000  0.01214000  1.0
  C  C77  1  0.80066000  0.65879000  0.48786000  1.0
  C  C78  1  0.30066000  0.84121000  0.98786000  1.0
  C  C79  1  0.19934000  0.34120000  0.51214000  1.0
  C  C80  1  0.73490000  0.06406000  0.08249000  1.0
  C  C81  1  0.76509000  0.56407000  0.41751000  1.0
  C  C82  1  0.26509000  0.93593000  0.91751000  1.0
  C  C83  1  0.23491000  0.43593000  0.58249000  1.0
  C  C84  1  0.88984000  0.05221000  0.12129000  1.0
  C  C85  1  0.61015000  0.55221000  0.37871000  1.0
  C  C86  1  0.11015000  0.94779000  0.87871000  1.0
  C  C87  1  0.38985000  0.44779000  0.62129000  1.0
  S  S88  1  0.85772000  0.03341000  0.38130000  1.0
  S  S89  1  0.64228000  0.53341000  0.11870000  1.0
  S  S90  1  0.14228000  0.96659000  0.61870000  1.0
  S  S91  1  0.35772000  0.46659000  0.88130000  1.0
  N  N92  1  0.20778000  0.03733000  0.18567000  1.0
  N  N93  1  0.29222000  0.53733000  0.31433000  1.0
  N  N94  1  0.79222000  0.96267000  0.81433000  1.0
  N  N95  1  0.70778000  0.46267000  0.68567000  1.0
  N  N96  1  0.17205000  0.13157000  0.12841000  1.0
  N  N97  1  0.32795000  0.63157000  0.37159000  1.0
  N  N98  1  0.82794000  0.86843000  0.87159000  1.0
  N  N99  1  0.67206000  0.36843000  0.62841000  1.0
  O  O100  1  0.94876000  0.15569000  0.35542000  1.0
  O  O101  1  0.55124000  0.65569000  0.14458000  1.0
  O  O102  1  0.05124000  0.84431000  0.64458000  1.0
  O  O103  1  0.44876000  0.34431000  0.85542000  1.0
  O  O104  1  0.81937000  0.03630000  0.47607000  1.0
  O  O105  1  0.68062000  0.53630000  0.02393000  1.0
  O  O106  1  0.18062000  0.96370000  0.52393000  1.0
  O  O107  1  0.31938000  0.46370000  0.97607000  1.0
  O  O108  1  0.93014000  0.90329000  0.35477000  1.0
  O  O109  1  0.56986000  0.40329000  0.14523000  1.0
  O  O110  1  0.06986000  0.09672000  0.64523000  1.0
  O  O111  1  0.43014000  0.59671000  0.85477000  1.0
  O  O112  1  0.54440000  0.16859000  0.97945000  1.0
  O  O113  1  0.95560000  0.66860000  0.52055000  1.0
  O  O114  1  0.45560000  0.83140000  0.02055000  1.0
  O  O115  1  0.04440000  0.33140000  0.47945000  1.0
