# generated using pymatgen
data_AlH12C15N2O5
_symmetry_space_group_name_H-M   'P 1'
_cell_length_a   6.65477000
_cell_length_b   15.28358286
_cell_length_c   16.87950000
_cell_angle_alpha   92.45340532
_cell_angle_beta   96.21990000
_cell_angle_gamma   102.21425939
_symmetry_Int_Tables_number   1
_chemical_formula_structural   AlH12C15N2O5
_chemical_formula_sum   'Al2 H24 C30 N4 O10'
_cell_volume   1664.23131606
_cell_formula_units_Z   2
loop_
 _symmetry_equiv_pos_site_id
 _symmetry_equiv_pos_as_xyz
  1  'x, y, z'
loop_
 _atom_site_type_symbol
 _atom_site_label
 _atom_site_symmetry_multiplicity
 _atom_site_fract_x
 _atom_site_fract_y
 _atom_site_fract_z
 _atom_site_occupancy
  Al  Al0  1  0.99605000  0.49828000  0.49896000  1.0
  Al  Al1  1  0.49442000  0.49477000  0.49984000  1.0
  H  H2  1  0.17619000  0.38824000  0.45486000  1.0
  H  H3  1  0.80421000  0.60635000  0.53840000  1.0
  H  H4  1  0.58958000  0.45578000  0.73227000  1.0
  H  H5  1  0.65562000  0.45356000  0.88181000  1.0
  H  H6  1  0.09011000  0.54198000  0.90197000  1.0
  H  H7  1  0.92602000  0.53844000  0.10030000  1.0
  H  H8  1  0.27342000  0.44961000  0.11308000  1.0
  H  H9  1  0.34830000  0.44575000  0.26226000  1.0
  H  H10  1  0.74376000  0.93182000  0.43597000  1.0
  H  H11  1  0.32047000  0.05894000  0.58742000  1.0
  H  H12  1  0.85421000  0.22703000  0.43661000  1.0
  H  H13  1  0.77075000  0.06215000  0.42118000  1.0
  H  H14  1  0.10752000  0.76987000  0.53539000  1.0
  H  H15  1  0.18662000  0.93470000  0.54421000  1.0
  H  H16  1  0.94715000  0.54244000  0.68739000  1.0
  H  H17  1  0.88162000  0.56354000  0.78297000  1.0
  H  H18  1  0.07647000  0.53201000  0.31362000  1.0
  H  H19  1  0.16120000  0.55420000  0.22025000  1.0
  H  H20  1  0.80152000  0.80671000  0.37655000  1.0
  H  H21  1  0.61100000  0.70415000  0.36416000  1.0
  H  H22  1  0.79651000  0.72552000  0.44877000  1.0
  H  H23  1  0.23521000  0.26198000  0.57893000  1.0
  H  H24  1  0.45400000  0.28939000  0.65114000  1.0
  H  H25  1  0.27518000  0.18465000  0.65172000  1.0
  C  C26  1  0.67098000  0.33574000  0.51323000  1.0
  C  C27  1  0.70249000  0.48969000  0.35358000  1.0
  C  C28  1  0.32450667  0.65784000  0.48475000  1.0
  C  C29  1  0.28687000  0.50361000  0.64504000  1.0
  C  C30  1  0.30845000  0.50211000  0.73273000  1.0
  C  C31  1  0.48396000  0.47613000  0.77077000  1.0
  C  C32  1  0.52181000  0.47497000  0.85270000  1.0
  C  C33  1  0.37711000  0.50057000  0.89945000  1.0
  C  C34  1  0.19946000  0.52415000  0.86368000  1.0
  C  C35  1  0.15998000  0.52623000  0.77976000  1.0
  C  C36  1  0.80066000  0.51958000  0.13714000  1.0
  C  C37  1  0.59817000  0.49743000  0.09964000  1.0
  C  C38  1  0.42982000  0.47021000  0.14403000  1.0
  C  C39  1  0.47241000  0.46799000  0.22573000  1.0
  C  C40  1  0.67545000  0.49256000  0.26594000  1.0
  C  C41  1  0.84579000  0.51871000  0.22092000  1.0
  C  C42  1  0.37843000  0.75706000  0.48142000  1.0
  C  C43  1  0.62572000  0.23636000  0.51543000  1.0
  C  C44  1  0.55807000  0.80327000  0.45069000  1.0
  C  C45  1  0.60293000  0.89706000  0.45844000  1.0
  C  C46  1  0.47230000  0.18881000  0.55876000  1.0
  C  C47  1  0.43367000  0.09512000  0.55169000  1.0
  C  C48  1  0.73499000  0.18908000  0.46883000  1.0
  C  C49  1  0.68830000  0.09602000  0.46079000  1.0
  C  C50  1  0.24760000  0.80640000  0.51374000  1.0
  C  C51  1  0.29433000  0.89941000  0.51955000  1.0
  C  C52  1  0.47751000  0.94731000  0.49352000  1.0
  C  C53  1  0.53376000  0.04659000  0.50185000  1.0
  C  C54  1  0.69886000  0.75759000  0.40788000  1.0
  C  C55  1  0.35345000  0.23358000  0.61313000  1.0
  N  N56  1  0.39693000  0.50158000  0.98390000  1.0
  N  N57  1  0.57820000  0.50130000  0.01565000  1.0
  N  N58  1  0.98849000  0.55310000  0.74741000  1.0
  N  N59  1  0.04546000  0.54429000  0.25533000  1.0
  O  O60  1  0.85668000  0.37553000  0.50651000  1.0
  O  O61  1  0.54133000  0.48131000  0.38984000  1.0
  O  O62  1  0.47163000  0.61612000  0.48554000  1.0
  O  O63  1  0.10787000  0.50583000  0.60889000  1.0
  O  O64  1  0.13574000  0.62068000  0.48946000  1.0
  O  O65  1  0.44745000  0.50358000  0.60997000  1.0
  O  O66  1  0.51943000  0.37432000  0.51517000  1.0
  O  O67  1  0.88661000  0.49524000  0.38872000  1.0
  O  O68  1  0.21382000  0.45273000  0.46619000  1.0
  O  O69  1  0.77541000  0.54133000  0.53253000  1.0
