# generated using pymatgen
data_Ag2H8C11N7O6
_symmetry_space_group_name_H-M   'P 1'
_cell_length_a   6.77632000
_cell_length_b   10.36570000
_cell_length_c   11.51540000
_cell_angle_alpha   64.90440000
_cell_angle_beta   89.51570000
_cell_angle_gamma   73.14990000
_symmetry_Int_Tables_number   1
_chemical_formula_structural   Ag2H8C11N7O6
_chemical_formula_sum   'Ag4 H16 C22 N14 O12'
_cell_volume   694.90948886
_cell_formula_units_Z   2
loop_
 _symmetry_equiv_pos_site_id
 _symmetry_equiv_pos_as_xyz
  1  'x, y, z'
loop_
 _atom_site_type_symbol
 _atom_site_label
 _atom_site_symmetry_multiplicity
 _atom_site_fract_x
 _atom_site_fract_y
 _atom_site_fract_z
 _atom_site_occupancy
  Ag  Ag0  1  0.88304000  0.20178000  0.55876000  1.0
  Ag  Ag1  1  0.11696000  0.79822000  0.44124000  1.0
  Ag  Ag2  1  0.75058000  0.03845000  0.43605000  1.0
  Ag  Ag3  1  0.24942000  0.96155000  0.56395000  1.0
  H  H4  1  0.74540000  0.98806000  0.02348000  1.0
  H  H5  1  0.25460000  0.01194000  0.97652000  1.0
  H  H6  1  0.72613000  0.70989000  0.85441000  1.0
  H  H7  1  0.27387000  0.29011000  0.14559000  1.0
  H  H8  1  0.74864000  0.54640000  0.09566000  1.0
  H  H9  1  0.25136000  0.45360000  0.90435000  1.0
  H  H10  1  0.76579000  0.24973000  0.94031000  1.0
  H  H11  1  0.23422000  0.75027000  0.05969000  1.0
  H  H12  1  0.09827000  0.39325000  0.32969000  1.0
  H  H13  1  0.90173000  0.60675000  0.67031000  1.0
  H  H14  1  0.35352000  0.52624000  0.30027000  1.0
  H  H15  1  0.64647000  0.47376000  0.69973000  1.0
  H  H16  1  0.44179000  0.36378000  0.71627000  1.0
  H  H17  1  0.55821000  0.63622000  0.28373000  1.0
  H  H18  1  0.18656000  0.23377000  0.72810000  1.0
  H  H19  1  0.81344000  0.76623000  0.27190000  1.0
  C  C20  1  0.17952000  0.38835000  0.41296000  1.0
  C  C21  1  0.82048000  0.61165000  0.58704000  1.0
  C  C22  1  0.32390000  0.46373000  0.39770000  1.0
  C  C23  1  0.67609000  0.53627000  0.60230000  1.0
  C  C24  1  0.42408000  0.45918000  0.50622000  1.0
  C  C25  1  0.57592000  0.54082000  0.49377000  1.0
  C  C26  1  0.37243000  0.37375000  0.62722000  1.0
  C  C27  1  0.62757000  0.62625000  0.37277000  1.0
  C  C28  1  0.22785000  0.30036000  0.63510000  1.0
  C  C29  1  0.77215000  0.69965000  0.36490000  1.0
  C  C30  1  0.76939000  0.07486000  0.82642000  1.0
  C  C31  1  0.23061000  0.92514000  0.17358000  1.0
  C  C32  1  0.72834000  0.83125000  0.95831000  1.0
  C  C33  1  0.27166000  0.16875000  0.04169000  1.0
  C  C34  1  0.73800000  0.92341000  0.72673000  1.0
  C  C35  1  0.26201000  0.07659000  0.27327000  1.0
  C  C36  1  0.75965000  0.33049000  0.23025000  1.0
  C  C37  1  0.24035000  0.66951000  0.76975000  1.0
  C  C38  1  0.75266000  0.16454000  0.13909000  1.0
  C  C39  1  0.24734000  0.83546000  0.86091000  1.0
  C  C40  1  0.75363000  0.41864000  0.99722000  1.0
  C  C41  1  0.24637000  0.58136000  0.00278000  1.0
  N  N42  1  0.13076000  0.30762000  0.52960000  1.0
  N  N43  1  0.86924000  0.69238000  0.47040000  1.0
  N  N44  1  0.76401000  0.05090000  0.71850000  1.0
  N  N45  1  0.23599000  0.94910000  0.28150000  1.0
  N  N46  1  0.74240000  0.96668000  0.94262000  1.0
  N  N47  1  0.25760000  0.03332000  0.05738000  1.0
  N  N48  1  0.73103000  0.81274000  0.84661000  1.0
  N  N49  1  0.26897000  0.18726000  0.15339000  1.0
  N  N50  1  0.75518000  0.44007000  0.10666000  1.0
  N  N51  1  0.24482000  0.55993000  0.89334000  1.0
  N  N52  1  0.75833000  0.27703000  0.01845000  1.0
  N  N53  1  0.24167000  0.72297000  0.98155000  1.0
  N  N54  1  0.75550000  0.19391000  0.24367000  1.0
  N  N55  1  0.24450000  0.80609000  0.75633000  1.0
  O  O56  1  0.79743000  0.19043000  0.82212000  1.0
  O  O57  1  0.20258000  0.80957000  0.17788000  1.0
  O  O58  1  0.71577000  0.73253000  0.06473000  1.0
  O  O59  1  0.28423000  0.26747000  0.93526000  1.0
  O  O60  1  0.72223000  0.89592000  0.63061000  1.0
  O  O61  1  0.27777000  0.10408000  0.36939000  1.0
  O  O62  1  0.76709000  0.36109000  0.32319000  1.0
  O  O63  1  0.23291000  0.63891000  0.67681000  1.0
  O  O64  1  0.74784000  0.51985000  0.88756000  1.0
  O  O65  1  0.25216000  0.48015000  0.11244000  1.0
  O  O66  1  0.74604000  0.04141000  0.14827000  1.0
  O  O67  1  0.25397000  0.95859000  0.85173000  1.0
