# generated using pymatgen
data_CoH22C32N4O5
_symmetry_space_group_name_H-M   'P 1'
_cell_length_a   10.56200000
_cell_length_b   10.96050000
_cell_length_c   13.15870000
_cell_angle_alpha   113.45900000
_cell_angle_beta   91.00520000
_cell_angle_gamma   96.86040000
_symmetry_Int_Tables_number   1
_chemical_formula_structural   CoH22C32N4O5
_chemical_formula_sum   'Co2 H44 C64 N8 O10'
_cell_volume   1383.85160339
_cell_formula_units_Z   2
loop_
 _symmetry_equiv_pos_site_id
 _symmetry_equiv_pos_as_xyz
  1  'x, y, z'
loop_
 _atom_site_type_symbol
 _atom_site_label
 _atom_site_symmetry_multiplicity
 _atom_site_fract_x
 _atom_site_fract_y
 _atom_site_fract_z
 _atom_site_occupancy
  Co  Co0  1  0.41565000  0.17299000  0.25942000  1.0
  Co  Co1  1  0.58435000  0.82702000  0.74058000  1.0
  H  H2  1  0.65262000  0.14565000  0.11373000  1.0
  H  H3  1  0.34737000  0.85435000  0.88627000  1.0
  H  H4  1  0.65228000  0.21466000  0.93129000  1.0
  H  H5  1  0.34772000  0.78534000  0.06871000  1.0
  H  H6  1  0.28744000  0.23856000  0.06170000  1.0
  H  H7  1  0.71255000  0.76143000  0.93830000  1.0
  H  H8  1  0.52091000  0.15038000  0.76336000  1.0
  H  H9  1  0.47909000  0.84962000  0.23664000  1.0
  H  H10  1  0.45746000  0.23403000  0.62041000  1.0
  H  H11  1  0.54254000  0.76597000  0.37959000  1.0
  H  H12  1  0.24321000  0.51181000  0.86074000  1.0
  H  H13  1  0.75679000  0.48817000  0.13926000  1.0
  H  H14  1  0.31042000  0.43278000  0.00343000  1.0
  H  H15  1  0.68958000  0.56721000  0.99656000  1.0
  H  H16  1  0.85504000  0.75706000  0.71018000  1.0
  H  H17  1  0.14497000  0.24294000  0.28982000  1.0
  H  H18  1  0.50824000  0.49534000  0.59743000  1.0
  H  H19  1  0.49176000  0.50467000  0.40256000  1.0
  H  H20  1  0.70623000  0.34278000  0.55802000  1.0
  H  H21  1  0.29377000  0.65722000  0.44198000  1.0
  H  H22  1  0.88730000  0.30193000  0.60949000  1.0
  H  H23  1  0.11270000  0.69807000  0.39051000  1.0
  H  H24  1  0.10822000  0.25336000  0.62284000  1.0
  H  H25  1  0.89178000  0.74663000  0.37716000  1.0
  H  H26  1  0.25738000  0.65676000  0.66961000  1.0
  H  H27  1  0.74261000  0.34323000  0.33039000  1.0
  H  H28  1  0.03683000  0.70566000  0.65212000  1.0
  H  H29  1  0.96317000  0.29433000  0.34788000  1.0
  H  H30  1  0.63511000  0.06096000  0.56013000  1.0
  H  H31  1  0.36488000  0.93904000  0.43988000  1.0
  H  H32  1  0.83036000  0.99940000  0.61601000  1.0
  H  H33  1  0.16963000  0.00060000  0.38400000  1.0
  H  H34  1  0.00788000  0.03050000  0.33152000  1.0
  H  H35  1  0.99212000  0.96951000  0.66850000  1.0
  H  H36  1  0.80790000  0.08838000  0.27574000  1.0
  H  H37  1  0.19211000  0.91162000  0.72427000  1.0
  H  H38  1  0.22904000  0.79870000  0.24031000  1.0
  H  H39  1  0.77096000  0.20132000  0.75969000  1.0
  H  H40  1  0.13783000  0.56109000  0.16052000  1.0
  H  H41  1  0.86218000  0.43892000  0.83948000  1.0
  H  H42  1  0.92831000  0.62587000  0.90511000  1.0
  H  H43  1  0.07170000  0.37414000  0.09488000  1.0
  H  H44  1  0.01531000  0.86525000  0.99031000  1.0
  H  H45  1  0.98469000  0.13476000  0.00969000  1.0
  C  C46  1  0.57758000  0.17615000  0.07574000  1.0
  C  C47  1  0.42242000  0.82384000  0.92426000  1.0
  C  C48  1  0.57848000  0.20900000  0.98567000  1.0
  C  C49  1  0.42152000  0.79099000  0.01433000  1.0
  C  C50  1  0.38770000  0.22674000  0.05404000  1.0
  C  C51  1  0.61230000  0.77326000  0.94595000  1.0
  C  C52  1  0.41901000  0.28640000  0.89121000  1.0
  C  C53  1  0.58099000  0.71360000  0.10879000  1.0
  C  C54  1  0.46224000  0.23138000  0.78454000  1.0
  C  C55  1  0.53776000  0.76861000  0.21546000  1.0
  C  C56  1  0.42720000  0.27746000  0.70495000  1.0
  C  C57  1  0.57280000  0.72254000  0.29505000  1.0
  C  C58  1  0.34787000  0.37749000  0.73338000  1.0
  C  C59  1  0.65213000  0.62250000  0.26661000  1.0
  C  C60  1  0.30369000  0.43255000  0.83969000  1.0
  C  C61  1  0.69630000  0.56744000  0.16031000  1.0
  C  C62  1  0.34035000  0.38730000  0.91916000  1.0
  C  C63  1  0.65965000  0.61269000  0.08084000  1.0
  C  C64  1  0.78845000  0.66615000  0.66866000  1.0
  C  C65  1  0.21155000  0.33385000  0.33135000  1.0
  C  C66  1  0.61039000  0.52736000  0.61304000  1.0
  C  C67  1  0.38960000  0.47265000  0.38696000  1.0
  C  C68  1  0.70784000  0.45051000  0.59416000  1.0
  C  C69  1  0.29216000  0.54949000  0.40584000  1.0
  C  C70  1  0.94721000  0.50837000  0.63264000  1.0
  C  C71  1  0.05279000  0.49163000  0.36737000  1.0
  C  C72  1  0.96727000  0.38035000  0.62253000  1.0
  C  C73  1  0.03273000  0.61964000  0.37746000  1.0
  C  C74  1  0.09129000  0.35233000  0.62973000  1.0
  C  C75  1  0.90871000  0.64766000  0.37027000  1.0
  C  C76  1  0.19457000  0.45246000  0.64769000  1.0
  C  C77  1  0.80543000  0.54753000  0.35231000  1.0
  C  C78  1  0.17563000  0.57976000  0.65609000  1.0
  C  C79  1  0.82437000  0.42023000  0.34391000  1.0
  C  C80  1  0.05141000  0.60710000  0.64768000  1.0
  C  C81  1  0.94859000  0.39290000  0.35232000  1.0
  C  C82  1  0.58992000  0.12658000  0.38701000  1.0
  C  C83  1  0.41008000  0.87342000  0.61300000  1.0
  C  C84  1  0.71021000  0.08586000  0.41739000  1.0
  C  C85  1  0.28978000  0.91414000  0.58261000  1.0
  C  C86  1  0.71858000  0.05827000  0.51228000  1.0
  C  C87  1  0.28141000  0.94174000  0.48772000  1.0
  C  C88  1  0.83052000  0.02282000  0.54313000  1.0
  C  C89  1  0.16947000  0.97718000  0.45688000  1.0
  C  C90  1  0.93956000  0.01600000  0.48191000  1.0
  C  C91  1  0.06043000  0.98400000  0.51810000  1.0
  C  C92  1  0.92823000  0.03941000  0.38429000  1.0
  C  C93  1  0.07177000  0.96060000  0.61573000  1.0
  C  C94  1  0.81565000  0.07270000  0.35227000  1.0
  C  C95  1  0.18435000  0.92730000  0.64773000  1.0
  C  C96  1  0.19291000  0.99000000  0.16321000  1.0
  C  C97  1  0.80709000  0.01001000  0.83679000  1.0
  C  C98  1  0.12877000  0.84781000  0.12055000  1.0
  C  C99  1  0.87123000  0.15221000  0.87945000  1.0
  C  C100  1  0.16138000  0.76024000  0.16764000  1.0
  C  C101  1  0.83863000  0.23977000  0.83236000  1.0
  C  C102  1  0.11034000  0.62550000  0.12121000  1.0
  C  C103  1  0.88966000  0.37451000  0.87879000  1.0
  C  C104  1  0.02570000  0.57221000  0.02527000  1.0
  C  C105  1  0.97432000  0.42780000  0.97473000  1.0
  C  C106  1  0.99258000  0.66199000  0.97983000  1.0
  C  C107  1  0.00743000  0.33802000  0.02016000  1.0
  C  C108  1  0.04191000  0.79750000  0.02688000  1.0
  C  C109  1  0.95809000  0.20251000  0.97312000  1.0
  N  N110  1  0.45825000  0.18799000  0.11777000  1.0
  N  N111  1  0.54175000  0.81201000  0.88223000  1.0
  N  N112  1  0.45807000  0.24120000  0.97274000  1.0
  N  N113  1  0.54194000  0.75880000  0.02726000  1.0
  N  N114  1  0.82064000  0.53962000  0.63000000  1.0
  N  N115  1  0.17937000  0.46038000  0.37000000  1.0
  N  N116  1  0.66197000  0.66175000  0.66004000  1.0
  N  N117  1  0.33803000  0.33825000  0.33996000  1.0
  O  O118  1  0.58561000  0.14015000  0.29282000  1.0
  O  O119  1  0.41440000  0.85986000  0.70719000  1.0
  O  O120  1  0.49948000  0.14714000  0.44918000  1.0
  O  O121  1  0.50051000  0.85286000  0.55081000  1.0
  O  O122  1  0.29132000  0.01682000  0.23402000  1.0
  O  O123  1  0.70868000  0.98320000  0.76598000  1.0
  O  O124  1  0.15407000  0.07225000  0.13004000  1.0
  O  O125  1  0.84592000  0.92777000  0.86997000  1.0
  O  O126  1  0.31873000  0.42512000  0.65370000  1.0
  O  O127  1  0.68128000  0.57487000  0.34630000  1.0
