# generated using pymatgen
data_ErH19C30N5O7
_symmetry_space_group_name_H-M   'P 1'
_cell_length_a   10.40830000
_cell_length_b   11.19690000
_cell_length_c   13.36740000
_cell_angle_alpha   109.84300000
_cell_angle_beta   101.37800000
_cell_angle_gamma   108.15800000
_symmetry_Int_Tables_number   1
_chemical_formula_structural   ErH19C30N5O7
_chemical_formula_sum   'Er2 H38 C60 N10 O14'
_cell_volume   1309.88943024
_cell_formula_units_Z   2
loop_
 _symmetry_equiv_pos_site_id
 _symmetry_equiv_pos_as_xyz
  1  'x, y, z'
loop_
 _atom_site_type_symbol
 _atom_site_label
 _atom_site_symmetry_multiplicity
 _atom_site_fract_x
 _atom_site_fract_y
 _atom_site_fract_z
 _atom_site_occupancy
  Er  Er0  1  0.50068000  0.08549000  0.37608000  1.0
  Er  Er1  1  0.49932000  0.91451000  0.62392000  1.0
  H  H2  1  0.41360000  0.56127000  0.98723000  1.0
  H  H3  1  0.58640000  0.43874000  0.01277000  1.0
  H  H4  1  0.26991000  0.31948000  0.95924000  1.0
  H  H5  1  0.73010000  0.68053000  0.04076000  1.0
  H  H6  1  0.96107000  0.45231000  0.38688000  1.0
  H  H7  1  0.03893000  0.54768000  0.61312000  1.0
  H  H8  1  0.02950000  0.30866000  0.47770000  1.0
  H  H9  1  0.97049000  0.69134000  0.52230000  1.0
  H  H10  1  0.23850000  0.24850000  0.44915000  1.0
  H  H11  1  0.76151000  0.75151000  0.55085000  1.0
  H  H12  1  0.92688000  0.31033000  0.70749000  1.0
  H  H13  1  0.07313000  0.68967000  0.29251000  1.0
  H  H14  1  0.19509000  0.43994000  0.78865000  1.0
  H  H15  1  0.80492000  0.56006000  0.21134000  1.0
  H  H16  1  0.34451000  0.32475000  0.70547000  1.0
  H  H17  1  0.65549000  0.67525000  0.29452000  1.0
  H  H18  1  0.14999000  0.94230000  0.22975000  1.0
  H  H19  1  0.85001000  0.05770000  0.77025000  1.0
  H  H20  1  0.96375000  0.78312000  0.03505000  1.0
  H  H21  1  0.03625000  0.21689000  0.96495000  1.0
  H  H22  1  0.04421000  0.68597000  0.87436000  1.0
  H  H23  1  0.95579000  0.31403000  0.12564000  1.0
  H  H24  1  0.25199000  0.68052000  0.80367000  1.0
  H  H25  1  0.74802000  0.31948000  0.19633000  1.0
  H  H26  1  0.51236000  0.74894000  0.84419000  1.0
  H  H27  1  0.48764000  0.25106000  0.15582000  1.0
  H  H28  1  0.76399000  0.88249000  0.98417000  1.0
  H  H29  1  0.23601000  0.11752000  0.01583000  1.0
  H  H30  1  0.92656000  0.03897000  0.18691000  1.0
  H  H31  1  0.07344000  0.96104000  0.81310000  1.0
  H  H32  1  0.81482000  0.11029000  0.33415000  1.0
  H  H33  1  0.18518000  0.88971000  0.66586000  1.0
  H  H34  1  0.49114000  0.75730000  0.18073000  1.0
  H  H35  1  0.50886000  0.24271000  0.81927000  1.0
  H  H36  1  0.74105000  0.34675000  0.47054000  1.0
  H  H37  1  0.25895000  0.65325000  0.52946000  1.0
  H  H38  1  0.63658000  0.35291000  0.37100000  1.0
  H  H39  1  0.36342000  0.64709000  0.62900000  1.0
  C  C40  1  0.42674000  0.74755000  0.35892000  1.0
  C  C41  1  0.57325000  0.25245000  0.64108000  1.0
  C  C42  1  0.38011000  0.62512000  0.24698000  1.0
  C  C43  1  0.61989000  0.37488000  0.75302000  1.0
  C  C44  1  0.38276000  0.54264000  0.05556000  1.0
  C  C45  1  0.61724000  0.45737000  0.94444000  1.0
  C  C46  1  0.30263000  0.40860000  0.04040000  1.0
  C  C47  1  0.69737000  0.59141000  0.95961000  1.0
  C  C48  1  0.29784000  0.48622000  0.22283000  1.0
  C  C49  1  0.70216000  0.51378000  0.77717000  1.0
  C  C50  1  0.23523000  0.44421000  0.30331000  1.0
  C  C51  1  0.76477000  0.55578000  0.69669000  1.0
  C  C52  1  0.05263000  0.42658000  0.37849000  1.0
  C  C53  1  0.94737000  0.57341000  0.62150000  1.0
  C  C54  1  0.09008000  0.34553000  0.42839000  1.0
  C  C55  1  0.90992000  0.65447000  0.57161000  1.0
  C  C56  1  0.20569000  0.31297000  0.41340000  1.0
  C  C57  1  0.79431000  0.68703000  0.58661000  1.0
  C  C58  1  0.28122000  0.36391000  0.35046000  1.0
  C  C59  1  0.71878000  0.63609000  0.64954000  1.0
  C  C60  1  0.40664000  0.32960000  0.33515000  1.0
  C  C61  1  0.59336000  0.67039000  0.66485000  1.0
  C  C62  1  0.77224000  0.06051000  0.54230000  1.0
  C  C63  1  0.22776000  0.93949000  0.45769000  1.0
  C  C64  1  0.93423000  0.12726000  0.58815000  1.0
  C  C65  1  0.06577000  0.87274000  0.41184000  1.0
  C  C66  1  0.99590000  0.26155000  0.67672000  1.0
  C  C67  1  0.00410000  0.73846000  0.32327000  1.0
  C  C68  1  0.14459000  0.33435000  0.72129000  1.0
  C  C69  1  0.85541000  0.66564000  0.27870000  1.0
  C  C70  1  0.22785000  0.26965000  0.67551000  1.0
  C  C71  1  0.77215000  0.73034000  0.32448000  1.0
  C  C72  1  0.02709000  0.07001000  0.54759000  1.0
  C  C73  1  0.97290000  0.92999000  0.45240000  1.0
  C  C74  1  0.18034000  0.89836000  0.15660000  1.0
  C  C75  1  0.81966000  0.10164000  0.84340000  1.0
  C  C76  1  0.07750000  0.80983000  0.04845000  1.0
  C  C77  1  0.92250000  0.19017000  0.95155000  1.0
  C  C78  1  0.12203000  0.75645000  0.95894000  1.0
  C  C79  1  0.87797000  0.24355000  0.04106000  1.0
  C  C80  1  0.27046000  0.79439000  0.97787000  1.0
  C  C81  1  0.72953000  0.20561000  0.02214000  1.0
  C  C82  1  0.36657000  0.88482000  0.09006000  1.0
  C  C83  1  0.63343000  0.11518000  0.90995000  1.0
  C  C84  1  0.32668000  0.74683000  0.88986000  1.0
  C  C85  1  0.67333000  0.25317000  0.11015000  1.0
  C  C86  1  0.47126000  0.78596000  0.91210000  1.0
  C  C87  1  0.52875000  0.21404000  0.08790000  1.0
  C  C88  1  0.57099000  0.87607000  0.02438000  1.0
  C  C89  1  0.42901000  0.12393000  0.97562000  1.0
  C  C90  1  0.51918000  0.92614000  0.11379000  1.0
  C  C91  1  0.48082000  0.07386000  0.88621000  1.0
  C  C92  1  0.72128000  0.91846000  0.05150000  1.0
  C  C93  1  0.27873000  0.08154000  0.94850000  1.0
  C  C94  1  0.81006000  0.00313000  0.16245000  1.0
  C  C95  1  0.18994000  0.99687000  0.83756000  1.0
  C  C96  1  0.74877000  0.04526000  0.24566000  1.0
  C  C97  1  0.25123000  0.95474000  0.75435000  1.0
  C  C98  1  0.42360000  0.65098000  0.16127000  1.0
  C  C99  1  0.57640000  0.34902000  0.83874000  1.0
  N  N100  1  0.26172000  0.37990000  0.12166000  1.0
  N  N101  1  0.73828000  0.62009000  0.87834000  1.0
  N  N102  1  0.12281000  0.47517000  0.31665000  1.0
  N  N103  1  0.87719000  0.52483000  0.68335000  1.0
  N  N104  1  0.17097000  0.14112000  0.59222000  1.0
  N  N105  1  0.82902000  0.85888000  0.40777000  1.0
  N  N106  1  0.32078000  0.93354000  0.17751000  1.0
  N  N107  1  0.67922000  0.06645000  0.82250000  1.0
  N  N108  1  0.60778000  0.00882000  0.22268000  1.0
  N  N109  1  0.39222000  0.99118000  0.77733000  1.0
  O  O110  1  0.45658000  0.86569000  0.35721000  1.0
  O  O111  1  0.54341000  0.13431000  0.64279000  1.0
  O  O112  1  0.43558000  0.72818000  0.44769000  1.0
  O  O113  1  0.56442000  0.27182000  0.55231000  1.0
  O  O114  1  0.51914000  0.42018000  0.33975000  1.0
  O  O115  1  0.48086000  0.57982000  0.66025000  1.0
  O  O116  1  0.38825000  0.20497000  0.31869000  1.0
  O  O117  1  0.61174000  0.79502000  0.68131000  1.0
  O  O118  1  0.71630000  0.10171000  0.47467000  1.0
  O  O119  1  0.28370000  0.89828000  0.52532000  1.0
  O  O120  1  0.70794000  0.98536000  0.58473000  1.0
  O  O121  1  0.29205000  0.01464000  0.41527000  1.0
  O  O122  1  0.68924000  0.29660000  0.38931000  1.0
  O  O123  1  0.31076000  0.70340000  0.61070000  1.0
