# generated using pymatgen
data_MnH20C23N4O5
_symmetry_space_group_name_H-M   'P 1'
_cell_length_a   8.15022000
_cell_length_b   11.81570000
_cell_length_c   15.29650000
_cell_angle_alpha   102.65600000
_cell_angle_beta   100.33400000
_cell_angle_gamma   107.00500000
_symmetry_Int_Tables_number   1
_chemical_formula_structural   MnH20C23N4O5
_chemical_formula_sum   'Mn2 H40 C46 N8 O10'
_cell_volume   1326.81747216
_cell_formula_units_Z   2
loop_
 _symmetry_equiv_pos_site_id
 _symmetry_equiv_pos_as_xyz
  1  'x, y, z'
loop_
 _atom_site_type_symbol
 _atom_site_label
 _atom_site_symmetry_multiplicity
 _atom_site_fract_x
 _atom_site_fract_y
 _atom_site_fract_z
 _atom_site_occupancy
  Mn  Mn0  1  0.03202000  0.38508000  0.57973000  1.0
  Mn  Mn1  1  0.96798000  0.61492000  0.42026000  1.0
  H  H2  1  0.64955000  0.40994000  0.24317000  1.0
  H  H3  1  0.35045000  0.59006000  0.75683000  1.0
  H  H4  1  0.53340000  0.28091000  0.07666000  1.0
  H  H5  1  0.46660000  0.71909000  0.92334000  1.0
  H  H6  1  0.63847000  0.97512000  0.15369000  1.0
  H  H7  1  0.36150000  0.02487000  0.84632000  1.0
  H  H8  1  0.75455000  0.10400000  0.32030000  1.0
  H  H9  1  0.24543000  0.89599000  0.67970000  1.0
  H  H10  1  0.73562000  0.08052000  0.70267000  1.0
  H  H11  1  0.26438000  0.91950000  0.29733000  1.0
  H  H12  1  0.70531000  0.95595000  0.81670000  1.0
  H  H13  1  0.29467000  0.04406000  0.18329000  1.0
  H  H14  1  0.23854000  0.17586000  0.97838000  1.0
  H  H15  1  0.76146000  0.82413000  0.02161000  1.0
  H  H16  1  0.26509000  0.30501000  0.86666000  1.0
  H  H17  1  0.73491000  0.69498000  0.13334000  1.0
  H  H18  1  0.98529000  0.12750000  0.46703000  1.0
  H  H19  1  0.01472000  0.87251000  0.53298000  1.0
  H  H20  1  0.16110000  0.98731000  0.44276000  1.0
  H  H21  1  0.83891000  0.01271000  0.55725000  1.0
  H  H22  1  0.66913000  0.11323000  0.51761000  1.0
  H  H23  1  0.33087000  0.88677000  0.48239000  1.0
  H  H24  1  0.63501000  0.30944000  0.57626000  1.0
  H  H25  1  0.36499000  0.69056000  0.42374000  1.0
  H  H26  1  0.43694000  0.43480000  0.59569000  1.0
  H  H27  1  0.56306000  0.56519000  0.40432000  1.0
  H  H28  1  0.99734000  0.52782000  0.77732000  1.0
  H  H29  1  0.00267000  0.47218000  0.22268000  1.0
  H  H30  1  0.73927000  0.63085000  0.61578000  1.0
  H  H31  1  0.26074000  0.36914000  0.38423000  1.0
  H  H32  1  0.83765000  0.78510000  0.69198000  1.0
  H  H33  1  0.16236000  0.21490000  0.30802000  1.0
  H  H34  1  0.63470000  0.68490000  0.70205000  1.0
  H  H35  1  0.36531000  0.31510000  0.29796000  1.0
  H  H36  1  0.99205000  0.67218000  0.88974000  1.0
  H  H37  1  0.00796000  0.32782000  0.11027000  1.0
  H  H38  1  0.80988000  0.72797000  0.87450000  1.0
  H  H39  1  0.19015000  0.27203000  0.12551000  1.0
  H  H40  1  0.01483000  0.80999000  0.85570000  1.0
  H  H41  1  0.98518000  0.19000000  0.14431000  1.0
  C  C42  1  0.78125000  0.34132000  0.39129000  1.0
  C  C43  1  0.21876000  0.65868000  0.60870000  1.0
  C  C44  1  0.70618000  0.26396000  0.29245000  1.0
  C  C45  1  0.29381000  0.73603000  0.70755000  1.0
  C  C46  1  0.64328000  0.31406000  0.22361000  1.0
  C  C47  1  0.35673000  0.68594000  0.77638000  1.0
  C  C48  1  0.57999000  0.24306000  0.13127000  1.0
  C  C49  1  0.42001000  0.75694000  0.86873000  1.0
  C  C50  1  0.57601000  0.12016000  0.10555000  1.0
  C  C51  1  0.42398000  0.87984000  0.89445000  1.0
  C  C52  1  0.63969000  0.06970000  0.17444000  1.0
  C  C53  1  0.36030000  0.93030000  0.82556000  1.0
  C  C54  1  0.70375000  0.14124000  0.26641000  1.0
  C  C55  1  0.29624000  0.85876000  0.73359000  1.0
  C  C56  1  0.84431000  0.10135000  0.76353000  1.0
  C  C57  1  0.15569000  0.89866000  0.23647000  1.0
  C  C58  1  0.82729000  0.03227000  0.82633000  1.0
  C  C59  1  0.17270000  0.96773000  0.17367000  1.0
  C  C60  1  0.96861000  0.06055000  0.90455000  1.0
  C  C61  1  0.03137000  0.93945000  0.09544000  1.0
  C  C62  1  0.12870000  0.15831000  0.91905000  1.0
  C  C63  1  0.87129000  0.84168000  0.08095000  1.0
  C  C64  1  0.14373000  0.22801000  0.85693000  1.0
  C  C65  1  0.85626000  0.77199000  0.14307000  1.0
  C  C66  1  0.12971000  0.16277000  0.49148000  1.0
  C  C67  1  0.87030000  0.83723000  0.50853000  1.0
  C  C68  1  0.22802000  0.08558000  0.47880000  1.0
  C  C69  1  0.77199000  0.91443000  0.52120000  1.0
  C  C70  1  0.41471000  0.13622000  0.51169000  1.0
  C  C71  1  0.58530000  0.86379000  0.48831000  1.0
  C  C72  1  0.52867000  0.06179000  0.50666000  1.0
  C  C73  1  0.47133000  0.93820000  0.49334000  1.0
  C  C74  1  0.49133000  0.26496000  0.55208000  1.0
  C  C75  1  0.50867000  0.73504000  0.44793000  1.0
  C  C76  1  0.38239000  0.33509000  0.56313000  1.0
  C  C77  1  0.61761000  0.66491000  0.43687000  1.0
  C  C78  1  0.02174000  0.27504000  0.71177000  1.0
  C  C79  1  0.97826000  0.72497000  0.28824000  1.0
  C  C80  1  0.91625000  0.54989000  0.72207000  1.0
  C  C81  1  0.08376000  0.45011000  0.27792000  1.0
  C  C82  1  0.76220000  0.68883000  0.68624000  1.0
  C  C83  1  0.23780000  0.31117000  0.31377000  1.0
  C  C84  1  0.92302000  0.71745000  0.84830000  1.0
  C  C85  1  0.07700000  0.28255000  0.15170000  1.0
  C  C86  1  0.00230000  0.20012000  0.77870000  1.0
  C  C87  1  0.99770000  0.79988000  0.22130000  1.0
  N  N88  1  0.93677000  0.98523000  0.96391000  1.0
  N  N89  1  0.06321000  0.01477000  0.03608000  1.0
  N  N90  1  0.20384000  0.28534000  0.53447000  1.0
  N  N91  1  0.79617000  0.71467000  0.46554000  1.0
  N  N92  1  0.86363000  0.64510000  0.75127000  1.0
  N  N93  1  0.13638000  0.35490000  0.24873000  1.0
  N  N94  1  0.50855000  0.05711000  0.01043000  1.0
  N  N95  1  0.49143000  0.94288000  0.98957000  1.0
  O  O96  1  0.84620000  0.29351000  0.44978000  1.0
  O  O97  1  0.15379000  0.70650000  0.55023000  1.0
  O  O98  1  0.87933000  0.48865000  0.63835000  1.0
  O  O99  1  0.12068000  0.51135000  0.36164000  1.0
  O  O100  1  0.91144000  0.23005000  0.63099000  1.0
  O  O101  1  0.08855000  0.76997000  0.36901000  1.0
  O  O102  1  0.14452000  0.37982000  0.73472000  1.0
  O  O103  1  0.85549000  0.62018000  0.26528000  1.0
  O  O104  1  0.77792000  0.45158000  0.41219000  1.0
  O  O105  1  0.22209000  0.54843000  0.58781000  1.0
