# generated using pymatgen
data_LiH16C10N
_symmetry_space_group_name_H-M   'P 1'
_cell_length_a   8.54931000
_cell_length_b   8.78083000
_cell_length_c   12.73740000
_cell_angle_alpha   90.00010000
_cell_angle_beta   90.00000000
_cell_angle_gamma   90.00000000
_symmetry_Int_Tables_number   1
_chemical_formula_structural   LiH16C10N
_chemical_formula_sum   'Li4 H64 C40 N4'
_cell_volume   956.19709855
_cell_formula_units_Z   4
loop_
 _symmetry_equiv_pos_site_id
 _symmetry_equiv_pos_as_xyz
  1  'x, y, z'
loop_
 _atom_site_type_symbol
 _atom_site_label
 _atom_site_symmetry_multiplicity
 _atom_site_fract_x
 _atom_site_fract_y
 _atom_site_fract_z
 _atom_site_occupancy
  Li  Li0  1  0.45776000  0.64147000  0.00032000  1.0
  Li  Li1  1  0.04223000  0.35852000  0.50032000  1.0
  Li  Li2  1  0.54224000  0.14148000  0.49969000  1.0
  Li  Li3  1  0.95777000  0.85852000  0.99968000  1.0
  H  H4  1  0.15231000  0.72059000  0.92048000  1.0
  H  H5  1  0.34769000  0.27941000  0.42048000  1.0
  H  H6  1  0.84769000  0.22059000  0.57952000  1.0
  H  H7  1  0.65231000  0.77942000  0.07952000  1.0
  H  H8  1  0.19411000  0.43001000  0.97737000  1.0
  H  H9  1  0.30589000  0.56999000  0.47737000  1.0
  H  H10  1  0.80589000  0.93001000  0.52263000  1.0
  H  H11  1  0.69411000  0.06999000  0.02263000  1.0
  H  H12  1  0.34886000  0.42611000  0.16221000  1.0
  H  H13  1  0.15114000  0.57388000  0.66221000  1.0
  H  H14  1  0.65114000  0.92611000  0.33779000  1.0
  H  H15  1  0.84886000  0.07388000  0.83779000  1.0
  H  H16  1  0.39305000  0.71579000  0.22332000  1.0
  H  H17  1  0.10694000  0.28420000  0.72332000  1.0
  H  H18  1  0.60695000  0.21579000  0.27668000  1.0
  H  H19  1  0.89306000  0.78420000  0.77668000  1.0
  H  H20  1  0.35724000  0.14302000  0.16325000  1.0
  H  H21  1  0.14276000  0.85698000  0.66325000  1.0
  H  H22  1  0.64276000  0.64302000  0.33675000  1.0
  H  H23  1  0.85725000  0.35698000  0.83675000  1.0
  H  H24  1  0.49056000  0.99239000  0.13937000  1.0
  H  H25  1  0.00944000  0.00760000  0.63938000  1.0
  H  H26  1  0.50944000  0.49239000  0.36063000  1.0
  H  H27  1  0.99056000  0.50761000  0.86063000  1.0
  H  H28  1  0.34682000  0.97288000  0.23847000  1.0
  H  H29  1  0.15318000  0.02712000  0.73847000  1.0
  H  H30  1  0.65318000  0.47288000  0.26153000  1.0
  H  H31  1  0.84682000  0.52712000  0.76153000  1.0
  H  H32  1  0.21547000  0.97610000  0.90924000  1.0
  H  H33  1  0.28453000  0.02390000  0.40924000  1.0
  H  H34  1  0.78453000  0.47610000  0.59076000  1.0
  H  H35  1  0.71547000  0.52390000  0.09076000  1.0
  H  H36  1  0.41620000  0.97767000  0.94676000  1.0
  H  H37  1  0.08380000  0.02233000  0.44676000  1.0
  H  H38  1  0.58380000  0.47767000  0.55324000  1.0
  H  H39  1  0.91620000  0.52233000  0.05324000  1.0
  H  H40  1  0.29849000  0.14051000  0.96862000  1.0
  H  H41  1  0.20151000  0.85949000  0.46862000  1.0
  H  H42  1  0.70151000  0.64051000  0.53138000  1.0
  H  H43  1  0.79849000  0.35949000  0.03138000  1.0
  H  H44  1  0.92439000  0.16208000  0.11444000  1.0
  H  H45  1  0.57561000  0.83792000  0.61444000  1.0
  H  H46  1  0.07561000  0.66208000  0.38556000  1.0
  H  H47  1  0.42439000  0.33792000  0.88556000  1.0
  H  H48  1  0.06363000  0.19177000  0.01391000  1.0
  H  H49  1  0.43637000  0.80823000  0.51391000  1.0
  H  H50  1  0.93637000  0.69177000  0.48609000  1.0
  H  H51  1  0.56363000  0.30823000  0.98609000  1.0
  H  H52  1  0.11665000  0.22088000  0.14818000  1.0
  H  H53  1  0.38335000  0.77912000  0.64817000  1.0
  H  H54  1  0.88335000  0.72088000  0.35182000  1.0
  H  H55  1  0.61666000  0.27912000  0.85182000  1.0
  H  H56  1  0.08580000  0.98769000  0.26977000  1.0
  H  H57  1  0.41419000  0.01232000  0.76977000  1.0
  H  H58  1  0.91420000  0.48769000  0.23023000  1.0
  H  H59  1  0.58580000  0.51231000  0.73023000  1.0
  H  H60  1  0.06630000  0.80590000  0.20834000  1.0
  H  H61  1  0.43370000  0.19410000  0.70834000  1.0
  H  H62  1  0.93370000  0.30590000  0.29166000  1.0
  H  H63  1  0.56630000  0.69410000  0.79166000  1.0
  H  H64  1  0.90734000  0.93850000  0.20765000  1.0
  H  H65  1  0.59266000  0.06151000  0.70765000  1.0
  H  H66  1  0.09266000  0.43850000  0.29235000  1.0
  H  H67  1  0.40734000  0.56150000  0.79235000  1.0
  C  C68  1  0.27042000  0.77800000  0.07406000  1.0
  C  C69  1  0.22958000  0.22200000  0.57407000  1.0
  C  C70  1  0.72958000  0.27800000  0.42594000  1.0
  C  C71  1  0.77042000  0.72200000  0.92594000  1.0
  C  C72  1  0.20444000  0.68321000  0.99436000  1.0
  C  C73  1  0.29556000  0.31680000  0.49437000  1.0
  C  C74  1  0.79556000  0.18320000  0.50564000  1.0
  C  C75  1  0.70444000  0.81680000  0.00563000  1.0
  C  C76  1  0.22825000  0.52883000  0.02340000  1.0
  C  C77  1  0.27175000  0.47117000  0.52340000  1.0
  C  C78  1  0.77175000  0.02883000  0.47660000  1.0
  C  C79  1  0.72825000  0.97117000  0.97660000  1.0
  C  C80  1  0.31018000  0.52683000  0.11977000  1.0
  C  C81  1  0.18982000  0.47317000  0.61977000  1.0
  C  C82  1  0.68982000  0.02683000  0.38023000  1.0
  C  C83  1  0.81018000  0.97317000  0.88023000  1.0
  C  C84  1  0.33531000  0.68006000  0.15136000  1.0
  C  C85  1  0.16469000  0.31994000  0.65136000  1.0
  C  C86  1  0.66469000  0.18006000  0.34864000  1.0
  C  C87  1  0.83531000  0.81993000  0.84864000  1.0
  C  C88  1  0.25776000  0.95009000  0.07749000  1.0
  C  C89  1  0.24224000  0.04991000  0.57749000  1.0
  C  C90  1  0.74224000  0.45009000  0.42251000  1.0
  C  C91  1  0.75776000  0.54991000  0.92251000  1.0
  C  C92  1  0.36883000  0.01851000  0.15977000  1.0
  C  C93  1  0.13117000  0.98150000  0.65977000  1.0
  C  C94  1  0.63117000  0.51850000  0.34023000  1.0
  C  C95  1  0.86883000  0.48150000  0.84023000  1.0
  C  C96  1  0.29858000  0.01556000  0.96916000  1.0
  C  C97  1  0.20142000  0.98444000  0.46916000  1.0
  C  C98  1  0.70142000  0.51556000  0.53084000  1.0
  C  C99  1  0.79858000  0.48444000  0.03084000  1.0
  C  C100  1  0.04823000  0.14888000  0.09395000  1.0
  C  C101  1  0.45177000  0.85112000  0.59395000  1.0
  C  C102  1  0.95177000  0.64888000  0.40605000  1.0
  C  C103  1  0.54823000  0.35112000  0.90605000  1.0
  C  C104  1  0.03498000  0.92662000  0.20221000  1.0
  C  C105  1  0.46501000  0.07338000  0.70221000  1.0
  C  C106  1  0.96502000  0.42662000  0.29779000  1.0
  C  C107  1  0.53498000  0.57338000  0.79779000  1.0
  N  N108  1  0.08750000  0.98656000  0.10039000  1.0
  N  N109  1  0.41249000  0.01344000  0.60039000  1.0
  N  N110  1  0.91250000  0.48656000  0.39961000  1.0
  N  N111  1  0.58750000  0.51344000  0.89961000  1.0
