# generated using pymatgen
data_CuH6C8N3
_symmetry_space_group_name_H-M   'P 1'
_cell_length_a   32.98610000
_cell_length_b   33.96400000
_cell_length_c   34.37620000
_cell_angle_alpha   92.72290000
_cell_angle_beta   92.00600000
_cell_angle_gamma   91.21900000
_symmetry_Int_Tables_number   1
_chemical_formula_structural   CuH6C8N3
_chemical_formula_sum   'Cu12 H72 C96 N36'
_cell_volume   38435.82076814
_cell_formula_units_Z   12
loop_
 _symmetry_equiv_pos_site_id
 _symmetry_equiv_pos_as_xyz
  1  'x, y, z'
loop_
 _atom_site_type_symbol
 _atom_site_label
 _atom_site_symmetry_multiplicity
 _atom_site_fract_x
 _atom_site_fract_y
 _atom_site_fract_z
 _atom_site_occupancy
  Cu  Cu0  1  0.62467000  0.33741000  0.41381000  1.0
  Cu  Cu1  1  0.66561000  0.41206000  0.37733000  1.0
  Cu  Cu2  1  0.58569000  0.37057000  0.33721000  1.0
  Cu  Cu3  1  0.38231000  0.82633000  0.08636000  1.0
  Cu  Cu4  1  0.34385000  0.90579000  0.11728000  1.0
  Cu  Cu5  1  0.42351000  0.87501000  0.15957000  1.0
  Cu  Cu6  1  0.12410000  0.15847000  0.58341000  1.0
  Cu  Cu7  1  0.15841000  0.07987000  0.61623000  1.0
  Cu  Cu8  1  0.08253000  0.12048000  0.65532000  1.0
  Cu  Cu9  1  0.87334000  0.67774000  0.91800000  1.0
  Cu  Cu10  1  0.82520000  0.60171000  0.88308000  1.0
  Cu  Cu11  1  0.90439000  0.63198000  0.84237000  1.0
  H  H12  1  0.68567000  0.32489000  0.48482000  1.0
  H  H13  1  0.73826000  0.43072000  0.43969000  1.0
  H  H14  1  0.51324000  0.30785000  0.31900000  1.0
  H  H15  1  0.56274000  0.26733000  0.42814000  1.0
  H  H16  1  0.68216000  0.47858000  0.31731000  1.0
  H  H17  1  0.56913000  0.42725000  0.26838000  1.0
  H  H18  1  0.31588000  0.79807000  0.02079000  1.0
  H  H19  1  0.27133000  0.91332000  0.05492000  1.0
  H  H20  1  0.49740000  0.81988000  0.17907000  1.0
  H  H21  1  0.44468000  0.75740000  0.07598000  1.0
  H  H22  1  0.32382000  0.97807000  0.17444000  1.0
  H  H23  1  0.43691000  0.94122000  0.22782000  1.0
  H  H24  1  0.18639000  0.17409000  0.51731000  1.0
  H  H25  1  0.22916000  0.06268000  0.55739000  1.0
  H  H26  1  0.01616000  0.18476000  0.67425000  1.0
  H  H27  1  0.06723000  0.23113000  0.57089000  1.0
  H  H28  1  0.17248000  0.00985000  0.67266000  1.0
  H  H29  1  0.06414000  0.05999000  0.72049000  1.0
  H  H30  1  0.81592000  0.70395000  0.98641000  1.0
  H  H31  1  0.75771000  0.59307000  0.94636000  1.0
  H  H32  1  0.97822000  0.68824000  0.82214000  1.0
  H  H33  1  0.94060000  0.74563000  0.92986000  1.0
  H  H34  1  0.79455000  0.53433000  0.82109000  1.0
  H  H35  1  0.90980000  0.56674000  0.77343000  1.0
  H  H36  1  0.23701000  0.90792000  0.98520000  1.0
  H  H37  1  0.18185000  0.84129000  0.94448000  1.0
  H  H38  1  0.23886000  0.81734000  0.98647000  1.0
  H  H39  1  0.19461000  0.92965000  0.93008000  1.0
  H  H40  1  0.75549000  0.31848000  0.51712000  1.0
  H  H41  1  0.81825000  0.32009000  0.55794000  1.0
  H  H42  1  0.77472000  0.40683000  0.51077000  1.0
  H  H43  1  0.79695000  0.40562000  0.58115000  1.0
  H  H44  1  0.73157000  0.59556000  0.01890000  1.0
  H  H45  1  0.68437000  0.66279000  0.06114000  1.0
  H  H46  1  0.73965000  0.68612000  0.02003000  1.0
  H  H47  1  0.69204000  0.57414000  0.07510000  1.0
  H  H48  1  0.25496000  0.17895000  0.48694000  1.0
  H  H49  1  0.31509000  0.17720000  0.44677000  1.0
  H  H50  1  0.26778000  0.08985000  0.49124000  1.0
  H  H51  1  0.28898000  0.09127000  0.42445000  1.0
  H  H52  1  0.01251000  0.77571000  0.93239000  1.0
  H  H53  1  0.07388000  0.81726000  0.92669000  1.0
  H  H54  1  0.01988000  0.76026000  0.84412000  1.0
  H  H55  1  0.04157000  0.82951000  0.84315000  1.0
  H  H56  1  0.47873000  0.23818000  0.31295000  1.0
  H  H57  1  0.43905000  0.17592000  0.31577000  1.0
  H  H58  1  0.49152000  0.22798000  0.40085000  1.0
  H  H59  1  0.42068000  0.20508000  0.39933000  1.0
  H  H60  1  0.99132000  0.25716000  0.68472000  1.0
  H  H61  1  0.95542000  0.32056000  0.68357000  1.0
  H  H62  1  0.99764000  0.26983000  0.59722000  1.0
  H  H63  1  0.92658000  0.29167000  0.60076000  1.0
  H  H64  1  0.51558000  0.72793000  0.07148000  1.0
  H  H65  1  0.57613000  0.68693000  0.07671000  1.0
  H  H66  1  0.53353000  0.74689000  0.15878000  1.0
  H  H67  1  0.55194000  0.67772000  0.16153000  1.0
  H  H68  1  0.05532000  0.99025000  0.74842000  1.0
  H  H69  1  0.05942000  0.93227000  0.79000000  1.0
  H  H70  1  0.14688000  0.97726000  0.74272000  1.0
  H  H71  1  0.14484000  0.96609000  0.81244000  1.0
  H  H72  1  0.68795000  0.50494000  0.24677000  1.0
  H  H73  1  0.68209000  0.54113000  0.18580000  1.0
  H  H74  1  0.59548000  0.49639000  0.23385000  1.0
  H  H75  1  0.59916000  0.56595000  0.21593000  1.0
  H  H76  1  0.43894000  0.01301000  0.25901000  1.0
  H  H77  1  0.43037000  0.07464000  0.29907000  1.0
  H  H78  1  0.34676000  0.01886000  0.24516000  1.0
  H  H79  1  0.34563000  0.03994000  0.31398000  1.0
  H  H80  1  0.90428000  0.49280000  0.74406000  1.0
  H  H81  1  0.83372000  0.45401000  0.69171000  1.0
  H  H82  1  0.81126000  0.49826000  0.74587000  1.0
  H  H83  1  0.92391000  0.43354000  0.70324000  1.0
  C  C84  1  0.69386000  0.35032000  0.46855000  1.0
  C  C85  1  0.72594000  0.37806000  0.47557000  1.0
  C  C86  1  0.72031000  0.40471000  0.44581000  1.0
  C  C87  1  0.53058000  0.30259000  0.34558000  1.0
  C  C88  1  0.52462000  0.27374000  0.37310000  1.0
  C  C89  1  0.55560000  0.28232000  0.40163000  1.0
  C  C90  1  0.65484000  0.46107000  0.30987000  1.0
  C  C91  1  0.62576000  0.46508000  0.27939000  1.0
  C  C92  1  0.59674000  0.43521000  0.28531000  1.0
  C  C93  1  0.31016000  0.82699000  0.03402000  1.0
  C  C94  1  0.27947000  0.85352000  0.02482000  1.0
  C  C95  1  0.28785000  0.88622000  0.05084000  1.0
  C  C96  1  0.47940000  0.80926000  0.15351000  1.0
  C  C97  1  0.48527000  0.77624000  0.12818000  1.0
  C  C98  1  0.45289000  0.77767000  0.10048000  1.0
  C  C99  1  0.35182000  0.96390000  0.18272000  1.0
  C  C100  1  0.37967000  0.97396000  0.21373000  1.0
  C  C101  1  0.40991000  0.94551000  0.20969000  1.0
  C  C102  1  0.19225000  0.14714000  0.53207000  1.0
  C  C103  1  0.22176000  0.11852000  0.52498000  1.0
  C  C104  1  0.21370000  0.08995000  0.55223000  1.0
  C  C105  1  0.03360000  0.19127000  0.64906000  1.0
  C  C106  1  0.02954000  0.22220000  0.62341000  1.0
  C  C107  1  0.05929000  0.21453000  0.59586000  1.0
  C  C108  1  0.14604000  0.02695000  0.67969000  1.0
  C  C109  1  0.11780000  0.02148000  0.70882000  1.0
  C  C110  1  0.09030000  0.05215000  0.70373000  1.0
  C  C111  1  0.80634000  0.67619000  0.97161000  1.0
  C  C112  1  0.77418000  0.65037000  0.97985000  1.0
  C  C113  1  0.77712000  0.61910000  0.95173000  1.0
  C  C114  1  0.96379000  0.69758000  0.84884000  1.0
  C  C115  1  0.97405000  0.72944000  0.87528000  1.0
  C  C116  1  0.94500000  0.72658000  0.90417000  1.0
  C  C117  1  0.82367000  0.54732000  0.81433000  1.0
  C  C118  1  0.84961000  0.53691000  0.78407000  1.0
  C  C119  1  0.88299000  0.56324000  0.79048000  1.0
  C  C120  1  0.14888000  0.89486000  0.89696000  1.0
  C  C121  1  0.11896000  0.91719000  0.84165000  1.0
  C  C122  1  0.09345000  0.86240000  0.86884000  1.0
  C  C123  1  0.84790000  0.37594000  0.60734000  1.0
  C  C124  1  0.90408000  0.34464000  0.62942000  1.0
  C  C125  1  0.88523000  0.40220000  0.65965000  1.0
  C  C126  1  0.65117000  0.61012000  0.10833000  1.0
  C  C127  1  0.62462000  0.58969000  0.16448000  1.0
  C  C128  1  0.59967000  0.64381000  0.13583000  1.0
  C  C129  1  0.33871000  0.12060000  0.39742000  1.0
  C  C130  1  0.36901000  0.09339000  0.34421000  1.0
  C  C131  1  0.39279000  0.15199000  0.37201000  1.0
  C  C132  1  0.24714000  0.84786000  0.99556000  1.0
  C  C133  1  0.22728000  0.87731000  0.97813000  1.0
  C  C134  1  0.19491000  0.87108000  0.94944000  1.0
  C  C135  1  0.18067000  0.90015000  0.92731000  1.0
  C  C136  1  0.75792000  0.37887000  0.50536000  1.0
  C  C137  1  0.76967000  0.34724000  0.52533000  1.0
  C  C138  1  0.80185000  0.34750000  0.55485000  1.0
  C  C139  1  0.81361000  0.37819000  0.57966000  1.0
  C  C140  1  0.74501000  0.65569000  0.00991000  1.0
  C  C141  1  0.72463000  0.62623000  0.02683000  1.0
  C  C142  1  0.69502000  0.63277000  0.05589000  1.0
  C  C143  1  0.68037000  0.60396000  0.07788000  1.0
  C  C144  1  0.25327000  0.11811000  0.49694000  1.0
  C  C145  1  0.26692000  0.15008000  0.47855000  1.0
  C  C146  1  0.29782000  0.14974000  0.44989000  1.0
  C  C147  1  0.30681000  0.11878000  0.42557000  1.0
  C  C148  1  0.00680000  0.75794000  0.87277000  1.0
  C  C149  1  0.02302000  0.78076000  0.90315000  1.0
  C  C150  1  0.05462000  0.81047000  0.90057000  1.0
  C  C151  1  0.06162000  0.83196000  0.86913000  1.0
  C  C152  1  0.49494000  0.24193000  0.37306000  1.0
  C  C153  1  0.47282000  0.22689000  0.34154000  1.0
  C  C154  1  0.44363000  0.19469000  0.34238000  1.0
  C  C155  1  0.42078000  0.18588000  0.37296000  1.0
  C  C156  1  0.00224000  0.25484000  0.62446000  1.0
  C  C157  1  0.98367000  0.26931000  0.65655000  1.0
  C  C158  1  0.95620000  0.30182000  0.65684000  1.0
  C  C159  1  0.93050000  0.31082000  0.62709000  1.0
  C  C160  1  0.51726000  0.74802000  0.13057000  1.0
  C  C161  1  0.52919000  0.72411000  0.10050000  1.0
  C  C162  1  0.55994000  0.69463000  0.10314000  1.0
  C  C163  1  0.56926000  0.67432000  0.13515000  1.0
  C  C164  1  0.11793000  0.99153000  0.73724000  1.0
  C  C165  1  0.08518000  0.97917000  0.75661000  1.0
  C  C166  1  0.08649000  0.95076000  0.78654000  1.0
  C  C167  1  0.11838000  0.94617000  0.81176000  1.0
  C  C168  1  0.62500000  0.49241000  0.24851000  1.0
  C  C169  1  0.65774000  0.51176000  0.23513000  1.0
  C  C170  1  0.65589000  0.53915000  0.20432000  1.0
  C  C171  1  0.62473000  0.56337000  0.19673000  1.0
  C  C172  1  0.37682000  0.00623000  0.24228000  1.0
  C  C173  1  0.40816000  0.02285000  0.26437000  1.0
  C  C174  1  0.40427000  0.05450000  0.29347000  1.0
  C  C175  1  0.37138000  0.06074000  0.31534000  1.0
  C  C176  1  0.84289000  0.50642000  0.75367000  1.0
  C  C177  1  0.87253000  0.48683000  0.73490000  1.0
  C  C178  1  0.86466000  0.45737000  0.70416000  1.0
  C  C179  1  0.89319000  0.43278000  0.69025000  1.0
  N  N180  1  0.68786000  0.39342000  0.42277000  1.0
  N  N181  1  0.67129000  0.35976000  0.43714000  1.0
  N  N182  1  0.57828000  0.31341000  0.39168000  1.0
  N  N183  1  0.56256000  0.32616000  0.35697000  1.0
  N  N184  1  0.60791000  0.41484000  0.31643000  1.0
  N  N185  1  0.64388000  0.43114000  0.33189000  1.0
  N  N186  1  0.32079000  0.87945000  0.07357000  1.0
  N  N187  1  0.33494000  0.84282000  0.06285000  1.0
  N  N188  1  0.42994000  0.80905000  0.10871000  1.0
  N  N189  1  0.44656000  0.82890000  0.14153000  1.0
  N  N190  1  0.40067000  0.92078000  0.17873000  1.0
  N  N191  1  0.36470000  0.93240000  0.16176000  1.0
  N  N192  1  0.18230000  0.10095000  0.57395000  1.0
  N  N193  1  0.16885000  0.13638000  0.56121000  1.0
  N  N194  1  0.07963000  0.18200000  0.60470000  1.0
  N  N195  1  0.06343000  0.16735000  0.63760000  1.0
  N  N196  1  0.10139000  0.07390000  0.67398000  1.0
  N  N197  1  0.13588000  0.05804000  0.65880000  1.0
  N  N198  1  0.80845000  0.62600000  0.92872000  1.0
  N  N199  1  0.82691000  0.66125000  0.94136000  1.0
  N  N200  1  0.91978000  0.69551000  0.89550000  1.0
  N  N201  1  0.93162000  0.67726000  0.86126000  1.0
  N  N202  1  0.87717000  0.58726000  0.82200000  1.0
  N  N203  1  0.84054000  0.57705000  0.83713000  1.0
  N  N204  1  0.14824000  0.92252000  0.86992000  1.0
  N  N205  1  0.09060000  0.88782000  0.83991000  1.0
  N  N206  1  0.12270000  0.86393000  0.89743000  1.0
  N  N207  1  0.87305000  0.34518000  0.60300000  1.0
  N  N208  1  0.91218000  0.37302000  0.65771000  1.0
  N  N209  1  0.85226000  0.40495000  0.63543000  1.0
  N  N210  1  0.65106000  0.58319000  0.13591000  1.0
  N  N211  1  0.59779000  0.61916000  0.16554000  1.0
  N  N212  1  0.62652000  0.64128000  0.10714000  1.0
  N  N213  1  0.33937000  0.09057000  0.37024000  1.0
  N  N214  1  0.39616000  0.12351000  0.34365000  1.0
  N  N215  1  0.36503000  0.15174000  0.39986000  1.0
