# generated using pymatgen
data_NiH22C24(NO7)2
_symmetry_space_group_name_H-M   'P 1'
_cell_length_a   7.20127000
_cell_length_b   8.30783000
_cell_length_c   10.75840000
_cell_angle_alpha   68.43590000
_cell_angle_beta   79.43370000
_cell_angle_gamma   77.25220000
_symmetry_Int_Tables_number   1
_chemical_formula_structural   NiH22C24(NO7)2
_chemical_formula_sum   'Ni1 H22 C24 N2 O14'
_cell_volume   580.11400566
_cell_formula_units_Z   1
loop_
 _symmetry_equiv_pos_site_id
 _symmetry_equiv_pos_as_xyz
  1  'x, y, z'
loop_
 _atom_site_type_symbol
 _atom_site_label
 _atom_site_symmetry_multiplicity
 _atom_site_fract_x
 _atom_site_fract_y
 _atom_site_fract_z
 _atom_site_occupancy
  Ni  Ni0  1  0.50001000  0.49999000  0.50000000  1.0
  H  H1  1  0.02483000  0.89996000  0.23999000  1.0
  H  H2  1  0.97517000  0.10006000  0.76001000  1.0
  H  H3  1  0.77944000  0.49095000  0.17784000  1.0
  H  H4  1  0.22053000  0.50905000  0.82217000  1.0
  H  H5  1  0.48178000  0.01579000  0.89748000  1.0
  H  H6  1  0.51822000  0.98423000  0.10252000  1.0
  H  H7  1  0.62186000  0.68695000  0.77420000  1.0
  H  H8  1  0.37815000  0.31306000  0.22580000  1.0
  H  H9  1  0.87257000  0.14457000  0.94938000  1.0
  H  H10  1  0.12744000  0.85544000  0.05062000  1.0
  H  H11  1  0.89164000  0.35931000  0.50123000  1.0
  H  H12  1  0.10837000  0.64069000  0.49876000  1.0
  H  H13  1  0.93154000  0.34391000  0.35800000  1.0
  H  H14  1  0.06846000  0.65610000  0.64200000  1.0
  H  H15  1  0.41939000  0.24981000  0.69555000  1.0
  H  H16  1  0.58061000  0.75017000  0.30445000  1.0
  H  H17  1  0.24711000  0.33624000  0.59732000  1.0
  H  H18  1  0.75290000  0.66375000  0.40267000  1.0
  H  H19  1  0.18341000  0.19113000  0.46207000  1.0
  H  H20  1  0.81659000  0.80886000  0.53792000  1.0
  H  H21  1  0.72567000  0.05918000  0.62080000  1.0
  H  H22  1  0.27432000  0.94080000  0.37919000  1.0
  C  C23  1  0.91850000  0.15418000  0.18970000  1.0
  C  C24  1  0.08150000  0.84583000  0.81031000  1.0
  C  C25  1  0.83529000  0.30219000  0.07470000  1.0
  C  C26  1  0.16471000  0.69782000  0.92530000  1.0
  C  C27  1  0.77278000  0.46854000  0.08529000  1.0
  C  C28  1  0.22719000  0.53147000  0.91472000  1.0
  C  C29  1  0.69719000  0.60673000  0.97614000  1.0
  C  C30  1  0.30280000  0.39328000  0.02386000  1.0
  C  C31  1  0.61994000  0.78072000  0.98881000  1.0
  C  C32  1  0.38005000  0.21928000  0.01119000  1.0
  C  C33  1  0.68310000  0.57924000  0.85770000  1.0
  C  C34  1  0.31689000  0.42077000  0.14231000  1.0
  C  C35  1  0.74627000  0.41296000  0.84662000  1.0
  C  C36  1  0.25373000  0.58704000  0.15338000  1.0
  C  C37  1  0.72171000  0.38421000  0.72110000  1.0
  C  C38  1  0.27831000  0.61577000  0.27890000  1.0
  C  C39  1  0.82306000  0.27528000  0.95520000  1.0
  C  C40  1  0.17694000  0.72473000  0.04480000  1.0
  C  C41  1  0.44715000  0.14079000  0.54818000  1.0
  C  C42  1  0.55285000  0.85920000  0.45181000  1.0
  C  C43  1  0.32223000  0.10708000  0.47894000  1.0
  C  C44  1  0.67776000  0.89290000  0.52105000  1.0
  C  C45  1  0.62593000  0.03349000  0.56850000  1.0
  C  C46  1  0.37407000  0.96649000  0.43150000  1.0
  N  N47  1  0.39144000  0.28575000  0.59804000  1.0
  N  N48  1  0.60857000  0.71423000  0.40196000  1.0
  O  O49  1  0.96509000  0.17382000  0.28731000  1.0
  O  O50  1  0.03490000  0.82619000  0.71270000  1.0
  O  O51  1  0.94095000  0.99898000  0.17409000  1.0
  O  O52  1  0.05906000  0.00103000  0.82592000  1.0
  O  O53  1  0.61957000  0.81007000  0.09530000  1.0
  O  O54  1  0.38044000  0.18994000  0.90469000  1.0
  O  O55  1  0.54948000  0.89952000  0.88131000  1.0
  O  O56  1  0.45052000  0.10050000  0.11869000  1.0
  O  O57  1  0.82476000  0.25984000  0.68608000  1.0
  O  O58  1  0.17525000  0.74016000  0.31393000  1.0
  O  O59  1  0.58641000  0.49419000  0.65625000  1.0
  O  O60  1  0.41359000  0.50580000  0.34375000  1.0
  O  O61  1  0.93091000  0.42459000  0.40634000  1.0
  O  O62  1  0.06909000  0.57542000  0.59366000  1.0
