# generated using pymatgen
data_CdH10C11N2O5
_symmetry_space_group_name_H-M   'P 1'
_cell_length_a   8.12313000
_cell_length_b   8.25314000
_cell_length_c   10.16593485
_cell_angle_alpha   112.78870349
_cell_angle_beta   103.14281324
_cell_angle_gamma   100.72690000
_symmetry_Int_Tables_number   1
_chemical_formula_structural   CdH10C11N2O5
_chemical_formula_sum   'Cd2 H20 C22 N4 O10'
_cell_volume   582.64207054
_cell_formula_units_Z   2
loop_
 _symmetry_equiv_pos_site_id
 _symmetry_equiv_pos_as_xyz
  1  'x, y, z'
loop_
 _atom_site_type_symbol
 _atom_site_label
 _atom_site_symmetry_multiplicity
 _atom_site_fract_x
 _atom_site_fract_y
 _atom_site_fract_z
 _atom_site_occupancy
  Cd  Cd0  1  0.09348000  0.78071000  0.09611000  1.0
  Cd  Cd1  1  0.90652000  0.21928000  0.90389000  1.0
  H  H2  1  0.19773000  0.15643000  0.14911000  1.0
  H  H3  1  0.80226000  0.84357000  0.85090000  1.0
  H  H4  1  0.21083000  0.04834000  0.99236000  1.0
  H  H5  1  0.78917000  0.95166000  0.00764000  1.0
  H  H6  1  0.71858000  0.85275000  0.44981000  1.0
  H  H7  1  0.28142000  0.14725000  0.55019000  1.0
  H  H8  1  0.33449000  0.46443000  0.41200000  1.0
  H  H9  1  0.66551000  0.53557000  0.58800000  1.0
  H  H10  1  0.47481000  0.67451000  0.69051000  1.0
  H  H11  1  0.52519000  0.32550000  0.30950000  1.0
  H  H12  1  0.33435000  0.89848000  0.82076000  1.0
  H  H13  1  0.66565000  0.10152000  0.17924000  1.0
  H  H14  1  0.92982000  0.73063000  0.39679000  1.0
  H  H15  1  0.07018000  0.26937000  0.60321000  1.0
  H  H16  1  0.47210000  0.99652000  0.39026000  1.0
  H  H17  1  0.52790000  0.00347000  0.60973000  1.0
  H  H18  1  0.33082000  0.46828000  0.02617000  1.0
  H  H19  1  0.66918000  0.53172000  0.97383000  1.0
  H  H20  1  0.65908000  0.53633000  0.22924000  1.0
  H  H21  1  0.34092000  0.46367000  0.77076000  1.0
  C  C22  1  0.04137000  0.46989000  0.22065000  1.0
  C  C23  1  0.95863000  0.53011000  0.77935000  1.0
  C  C24  1  0.12268000  0.58484000  0.38778000  1.0
  C  C25  1  0.87733000  0.41517000  0.61222000  1.0
  C  C26  1  0.27557000  0.56666000  0.47057000  1.0
  C  C27  1  0.72443000  0.43335000  0.52944000  1.0
  C  C28  1  0.35210000  0.68154000  0.62550000  1.0
  C  C29  1  0.64790000  0.31846000  0.37450000  1.0
  C  C30  1  0.27308000  0.80906000  0.69979000  1.0
  C  C31  1  0.72692000  0.19094000  0.30021000  1.0
  C  C32  1  0.02961000  0.95954000  0.69710000  1.0
  C  C33  1  0.97039000  0.04046000  0.30290000  1.0
  C  C34  1  0.04591000  0.71504000  0.46256000  1.0
  C  C35  1  0.95409000  0.28497000  0.53744000  1.0
  C  C36  1  0.47492000  0.86026000  0.32056000  1.0
  C  C37  1  0.52508000  0.13973000  0.67944000  1.0
  C  C38  1  0.40754000  0.58690000  0.13326000  1.0
  C  C39  1  0.59247000  0.41310000  0.86674000  1.0
  C  C40  1  0.56876000  0.61797000  0.23375000  1.0
  C  C41  1  0.43124000  0.38202000  0.76624000  1.0
  C  C42  1  0.11753000  0.82527000  0.61883000  1.0
  C  C43  1  0.88247000  0.17473000  0.38117000  1.0
  N  N44  1  0.35069000  0.73989000  0.18915000  1.0
  N  N45  1  0.64931000  0.26011000  0.81085000  1.0
  N  N46  1  0.60848000  0.79054000  0.35159000  1.0
  N  N47  1  0.39152000  0.20946000  0.64841000  1.0
  O  O48  1  0.94500000  0.52858000  0.14272000  1.0
  O  O49  1  0.05500000  0.47142000  0.85728000  1.0
  O  O50  1  0.06904000  0.31457000  0.15888000  1.0
  O  O51  1  0.93096000  0.68543000  0.84112000  1.0
  O  O52  1  0.11388000  0.07735000  0.83615000  1.0
  O  O53  1  0.88612000  0.92265000  0.16385000  1.0
  O  O54  1  0.87698000  0.95631000  0.62800000  1.0
  O  O55  1  0.12301000  0.04369000  0.37200000  1.0
  O  O56  1  0.24615000  0.05828000  0.09626000  1.0
  O  O57  1  0.75384000  0.94171000  0.90374000  1.0
