# generated using pymatgen
data_CoH26C30N4O7
_symmetry_space_group_name_H-M   'P 1'
_cell_length_a   10.04990000
_cell_length_b   11.77800000
_cell_length_c   12.30150000
_cell_angle_alpha   93.05870000
_cell_angle_beta   111.82000000
_cell_angle_gamma   93.27440000
_symmetry_Int_Tables_number   1
_chemical_formula_structural   CoH26C30N4O7
_chemical_formula_sum   'Co2 H52 C60 N8 O14'
_cell_volume   1345.19562112
_cell_formula_units_Z   2
loop_
 _symmetry_equiv_pos_site_id
 _symmetry_equiv_pos_as_xyz
  1  'x, y, z'
loop_
 _atom_site_type_symbol
 _atom_site_label
 _atom_site_symmetry_multiplicity
 _atom_site_fract_x
 _atom_site_fract_y
 _atom_site_fract_z
 _atom_site_occupancy
  Co  Co0  1  0.05631000  0.63760000  0.85874000  1.0
  Co  Co1  1  0.94370000  0.36240000  0.14127000  1.0
  H  H2  1  0.31096000  0.63773000  0.10649000  1.0
  H  H3  1  0.68904000  0.36227000  0.89352000  1.0
  H  H4  1  0.90120000  0.76163000  0.02385000  1.0
  H  H5  1  0.09881000  0.23838000  0.97616000  1.0
  H  H6  1  0.03651000  0.76413000  0.26634000  1.0
  H  H7  1  0.96351000  0.23588000  0.73367000  1.0
  H  H8  1  0.48084000  0.76970000  0.29410000  1.0
  H  H9  1  0.51917000  0.23030000  0.70592000  1.0
  H  H10  1  0.66577000  0.74376000  0.48780000  1.0
  H  H11  1  0.33424000  0.25623000  0.51222000  1.0
  H  H12  1  0.34195000  0.57241000  0.58853000  1.0
  H  H13  1  0.65805000  0.42756000  0.41147000  1.0
  H  H14  1  0.15571000  0.60101000  0.39334000  1.0
  H  H15  1  0.84429000  0.39898000  0.60666000  1.0
  H  H16  1  0.81524000  0.64201000  0.61368000  1.0
  H  H17  1  0.18476000  0.35798000  0.38632000  1.0
  H  H18  1  0.77437000  0.58665000  0.93599000  1.0
  H  H19  1  0.22565000  0.41334000  0.06402000  1.0
  H  H20  1  0.50357000  0.62109000  0.77140000  1.0
  H  H21  1  0.49643000  0.37889000  0.22861000  1.0
  H  H22  1  0.12998000  0.26264000  0.65074000  1.0
  H  H23  1  0.87000000  0.73737000  0.34925000  1.0
  H  H24  1  0.27833000  0.09283000  0.68924000  1.0
  H  H25  1  0.72165000  0.90718000  0.31074000  1.0
  H  H26  1  0.55453000  0.26289000  0.02533000  1.0
  H  H27  1  0.44545000  0.73710000  0.97466000  1.0
  H  H28  1  0.40394000  0.42454000  0.98621000  1.0
  H  H29  1  0.59605000  0.57546000  0.01377000  1.0
  H  H30  1  0.61285000  0.06358000  0.05116000  1.0
  H  H31  1  0.38714000  0.93643000  0.94883000  1.0
  H  H32  1  0.69968000  0.15584000  0.98226000  1.0
  H  H33  1  0.30031000  0.84417000  0.01773000  1.0
  H  H34  1  0.80628000  0.96450000  0.02848000  1.0
  H  H35  1  0.19371000  0.03551000  0.97152000  1.0
  H  H36  1  0.64337000  0.89787000  0.91984000  1.0
  H  H37  1  0.35662000  0.10214000  0.08016000  1.0
  H  H38  1  0.93133000  0.03726000  0.75032000  1.0
  H  H39  1  0.06868000  0.96274000  0.24967000  1.0
  H  H40  1  0.92349000  0.89388000  0.68997000  1.0
  H  H41  1  0.07651000  0.10611000  0.31003000  1.0
  H  H42  1  0.72645000  0.84540000  0.77115000  1.0
  H  H43  1  0.27354000  0.15460000  0.22884000  1.0
  H  H44  1  0.90556000  0.88124000  0.87535000  1.0
  H  H45  1  0.09443000  0.11876000  0.12465000  1.0
  H  H46  1  0.52917000  0.03361000  0.43105000  1.0
  H  H47  1  0.47084000  0.96640000  0.56895000  1.0
  H  H48  1  0.55303000  0.15246000  0.27782000  1.0
  H  H49  1  0.44698000  0.84756000  0.72219000  1.0
  H  H50  1  0.01172000  0.18342000  0.45335000  1.0
  H  H51  1  0.98829000  0.81658000  0.54664000  1.0
  H  H52  1  0.99218000  0.06581000  0.60766000  1.0
  H  H53  1  0.00783000  0.93419000  0.39233000  1.0
  C  C54  1  0.21800000  0.67381000  0.11460000  1.0
  C  C55  1  0.78200000  0.32619000  0.88540000  1.0
  C  C56  1  0.00699000  0.73760000  0.07627000  1.0
  C  C57  1  0.99302000  0.26241000  0.92374000  1.0
  C  C58  1  0.07124000  0.73926000  0.19594000  1.0
  C  C59  1  0.92877000  0.26075000  0.80407000  1.0
  C  C60  1  0.30903000  0.68472000  0.33222000  1.0
  C  C61  1  0.69097000  0.31527000  0.66779000  1.0
  C  C62  1  0.45165000  0.72448000  0.35783000  1.0
  C  C63  1  0.54836000  0.27551000  0.64218000  1.0
  C  C64  1  0.55559000  0.70892000  0.46660000  1.0
  C  C65  1  0.44442000  0.29106000  0.53342000  1.0
  C  C66  1  0.51665000  0.65269000  0.54899000  1.0
  C  C67  1  0.48335000  0.34729000  0.45101000  1.0
  C  C68  1  0.37288000  0.61529000  0.52408000  1.0
  C  C69  1  0.62712000  0.38469000  0.47592000  1.0
  C  C70  1  0.26804000  0.63167000  0.41520000  1.0
  C  C71  1  0.73196000  0.36831000  0.58480000  1.0
  C  C72  1  0.76832000  0.63284000  0.67928000  1.0
  C  C73  1  0.23168000  0.36715000  0.32073000  1.0
  C  C74  1  0.74214000  0.60406000  0.84433000  1.0
  C  C75  1  0.25787000  0.39593000  0.15568000  1.0
  C  C76  1  0.60732000  0.61661000  0.76327000  1.0
  C  C77  1  0.39269000  0.38338000  0.23674000  1.0
  C  C78  1  0.15972000  0.44834000  0.79793000  1.0
  C  C79  1  0.84027000  0.55167000  0.20206000  1.0
  C  C80  1  0.25603000  0.35352000  0.81676000  1.0
  C  C81  1  0.74396000  0.64648000  0.18322000  1.0
  C  C82  1  0.22251000  0.26015000  0.73258000  1.0
  C  C83  1  0.77747000  0.73986000  0.26740000  1.0
  C  C84  1  0.30366000  0.16637000  0.75339000  1.0
  C  C85  1  0.69632000  0.83363000  0.24659000  1.0
  C  C86  1  0.42492000  0.16681000  0.85856000  1.0
  C  C87  1  0.57506000  0.83319000  0.14142000  1.0
  C  C88  1  0.46200000  0.26034000  0.94262000  1.0
  C  C89  1  0.53798000  0.73966000  0.05736000  1.0
  C  C90  1  0.37648000  0.35201000  0.92087000  1.0
  C  C91  1  0.62351000  0.64799000  0.07911000  1.0
  C  C92  1  0.63486000  0.07455000  0.97097000  1.0
  C  C93  1  0.36513000  0.92546000  0.02902000  1.0
  C  C94  1  0.71461000  0.97791000  0.94684000  1.0
  C  C95  1  0.28539000  0.02210000  0.05315000  1.0
  C  C96  1  0.86170000  0.95786000  0.71448000  1.0
  C  C97  1  0.13830000  0.04214000  0.28552000  1.0
  C  C98  1  0.81263000  0.91549000  0.80788000  1.0
  C  C99  1  0.18736000  0.08451000  0.19212000  1.0
  C  C100  1  0.75881000  0.04398000  0.53177000  1.0
  C  C101  1  0.24120000  0.95602000  0.46824000  1.0
  C  C102  1  0.63497000  0.06746000  0.43702000  1.0
  C  C103  1  0.36504000  0.93255000  0.56299000  1.0
  C  C104  1  0.64838000  0.13375000  0.35131000  1.0
  C  C105  1  0.35163000  0.86626000  0.64870000  1.0
  C  C106  1  0.78368000  0.17673000  0.35549000  1.0
  C  C107  1  0.21632000  0.82329000  0.64452000  1.0
  C  C108  1  0.90593000  0.15110000  0.44907000  1.0
  C  C109  1  0.09408000  0.84891000  0.55094000  1.0
  C  C110  1  0.89490000  0.08578000  0.53711000  1.0
  C  C111  1  0.10511000  0.91422000  0.46289000  1.0
  C  C112  1  0.79221000  0.24872000  0.26149000  1.0
  C  C113  1  0.20780000  0.75128000  0.73851000  1.0
  N  N114  1  0.09888000  0.69571000  0.02598000  1.0
  N  N115  1  0.90111000  0.30430000  0.97402000  1.0
  N  N116  1  0.20477000  0.69916000  0.21914000  1.0
  N  N117  1  0.79524000  0.30084000  0.78087000  1.0
  N  N118  1  0.62536000  0.63488000  0.65860000  1.0
  N  N119  1  0.37465000  0.36509000  0.34141000  1.0
  N  N120  1  0.84159000  0.61524000  0.79102000  1.0
  N  N121  1  0.15842000  0.38476000  0.20899000  1.0
  O  O122  1  0.07134000  0.46487000  0.69831000  1.0
  O  O123  1  0.92866000  0.53515000  0.30168000  1.0
  O  O124  1  0.17194000  0.50951000  0.89374000  1.0
  O  O125  1  0.82804000  0.49048000  0.10625000  1.0
  O  O126  1  0.68389000  0.29545000  0.19931000  1.0
  O  O127  1  0.31612000  0.70455000  0.80069000  1.0
  O  O128  1  0.91629000  0.25742000  0.24958000  1.0
  O  O129  1  0.08371000  0.74257000  0.75042000  1.0
  O  O130  1  0.73725000  0.97983000  0.61402000  1.0
  O  O131  1  0.26276000  0.02016000  0.38597000  1.0
  O  O132  1  0.76305000  0.00830000  0.85662000  1.0
  O  O133  1  0.23695000  0.99170000  0.14337000  1.0
  O  O134  1  0.50203000  0.07360000  0.87035000  1.0
  O  O135  1  0.49796000  0.92640000  0.12963000  1.0
