# generated using pymatgen
data_CdH9C17(NO2)2
_symmetry_space_group_name_H-M   'P 1'
_cell_length_a   7.60825000
_cell_length_b   9.84051000
_cell_length_c   20.05070000
_cell_angle_alpha   90.00010000
_cell_angle_beta   90.00010000
_cell_angle_gamma   112.40300000
_symmetry_Int_Tables_number   1
_chemical_formula_structural   CdH9C17(NO2)2
_chemical_formula_sum   'Cd4 H36 C68 N8 O16'
_cell_volume   1387.87734707
_cell_formula_units_Z   4
loop_
 _symmetry_equiv_pos_site_id
 _symmetry_equiv_pos_as_xyz
  1  'x, y, z'
loop_
 _atom_site_type_symbol
 _atom_site_label
 _atom_site_symmetry_multiplicity
 _atom_site_fract_x
 _atom_site_fract_y
 _atom_site_fract_z
 _atom_site_occupancy
  Cd  Cd0  1  0.76335000  0.02973000  0.93137000  1.0
  Cd  Cd1  1  0.23665000  0.47027000  0.43137000  1.0
  Cd  Cd2  1  0.23665000  0.97027000  0.06863000  1.0
  Cd  Cd3  1  0.76335000  0.52972000  0.56863000  1.0
  H  H4  1  0.07520000  0.86681000  0.91334000  1.0
  H  H5  1  0.92480000  0.63319000  0.41334000  1.0
  H  H6  1  0.92480000  0.13320000  0.08666000  1.0
  H  H7  1  0.07521000  0.36680000  0.58666000  1.0
  H  H8  1  0.23677000  0.78519000  0.82451000  1.0
  H  H9  1  0.76323000  0.71482000  0.32450000  1.0
  H  H10  1  0.76324000  0.21482000  0.17550000  1.0
  H  H11  1  0.23677000  0.28518000  0.67550000  1.0
  H  H12  1  0.15658000  0.81447000  0.70298000  1.0
  H  H13  1  0.84343000  0.68554000  0.20298000  1.0
  H  H14  1  0.84342000  0.18553000  0.29702000  1.0
  H  H15  1  0.15657000  0.31446000  0.79702000  1.0
  H  H16  1  0.96628000  0.89415000  0.62228000  1.0
  H  H17  1  0.03373000  0.60586000  0.12228000  1.0
  H  H18  1  0.03372000  0.10584000  0.37772000  1.0
  H  H19  1  0.96628000  0.39415000  0.87773000  1.0
  H  H20  1  0.73503000  0.01049000  0.60069000  1.0
  H  H21  1  0.26496000  0.48951000  0.10069000  1.0
  H  H22  1  0.26496000  0.98951000  0.39931000  1.0
  H  H23  1  0.73504000  0.51049000  0.89931000  1.0
  H  H24  1  0.51722000  0.12992000  0.64491000  1.0
  H  H25  1  0.48277000  0.37008000  0.14491000  1.0
  H  H26  1  0.48278000  0.87008000  0.35509000  1.0
  H  H27  1  0.51722000  0.62992000  0.85509000  1.0
  H  H28  1  0.37371000  0.20232000  0.74428000  1.0
  H  H29  1  0.62628000  0.29768000  0.24428000  1.0
  H  H30  1  0.62629000  0.79768000  0.25572000  1.0
  H  H31  1  0.37371000  0.70231000  0.75572000  1.0
  H  H32  1  0.47376000  0.15787000  0.85930000  1.0
  H  H33  1  0.52624000  0.34213000  0.35930000  1.0
  H  H34  1  0.52624000  0.84213000  0.14070000  1.0
  H  H35  1  0.47376000  0.65787000  0.64070000  1.0
  H  H36  1  0.81001000  0.51135000  0.04261000  1.0
  H  H37  1  0.18999000  0.98865000  0.54261000  1.0
  H  H38  1  0.18999000  0.48865000  0.95739000  1.0
  H  H39  1  0.81001000  0.01135000  0.45739000  1.0
  C  C40  1  0.04068000  0.87606000  0.86124000  1.0
  C  C41  1  0.95932000  0.62395000  0.36124000  1.0
  C  C42  1  0.95932000  0.12394000  0.13876000  1.0
  C  C43  1  0.04069000  0.37605000  0.63876000  1.0
  C  C44  1  0.13242000  0.83067000  0.81012000  1.0
  C  C45  1  0.86758000  0.66934000  0.31012000  1.0
  C  C46  1  0.86758000  0.16934000  0.18987000  1.0
  C  C47  1  0.13242000  0.33066000  0.68988000  1.0
  C  C48  1  0.08940000  0.84797000  0.74452000  1.0
  C  C49  1  0.91061000  0.65204000  0.24451000  1.0
  C  C50  1  0.91060000  0.15203000  0.25549000  1.0
  C  C51  1  0.08940000  0.34796000  0.75549000  1.0
  C  C52  1  0.95640000  0.91261000  0.73009000  1.0
  C  C53  1  0.04360000  0.58739000  0.23009000  1.0
  C  C54  1  0.04360000  0.08739000  0.26991000  1.0
  C  C55  1  0.95640000  0.41261000  0.76991000  1.0
  C  C56  1  0.90460000  0.93382000  0.66339000  1.0
  C  C57  1  0.09539000  0.56619000  0.16339000  1.0
  C  C58  1  0.09539000  0.06618000  0.33661000  1.0
  C  C59  1  0.90461000  0.43381000  0.83661000  1.0
  C  C60  1  0.77525000  0.99652000  0.65160000  1.0
  C  C61  1  0.22475000  0.50349000  0.15160000  1.0
  C  C62  1  0.22475000  0.00348000  0.34840000  1.0
  C  C63  1  0.77525000  0.49651000  0.84840000  1.0
  C  C64  1  0.68750000  0.04264000  0.70533000  1.0
  C  C65  1  0.31250000  0.45736000  0.20533000  1.0
  C  C66  1  0.31250000  0.95735000  0.29467000  1.0
  C  C67  1  0.68750000  0.54264000  0.79467000  1.0
  C  C68  1  0.55500000  0.10982000  0.69545000  1.0
  C  C69  1  0.44499000  0.39018000  0.19544000  1.0
  C  C70  1  0.44500000  0.89018000  0.30455000  1.0
  C  C71  1  0.55500000  0.60982000  0.80456000  1.0
  C  C72  1  0.47661000  0.15111000  0.75016000  1.0
  C  C73  1  0.52338000  0.34889000  0.25016000  1.0
  C  C74  1  0.52339000  0.84889000  0.24984000  1.0
  C  C75  1  0.47661000  0.65111000  0.74983000  1.0
  C  C76  1  0.53098000  0.12671000  0.81458000  1.0
  C  C77  1  0.46902000  0.37329000  0.31457000  1.0
  C  C78  1  0.46902000  0.87330000  0.18543000  1.0
  C  C79  1  0.53098000  0.62670000  0.68543000  1.0
  C  C80  1  0.73468000  0.02246000  0.77232000  1.0
  C  C81  1  0.26532000  0.47754000  0.27232000  1.0
  C  C82  1  0.26532000  0.97754000  0.22768000  1.0
  C  C83  1  0.73468000  0.52246000  0.72768000  1.0
  C  C84  1  0.87113000  0.95554000  0.78505000  1.0
  C  C85  1  0.12887000  0.54446000  0.28505000  1.0
  C  C86  1  0.12887000  0.04446000  0.21495000  1.0
  C  C87  1  0.87113000  0.45554000  0.71495000  1.0
  C  C88  1  0.80254000  0.77928000  0.03565000  1.0
  C  C89  1  0.19746000  0.72072000  0.53565000  1.0
  C  C90  1  0.19746000  0.22072000  0.96435000  1.0
  C  C91  1  0.80254000  0.27928000  0.46435000  1.0
  C  C92  1  0.64289000  0.63654000  0.01747000  1.0
  C  C93  1  0.35712000  0.86346000  0.51747000  1.0
  C  C94  1  0.35712000  0.36347000  0.98253000  1.0
  C  C95  1  0.64288000  0.13654000  0.48253000  1.0
  C  C96  1  0.46711000  0.63130000  0.99270000  1.0
  C  C97  1  0.53289000  0.86870000  0.49270000  1.0
  C  C98  1  0.53289000  0.36871000  0.00730000  1.0
  C  C99  1  0.46711000  0.13129000  0.50730000  1.0
  C  C100  1  0.41672000  0.76535000  0.98660000  1.0
  C  C101  1  0.58329000  0.73465000  0.48661000  1.0
  C  C102  1  0.58329000  0.23466000  0.01339000  1.0
  C  C103  1  0.41671000  0.26535000  0.51340000  1.0
  C  C104  1  0.67207000  0.50494000  0.02438000  1.0
  C  C105  1  0.32793000  0.99506000  0.52438000  1.0
  C  C106  1  0.32793000  0.49507000  0.97562000  1.0
  C  C107  1  0.67207000  0.00494000  0.47562000  1.0
  N  N108  1  0.91342000  0.93537000  0.84913000  1.0
  N  N109  1  0.08657000  0.56463000  0.34913000  1.0
  N  N110  1  0.08657000  0.06463000  0.15087000  1.0
  N  N111  1  0.91343000  0.43537000  0.65088000  1.0
  N  N112  1  0.65648000  0.06503000  0.82486000  1.0
  N  N113  1  0.34352000  0.43497000  0.32486000  1.0
  N  N114  1  0.34353000  0.93497000  0.17514000  1.0
  N  N115  1  0.65647000  0.56502000  0.67514000  1.0
  O  O116  1  0.78575000  0.90043000  0.02271000  1.0
  O  O117  1  0.21426000  0.59957000  0.52271000  1.0
  O  O118  1  0.21426000  0.09957000  0.97729000  1.0
  O  O119  1  0.78574000  0.40043000  0.47728000  1.0
  O  O120  1  0.94656000  0.76893000  0.06397000  1.0
  O  O121  1  0.05344000  0.73107000  0.56397000  1.0
  O  O122  1  0.05343000  0.23107000  0.93603000  1.0
  O  O123  1  0.94656000  0.26893000  0.43603000  1.0
  O  O124  1  0.44804000  0.83482000  0.93180000  1.0
  O  O125  1  0.55197000  0.66518000  0.43179000  1.0
  O  O126  1  0.55197000  0.16519000  0.06821000  1.0
  O  O127  1  0.44804000  0.33481000  0.56820000  1.0
  O  O128  1  0.33646000  0.79024000  0.03801000  1.0
  O  O129  1  0.66355000  0.70977000  0.53800000  1.0
  O  O130  1  0.66354000  0.20977000  0.96200000  1.0
  O  O131  1  0.33646000  0.29023000  0.46199000  1.0
