# generated using pymatgen
data_CuH4C6SIN2
_symmetry_space_group_name_H-M   'P 1'
_cell_length_a   4.06016000
_cell_length_b   10.24740000
_cell_length_c   10.31440000
_cell_angle_alpha   69.77510000
_cell_angle_beta   84.70080000
_cell_angle_gamma   78.95870000
_symmetry_Int_Tables_number   1
_chemical_formula_structural   CuH4C6SIN2
_chemical_formula_sum   'Cu2 H8 C12 S2 I2 N4'
_cell_volume   395.06891623
_cell_formula_units_Z   2
loop_
 _symmetry_equiv_pos_site_id
 _symmetry_equiv_pos_as_xyz
  1  'x, y, z'
loop_
 _atom_site_type_symbol
 _atom_site_label
 _atom_site_symmetry_multiplicity
 _atom_site_fract_x
 _atom_site_fract_y
 _atom_site_fract_z
 _atom_site_occupancy
  Cu  Cu0  1  0.27644000  0.47707000  0.92123000  1.0
  Cu  Cu1  1  0.72356000  0.52294000  0.07877000  1.0
  H  H2  1  0.66490000  0.45236000  0.63944000  1.0
  H  H3  1  0.33511000  0.54764000  0.36057000  1.0
  H  H4  1  0.48600000  0.96669000  0.67273000  1.0
  H  H5  1  0.51400000  0.03330000  0.32727000  1.0
  H  H6  1  0.80233000  0.11259000  0.47138000  1.0
  H  H7  1  0.19767000  0.88741000  0.52862000  1.0
  H  H8  1  0.88582000  0.34908000  0.45503000  1.0
  H  H9  1  0.11418000  0.65092000  0.54497000  1.0
  C  C10  1  0.44338000  0.26799000  0.75871000  1.0
  C  C11  1  0.55662000  0.73201000  0.24129000  1.0
  C  C12  1  0.62367000  0.34855000  0.64497000  1.0
  C  C13  1  0.37633000  0.65145000  0.35503000  1.0
  C  C14  1  0.38878000  0.13009000  0.76757000  1.0
  C  C15  1  0.61121000  0.86991000  0.23243000  1.0
  C  C16  1  0.52135000  0.07235000  0.66335000  1.0
  C  C17  1  0.47865000  0.92765000  0.33665000  1.0
  C  C18  1  0.69599000  0.15336000  0.55366000  1.0
  C  C19  1  0.30402000  0.84664000  0.44634000  1.0
  C  C20  1  0.74485000  0.29027000  0.54427000  1.0
  C  C21  1  0.25515000  0.70972000  0.45573000  1.0
  S  S22  1  0.12394000  0.17352000  0.97072000  1.0
  S  S23  1  0.87606000  0.82648000  0.02928000  1.0
  I  I24  1  0.71393000  0.64172000  0.80393000  1.0
  I  I25  1  0.28607000  0.35828000  0.19607000  1.0
  N  N26  1  0.30614000  0.30394000  0.86936000  1.0
  N  N27  1  0.69385000  0.69606000  0.13064000  1.0
  N  N28  1  0.20815000  0.06807000  0.88166000  1.0
  N  N29  1  0.79185000  0.93193000  0.11834000  1.0
