# generated using pymatgen
data_LaH27C31(NO5)2
_symmetry_space_group_name_H-M   'P 1'
_cell_length_a   10.19780000
_cell_length_b   12.82990000
_cell_length_c   26.32730000
_cell_angle_alpha   94.71840000
_cell_angle_beta   89.99980000
_cell_angle_gamma   89.99980000
_symmetry_Int_Tables_number   1
_chemical_formula_structural   LaH27C31(NO5)2
_chemical_formula_sum   'La4 H108 C124 N8 O40'
_cell_volume   3432.90487742
_cell_formula_units_Z   4
loop_
 _symmetry_equiv_pos_site_id
 _symmetry_equiv_pos_as_xyz
  1  'x, y, z'
loop_
 _atom_site_type_symbol
 _atom_site_label
 _atom_site_symmetry_multiplicity
 _atom_site_fract_x
 _atom_site_fract_y
 _atom_site_fract_z
 _atom_site_occupancy
  La  La0  1  0.48900000  0.19445000  0.72083000  1.0
  La  La1  1  0.98900000  0.30555000  0.77917000  1.0
  La  La2  1  0.51100000  0.80555000  0.27917000  1.0
  La  La3  1  0.01100000  0.69445000  0.22083000  1.0
  H  H4  1  0.49178000  0.09385000  0.86808000  1.0
  H  H5  1  0.99178000  0.40615000  0.63192000  1.0
  H  H6  1  0.50822000  0.90615000  0.13192000  1.0
  H  H7  1  0.00822000  0.59385000  0.36808000  1.0
  H  H8  1  0.53224000  0.05836000  0.95888000  1.0
  H  H9  1  0.03224000  0.44164000  0.54112000  1.0
  H  H10  1  0.46776000  0.94164000  0.04112000  1.0
  H  H11  1  0.96776000  0.55836000  0.45888000  1.0
  H  H12  1  0.14614000  0.44462000  0.07068000  1.0
  H  H13  1  0.64613000  0.05538000  0.42932000  1.0
  H  H14  1  0.85387000  0.55538000  0.92932000  1.0
  H  H15  1  0.35387000  0.94462000  0.57068000  1.0
  H  H16  1  0.48660000  0.43030000  0.66358000  1.0
  H  H17  1  0.98660000  0.06970000  0.83642000  1.0
  H  H18  1  0.51340000  0.56970000  0.33642000  1.0
  H  H19  1  0.01340000  0.93030000  0.16358000  1.0
  H  H20  1  0.13326000  0.14669000  0.99606000  1.0
  H  H21  1  0.63326000  0.35331000  0.50394000  1.0
  H  H22  1  0.86674000  0.85331000  0.00394000  1.0
  H  H23  1  0.36674000  0.64669000  0.49606000  1.0
  H  H24  1  0.35396000  0.08989000  0.02324000  1.0
  H  H25  1  0.85396000  0.41011000  0.47676000  1.0
  H  H26  1  0.64604000  0.91011000  0.97676000  1.0
  H  H27  1  0.14604000  0.58989000  0.52324000  1.0
  H  H28  1  0.09959000  0.56123000  0.67898000  1.0
  H  H29  1  0.59959000  0.93877000  0.82102000  1.0
  H  H30  1  0.90041000  0.43877000  0.32102000  1.0
  H  H31  1  0.40041000  0.06123000  0.17898000  1.0
  H  H32  1  0.16390000  0.70361000  0.62470000  1.0
  H  H33  1  0.66389000  0.79638000  0.87530000  1.0
  H  H34  1  0.83610000  0.29639000  0.37530000  1.0
  H  H35  1  0.33610000  0.20362000  0.12470000  1.0
  H  H36  1  0.39012000  0.70743000  0.58894000  1.0
  H  H37  1  0.89012000  0.79257000  0.91106000  1.0
  H  H38  1  0.60988000  0.29257000  0.41106000  1.0
  H  H39  1  0.10988000  0.20743000  0.08894000  1.0
  H  H40  1  0.55101000  0.56993000  0.60808000  1.0
  H  H41  1  0.05101000  0.93007000  0.89192000  1.0
  H  H42  1  0.44898000  0.43007000  0.39192000  1.0
  H  H43  1  0.94898000  0.06993000  0.10808000  1.0
  H  H44  1  0.44663000  0.07170000  0.48242000  1.0
  H  H45  1  0.94663000  0.42829000  0.01758000  1.0
  H  H46  1  0.55337000  0.92830000  0.51758000  1.0
  H  H47  1  0.05337000  0.57170000  0.98242000  1.0
  H  H48  1  0.35300000  0.34029000  0.58486000  1.0
  H  H49  1  0.85300000  0.15971000  0.91514000  1.0
  H  H50  1  0.64700000  0.65971000  0.41514000  1.0
  H  H51  1  0.14700000  0.84029000  0.08486000  1.0
  H  H52  1  0.35495000  0.16020000  0.41020000  1.0
  H  H53  1  0.85495000  0.33980000  0.08980000  1.0
  H  H54  1  0.64505000  0.83980000  0.58980000  1.0
  H  H55  1  0.14505000  0.66020000  0.91020000  1.0
  H  H56  1  0.26544000  0.43152000  0.51203000  1.0
  H  H57  1  0.76544000  0.06848000  0.98797000  1.0
  H  H58  1  0.73456000  0.56848000  0.48797000  1.0
  H  H59  1  0.23456000  0.93152000  0.01203000  1.0
  H  H60  1  0.26235000  0.34091000  0.42496000  1.0
  H  H61  1  0.76235000  0.15909000  0.07504000  1.0
  H  H62  1  0.73765000  0.65909000  0.57504000  1.0
  H  H63  1  0.23765000  0.84091000  0.92496000  1.0
  H  H64  1  0.26515000  0.42906000  0.90577000  1.0
  H  H65  1  0.76516000  0.07094000  0.59422000  1.0
  H  H66  1  0.73485000  0.57094000  0.09423000  1.0
  H  H67  1  0.23485000  0.92906000  0.40578000  1.0
  H  H68  1  0.34363000  0.41106000  0.81656000  1.0
  H  H69  1  0.84363000  0.08894000  0.68343000  1.0
  H  H70  1  0.65637000  0.58894000  0.18344000  1.0
  H  H71  1  0.15637000  0.91106000  0.31657000  1.0
  H  H72  1  0.64362000  0.31036000  0.94985000  1.0
  H  H73  1  0.14362000  0.18964000  0.55014000  1.0
  H  H74  1  0.35639000  0.68964000  0.05015000  1.0
  H  H75  1  0.85638000  0.81037000  0.44986000  1.0
  H  H76  1  0.70547000  0.29756000  0.85881000  1.0
  H  H77  1  0.20548000  0.20245000  0.64119000  1.0
  H  H78  1  0.29453000  0.70245000  0.14119000  1.0
  H  H79  1  0.79452000  0.79755000  0.35881000  1.0
  H  H80  1  0.51858000  0.35606000  0.11302000  1.0
  H  H81  1  0.01858000  0.14394000  0.38697000  1.0
  H  H82  1  0.48142000  0.64394000  0.88698000  1.0
  H  H83  1  0.98142000  0.85606000  0.61303000  1.0
  H  H84  1  0.59520000  0.33676000  0.02313000  1.0
  H  H85  1  0.09520000  0.16324000  0.47686000  1.0
  H  H86  1  0.40480000  0.66324000  0.97687000  1.0
  H  H87  1  0.90480000  0.83676000  0.52314000  1.0
  H  H88  1  0.20298000  0.42571000  0.97892000  1.0
  H  H89  1  0.70298000  0.07429000  0.52108000  1.0
  H  H90  1  0.79703000  0.57429000  0.02108000  1.0
  H  H91  1  0.29702000  0.92571000  0.47892000  1.0
  H  H92  1  0.09557000  0.18126000  0.90503000  1.0
  H  H93  1  0.59557000  0.31874000  0.59497000  1.0
  H  H94  1  0.90443000  0.81874000  0.09497000  1.0
  H  H95  1  0.40443000  0.68126000  0.40503000  1.0
  H  H96  1  0.56624000  0.03339000  0.63148000  1.0
  H  H97  1  0.06624000  0.46661000  0.86852000  1.0
  H  H98  1  0.43376000  0.96661000  0.36852000  1.0
  H  H99  1  0.93376000  0.53339000  0.13148000  1.0
  H  H100  1  0.58449000  0.96712000  0.68106000  1.0
  H  H101  1  0.08449000  0.53288000  0.81894000  1.0
  H  H102  1  0.41551000  0.03288000  0.31894000  1.0
  H  H103  1  0.91551000  0.46712000  0.18106000  1.0
  H  H104  1  0.21780000  0.09321000  0.71611000  1.0
  H  H105  1  0.71780000  0.40679000  0.78389000  1.0
  H  H106  1  0.78220000  0.90679000  0.28389000  1.0
  H  H107  1  0.28220000  0.59321000  0.21611000  1.0
  H  H108  1  0.28231000  0.00667000  0.67848000  1.0
  H  H109  1  0.78231000  0.49334000  0.82152000  1.0
  H  H110  1  0.71769000  0.99334000  0.32152000  1.0
  H  H111  1  0.21769000  0.50667000  0.17848000  1.0
  C  C112  1  0.29161000  0.14045000  0.88169000  1.0
  C  C113  1  0.79161000  0.35955000  0.61830000  1.0
  C  C114  1  0.70839000  0.85956000  0.11831000  1.0
  C  C115  1  0.20839000  0.64045000  0.38170000  1.0
  C  C116  1  0.19024000  0.15390000  0.91757000  1.0
  C  C117  1  0.69024000  0.34610000  0.58243000  1.0
  C  C118  1  0.80976000  0.84610000  0.08243000  1.0
  C  C119  1  0.30976000  0.65390000  0.41757000  1.0
  C  C120  1  0.41420000  0.10399000  0.89654000  1.0
  C  C121  1  0.91420000  0.39601000  0.60346000  1.0
  C  C122  1  0.58580000  0.89601000  0.10346000  1.0
  C  C123  1  0.08580000  0.60399000  0.39654000  1.0
  C  C124  1  0.45679000  0.14783000  0.58344000  1.0
  C  C125  1  0.95679000  0.35217000  0.91656000  1.0
  C  C126  1  0.54321000  0.85217000  0.41656000  1.0
  C  C127  1  0.04321000  0.64783000  0.08344000  1.0
  C  C128  1  0.40536000  0.20052000  0.53843000  1.0
  C  C129  1  0.90536000  0.29948000  0.96157000  1.0
  C  C130  1  0.59464000  0.79948000  0.46157000  1.0
  C  C131  1  0.09464000  0.70052000  0.03843000  1.0
  C  C132  1  0.35340000  0.30181000  0.54638000  1.0
  C  C133  1  0.85340000  0.19818000  0.95362000  1.0
  C  C134  1  0.64660000  0.69818000  0.45362000  1.0
  C  C135  1  0.14660000  0.80181000  0.04638000  1.0
  C  C136  1  0.40657000  0.15032000  0.48910000  1.0
  C  C137  1  0.90657000  0.34967000  0.01090000  1.0
  C  C138  1  0.59343000  0.84968000  0.51090000  1.0
  C  C139  1  0.09343000  0.65032000  0.98910000  1.0
  C  C140  1  0.35473000  0.20043000  0.44840000  1.0
  C  C141  1  0.85473000  0.29956000  0.05159000  1.0
  C  C142  1  0.64527000  0.79956000  0.55159000  1.0
  C  C143  1  0.14527000  0.70043000  0.94841000  1.0
  C  C144  1  0.30300000  0.30145000  0.45658000  1.0
  C  C145  1  0.80300000  0.19855000  0.04342000  1.0
  C  C146  1  0.69700000  0.69855000  0.54342000  1.0
  C  C147  1  0.19700000  0.80145000  0.95658000  1.0
  C  C148  1  0.27233000  0.17312000  0.82870000  1.0
  C  C149  1  0.77233000  0.32688000  0.67130000  1.0
  C  C150  1  0.72767000  0.82688000  0.17130000  1.0
  C  C151  1  0.22767000  0.67312000  0.32870000  1.0
  C  C152  1  0.43604000  0.08467000  0.94721000  1.0
  C  C153  1  0.93604000  0.41533000  0.55279000  1.0
  C  C154  1  0.56396000  0.91533000  0.05279000  1.0
  C  C155  1  0.06396000  0.58467000  0.44721000  1.0
  C  C156  1  0.40505000  0.39195000  0.84821000  1.0
  C  C157  1  0.90505000  0.10805000  0.65179000  1.0
  C  C158  1  0.59495000  0.60805000  0.15179000  1.0
  C  C159  1  0.09494000  0.89195000  0.34821000  1.0
  C  C160  1  0.44773000  0.37266000  0.93768000  1.0
  C  C161  1  0.94773000  0.12734000  0.56232000  1.0
  C  C162  1  0.55228000  0.62734000  0.06232000  1.0
  C  C163  1  0.05227000  0.87266000  0.43768000  1.0
  C  C164  1  0.57271000  0.33569000  0.92260000  1.0
  C  C165  1  0.07271000  0.16431000  0.57740000  1.0
  C  C166  1  0.42729000  0.66431000  0.07740000  1.0
  C  C167  1  0.92729000  0.83569000  0.42260000  1.0
  C  C168  1  0.61023000  0.32663000  0.87209000  1.0
  C  C169  1  0.11023000  0.17336000  0.62791000  1.0
  C  C170  1  0.38977000  0.67337000  0.12791000  1.0
  C  C171  1  0.88977000  0.82663000  0.37209000  1.0
  C  C172  1  0.40696000  0.38100000  0.99130000  1.0
  C  C173  1  0.90695000  0.11900000  0.50870000  1.0
  C  C174  1  0.59305000  0.61900000  0.00870000  1.0
  C  C175  1  0.09305000  0.88100000  0.49130000  1.0
  C  C176  1  0.49404000  0.36022000  0.03073000  1.0
  C  C177  1  0.99404000  0.13978000  0.46927000  1.0
  C  C178  1  0.50596000  0.63978000  0.96927000  1.0
  C  C179  1  0.00596000  0.86022000  0.53073000  1.0
  C  C180  1  0.45535000  0.36987000  0.08102000  1.0
  C  C181  1  0.95535000  0.13013000  0.41898000  1.0
  C  C182  1  0.54465000  0.63013000  0.91898000  1.0
  C  C183  1  0.04466000  0.86987000  0.58102000  1.0
  C  C184  1  0.27902000  0.41073000  0.00653000  1.0
  C  C185  1  0.77902000  0.08927000  0.49347000  1.0
  C  C186  1  0.72098000  0.58926000  0.99347000  1.0
  C  C187  1  0.22098000  0.91073000  0.50653000  1.0
  C  C188  1  0.24320000  0.42036000  0.05725000  1.0
  C  C189  1  0.74320000  0.07964000  0.44275000  1.0
  C  C190  1  0.75680000  0.57964000  0.94275000  1.0
  C  C191  1  0.25680000  0.92036000  0.55725000  1.0
  C  C192  1  0.24793000  0.40264000  0.70712000  1.0
  C  C193  1  0.74794000  0.09737000  0.79289000  1.0
  C  C194  1  0.75206000  0.59737000  0.29288000  1.0
  C  C195  1  0.25206000  0.90264000  0.20712000  1.0
  C  C196  1  0.28862000  0.48718000  0.67422000  1.0
  C  C197  1  0.78862000  0.01282000  0.82578000  1.0
  C  C198  1  0.71138000  0.51282000  0.32578000  1.0
  C  C199  1  0.21138000  0.98718000  0.17422000  1.0
  C  C200  1  0.41618000  0.48994000  0.65449000  1.0
  C  C201  1  0.91618000  0.01006000  0.84551000  1.0
  C  C202  1  0.58382000  0.51006000  0.34551000  1.0
  C  C203  1  0.08382000  0.98994000  0.15449000  1.0
  C  C204  1  0.36445000  0.40074000  0.89837000  1.0
  C  C205  1  0.86446000  0.09926000  0.60162000  1.0
  C  C206  1  0.63555000  0.59926000  0.10163000  1.0
  C  C207  1  0.13554000  0.90074000  0.39838000  1.0
  C  C208  1  0.21217000  0.13483000  0.96823000  1.0
  C  C209  1  0.71217000  0.36517000  0.53177000  1.0
  C  C210  1  0.78784000  0.86517000  0.03177000  1.0
  C  C211  1  0.28783000  0.63483000  0.46823000  1.0
  C  C212  1  0.33581000  0.10165000  0.98325000  1.0
  C  C213  1  0.83581000  0.39835000  0.51675000  1.0
  C  C214  1  0.66419000  0.89835000  0.01675000  1.0
  C  C215  1  0.16419000  0.60165000  0.48325000  1.0
  C  C216  1  0.30348000  0.35223000  0.50568000  1.0
  C  C217  1  0.80348000  0.14777000  0.99432000  1.0
  C  C218  1  0.69652000  0.64777000  0.49432000  1.0
  C  C219  1  0.19652000  0.85223000  0.00568000  1.0
  C  C220  1  0.19796000  0.56422000  0.66299000  1.0
  C  C221  1  0.69796000  0.93578000  0.83701000  1.0
  C  C222  1  0.80203000  0.43578000  0.33701000  1.0
  C  C223  1  0.30203000  0.06423000  0.16299000  1.0
  C  C224  1  0.23419000  0.64296000  0.63238000  1.0
  C  C225  1  0.73419000  0.85704000  0.86762000  1.0
  C  C226  1  0.76581000  0.35704000  0.36762000  1.0
  C  C227  1  0.26580000  0.14296000  0.13238000  1.0
  C  C228  1  0.36139000  0.64534000  0.61261000  1.0
  C  C229  1  0.86139000  0.85466000  0.88739000  1.0
  C  C230  1  0.63861000  0.35466000  0.38739000  1.0
  C  C231  1  0.13861000  0.14534000  0.11261000  1.0
  C  C232  1  0.45202000  0.56864000  0.62364000  1.0
  C  C233  1  0.95202000  0.93136000  0.87636000  1.0
  C  C234  1  0.54798000  0.43136000  0.37636000  1.0
  C  C235  1  0.04798000  0.06864000  0.12364000  1.0
  N  N236  1  0.52668000  0.35481000  0.83533000  1.0
  N  N237  1  0.02668000  0.14519000  0.66467000  1.0
  N  N238  1  0.47332000  0.64519000  0.16467000  1.0
  N  N239  1  0.97332000  0.85480000  0.33533000  1.0
  N  N240  1  0.33065000  0.40045000  0.09471000  1.0
  N  N241  1  0.83065000  0.09955000  0.40529000  1.0
  N  N242  1  0.66935000  0.59955000  0.90529000  1.0
  N  N243  1  0.16935000  0.90045000  0.59471000  1.0
  O  O244  1  0.43166000  0.19209000  0.62725000  1.0
  O  O245  1  0.93166000  0.30790000  0.87275000  1.0
  O  O246  1  0.56834000  0.80791000  0.37275000  1.0
  O  O247  1  0.06834000  0.69209000  0.12725000  1.0
  O  O248  1  0.52153000  0.06258000  0.57552000  1.0
  O  O249  1  0.02153000  0.43742000  0.92448000  1.0
  O  O250  1  0.47847000  0.93742000  0.42448000  1.0
  O  O251  1  0.97847000  0.56258000  0.07552000  1.0
  O  O252  1  0.37246000  0.17321000  0.80026000  1.0
  O  O253  1  0.87246000  0.32680000  0.69974000  1.0
  O  O254  1  0.62754000  0.82680000  0.19974000  1.0
  O  O255  1  0.12754000  0.67320000  0.30026000  1.0
  O  O256  1  0.56329000  0.34527000  0.78707000  1.0
  O  O257  1  0.06329000  0.15474000  0.71293000  1.0
  O  O258  1  0.43671000  0.65473000  0.21293000  1.0
  O  O259  1  0.93671000  0.84526000  0.28707000  1.0
  O  O260  1  0.32837000  0.32895000  0.71341000  1.0
  O  O261  1  0.82836000  0.17105000  0.78660000  1.0
  O  O262  1  0.67164000  0.67105000  0.28660000  1.0
  O  O263  1  0.17163000  0.82895000  0.21341000  1.0
  O  O264  1  0.30398000  0.06169000  0.70593000  1.0
  O  O265  1  0.80398000  0.43831000  0.79407000  1.0
  O  O266  1  0.69602000  0.93831000  0.29407000  1.0
  O  O267  1  0.19602000  0.56169000  0.20593000  1.0
  O  O268  1  0.60177000  0.03402000  0.66762000  1.0
  O  O269  1  0.10177000  0.46598000  0.83238000  1.0
  O  O270  1  0.39823000  0.96599000  0.33238000  1.0
  O  O271  1  0.89823000  0.53402000  0.16762000  1.0
  O  O272  1  0.15850000  0.20273000  0.81610000  1.0
  O  O273  1  0.65850000  0.29727000  0.68390000  1.0
  O  O274  1  0.84150000  0.79727000  0.18390000  1.0
  O  O275  1  0.34150000  0.70273000  0.31610000  1.0
  O  O276  1  0.13428000  0.40864000  0.72690000  1.0
  O  O277  1  0.63428000  0.09136000  0.77310000  1.0
  O  O278  1  0.86572000  0.59136000  0.27310000  1.0
  O  O279  1  0.36571000  0.90864000  0.22690000  1.0
  O  O280  1  0.29713000  0.40796000  0.14250000  1.0
  O  O281  1  0.79712000  0.09205000  0.35750000  1.0
  O  O282  1  0.70287000  0.59205000  0.85750000  1.0
  O  O283  1  0.20288000  0.90795000  0.64250000  1.0
