# generated using pymatgen
data_MnH29C41N7O4
_symmetry_space_group_name_H-M   'P 1'
_cell_length_a   11.69370000
_cell_length_b   13.59690000
_cell_length_c   14.02690000
_cell_angle_alpha   111.93800000
_cell_angle_beta   108.13500000
_cell_angle_gamma   92.42640000
_symmetry_Int_Tables_number   1
_chemical_formula_structural   MnH29C41N7O4
_chemical_formula_sum   'Mn2 H58 C82 N14 O8'
_cell_volume   1933.89976485
_cell_formula_units_Z   2
loop_
 _symmetry_equiv_pos_site_id
 _symmetry_equiv_pos_as_xyz
  1  'x, y, z'
loop_
 _atom_site_type_symbol
 _atom_site_label
 _atom_site_symmetry_multiplicity
 _atom_site_fract_x
 _atom_site_fract_y
 _atom_site_fract_z
 _atom_site_occupancy
  Mn  Mn0  1  0.78268000  0.04065000  0.67643000  1.0
  Mn  Mn1  1  0.21732000  0.95935000  0.32358000  1.0
  H  H2  1  0.73528000  0.99064000  0.01376000  1.0
  H  H3  1  0.26471000  0.00937000  0.98626000  1.0
  H  H4  1  0.45161000  0.87588000  0.11854000  1.0
  H  H5  1  0.54838000  0.12411000  0.88146000  1.0
  H  H6  1  0.42803000  0.58180000  0.60136000  1.0
  H  H7  1  0.57197000  0.41820000  0.39864000  1.0
  H  H8  1  0.22626000  0.26602000  0.36635000  1.0
  H  H9  1  0.77373000  0.73398000  0.63365000  1.0
  H  H10  1  0.56736000  0.49841000  0.70908000  1.0
  H  H11  1  0.43264000  0.50159000  0.29091000  1.0
  H  H12  1  0.26348000  0.26609000  0.08557000  1.0
  H  H13  1  0.73653000  0.73392000  0.91442000  1.0
  H  H14  1  0.03781000  0.51781000  0.28500000  1.0
  H  H15  1  0.96220000  0.48219000  0.71500000  1.0
  H  H16  1  0.21499000  0.67381000  0.40431000  1.0
  H  H17  1  0.78502000  0.32619000  0.59569000  1.0
  H  H18  1  0.12775000  0.81774000  0.51412000  1.0
  H  H19  1  0.87226000  0.18226000  0.48588000  1.0
  H  H20  1  0.34028000  0.34506000  0.28666000  1.0
  H  H21  1  0.65972000  0.65494000  0.71333000  1.0
  H  H22  1  0.43774000  0.74723000  0.94740000  1.0
  H  H23  1  0.56226000  0.25276000  0.05259000  1.0
  H  H24  1  0.94109000  0.86623000  0.54150000  1.0
  H  H25  1  0.05891000  0.13376000  0.45850000  1.0
  H  H26  1  0.96128000  0.43580000  0.08210000  1.0
  H  H27  1  0.03872000  0.56420000  0.91790000  1.0
  H  H28  1  0.15924000  0.47981000  0.57412000  1.0
  H  H29  1  0.84078000  0.52019000  0.42589000  1.0
  H  H30  1  0.08715000  0.79125000  0.81842000  1.0
  H  H31  1  0.91286000  0.20875000  0.18159000  1.0
  H  H32  1  0.06729000  0.62149000  0.68139000  1.0
  H  H33  1  0.93273000  0.37852000  0.31862000  1.0
  H  H34  1  0.36384000  0.18305000  0.47465000  1.0
  H  H35  1  0.63614000  0.81694000  0.52534000  1.0
  H  H36  1  0.52150000  0.92816000  0.31922000  1.0
  H  H37  1  0.47850000  0.07185000  0.68078000  1.0
  H  H38  1  0.55957000  0.13828000  0.53048000  1.0
  H  H39  1  0.44041000  0.86171000  0.46950000  1.0
  H  H40  1  0.93806000  0.15751000  0.93872000  1.0
  H  H41  1  0.06196000  0.84249000  0.06128000  1.0
  H  H42  1  0.36820000  0.71322000  0.74984000  1.0
  H  H43  1  0.63181000  0.28678000  0.25016000  1.0
  H  H44  1  0.82765000  0.91809000  0.13886000  1.0
  H  H45  1  0.17235000  0.08191000  0.86115000  1.0
  H  H46  1  0.60663000  0.41110000  0.82382000  1.0
  H  H47  1  0.39337000  0.58890000  0.17615000  1.0
  H  H48  1  0.93103000  0.93918000  0.85769000  1.0
  H  H49  1  0.06897000  0.06082000  0.14232000  1.0
  H  H50  1  0.48609000  0.81679000  0.68429000  1.0
  H  H51  1  0.51391000  0.18322000  0.31572000  1.0
  H  H52  1  0.89581000  0.96744000  0.33958000  1.0
  H  H53  1  0.10418000  0.03256000  0.66043000  1.0
  H  H54  1  0.14245000  0.39585000  0.89986000  1.0
  H  H55  1  0.85754000  0.60416000  0.10015000  1.0
  H  H56  1  0.75844000  0.26952000  0.87045000  1.0
  H  H57  1  0.24156000  0.73048000  0.12953000  1.0
  H  H58  1  0.99484000  0.23832000  0.69345000  1.0
  H  H59  1  0.00517000  0.76169000  0.30655000  1.0
  C  C60  1  0.59261000  0.87039000  0.99555000  1.0
  C  C61  1  0.40739000  0.12960000  0.00445000  1.0
  C  C62  1  0.09043000  0.72756000  0.60371000  1.0
  C  C63  1  0.90959000  0.27244000  0.39630000  1.0
  C  C64  1  0.47482000  0.33563000  0.59818000  1.0
  C  C65  1  0.52519000  0.66436000  0.40180000  1.0
  C  C66  1  0.65619000  0.92756000  0.95692000  1.0
  C  C67  1  0.34380000  0.07245000  0.04309000  1.0
  C  C68  1  0.63424000  0.89419000  0.11393000  1.0
  C  C69  1  0.36575000  0.10580000  0.88607000  1.0
  C  C70  1  0.54926000  0.89438000  0.16612000  1.0
  C  C71  1  0.45073000  0.10562000  0.83388000  1.0
  C  C72  1  0.19103000  0.56610000  0.48060000  1.0
  C  C73  1  0.80897000  0.43390000  0.51940000  1.0
  C  C74  1  0.71301000  0.95305000  0.34244000  1.0
  C  C75  1  0.28699000  0.04694000  0.65756000  1.0
  C  C76  1  0.19527000  0.43800000  0.30264000  1.0
  C  C77  1  0.80473000  0.56201000  0.69736000  1.0
  C  C78  1  0.41357000  0.49452000  0.57424000  1.0
  C  C79  1  0.58643000  0.50548000  0.42575000  1.0
  C  C80  1  0.30082000  0.31749000  0.44150000  1.0
  C  C81  1  0.69917000  0.68251000  0.55850000  1.0
  C  C82  1  0.49113000  0.44780000  0.63508000  1.0
  C  C83  1  0.50887000  0.55220000  0.36492000  1.0
  C  C84  1  0.21486000  0.32217000  0.12948000  1.0
  C  C85  1  0.78514000  0.67784000  0.87052000  1.0
  C  C86  1  0.08798000  0.46275000  0.24233000  1.0
  C  C87  1  0.91202000  0.53725000  0.75767000  1.0
  C  C88  1  0.61834000  0.90801000  0.84568000  1.0
  C  C89  1  0.38167000  0.09200000  0.15433000  1.0
  C  C90  1  0.31782000  0.42975000  0.47662000  1.0
  C  C91  1  0.68218000  0.57025000  0.52337000  1.0
  C  C92  1  0.18223000  0.66195000  0.46475000  1.0
  C  C93  1  0.81776000  0.33805000  0.53525000  1.0
  C  C94  1  0.68860000  0.97309000  0.80923000  1.0
  C  C95  1  0.31141000  0.02691000  0.19078000  1.0
  C  C96  1  0.13214000  0.74261000  0.52589000  1.0
  C  C97  1  0.86786000  0.25738000  0.47411000  1.0
  C  C98  1  0.25802000  0.36725000  0.24346000  1.0
  C  C99  1  0.74197000  0.63275000  0.75654000  1.0
  C  C100  1  0.48826000  0.79290000  0.91909000  1.0
  C  C101  1  0.51174000  0.20710000  0.08091000  1.0
  C  C102  1  0.95722000  0.86600000  0.62182000  1.0
  C  C103  1  0.04278000  0.13400000  0.37819000  1.0
  C  C104  1  0.04523000  0.41750000  0.12807000  1.0
  C  C105  1  0.95477000  0.58251000  0.87193000  1.0
  C  C106  1  0.15258000  0.55404000  0.56159000  1.0
  C  C107  1  0.84743000  0.44596000  0.43842000  1.0
  C  C108  1  0.03182000  0.82704000  0.76708000  1.0
  C  C109  1  0.96818000  0.17295000  0.23292000  1.0
  C  C110  1  0.10236000  0.63384000  0.62250000  1.0
  C  C111  1  0.89766000  0.36616000  0.37751000  1.0
  C  C112  1  0.37910000  0.27019000  0.50161000  1.0
  C  C113  1  0.62090000  0.72981000  0.49838000  1.0
  C  C114  1  0.58802000  0.92386000  0.27887000  1.0
  C  C115  1  0.41198000  0.07615000  0.72114000  1.0
  C  C116  1  0.59561000  0.19306000  0.61663000  1.0
  C  C117  1  0.40440000  0.80693000  0.38336000  1.0
  C  C118  1  0.10805000  0.34698000  0.07121000  1.0
  C  C119  1  0.89195000  0.65302000  0.92879000  1.0
  C  C120  1  0.97480000  0.19941000  0.89928000  1.0
  C  C121  1  0.02520000  0.80059000  0.10072000  1.0
  C  C122  1  0.44976000  0.77310000  0.80774000  1.0
  C  C123  1  0.55024000  0.22690000  0.19226000  1.0
  C  C124  1  0.75975000  0.92055000  0.17786000  1.0
  C  C125  1  0.24025000  0.07944000  0.82214000  1.0
  C  C126  1  0.62192000  0.33511000  0.77125000  1.0
  C  C127  1  0.37808000  0.66489000  0.22873000  1.0
  C  C128  1  0.75346000  0.99045000  0.46419000  1.0
  C  C129  1  0.24655000  0.00953000  0.53581000  1.0
  C  C130  1  0.95601000  0.90076000  0.78586000  1.0
  C  C131  1  0.04398000  0.09924000  0.21414000  1.0
  C  C132  1  0.51472000  0.83005000  0.77053000  1.0
  C  C133  1  0.48528000  0.16996000  0.22947000  1.0
  C  C134  1  0.79868000  0.94914000  0.29057000  1.0
  C  C135  1  0.20132000  0.05086000  0.70943000  1.0
  C  C136  1  0.07801000  0.32392000  0.87605000  1.0
  C  C137  1  0.92198000  0.67609000  0.12395000  1.0
  C  C138  1  0.69586000  0.26470000  0.79273000  1.0
  C  C139  1  0.30414000  0.73529000  0.20725000  1.0
  C  C140  1  0.00534000  0.24585000  0.77559000  1.0
  C  C141  1  0.99466000  0.75416000  0.22441000  1.0
  N  N142  1  0.05744000  0.29331000  0.95401000  1.0
  N  N143  1  0.94256000  0.70670000  0.04599000  1.0
  N  N144  1  0.03225000  0.80528000  0.66221000  1.0
  N  N145  1  0.96775000  0.19472000  0.33779000  1.0
  N  N146  1  0.55810000  0.28884000  0.65874000  1.0
  N  N147  1  0.44190000  0.71115000  0.34124000  1.0
  N  N148  1  0.23826000  0.48063000  0.41770000  1.0
  N  N149  1  0.76174000  0.51937000  0.58230000  1.0
  N  N150  1  0.67931000  0.17710000  0.69593000  1.0
  N  N151  1  0.32070000  0.82289000  0.30405000  1.0
  N  N152  1  0.90990000  0.92396000  0.69455000  1.0
  N  N153  1  0.09010000  0.07603000  0.30545000  1.0
  N  N154  1  0.94158000  0.16923000  0.79146000  1.0
  N  N155  1  0.05843000  0.83077000  0.20854000  1.0
  O  O156  1  0.67598000  0.96769000  0.50452000  1.0
  O  O157  1  0.32402000  0.03230000  0.49548000  1.0
  O  O158  1  0.86017000  0.04432000  0.52527000  1.0
  O  O159  1  0.13983000  0.95568000  0.47473000  1.0
  O  O160  1  0.77557000  0.04851000  0.88080000  1.0
  O  O161  1  0.22445000  0.95148000  0.11921000  1.0
  O  O162  1  0.65631000  0.94741000  0.70547000  1.0
  O  O163  1  0.34368000  0.05260000  0.29454000  1.0
