# generated using pymatgen
data_TlH6C7NO3
_symmetry_space_group_name_H-M   'P 1'
_cell_length_a   7.24843000
_cell_length_b   9.38414000
_cell_length_c   11.69620000
_cell_angle_alpha   90.00000000
_cell_angle_beta   90.00000000
_cell_angle_gamma   93.83920000
_symmetry_Int_Tables_number   1
_chemical_formula_structural   TlH6C7NO3
_chemical_formula_sum   'Tl4 H24 C28 N4 O12'
_cell_volume   793.79345653
_cell_formula_units_Z   4
loop_
 _symmetry_equiv_pos_site_id
 _symmetry_equiv_pos_as_xyz
  1  'x, y, z'
loop_
 _atom_site_type_symbol
 _atom_site_label
 _atom_site_symmetry_multiplicity
 _atom_site_fract_x
 _atom_site_fract_y
 _atom_site_fract_z
 _atom_site_occupancy
  Tl  Tl0  1  0.00709000  0.18258000  0.11667000  1.0
  Tl  Tl1  1  0.50709000  0.68258000  0.38332000  1.0
  Tl  Tl2  1  0.99291000  0.81742000  0.88333000  1.0
  Tl  Tl3  1  0.49291000  0.31742000  0.61668000  1.0
  H  H4  1  0.59495000  0.26301000  0.99642000  1.0
  H  H5  1  0.09496000  0.76302000  0.50358000  1.0
  H  H6  1  0.40504000  0.73699000  0.00358000  1.0
  H  H7  1  0.90504000  0.23698000  0.49643000  1.0
  H  H8  1  0.95221000  0.17498000  0.80371000  1.0
  H  H9  1  0.45222000  0.67499000  0.69629000  1.0
  H  H10  1  0.04779000  0.82502000  0.19629000  1.0
  H  H11  1  0.54779000  0.32501000  0.30371000  1.0
  H  H12  1  0.03497000  0.05003000  0.63139000  1.0
  H  H13  1  0.53498000  0.55003000  0.86861000  1.0
  H  H14  1  0.96502000  0.94997000  0.36861000  1.0
  H  H15  1  0.46502000  0.44997000  0.13139000  1.0
  H  H16  1  0.88849000  0.91529000  0.57093000  1.0
  H  H17  1  0.38850000  0.41530000  0.92907000  1.0
  H  H18  1  0.11151000  0.08470000  0.42907000  1.0
  H  H19  1  0.61150000  0.58470000  0.07093000  1.0
  H  H20  1  0.31314000  0.95896000  0.75364000  1.0
  H  H21  1  0.81314000  0.45896000  0.74635000  1.0
  H  H22  1  0.68686000  0.04104000  0.24636000  1.0
  H  H23  1  0.18686000  0.54104000  0.25365000  1.0
  H  H24  1  0.55559000  0.89775000  0.61751000  1.0
  H  H25  1  0.05560000  0.39775000  0.88249000  1.0
  H  H26  1  0.44441000  0.10225000  0.38249000  1.0
  H  H27  1  0.94440000  0.60225000  0.11751000  1.0
  C  C28  1  0.81176000  0.12940000  0.79070000  1.0
  C  C29  1  0.31176000  0.62940000  0.70930000  1.0
  C  C30  1  0.18824000  0.87060000  0.20930000  1.0
  C  C31  1  0.68824000  0.37060000  0.29070000  1.0
  C  C32  1  0.67406000  0.16279000  0.86747000  1.0
  C  C33  1  0.17407000  0.66280000  0.63253000  1.0
  C  C34  1  0.32593000  0.83721000  0.13253000  1.0
  C  C35  1  0.82593000  0.33720000  0.36747000  1.0
  C  C36  1  0.48998000  0.10165000  0.85574000  1.0
  C  C37  1  0.98999000  0.60165000  0.64425000  1.0
  C  C38  1  0.51002000  0.89835000  0.14426000  1.0
  C  C39  1  0.01002000  0.39835000  0.35574000  1.0
  C  C40  1  0.34304000  0.14060000  0.93495000  1.0
  C  C41  1  0.84304000  0.64060000  0.56505000  1.0
  C  C42  1  0.65696000  0.85940000  0.06505000  1.0
  C  C43  1  0.15696000  0.35940000  0.43495000  1.0
  C  C44  1  0.77280000  0.03167000  0.70117000  1.0
  C  C45  1  0.27281000  0.53167000  0.79883000  1.0
  C  C46  1  0.22720000  0.96833000  0.29883000  1.0
  C  C47  1  0.72719000  0.46832000  0.20117000  1.0
  C  C48  1  0.45384000  0.00580000  0.76454000  1.0
  C  C49  1  0.95384000  0.50581000  0.73546000  1.0
  C  C50  1  0.54616000  0.99420000  0.23546000  1.0
  C  C51  1  0.04616000  0.49419000  0.26454000  1.0
  C  C52  1  0.58921000  0.97096000  0.68791000  1.0
  C  C53  1  0.08921000  0.47096000  0.81208000  1.0
  C  C54  1  0.41079000  0.02904000  0.31209000  1.0
  C  C55  1  0.91078000  0.52904000  0.18792000  1.0
  N  N56  1  0.91098000  0.99360000  0.63077000  1.0
  N  N57  1  0.41099000  0.49361000  0.86923000  1.0
  N  N58  1  0.08901000  0.00640000  0.36923000  1.0
  N  N59  1  0.58901000  0.50639000  0.13077000  1.0
  O  O60  1  0.71925000  0.25492000  0.95404000  1.0
  O  O61  1  0.21925000  0.75493000  0.54596000  1.0
  O  O62  1  0.28075000  0.74508000  0.04596000  1.0
  O  O63  1  0.78075000  0.24507000  0.45404000  1.0
  O  O64  1  0.17946000  0.08437000  0.92481000  1.0
  O  O65  1  0.67947000  0.58437000  0.57518000  1.0
  O  O66  1  0.82054000  0.91563000  0.07518000  1.0
  O  O67  1  0.32053000  0.41563000  0.42482000  1.0
  O  O68  1  0.38623000  0.23664000  0.01270000  1.0
  O  O69  1  0.88624000  0.73664000  0.48729000  1.0
  O  O70  1  0.61376000  0.76336000  0.98730000  1.0
  O  O71  1  0.11376000  0.26336000  0.51271000  1.0
