# generated using pymatgen
data_SrH13C15NO5
_symmetry_space_group_name_H-M   'P 1'
_cell_length_a   6.80659000
_cell_length_b   14.76290000
_cell_length_c   14.85170000
_cell_angle_alpha   89.99980000
_cell_angle_beta   89.99990000
_cell_angle_gamma   89.99990000
_symmetry_Int_Tables_number   1
_chemical_formula_structural   SrH13C15NO5
_chemical_formula_sum   'Sr4 H52 C60 N4 O20'
_cell_volume   1492.37318604
_cell_formula_units_Z   4
loop_
 _symmetry_equiv_pos_site_id
 _symmetry_equiv_pos_as_xyz
  1  'x, y, z'
loop_
 _atom_site_type_symbol
 _atom_site_label
 _atom_site_symmetry_multiplicity
 _atom_site_fract_x
 _atom_site_fract_y
 _atom_site_fract_z
 _atom_site_occupancy
  Sr  Sr0  1  0.85361000  0.55112000  0.80805000  1.0
  Sr  Sr1  1  0.64639000  0.05112000  0.19195000  1.0
  Sr  Sr2  1  0.14639000  0.94888000  0.30805000  1.0
  Sr  Sr3  1  0.35361000  0.44888000  0.69195000  1.0
  H  H4  1  0.83992000  0.25076000  0.66634000  1.0
  H  H5  1  0.66008000  0.75076000  0.33366000  1.0
  H  H6  1  0.16008000  0.24924000  0.16634000  1.0
  H  H7  1  0.33993000  0.74924000  0.83366000  1.0
  H  H8  1  0.89026000  0.12851000  0.55176000  1.0
  H  H9  1  0.60973000  0.62852000  0.44824000  1.0
  H  H10  1  0.10973000  0.37148000  0.05176000  1.0
  H  H11  1  0.39027000  0.87149000  0.94824000  1.0
  H  H12  1  0.88118000  0.52709000  0.49997000  1.0
  H  H13  1  0.61881000  0.02710000  0.50003000  1.0
  H  H14  1  0.11881000  0.97290000  0.99997000  1.0
  H  H15  1  0.38119000  0.47290000  0.00003000  1.0
  H  H16  1  0.89057000  0.56735000  0.33801000  1.0
  H  H17  1  0.60941000  0.06736000  0.66199000  1.0
  H  H18  1  0.10942000  0.93264000  0.83800000  1.0
  H  H19  1  0.39057000  0.43264000  0.16199000  1.0
  H  H20  1  0.89311000  0.44484000  0.22147000  1.0
  H  H21  1  0.60689000  0.94484000  0.77853000  1.0
  H  H22  1  0.10689000  0.05516000  0.72147000  1.0
  H  H23  1  0.39311000  0.55516000  0.27853000  1.0
  H  H24  1  0.88896000  0.28380000  0.26763000  1.0
  H  H25  1  0.61104000  0.78380000  0.73237000  1.0
  H  H26  1  0.11104000  0.21620000  0.76762000  1.0
  H  H27  1  0.38897000  0.71620000  0.23237000  1.0
  H  H28  1  0.87807000  0.83130000  0.11891000  1.0
  H  H29  1  0.62193000  0.33130000  0.88109000  1.0
  H  H30  1  0.12193000  0.66870000  0.61891000  1.0
  H  H31  1  0.37807000  0.16870000  0.38109000  1.0
  H  H32  1  0.02246000  0.75417000  0.18379000  1.0
  H  H33  1  0.47754000  0.25416000  0.81621000  1.0
  H  H34  1  0.97754000  0.74583000  0.68379000  1.0
  H  H35  1  0.52246000  0.24584000  0.31621000  1.0
  H  H36  1  0.75957000  0.75071000  0.18947000  1.0
  H  H37  1  0.74043000  0.25071000  0.81054000  1.0
  H  H38  1  0.24043000  0.74929000  0.68946000  1.0
  H  H39  1  0.25957000  0.24929000  0.31054000  1.0
  H  H40  1  0.89347000  0.56115000  0.03266000  1.0
  H  H41  1  0.60654000  0.06115000  0.96735000  1.0
  H  H42  1  0.10652000  0.93885000  0.53266000  1.0
  H  H43  1  0.39347000  0.43885000  0.46734000  1.0
  H  H44  1  0.75615000  0.58409000  0.13274000  1.0
  H  H45  1  0.74386000  0.08410000  0.86726000  1.0
  H  H46  1  0.24384000  0.91591000  0.63274000  1.0
  H  H47  1  0.25614000  0.41591000  0.36726000  1.0
  H  H48  1  0.01896000  0.58843000  0.13482000  1.0
  H  H49  1  0.48104000  0.08843000  0.86519000  1.0
  H  H50  1  0.98103000  0.91157000  0.63482000  1.0
  H  H51  1  0.51896000  0.41157000  0.36518000  1.0
  H  H52  1  0.85927000  0.80086000  0.97947000  1.0
  H  H53  1  0.64073000  0.30086000  0.02053000  1.0
  H  H54  1  0.14073000  0.69914000  0.47947000  1.0
  H  H55  1  0.35927000  0.19914000  0.52053000  1.0
  C  C56  1  0.85802000  0.42656000  0.64459000  1.0
  C  C57  1  0.64198000  0.92656000  0.35541000  1.0
  C  C58  1  0.14199000  0.07344000  0.14459000  1.0
  C  C59  1  0.35802000  0.57344000  0.85541000  1.0
  C  C60  1  0.91918000  0.13983000  0.37707000  1.0
  C  C61  1  0.58083000  0.63984000  0.62294000  1.0
  C  C62  1  0.08082000  0.36016000  0.87706000  1.0
  C  C63  1  0.41918000  0.86017000  0.12293000  1.0
  C  C64  1  0.86313000  0.35799000  0.57033000  1.0
  C  C65  1  0.63687000  0.85800000  0.42967000  1.0
  C  C66  1  0.13688000  0.14201000  0.07033000  1.0
  C  C67  1  0.36313000  0.64201000  0.92967000  1.0
  C  C68  1  0.85686000  0.26782000  0.59539000  1.0
  C  C69  1  0.64315000  0.76783000  0.40461000  1.0
  C  C70  1  0.14314000  0.23217000  0.09539000  1.0
  C  C71  1  0.35686000  0.73217000  0.90461000  1.0
  C  C72  1  0.88061000  0.19921000  0.53107000  1.0
  C  C73  1  0.61939000  0.69922000  0.46893000  1.0
  C  C74  1  0.11939000  0.30078000  0.03107000  1.0
  C  C75  1  0.38061000  0.80078000  0.96892000  1.0
  C  C76  1  0.89371000  0.21907000  0.44007000  1.0
  C  C77  1  0.60629000  0.71908000  0.55994000  1.0
  C  C78  1  0.10629000  0.28092000  0.94006000  1.0
  C  C79  1  0.39372000  0.78093000  0.05993000  1.0
  C  C80  1  0.88616000  0.31153000  0.41068000  1.0
  C  C81  1  0.61384000  0.81154000  0.58932000  1.0
  C  C82  1  0.11384000  0.18846000  0.91068000  1.0
  C  C83  1  0.38617000  0.68847000  0.08932000  1.0
  C  C84  1  0.88002000  0.38227000  0.47757000  1.0
  C  C85  1  0.61998000  0.88227000  0.52243000  1.0
  C  C86  1  0.11999000  0.11773000  0.97757000  1.0
  C  C87  1  0.38002000  0.61773000  0.02243000  1.0
  C  C88  1  0.88320000  0.47423000  0.44890000  1.0
  C  C89  1  0.61680000  0.97423000  0.55110000  1.0
  C  C90  1  0.11680000  0.02577000  0.94890000  1.0
  C  C91  1  0.38320000  0.52577000  0.05110000  1.0
  C  C92  1  0.88871000  0.49640000  0.35867000  1.0
  C  C93  1  0.61128000  0.99641000  0.64132000  1.0
  C  C94  1  0.11129000  0.00359000  0.85867000  1.0
  C  C95  1  0.38871000  0.50360000  0.14132000  1.0
  C  C96  1  0.89106000  0.42722000  0.29283000  1.0
  C  C97  1  0.60893000  0.92723000  0.70717000  1.0
  C  C98  1  0.10894000  0.07278000  0.79283000  1.0
  C  C99  1  0.39106000  0.57278000  0.20717000  1.0
  C  C100  1  0.89033000  0.33721000  0.31816000  1.0
  C  C101  1  0.60967000  0.83722000  0.68184000  1.0
  C  C102  1  0.10967000  0.16279000  0.81816000  1.0
  C  C103  1  0.39033000  0.66279000  0.18183000  1.0
  C  C104  1  0.88616000  0.76200000  0.14496000  1.0
  C  C105  1  0.61384000  0.26200000  0.85505000  1.0
  C  C106  1  0.11384000  0.73800000  0.64496000  1.0
  C  C107  1  0.38616000  0.23800000  0.35504000  1.0
  C  C108  1  0.88790000  0.60215000  0.09393000  1.0
  C  C109  1  0.61210000  0.10215000  0.90608000  1.0
  C  C110  1  0.11209000  0.89785000  0.59393000  1.0
  C  C111  1  0.38790000  0.39786000  0.40607000  1.0
  C  C112  1  0.86504000  0.72627000  0.98563000  1.0
  C  C113  1  0.63496000  0.22627000  0.01437000  1.0
  C  C114  1  0.13496000  0.77373000  0.48563000  1.0
  C  C115  1  0.36504000  0.27373000  0.51437000  1.0
  N  N116  1  0.88206000  0.69783000  0.07081000  1.0
  N  N117  1  0.61794000  0.19783000  0.92919000  1.0
  N  N118  1  0.11793000  0.80217000  0.57081000  1.0
  N  N119  1  0.38206000  0.30217000  0.42919000  1.0
  O  O120  1  0.99375000  0.48591000  0.64924000  1.0
  O  O121  1  0.50625000  0.98591000  0.35076000  1.0
  O  O122  1  0.00625000  0.01409000  0.14924000  1.0
  O  O123  1  0.49375000  0.51409000  0.85076000  1.0
  O  O124  1  0.72118000  0.42008000  0.70293000  1.0
  O  O125  1  0.77882000  0.92008000  0.29707000  1.0
  O  O126  1  0.27882000  0.07992000  0.20293000  1.0
  O  O127  1  0.22118000  0.57992000  0.79707000  1.0
  O  O128  1  0.02180000  0.07410000  0.40630000  1.0
  O  O129  1  0.47820000  0.57410000  0.59371000  1.0
  O  O130  1  0.97820000  0.42590000  0.90629000  1.0
  O  O131  1  0.52181000  0.92590000  0.09370000  1.0
  O  O132  1  0.83639000  0.14272000  0.30030000  1.0
  O  O133  1  0.66361000  0.64273000  0.69970000  1.0
  O  O134  1  0.16361000  0.35727000  0.80030000  1.0
  O  O135  1  0.33640000  0.85727000  0.19970000  1.0
  O  O136  1  0.85551000  0.67634000  0.91792000  1.0
  O  O137  1  0.64448000  0.17634000  0.08209000  1.0
  O  O138  1  0.14448000  0.82367000  0.41791000  1.0
  O  O139  1  0.35552000  0.32367000  0.58209000  1.0
