# generated using pymatgen
data_CaP2H11C4NO9
_symmetry_space_group_name_H-M   'P 1'
_cell_length_a   7.13406000
_cell_length_b   7.25967000
_cell_length_c   10.43700000
_cell_angle_alpha   78.72500000
_cell_angle_beta   80.53520000
_cell_angle_gamma   89.41060000
_symmetry_Int_Tables_number   1
_chemical_formula_structural   CaP2H11C4NO9
_chemical_formula_sum   'Ca2 P4 H22 C8 N2 O18'
_cell_volume   522.75936064
_cell_formula_units_Z   2
loop_
 _symmetry_equiv_pos_site_id
 _symmetry_equiv_pos_as_xyz
  1  'x, y, z'
loop_
 _atom_site_type_symbol
 _atom_site_label
 _atom_site_symmetry_multiplicity
 _atom_site_fract_x
 _atom_site_fract_y
 _atom_site_fract_z
 _atom_site_occupancy
  Ca  Ca0  1  0.62012000  0.82905000  0.74173000  1.0
  Ca  Ca1  1  0.37988000  0.17095000  0.25827000  1.0
  P  P2  1  0.51777000  0.27670000  0.88384000  1.0
  P  P3  1  0.48223000  0.72329000  0.11617000  1.0
  P  P4  1  0.10672000  0.88573000  0.79130000  1.0
  P  P5  1  0.89328000  0.11427000  0.20870000  1.0
  H  H6  1  0.68997000  0.44503000  0.70215000  1.0
  H  H7  1  0.31003000  0.55497000  0.29785000  1.0
  H  H8  1  0.26604000  0.79617000  0.95523000  1.0
  H  H9  1  0.73396000  0.20383000  0.04478000  1.0
  H  H10  1  0.74684000  0.19894000  0.56506000  1.0
  H  H11  1  0.25316000  0.80106000  0.43494000  1.0
  H  H12  1  0.71073000  0.07447000  0.46486000  1.0
  H  H13  1  0.28927000  0.92553000  0.53514000  1.0
  H  H14  1  0.34456000  0.19379000  0.69695000  1.0
  H  H15  1  0.65545000  0.80621000  0.30305000  1.0
  H  H16  1  0.19642000  0.16335000  0.94927000  1.0
  H  H17  1  0.80358000  0.83665000  0.05073000  1.0
  H  H18  1  0.19649000  0.41165000  0.89992000  1.0
  H  H19  1  0.80351000  0.58835000  0.10008000  1.0
  H  H20  1  0.01876000  0.15989000  0.64984000  1.0
  H  H21  1  0.98124000  0.84011000  0.35015000  1.0
  H  H22  1  0.94128000  0.17712000  0.81875000  1.0
  H  H23  1  0.05872000  0.82288000  0.18124000  1.0
  H  H24  1  0.32168000  0.54405000  0.67023000  1.0
  H  H25  1  0.67833000  0.45595000  0.32977000  1.0
  H  H26  1  0.07538000  0.50437000  0.67665000  1.0
  H  H27  1  0.92462000  0.49563000  0.32335000  1.0
  C  C28  1  0.26402000  0.28329000  0.87662000  1.0
  C  C29  1  0.73598000  0.71670000  0.12338000  1.0
  C  C30  1  0.05848000  0.13666000  0.74879000  1.0
  C  C31  1  0.94153000  0.86334000  0.25121000  1.0
  C  C32  1  0.21644000  0.44700000  0.65203000  1.0
  C  C33  1  0.78356000  0.55300000  0.34798000  1.0
  C  C34  1  0.26114000  0.42968000  0.50759000  1.0
  C  C35  1  0.73886000  0.57033000  0.49241000  1.0
  N  N36  1  0.22902000  0.26084000  0.74161000  1.0
  N  N37  1  0.77098000  0.73916000  0.25839000  1.0
  O  O38  1  0.59379000  0.11378000  0.82203000  1.0
  O  O39  1  0.40620000  0.88622000  0.17797000  1.0
  O  O40  1  0.53787000  0.27274000  0.02705000  1.0
  O  O41  1  0.46213000  0.72726000  0.97295000  1.0
  O  O42  1  0.60863000  0.46777000  0.79341000  1.0
  O  O43  1  0.39137000  0.53224000  0.20659000  1.0
  O  O44  1  0.29810000  0.85836000  0.70739000  1.0
  O  O45  1  0.70190000  0.14164000  0.29261000  1.0
  O  O46  1  0.13141000  0.84237000  0.94248000  1.0
  O  O47  1  0.86859000  0.15763000  0.05752000  1.0
  O  O48  1  0.93286000  0.78376000  0.77352000  1.0
  O  O49  1  0.06713000  0.21623000  0.22648000  1.0
  O  O50  1  0.34507000  0.28750000  0.47778000  1.0
  O  O51  1  0.65494000  0.71250000  0.52222000  1.0
  O  O52  1  0.21423000  0.57040000  0.42452000  1.0
  O  O53  1  0.78577000  0.42959000  0.57549000  1.0
  O  O54  1  0.72826000  0.06714000  0.55771000  1.0
  O  O55  1  0.27174000  0.93286000  0.44229000  1.0
