# generated using pymatgen
data_Mn2P2H10C5NO12
_symmetry_space_group_name_H-M   'P 1'
_cell_length_a   5.68010000
_cell_length_b   14.85550000
_cell_length_c   14.86210000
_cell_angle_alpha   90.01580000
_cell_angle_beta   90.00530000
_cell_angle_gamma   89.99850000
_symmetry_Int_Tables_number   1
_chemical_formula_structural   Mn2P2H10C5NO12
_chemical_formula_sum   'Mn8 P8 H40 C20 N4 O48'
_cell_volume   1254.07472772
_cell_formula_units_Z   4
loop_
 _symmetry_equiv_pos_site_id
 _symmetry_equiv_pos_as_xyz
  1  'x, y, z'
loop_
 _atom_site_type_symbol
 _atom_site_label
 _atom_site_symmetry_multiplicity
 _atom_site_fract_x
 _atom_site_fract_y
 _atom_site_fract_z
 _atom_site_occupancy
  Mn  Mn0  1  0.98670000  0.70311000  0.33933000  1.0
  Mn  Mn1  1  0.98645000  0.29686000  0.66049000  1.0
  Mn  Mn2  1  0.48676000  0.33940000  0.29693000  1.0
  Mn  Mn3  1  0.48633000  0.66068000  0.70298000  1.0
  Mn  Mn4  1  0.63035000  0.81730000  0.19858000  1.0
  Mn  Mn5  1  0.63021000  0.18262000  0.80157000  1.0
  Mn  Mn6  1  0.13012000  0.19838000  0.18250000  1.0
  Mn  Mn7  1  0.12980000  0.80159000  0.81754000  1.0
  P  P8  1  0.49391000  0.79467000  0.42093000  1.0
  P  P9  1  0.49387000  0.20539000  0.57908000  1.0
  P  P10  1  0.99394000  0.42081000  0.20535000  1.0
  P  P11  1  0.99353000  0.57918000  0.79452000  1.0
  P  P12  1  0.13681000  0.72642000  0.12619000  1.0
  P  P13  1  0.13663000  0.27355000  0.87391000  1.0
  P  P14  1  0.63668000  0.12603000  0.27354000  1.0
  P  P15  1  0.63638000  0.87396000  0.72651000  1.0
  H  H16  1  0.56105000  0.89479000  0.57438000  1.0
  H  H17  1  0.56139000  0.10524000  0.42564000  1.0
  H  H18  1  0.06104000  0.57425000  0.10531000  1.0
  H  H19  1  0.06092000  0.42568000  0.89472000  1.0
  H  H20  1  0.18660000  0.68708000  0.53663000  1.0
  H  H21  1  0.18653000  0.31293000  0.46325000  1.0
  H  H22  1  0.68668000  0.53678000  0.31278000  1.0
  H  H23  1  0.68634000  0.46329000  0.68702000  1.0
  H  H24  1  0.29940000  0.57979000  0.92488000  1.0
  H  H25  1  0.29989000  0.42017000  0.07489000  1.0
  H  H26  1  0.80001000  0.92519000  0.41996000  1.0
  H  H27  1  0.79994000  0.07494000  0.58002000  1.0
  H  H28  1  0.44312000  0.81624000  0.99303000  1.0
  H  H29  1  0.44302000  0.18369000  0.00712000  1.0
  H  H30  1  0.94310000  0.99274000  0.18369000  1.0
  H  H31  1  0.94286000  0.00720000  0.81638000  1.0
  H  H32  1  0.48559000  0.63441000  0.44668000  1.0
  H  H33  1  0.48536000  0.36566000  0.55329000  1.0
  H  H34  1  0.98540000  0.44670000  0.36551000  1.0
  H  H35  1  0.98523000  0.55331000  0.63434000  1.0
  H  H36  1  0.14024000  0.87741000  0.07037000  1.0
  H  H37  1  0.14015000  0.12257000  0.92975000  1.0
  H  H38  1  0.64008000  0.07009000  0.12266000  1.0
  H  H39  1  0.63976000  0.92987000  0.87741000  1.0
  H  H40  1  0.42185000  0.32856000  0.02805000  1.0
  H  H41  1  0.42099000  0.67153000  0.97166000  1.0
  H  H42  1  0.92164000  0.02796000  0.67157000  1.0
  H  H43  1  0.92235000  0.97217000  0.32855000  1.0
  H  H44  1  0.57243000  0.38656000  0.10798000  1.0
  H  H45  1  0.57181000  0.61353000  0.89179000  1.0
  H  H46  1  0.07257000  0.10784000  0.61365000  1.0
  H  H47  1  0.07251000  0.89202000  0.38640000  1.0
  H  H48  1  0.46986000  0.44374000  0.92066000  1.0
  H  H49  1  0.46945000  0.55636000  0.07911000  1.0
  H  H50  1  0.96870000  0.92060000  0.55609000  1.0
  H  H51  1  0.97045000  0.07936000  0.44403000  1.0
  H  H52  1  0.74696000  0.42674000  0.97162000  1.0
  H  H53  1  0.74648000  0.57360000  0.02821000  1.0
  H  H54  1  0.24624000  0.97111000  0.57355000  1.0
  H  H55  1  0.24741000  0.02824000  0.42701000  1.0
  C  C56  1  0.51756000  0.69199000  0.49185000  1.0
  C  C57  1  0.51739000  0.30808000  0.50813000  1.0
  C  C58  1  0.01752000  0.49185000  0.30797000  1.0
  C  C59  1  0.01722000  0.50815000  0.69189000  1.0
  C  C60  1  0.76016000  0.68088000  0.53253000  1.0
  C  C61  1  0.75997000  0.31921000  0.46747000  1.0
  C  C62  1  0.26011000  0.53253000  0.31912000  1.0
  C  C63  1  0.25983000  0.46745000  0.68079000  1.0
  C  C64  1  0.11047000  0.81234000  0.03667000  1.0
  C  C65  1  0.11036000  0.18764000  0.96346000  1.0
  C  C66  1  0.61038000  0.03638000  0.18769000  1.0
  C  C67  1  0.61009000  0.96359000  0.81237000  1.0
  C  C68  1  0.86746000  0.81469000  0.99450000  1.0
  C  C69  1  0.86741000  0.18525000  0.00563000  1.0
  C  C70  1  0.36746000  0.99418000  0.18540000  1.0
  C  C71  1  0.36717000  0.00580000  0.81464000  1.0
  C  C72  1  0.56879000  0.45128000  0.98345000  1.0
  C  C73  1  0.56847000  0.54891000  0.01634000  1.0
  C  C74  1  0.06836000  0.98328000  0.54887000  1.0
  C  C75  1  0.06911000  0.01646000  0.45140000  1.0
  N  N76  1  0.45891000  0.39214000  0.05203000  1.0
  N  N77  1  0.45831000  0.60794000  0.94773000  1.0
  N  N78  1  0.95883000  0.05195000  0.60805000  1.0
  N  N79  1  0.95914000  0.94803000  0.39205000  1.0
  O  O80  1  0.57120000  0.87494000  0.47896000  1.0
  O  O81  1  0.57155000  0.12516000  0.52108000  1.0
  O  O82  1  0.07125000  0.47884000  0.12514000  1.0
  O  O83  1  0.07082000  0.52114000  0.87474000  1.0
  O  O84  1  0.23716000  0.80022000  0.38990000  1.0
  O  O85  1  0.23706000  0.19973000  0.60999000  1.0
  O  O86  1  0.73719000  0.38977000  0.19975000  1.0
  O  O87  1  0.73677000  0.61020000  0.80009000  1.0
  O  O88  1  0.66635000  0.78251000  0.34032000  1.0
  O  O89  1  0.66598000  0.21763000  0.65975000  1.0
  O  O90  1  0.16624000  0.34017000  0.21753000  1.0
  O  O91  1  0.16584000  0.65983000  0.78240000  1.0
  O  O92  1  0.34849000  0.69614000  0.56302000  1.0
  O  O93  1  0.34842000  0.30390000  0.43691000  1.0
  O  O94  1  0.84859000  0.56312000  0.30376000  1.0
  O  O95  1  0.84822000  0.43692000  0.69607000  1.0
  O  O96  1  0.78016000  0.67954000  0.61696000  1.0
  O  O97  1  0.77997000  0.32063000  0.38303000  1.0
  O  O98  1  0.28009000  0.61700000  0.32062000  1.0
  O  O99  1  0.27990000  0.38299000  0.67950000  1.0
  O  O100  1  0.93723000  0.67222000  0.47992000  1.0
  O  O101  1  0.93709000  0.32779000  0.52008000  1.0
  O  O102  1  0.43726000  0.47990000  0.32762000  1.0
  O  O103  1  0.43690000  0.52008000  0.67211000  1.0
  O  O104  1  0.96567000  0.75294000  0.20216000  1.0
  O  O105  1  0.96537000  0.24717000  0.79797000  1.0
  O  O106  1  0.46532000  0.20195000  0.24714000  1.0
  O  O107  1  0.46504000  0.79804000  0.75293000  1.0
  O  O108  1  0.39371000  0.72054000  0.15287000  1.0
  O  O109  1  0.39352000  0.27937000  0.84723000  1.0
  O  O110  1  0.89358000  0.15278000  0.27932000  1.0
  O  O111  1  0.89327000  0.84722000  0.72075000  1.0
  O  O112  1  0.05391000  0.63903000  0.07635000  1.0
  O  O113  1  0.05409000  0.36098000  0.92381000  1.0
  O  O114  1  0.55424000  0.07618000  0.36094000  1.0
  O  O115  1  0.55386000  0.92380000  0.63912000  1.0
  O  O116  1  0.28447000  0.79594000  0.96860000  1.0
  O  O117  1  0.28440000  0.20404000  0.03152000  1.0
  O  O118  1  0.78451000  0.96834000  0.20409000  1.0
  O  O119  1  0.78424000  0.03162000  0.79599000  1.0
  O  O120  1  0.69263000  0.83559000  0.04460000  1.0
  O  O121  1  0.69259000  0.16429000  0.95553000  1.0
  O  O122  1  0.19272000  0.04422000  0.16416000  1.0
  O  O123  1  0.19243000  0.95577000  0.83588000  1.0
  O  O124  1  0.84778000  0.79638000  0.91175000  1.0
  O  O125  1  0.84777000  0.20359000  0.08838000  1.0
  O  O126  1  0.34773000  0.91149000  0.20410000  1.0
  O  O127  1  0.34746000  0.08849000  0.79594000  1.0
