# generated using pymatgen
data_SmAgH8C14(NO4)2
_symmetry_space_group_name_H-M   'P 1'
_cell_length_a   9.14037000
_cell_length_b   11.90899511
_cell_length_c   17.00980000
_cell_angle_alpha   108.34726461
_cell_angle_beta   90.00390000
_cell_angle_gamma   112.52663640
_symmetry_Int_Tables_number   1
_chemical_formula_structural   SmAgH8C14(NO4)2
_chemical_formula_sum   'Sm4 Ag4 H32 C56 N8 O32'
_cell_volume   1607.90212043
_cell_formula_units_Z   4
loop_
 _symmetry_equiv_pos_site_id
 _symmetry_equiv_pos_as_xyz
  1  'x, y, z'
loop_
 _atom_site_type_symbol
 _atom_site_label
 _atom_site_symmetry_multiplicity
 _atom_site_fract_x
 _atom_site_fract_y
 _atom_site_fract_z
 _atom_site_occupancy
  Sm  Sm0  1  0.83344000  0.03254000  0.57563000  1.0
  Sm  Sm1  1  0.80084000  0.96744000  0.92433000  1.0
  Sm  Sm2  1  0.16656000  0.96746000  0.42437000  1.0
  Sm  Sm3  1  0.19916000  0.03256000  0.07567000  1.0
  Ag  Ag4  1  0.75356000  0.34760000  0.13469000  1.0
  Ag  Ag5  1  0.40622000  0.65243000  0.36526000  1.0
  Ag  Ag6  1  0.24644000  0.65240000  0.86531000  1.0
  Ag  Ag7  1  0.59378000  0.34755000  0.63474000  1.0
  H  H8  1  0.57459000  0.23534000  0.26513000  1.0
  H  H9  1  0.33962000  0.76421000  0.23446000  1.0
  H  H10  1  0.42540000  0.76465000  0.73487000  1.0
  H  H11  1  0.66038000  0.23579000  0.76554000  1.0
  H  H12  1  0.61642000  0.12181000  0.35856000  1.0
  H  H13  1  0.49520000  0.87800000  0.14127000  1.0
  H  H14  1  0.38357000  0.87817000  0.64144000  1.0
  H  H15  1  0.50479000  0.12200000  0.85873000  1.0
  H  H16  1  0.08949000  0.19857000  0.28724000  1.0
  H  H17  1  0.89155000  0.80141000  0.21299000  1.0
  H  H18  1  0.91052000  0.80143000  0.71276000  1.0
  H  H19  1  0.10845000  0.19860000  0.78701000  1.0
  H  H20  1  0.03686000  0.32192000  0.20537000  1.0
  H  H21  1  0.71542000  0.67784000  0.29463000  1.0
  H  H22  1  0.96314000  0.67807000  0.79463000  1.0
  H  H23  1  0.28458000  0.32216000  0.70536000  1.0
  H  H24  1  0.56139000  0.35762000  0.98455000  1.0
  H  H25  1  0.20385000  0.64247000  0.51530000  1.0
  H  H26  1  0.43860000  0.64238000  0.01545000  1.0
  H  H27  1  0.79615000  0.35753000  0.48470000  1.0
  H  H28  1  0.60042000  0.51328000  0.90667000  1.0
  H  H29  1  0.08685000  0.48679000  0.59309000  1.0
  H  H30  1  0.39958000  0.48673000  0.09333000  1.0
  H  H31  1  0.91315000  0.51322000  0.40691000  1.0
  H  H32  1  0.06530000  0.74348000  0.05510000  1.0
  H  H33  1  0.32207000  0.25645000  0.44504000  1.0
  H  H34  1  0.93470000  0.25652000  0.94490000  1.0
  H  H35  1  0.67793000  0.74355000  0.55497000  1.0
  H  H36  1  0.00520000  0.58836000  0.12921000  1.0
  H  H37  1  0.41704000  0.41140000  0.37081000  1.0
  H  H38  1  0.99480000  0.41164000  0.87079000  1.0
  H  H39  1  0.58296000  0.58859000  0.62919000  1.0
  C  C40  1  0.68823000  0.22784000  0.27368000  1.0
  C  C41  1  0.46081000  0.77176000  0.22606000  1.0
  C  C42  1  0.31177000  0.77215000  0.72632000  1.0
  C  C43  1  0.53919000  0.22824000  0.77394000  1.0
  C  C44  1  0.71152000  0.16293000  0.32443000  1.0
  C  C45  1  0.54909000  0.83680000  0.17541000  1.0
  C  C46  1  0.28848000  0.83706000  0.67557000  1.0
  C  C47  1  0.45091000  0.16320000  0.82459000  1.0
  C  C48  1  0.85669000  0.15006000  0.32969000  1.0
  C  C49  1  0.70719000  0.84983000  0.17034000  1.0
  C  C50  1  0.14331000  0.84993000  0.67031000  1.0
  C  C51  1  0.29281000  0.15017000  0.82966000  1.0
  C  C52  1  0.97556000  0.20741000  0.28597000  1.0
  C  C53  1  0.76874000  0.79246000  0.21410000  1.0
  C  C54  1  0.02445000  0.79259000  0.71403000  1.0
  C  C55  1  0.23127000  0.20755000  0.78590000  1.0
  C  C56  1  0.94554000  0.27474000  0.23910000  1.0
  C  C57  1  0.67134000  0.72503000  0.26087000  1.0
  C  C58  1  0.05445000  0.72525000  0.76090000  1.0
  C  C59  1  0.32867000  0.27497000  0.73913000  1.0
  C  C60  1  0.88768000  0.07882000  0.38253000  1.0
  C  C61  1  0.80931000  0.92123000  0.11756000  1.0
  C  C62  1  0.11231000  0.92117000  0.61747000  1.0
  C  C63  1  0.19069000  0.07877000  0.88245000  1.0
  C  C64  1  0.67041000  0.44540000  0.99830000  1.0
  C  C65  1  0.22506000  0.55463000  0.50157000  1.0
  C  C66  1  0.32958000  0.55460000  0.00171000  1.0
  C  C67  1  0.77494000  0.44537000  0.49843000  1.0
  C  C68  1  0.69296000  0.53105000  0.95489000  1.0
  C  C69  1  0.16177000  0.46897000  0.54495000  1.0
  C  C70  1  0.30703000  0.46895000  0.04511000  1.0
  C  C71  1  0.83823000  0.53103000  0.45505000  1.0
  C  C72  1  0.83471000  0.64311000  0.97587000  1.0
  C  C73  1  0.19156000  0.35688000  0.52408000  1.0
  C  C74  1  0.16529000  0.35690000  0.02414000  1.0
  C  C75  1  0.80844000  0.64313000  0.47592000  1.0
  C  C76  1  0.95153000  0.66026000  0.03639000  1.0
  C  C77  1  0.29146000  0.33971000  0.46366000  1.0
  C  C78  1  0.04847000  0.33975000  0.96361000  1.0
  C  C79  1  0.70854000  0.66029000  0.53635000  1.0
  C  C80  1  0.91905000  0.57249000  0.07833000  1.0
  C  C81  1  0.34674000  0.42740000  0.42167000  1.0
  C  C82  1  0.08096000  0.42752000  0.92167000  1.0
  C  C83  1  0.65325000  0.57259000  0.57834000  1.0
  C  C84  1  0.85391000  0.74923000  0.94147000  1.0
  C  C85  1  0.10449000  0.25078000  0.55846000  1.0
  C  C86  1  0.14609000  0.25077000  0.05854000  1.0
  C  C87  1  0.89550000  0.74923000  0.44154000  1.0
  C  C88  1  0.55256000  0.07068000  0.02697000  1.0
  C  C89  1  0.48207000  0.92936000  0.47292000  1.0
  C  C90  1  0.44745000  0.92933000  0.97303000  1.0
  C  C91  1  0.51793000  0.07062000  0.52707000  1.0
  C  C92  1  0.78880000  0.07334000  0.77260000  1.0
  C  C93  1  0.71542000  0.92647000  0.72727000  1.0
  C  C94  1  0.21119000  0.92666000  0.22739000  1.0
  C  C95  1  0.28458000  0.07353000  0.27272000  1.0
  N  N96  1  0.80344000  0.28317000  0.23144000  1.0
  N  N97  1  0.52070000  0.71647000  0.26836000  1.0
  N  N98  1  0.19656000  0.71683000  0.76856000  1.0
  N  N99  1  0.47929000  0.28352000  0.73163000  1.0
  N  N100  1  0.77977000  0.46732000  0.06087000  1.0
  N  N101  1  0.31259000  0.53262000  0.43906000  1.0
  N  N102  1  0.22022000  0.53268000  0.93913000  1.0
  N  N103  1  0.68740000  0.46737000  0.56094000  1.0
  O  O104  1  0.81361000  0.07831000  0.44553000  1.0
  O  O105  1  0.73576000  0.92181000  0.05456000  1.0
  O  O106  1  0.18639000  0.92168000  0.55447000  1.0
  O  O107  1  0.26424000  0.07819000  0.94543000  1.0
  O  O108  1  0.98774000  0.02872000  0.36053000  1.0
  O  O109  1  0.95938000  0.97144000  0.13959000  1.0
  O  O110  1  0.01227000  0.97128000  0.63948000  1.0
  O  O111  1  0.04061000  0.02856000  0.86041000  1.0
  O  O112  1  0.74209000  0.73329000  0.88963000  1.0
  O  O113  1  0.00857000  0.26682000  0.61025000  1.0
  O  O114  1  0.25792000  0.26672000  0.11038000  1.0
  O  O115  1  0.99142000  0.73318000  0.38974000  1.0
  O  O116  1  0.97759000  0.85643000  0.96975000  1.0
  O  O117  1  0.12099000  0.14351000  0.53022000  1.0
  O  O118  1  0.02242000  0.14357000  0.03025000  1.0
  O  O119  1  0.87900000  0.85649000  0.46979000  1.0
  O  O120  1  0.49050000  0.12817000  0.08400000  1.0
  O  O121  1  0.36264000  0.87201000  0.41585000  1.0
  O  O122  1  0.50951000  0.87184000  0.91600000  1.0
  O  O123  1  0.63735000  0.12798000  0.58413000  1.0
  O  O124  1  0.69331000  0.11942000  0.01067000  1.0
  O  O125  1  0.57420000  0.88057000  0.48908000  1.0
  O  O126  1  0.30671000  0.88059000  0.98933000  1.0
  O  O127  1  0.42579000  0.11942000  0.51091000  1.0
  O  O128  1  0.84535000  0.14466000  0.72892000  1.0
  O  O129  1  0.70058000  0.85509000  0.77093000  1.0
  O  O130  1  0.15463000  0.85534000  0.27108000  1.0
  O  O131  1  0.29943000  0.14490000  0.22906000  1.0
  O  O132  1  0.78153000  0.11010000  0.85058000  1.0
  O  O133  1  0.67149000  0.88979000  0.64929000  1.0
  O  O134  1  0.21847000  0.88990000  0.14942000  1.0
  O  O135  1  0.32850000  0.11022000  0.35070000  1.0
