# generated using pymatgen
data_ZnH16C10(N3Cl)2
_symmetry_space_group_name_H-M   'P 1'
_cell_length_a   6.33233000
_cell_length_b   7.24509000
_cell_length_c   18.12010000
_cell_angle_alpha   101.19100000
_cell_angle_beta   90.00100000
_cell_angle_gamma   115.88400000
_symmetry_Int_Tables_number   1
_chemical_formula_structural   ZnH16C10(N3Cl)2
_chemical_formula_sum   'Zn2 H32 C20 N12 Cl4'
_cell_volume   730.30994917
_cell_formula_units_Z   2
loop_
 _symmetry_equiv_pos_site_id
 _symmetry_equiv_pos_as_xyz
  1  'x, y, z'
loop_
 _atom_site_type_symbol
 _atom_site_label
 _atom_site_symmetry_multiplicity
 _atom_site_fract_x
 _atom_site_fract_y
 _atom_site_fract_z
 _atom_site_occupancy
  Zn  Zn0  1  0.81990000  0.00019000  0.74989000  1.0
  Zn  Zn1  1  0.18009000  0.99980000  0.25011000  1.0
  H  H2  1  0.40162000  0.27365000  0.74073000  1.0
  H  H3  1  0.12780000  0.72642000  0.75912000  1.0
  H  H4  1  0.59837000  0.72634000  0.25927000  1.0
  H  H5  1  0.87218000  0.27356000  0.24088000  1.0
  H  H6  1  0.85590000  0.88254000  0.56798000  1.0
  H  H7  1  0.97271000  0.11731000  0.93190000  1.0
  H  H8  1  0.14408000  0.11745000  0.43201000  1.0
  H  H9  1  0.02733000  0.88271000  0.06809000  1.0
  H  H10  1  0.69016000  0.12160000  0.59636000  1.0
  H  H11  1  0.56790000  0.87784000  0.90349000  1.0
  H  H12  1  0.30984000  0.87839000  0.40363000  1.0
  H  H13  1  0.43210000  0.12217000  0.09651000  1.0
  H  H14  1  0.74277000  0.35590000  0.66294000  1.0
  H  H15  1  0.38625000  0.64362000  0.83690000  1.0
  H  H16  1  0.25723000  0.64408000  0.33706000  1.0
  H  H17  1  0.61375000  0.35638000  0.16310000  1.0
  H  H18  1  0.64828000  0.49651000  0.55585000  1.0
  H  H19  1  0.15149000  0.50279000  0.94393000  1.0
  H  H20  1  0.35172000  0.50349000  0.44416000  1.0
  H  H21  1  0.84853000  0.49722000  0.05607000  1.0
  H  H22  1  0.60421000  0.26108000  0.49184000  1.0
  H  H23  1  0.34214000  0.73831000  0.00794000  1.0
  H  H24  1  0.39578000  0.73893000  0.50816000  1.0
  H  H25  1  0.65787000  0.26171000  0.99206000  1.0
  H  H26  1  0.06808000  0.58502000  0.58536000  1.0
  H  H27  1  0.48355000  0.41488000  0.91464000  1.0
  H  H28  1  0.93192000  0.41498000  0.41464000  1.0
  H  H29  1  0.51647000  0.58514000  0.08537000  1.0
  H  H30  1  0.02486000  0.33503000  0.53623000  1.0
  H  H31  1  0.68947000  0.66520000  0.96381000  1.0
  H  H32  1  0.97513000  0.66497000  0.46377000  1.0
  H  H33  1  0.31054000  0.33481000  0.03619000  1.0
  C  C34  1  0.30025000  0.18507000  0.68681000  1.0
  C  C35  1  0.11485000  0.81490000  0.81306000  1.0
  C  C36  1  0.69973000  0.81491000  0.31319000  1.0
  C  C37  1  0.88515000  0.18509000  0.18694000  1.0
  C  C38  1  0.02884000  0.98510000  0.59773000  1.0
  C  C39  1  0.04315000  0.01476000  0.90216000  1.0
  C  C40  1  0.97115000  0.01489000  0.40227000  1.0
  C  C41  1  0.95686000  0.98526000  0.09783000  1.0
  C  C42  1  0.64536000  0.25404000  0.60892000  1.0
  C  C43  1  0.39069000  0.74544000  0.89092000  1.0
  C  C44  1  0.35464000  0.74595000  0.39108000  1.0
  C  C45  1  0.60931000  0.25457000  0.10907000  1.0
  C  C46  1  0.70387000  0.37016000  0.54462000  1.0
  C  C47  1  0.33321000  0.62923000  0.95519000  1.0
  C  C48  1  0.29614000  0.62984000  0.45538000  1.0
  C  C49  1  0.66680000  0.37078000  0.04481000  1.0
  C  C50  1  0.96785000  0.45861000  0.53607000  1.0
  C  C51  1  0.50918000  0.54129000  0.96391000  1.0
  C  C52  1  0.03216000  0.54140000  0.46394000  1.0
  C  C53  1  0.49083000  0.45873000  0.03609000  1.0
  N  N54  1  0.06563000  0.07005000  0.67361000  1.0
  N  N55  1  0.99536000  0.93007000  0.82627000  1.0
  N  N56  1  0.93436000  0.92994000  0.32639000  1.0
  N  N57  1  0.00464000  0.06992000  0.17373000  1.0
  N  N58  1  0.39628000  0.16816000  0.62161000  1.0
  N  N59  1  0.22753000  0.83148000  0.87828000  1.0
  N  N60  1  0.60372000  0.83183000  0.37839000  1.0
  N  N61  1  0.77247000  0.16852000  0.12172000  1.0
  N  N62  1  0.22635000  0.04179000  0.56404000  1.0
  N  N63  1  0.18379000  0.95778000  0.93586000  1.0
  N  N64  1  0.77364000  0.95820000  0.43596000  1.0
  N  N65  1  0.81624000  0.04224000  0.06413000  1.0
  Cl  Cl66  1  0.49914000  0.72633000  0.68445000  1.0
  Cl  Cl67  1  0.77266000  0.27404000  0.81533000  1.0
  Cl  Cl68  1  0.50085000  0.27367000  0.31555000  1.0
  Cl  Cl69  1  0.22734000  0.72595000  0.18467000  1.0
