# generated using pymatgen
data_NiH24C30(NO3)2
_symmetry_space_group_name_H-M   'P 1'
_cell_length_a   16.64070000
_cell_length_b   18.79280000
_cell_length_c   18.79280000
_cell_angle_alpha   111.68300000
_cell_angle_beta   107.15500000
_cell_angle_gamma   107.15600000
_symmetry_Int_Tables_number   1
_chemical_formula_structural   NiH24C30(NO3)2
_chemical_formula_sum   'Ni6 H144 C180 N12 O36'
_cell_volume   4646.86918515
_cell_formula_units_Z   6
loop_
 _symmetry_equiv_pos_site_id
 _symmetry_equiv_pos_as_xyz
  1  'x, y, z'
loop_
 _atom_site_type_symbol
 _atom_site_label
 _atom_site_symmetry_multiplicity
 _atom_site_fract_x
 _atom_site_fract_y
 _atom_site_fract_z
 _atom_site_occupancy
  Ni  Ni0  1  0.63074000  0.38071000  0.76131000  1.0
  Ni  Ni1  1  0.25000000  0.38061000  0.61939000  1.0
  Ni  Ni2  1  0.86927000  0.23869000  0.61929000  1.0
  Ni  Ni3  1  0.36926000  0.61929000  0.23869000  1.0
  Ni  Ni4  1  0.75000000  0.61939000  0.38061000  1.0
  Ni  Ni5  1  0.13073000  0.76131000  0.38071000  1.0
  H  H6  1  0.81350000  0.93492000  0.84121000  1.0
  H  H7  1  0.72480000  0.78579000  0.96390000  1.0
  H  H8  1  0.80897000  0.66594000  0.72870000  1.0
  H  H9  1  0.85850000  0.82261000  0.80707000  1.0
  H  H10  1  0.66954000  0.62796000  0.88047000  1.0
  H  H11  1  0.43140000  0.24224000  0.52349000  1.0
  H  H12  1  0.50064000  0.20160000  0.57339000  1.0
  H  H13  1  0.93467000  0.59678000  0.04590000  1.0
  H  H14  1  0.77558000  0.54715000  0.93565000  1.0
  H  H15  1  0.77606000  0.32862000  0.77043000  1.0
  H  H16  1  0.93475000  0.36776000  0.87117000  1.0
  H  H17  1  0.47016000  0.26144000  0.67516000  1.0
  H  H18  1  0.87863000  0.90646000  0.06534000  1.0
  H  H19  1  0.93885000  0.17827000  0.21438000  1.0
  H  H20  1  0.14262000  0.06278000  0.33419000  1.0
  H  H21  1  0.03561000  0.98452000  0.17754000  1.0
  H  H22  1  0.04127000  0.25264000  0.37224000  1.0
  H  H23  1  0.18942000  0.28146000  0.75808000  1.0
  H  H24  1  0.29927000  0.37189000  0.79847000  1.0
  H  H25  1  0.33794000  0.44912000  0.40338000  1.0
  H  H26  1  0.22855000  0.38848000  0.45302000  1.0
  H  H27  1  0.44754000  0.44161000  0.67140000  1.0
  H  H28  1  0.56703000  0.50339000  0.63224000  1.0
  H  H29  1  0.20881000  0.41386000  0.73876000  1.0
  H  H30  1  0.97235000  0.15907000  0.09380000  1.0
  H  H31  1  0.76089000  0.03630000  0.82200000  1.0
  H  H32  1  0.08009000  0.27140000  0.93711000  1.0
  H  H33  1  0.05139000  0.19305000  0.01546000  1.0
  H  H34  1  0.78892000  0.11970000  0.74757000  1.0
  H  H35  1  0.90791000  0.47661000  0.71868000  1.0
  H  H36  1  0.92718000  0.42662000  0.62810000  1.0
  H  H37  1  0.88879000  0.95420000  0.55088000  1.0
  H  H38  1  0.83986000  0.06440000  0.61143000  1.0
  H  H39  1  0.00577000  0.22970000  0.55834000  1.0
  H  H40  1  0.06369000  0.12887000  0.49671000  1.0
  H  H41  1  0.79487000  0.32492000  0.58625000  1.0
  H  H42  1  0.52765000  0.90619000  0.84092000  1.0
  H  H43  1  0.73911000  0.17799000  0.96369000  1.0
  H  H44  1  0.41991000  0.06289000  0.72860000  1.0
  H  H45  1  0.44861000  0.98454000  0.80695000  1.0
  H  H46  1  0.71109000  0.25242000  0.88030000  1.0
  H  H47  1  0.59209000  0.28131000  0.52339000  1.0
  H  H48  1  0.57283000  0.37190000  0.57338000  1.0
  H  H49  1  0.61121000  0.44913000  0.04580000  1.0
  H  H50  1  0.66014000  0.38858000  0.93561000  1.0
  H  H51  1  0.49423000  0.44166000  0.77031000  1.0
  H  H52  1  0.43631000  0.50329000  0.87113000  1.0
  H  H53  1  0.70513000  0.41375000  0.67508000  1.0
  H  H54  1  0.68650000  0.15879000  0.06507000  1.0
  H  H55  1  0.77520000  0.03610000  0.21421000  1.0
  H  H56  1  0.69103000  0.27130000  0.33406000  1.0
  H  H57  1  0.64150000  0.19293000  0.17739000  1.0
  H  H58  1  0.83046000  0.11953000  0.37204000  1.0
  H  H59  1  0.06860000  0.47650000  0.75775000  1.0
  H  H60  1  0.99936000  0.42661000  0.79840000  1.0
  H  H61  1  0.56533000  0.95410000  0.40322000  1.0
  H  H62  1  0.72442000  0.06435000  0.45285000  1.0
  H  H63  1  0.72394000  0.22958000  0.67138000  1.0
  H  H64  1  0.56525000  0.12884000  0.63224000  1.0
  H  H65  1  0.02985000  0.32484000  0.73856000  1.0
  H  H66  1  0.62137000  0.93466000  0.09354000  1.0
  H  H67  1  0.56115000  0.78562000  0.82173000  1.0
  H  H68  1  0.35738000  0.66581000  0.93722000  1.0
  H  H69  1  0.46439000  0.82246000  0.01548000  1.0
  H  H70  1  0.45872000  0.62776000  0.74736000  1.0
  H  H71  1  0.31058000  0.24192000  0.71854000  1.0
  H  H72  1  0.20073000  0.20153000  0.62811000  1.0
  H  H73  1  0.16206000  0.59662000  0.55088000  1.0
  H  H74  1  0.27145000  0.54697000  0.61152000  1.0
  H  H75  1  0.05246000  0.32860000  0.55839000  1.0
  H  H76  1  0.93297000  0.36776000  0.49661000  1.0
  H  H77  1  0.29119000  0.26124000  0.58614000  1.0
  H  H78  1  0.18650000  0.06508000  0.15879000  1.0
  H  H79  1  0.27520000  0.21421000  0.03610000  1.0
  H  H80  1  0.19103000  0.33407000  0.27130000  1.0
  H  H81  1  0.14150000  0.17739000  0.19293000  1.0
  H  H82  1  0.33046000  0.37204000  0.11953000  1.0
  H  H83  1  0.56860000  0.75775000  0.47651000  1.0
  H  H84  1  0.49936000  0.79840000  0.42661000  1.0
  H  H85  1  0.06533000  0.40322000  0.95410000  1.0
  H  H86  1  0.22442000  0.45285000  0.06435000  1.0
  H  H87  1  0.22394000  0.67138000  0.22958000  1.0
  H  H88  1  0.06525000  0.63224000  0.12883000  1.0
  H  H89  1  0.52984000  0.73856000  0.32484000  1.0
  H  H90  1  0.12137000  0.09354000  0.93466000  1.0
  H  H91  1  0.06115000  0.82173000  0.78562000  1.0
  H  H92  1  0.85738000  0.93722000  0.66580000  1.0
  H  H93  1  0.96439000  0.01548000  0.82246000  1.0
  H  H94  1  0.95872000  0.74736000  0.62776000  1.0
  H  H95  1  0.81058000  0.71854000  0.24192000  1.0
  H  H96  1  0.70073000  0.62811000  0.20153000  1.0
  H  H97  1  0.66206000  0.55088000  0.59662000  1.0
  H  H98  1  0.77145000  0.61152000  0.54697000  1.0
  H  H99  1  0.55246000  0.55839000  0.32860000  1.0
  H  H100  1  0.43297000  0.49661000  0.36776000  1.0
  H  H101  1  0.79119000  0.58614000  0.26124000  1.0
  H  H102  1  0.02765000  0.84093000  0.90620000  1.0
  H  H103  1  0.23911000  0.96369000  0.17800000  1.0
  H  H104  1  0.91991000  0.72860000  0.06289000  1.0
  H  H105  1  0.94861000  0.80695000  0.98454000  1.0
  H  H106  1  0.21108000  0.88030000  0.25242000  1.0
  H  H107  1  0.09209000  0.52339000  0.28132000  1.0
  H  H108  1  0.07283000  0.57338000  0.37190000  1.0
  H  H109  1  0.11121000  0.04580000  0.44913000  1.0
  H  H110  1  0.16014000  0.93560000  0.38857000  1.0
  H  H111  1  0.99423000  0.77030000  0.44166000  1.0
  H  H112  1  0.93631000  0.87113000  0.50329000  1.0
  H  H113  1  0.20513000  0.67509000  0.41375000  1.0
  H  H114  1  0.47235000  0.09380000  0.15907000  1.0
  H  H115  1  0.26089000  0.82201000  0.03631000  1.0
  H  H116  1  0.58009000  0.93711000  0.27140000  1.0
  H  H117  1  0.55140000  0.01546000  0.19305000  1.0
  H  H118  1  0.28891000  0.74758000  0.11970000  1.0
  H  H119  1  0.40791000  0.71868000  0.47661000  1.0
  H  H120  1  0.42717000  0.62810000  0.42662000  1.0
  H  H121  1  0.38880000  0.55087000  0.95420000  1.0
  H  H122  1  0.33986000  0.61142000  0.06440000  1.0
  H  H123  1  0.50577000  0.55834000  0.22970000  1.0
  H  H124  1  0.56369000  0.49671000  0.12887000  1.0
  H  H125  1  0.29487000  0.58625000  0.32492000  1.0
  H  H126  1  0.31350000  0.84121000  0.93493000  1.0
  H  H127  1  0.22480000  0.96390000  0.78579000  1.0
  H  H128  1  0.30896000  0.72870000  0.66593000  1.0
  H  H129  1  0.35850000  0.80707000  0.82261000  1.0
  H  H130  1  0.16954000  0.88047000  0.62796000  1.0
  H  H131  1  0.93140000  0.52350000  0.24225000  1.0
  H  H132  1  0.00064000  0.57339000  0.20160000  1.0
  H  H133  1  0.43467000  0.04590000  0.59678000  1.0
  H  H134  1  0.27558000  0.93565000  0.54715000  1.0
  H  H135  1  0.27606000  0.77043000  0.32862000  1.0
  H  H136  1  0.43475000  0.87117000  0.36776000  1.0
  H  H137  1  0.97016000  0.67516000  0.26144000  1.0
  H  H138  1  0.37863000  0.06534000  0.90646000  1.0
  H  H139  1  0.43885000  0.21438000  0.17827000  1.0
  H  H140  1  0.64261000  0.33419000  0.06278000  1.0
  H  H141  1  0.53561000  0.17754000  0.98452000  1.0
  H  H142  1  0.54128000  0.37224000  0.25264000  1.0
  H  H143  1  0.68942000  0.75808000  0.28146000  1.0
  H  H144  1  0.79928000  0.79847000  0.37189000  1.0
  H  H145  1  0.83793000  0.40338000  0.44912000  1.0
  H  H146  1  0.72855000  0.45303000  0.38848000  1.0
  H  H147  1  0.94754000  0.67140000  0.44161000  1.0
  H  H148  1  0.06703000  0.63224000  0.50339000  1.0
  H  H149  1  0.70881000  0.73876000  0.41386000  1.0
  C  C150  1  0.70926000  0.54253000  0.75567000  1.0
  C  C151  1  0.73722000  0.63704000  0.80049000  1.0
  C  C152  1  0.84375000  0.96352000  0.91092000  1.0
  C  C153  1  0.74329000  0.75963000  0.91229000  1.0
  C  C154  1  0.78903000  0.69230000  0.77914000  1.0
  C  C155  1  0.83832000  0.90995000  0.94686000  1.0
  C  C156  1  0.95193000  0.48707000  0.96897000  1.0
  C  C157  1  0.79709000  0.81562000  0.89247000  1.0
  C  C158  1  0.81697000  0.78020000  0.82341000  1.0
  C  C159  1  0.71260000  0.67152000  0.86611000  1.0
  C  C160  1  0.49648000  0.26061000  0.57850000  1.0
  C  C161  1  0.90409000  0.53700000  0.98565000  1.0
  C  C162  1  0.81384000  0.50936000  0.92432000  1.0
  C  C163  1  0.81382000  0.38743000  0.83208000  1.0
  C  C164  1  0.90380000  0.41061000  0.88962000  1.0
  C  C165  1  0.16644000  0.21316000  0.45754000  1.0
  C  C166  1  0.09973000  0.16345000  0.36313000  1.0
  C  C167  1  0.88031000  0.94755000  0.03670000  1.0
  C  C168  1  0.98337000  0.15275000  0.24057000  1.0
  C  C169  1  0.09628000  0.08683000  0.30786000  1.0
  C  C170  1  0.92840000  0.03708000  0.09025000  1.0
  C  C171  1  0.46492000  0.48191000  0.51302000  1.0
  C  C172  1  0.98123000  0.07696000  0.18456000  1.0
  C  C173  1  0.03643000  0.04325000  0.21998000  1.0
  C  C174  1  0.04071000  0.19464000  0.32868000  1.0
  C  C175  1  0.23603000  0.31803000  0.73958000  1.0
  C  C176  1  0.36718000  0.44864000  0.46313000  1.0
  C  C177  1  0.30457000  0.41491000  0.49077000  1.0
  C  C178  1  0.42641000  0.44459000  0.61266000  1.0
  C  C179  1  0.49323000  0.47904000  0.58949000  1.0
  C  C180  1  0.95334000  0.24448000  0.78685000  1.0
  C  C181  1  0.93654000  0.19973000  0.83658000  1.0
  C  C182  1  0.93290000  0.08935000  0.05270000  1.0
  C  C183  1  0.83094000  0.08794000  0.84744000  1.0
  C  C184  1  0.00974000  0.22103000  0.91312000  1.0
  C  C185  1  0.89155000  0.05337000  0.96317000  1.0
  C  C186  1  0.98299000  0.03107000  0.51810000  1.0
  C  C187  1  0.90457000  0.10772000  0.92319000  1.0
  C  C188  1  0.99349000  0.17676000  0.95675000  1.0
  C  C189  1  0.84638000  0.13414000  0.80552000  1.0
  C  C190  1  0.91793000  0.42155000  0.68200000  1.0
  C  C191  1  0.91847000  0.01444000  0.55136000  1.0
  C  C192  1  0.88951000  0.07577000  0.58504000  1.0
  C  C193  1  0.98178000  0.16801000  0.55543000  1.0
  C  C194  1  0.01424000  0.11045000  0.52106000  1.0
  C  C195  1  0.54667000  0.21316000  0.75553000  1.0
  C  C196  1  0.56346000  0.16342000  0.80027000  1.0
  C  C197  1  0.56710000  0.94730000  0.91065000  1.0
  C  C198  1  0.66906000  0.15255000  0.91205000  1.0
  C  C199  1  0.49026000  0.08688000  0.77897000  1.0
  C  C200  1  0.60845000  0.03683000  0.94663000  1.0
  C  C201  1  0.51701000  0.48190000  0.96893000  1.0
  C  C202  1  0.59542000  0.07680000  0.89228000  1.0
  C  C203  1  0.50651000  0.04324000  0.82324000  1.0
  C  C204  1  0.65362000  0.19447000  0.86585000  1.0
  C  C205  1  0.58207000  0.31799000  0.57845000  1.0
  C  C206  1  0.58153000  0.44864000  0.98556000  1.0
  C  C207  1  0.61050000  0.41497000  0.92424000  1.0
  C  C208  1  0.51822000  0.44457000  0.83199000  1.0
  C  C209  1  0.48576000  0.47894000  0.88955000  1.0
  C  C210  1  0.79074000  0.24433000  0.45747000  1.0
  C  C211  1  0.76278000  0.19951000  0.36296000  1.0
  C  C212  1  0.65625000  0.08908000  0.03647000  1.0
  C  C213  1  0.75671000  0.08771000  0.24037000  1.0
  C  C214  1  0.71097000  0.22086000  0.30770000  1.0
  C  C215  1  0.66168000  0.05314000  0.09005000  1.0
  C  C216  1  0.54807000  0.03104000  0.51293000  1.0
  C  C217  1  0.70291000  0.10753000  0.18438000  1.0
  C  C218  1  0.68302000  0.17659000  0.21980000  1.0
  C  C219  1  0.78740000  0.13390000  0.32848000  1.0
  C  C220  1  0.00352000  0.42149000  0.73939000  1.0
  C  C221  1  0.59592000  0.01436000  0.46300000  1.0
  C  C222  1  0.68617000  0.07568000  0.49064000  1.0
  C  C223  1  0.68619000  0.16792000  0.61257000  1.0
  C  C224  1  0.59620000  0.11038000  0.58939000  1.0
  C  C225  1  0.33355000  0.54246000  0.78684000  1.0
  C  C226  1  0.40026000  0.63687000  0.83655000  1.0
  C  C227  1  0.61969000  0.96330000  0.05245000  1.0
  C  C228  1  0.51662000  0.75943000  0.84725000  1.0
  C  C229  1  0.40372000  0.69214000  0.91317000  1.0
  C  C230  1  0.57160000  0.90975000  0.96292000  1.0
  C  C231  1  0.03508000  0.48698000  0.51809000  1.0
  C  C232  1  0.51876000  0.81544000  0.92304000  1.0
  C  C233  1  0.46357000  0.78002000  0.95675000  1.0
  C  C234  1  0.45929000  0.67132000  0.80536000  1.0
  C  C235  1  0.26397000  0.26042000  0.68197000  1.0
  C  C236  1  0.13283000  0.53686000  0.55136000  1.0
  C  C237  1  0.19543000  0.50923000  0.58509000  1.0
  C  C238  1  0.07358000  0.38734000  0.55541000  1.0
  C  C239  1  0.00677000  0.41051000  0.52096000  1.0
  C  C240  1  0.29074000  0.45747000  0.24433000  1.0
  C  C241  1  0.26278000  0.36296000  0.19951000  1.0
  C  C242  1  0.15625000  0.03648000  0.08908000  1.0
  C  C243  1  0.25671000  0.24037000  0.08771000  1.0
  C  C244  1  0.21097000  0.30770000  0.22087000  1.0
  C  C245  1  0.16168000  0.09005000  0.05315000  1.0
  C  C246  1  0.04807000  0.51293000  0.03104000  1.0
  C  C247  1  0.20291000  0.18438000  0.10753000  1.0
  C  C248  1  0.18302000  0.21981000  0.17659000  1.0
  C  C249  1  0.28740000  0.32848000  0.13390000  1.0
  C  C250  1  0.50352000  0.73939000  0.42149000  1.0
  C  C251  1  0.09592000  0.46300000  0.01435000  1.0
  C  C252  1  0.18617000  0.49064000  0.07568000  1.0
  C  C253  1  0.18619000  0.61257000  0.16792000  1.0
  C  C254  1  0.09620000  0.58939000  0.11038000  1.0
  C  C255  1  0.83356000  0.78684000  0.54246000  1.0
  C  C256  1  0.90027000  0.83655000  0.63687000  1.0
  C  C257  1  0.11969000  0.05246000  0.96331000  1.0
  C  C258  1  0.01663000  0.84725000  0.75943000  1.0
  C  C259  1  0.90372000  0.91317000  0.69215000  1.0
  C  C260  1  0.07160000  0.96292000  0.90975000  1.0
  C  C261  1  0.53508000  0.51809000  0.48698000  1.0
  C  C262  1  0.01877000  0.92304000  0.81544000  1.0
  C  C263  1  0.96357000  0.95675000  0.78002000  1.0
  C  C264  1  0.95929000  0.80536000  0.67132000  1.0
  C  C265  1  0.76397000  0.68197000  0.26042000  1.0
  C  C266  1  0.63282000  0.55136000  0.53686000  1.0
  C  C267  1  0.69543000  0.58509000  0.50923000  1.0
  C  C268  1  0.57358000  0.55541000  0.38734000  1.0
  C  C269  1  0.50677000  0.52096000  0.41051000  1.0
  C  C270  1  0.04666000  0.75552000  0.21315000  1.0
  C  C271  1  0.06346000  0.80027000  0.16342000  1.0
  C  C272  1  0.06711000  0.91065000  0.94731000  1.0
  C  C273  1  0.16906000  0.91206000  0.15256000  1.0
  C  C274  1  0.99026000  0.77897000  0.08688000  1.0
  C  C275  1  0.10846000  0.94663000  0.03683000  1.0
  C  C276  1  0.01701000  0.96893000  0.48190000  1.0
  C  C277  1  0.09543000  0.89228000  0.07681000  1.0
  C  C278  1  0.00651000  0.82324000  0.04325000  1.0
  C  C279  1  0.15362000  0.86586000  0.19447000  1.0
  C  C280  1  0.08207000  0.57845000  0.31800000  1.0
  C  C281  1  0.08153000  0.98556000  0.44864000  1.0
  C  C282  1  0.11049000  0.92423000  0.41496000  1.0
  C  C283  1  0.01822000  0.83199000  0.44457000  1.0
  C  C284  1  0.98576000  0.88955000  0.47894000  1.0
  C  C285  1  0.45334000  0.78684000  0.24448000  1.0
  C  C286  1  0.43654000  0.83658000  0.19973000  1.0
  C  C287  1  0.43290000  0.05269000  0.08935000  1.0
  C  C288  1  0.33094000  0.84744000  0.08795000  1.0
  C  C289  1  0.50974000  0.91312000  0.22103000  1.0
  C  C290  1  0.39155000  0.96317000  0.05337000  1.0
  C  C291  1  0.48299000  0.51810000  0.03107000  1.0
  C  C292  1  0.40457000  0.92320000  0.10772000  1.0
  C  C293  1  0.49349000  0.95675000  0.17676000  1.0
  C  C294  1  0.34638000  0.80553000  0.13415000  1.0
  C  C295  1  0.41793000  0.68201000  0.42155000  1.0
  C  C296  1  0.41847000  0.55136000  0.01444000  1.0
  C  C297  1  0.38951000  0.58504000  0.07577000  1.0
  C  C298  1  0.48178000  0.55543000  0.16801000  1.0
  C  C299  1  0.51424000  0.52106000  0.11045000  1.0
  C  C300  1  0.20926000  0.75567000  0.54253000  1.0
  C  C301  1  0.23722000  0.80049000  0.63704000  1.0
  C  C302  1  0.34375000  0.91092000  0.96352000  1.0
  C  C303  1  0.24329000  0.91229000  0.75963000  1.0
  C  C304  1  0.28903000  0.77914000  0.69229000  1.0
  C  C305  1  0.33833000  0.94685000  0.90995000  1.0
  C  C306  1  0.45193000  0.96896000  0.48707000  1.0
  C  C307  1  0.29709000  0.89247000  0.81562000  1.0
  C  C308  1  0.31698000  0.82341000  0.78019000  1.0
  C  C309  1  0.21260000  0.86611000  0.67152000  1.0
  C  C310  1  0.99648000  0.57851000  0.26061000  1.0
  C  C311  1  0.40408000  0.98565000  0.53700000  1.0
  C  C312  1  0.31383000  0.92432000  0.50936000  1.0
  C  C313  1  0.31381000  0.83208000  0.38743000  1.0
  C  C314  1  0.40380000  0.88962000  0.41061000  1.0
  C  C315  1  0.66645000  0.45754000  0.21316000  1.0
  C  C316  1  0.59974000  0.36313000  0.16345000  1.0
  C  C317  1  0.38031000  0.03669000  0.94754000  1.0
  C  C318  1  0.48337000  0.24057000  0.15275000  1.0
  C  C319  1  0.59628000  0.30786000  0.08683000  1.0
  C  C320  1  0.42840000  0.09025000  0.03708000  1.0
  C  C321  1  0.96492000  0.51302000  0.48191000  1.0
  C  C322  1  0.48123000  0.18456000  0.07696000  1.0
  C  C323  1  0.53643000  0.21997000  0.04325000  1.0
  C  C324  1  0.54071000  0.32868000  0.19464000  1.0
  C  C325  1  0.73603000  0.73958000  0.31803000  1.0
  C  C326  1  0.86717000  0.46314000  0.44864000  1.0
  C  C327  1  0.80457000  0.49077000  0.41491000  1.0
  C  C328  1  0.92642000  0.61266000  0.44459000  1.0
  C  C329  1  0.99323000  0.58949000  0.47904000  1.0
  N  N330  1  0.76844000  0.43532000  0.84859000  1.0
  N  N331  1  0.33317000  0.41318000  0.56478000  1.0
  N  N332  1  0.91983000  0.15149000  0.58673000  1.0
  N  N333  1  0.58017000  0.41327000  0.84851000  1.0
  N  N334  1  0.73157000  0.15141000  0.56469000  1.0
  N  N335  1  0.16682000  0.43522000  0.58682000  1.0
  N  N336  1  0.23156000  0.56468000  0.15141000  1.0
  N  N337  1  0.66682000  0.58682000  0.43522000  1.0
  N  N338  1  0.08017000  0.84851000  0.41327000  1.0
  N  N339  1  0.41983000  0.58673000  0.15149000  1.0
  N  N340  1  0.26843000  0.84859000  0.43531000  1.0
  N  N341  1  0.83318000  0.56478000  0.41318000  1.0
  O  O342  1  0.64762000  0.49639000  0.76874000  1.0
  O  O343  1  0.49327000  0.30605000  0.65747000  1.0
  O  O344  1  0.74628000  0.51417000  0.70845000  1.0
  O  O345  1  0.15113000  0.27248000  0.50381000  1.0
  O  O346  1  0.18728000  0.35154000  0.69420000  1.0
  O  O347  1  0.23181000  0.19423000  0.48575000  1.0
  O  O348  1  0.87866000  0.23131000  0.72755000  1.0
  O  O349  1  0.83574000  0.34266000  0.64854000  1.0
  O  O350  1  0.03757000  0.29169000  0.80571000  1.0
  O  O351  1  0.62135000  0.27246000  0.76869000  1.0
  O  O352  1  0.66426000  0.35146000  0.65734000  1.0
  O  O353  1  0.46244000  0.19430000  0.70832000  1.0
  O  O354  1  0.85238000  0.23126000  0.50361000  1.0
  O  O355  1  0.00673000  0.34253000  0.69394000  1.0
  O  O356  1  0.75372000  0.29155000  0.48583000  1.0
  O  O357  1  0.34887000  0.49619000  0.72752000  1.0
  O  O358  1  0.31271000  0.30580000  0.64846000  1.0
  O  O359  1  0.26819000  0.51425000  0.80577000  1.0
  O  O360  1  0.35239000  0.50361000  0.23126000  1.0
  O  O361  1  0.50673000  0.69394000  0.34253000  1.0
  O  O362  1  0.25372000  0.48583000  0.29155000  1.0
  O  O363  1  0.84887000  0.72752000  0.49619000  1.0
  O  O364  1  0.81272000  0.64846000  0.30580000  1.0
  O  O365  1  0.76819000  0.80577000  0.51425000  1.0
  O  O366  1  0.12135000  0.76869000  0.27246000  1.0
  O  O367  1  0.16427000  0.65734000  0.35146000  1.0
  O  O368  1  0.96244000  0.70831000  0.19430000  1.0
  O  O369  1  0.37865000  0.72755000  0.23131000  1.0
  O  O370  1  0.33574000  0.64854000  0.34266000  1.0
  O  O371  1  0.53756000  0.80570000  0.29168000  1.0
  O  O372  1  0.14761000  0.76874000  0.49639000  1.0
  O  O373  1  0.99327000  0.65747000  0.30606000  1.0
  O  O374  1  0.24628000  0.70845000  0.51417000  1.0
  O  O375  1  0.65113000  0.50381000  0.27247000  1.0
  O  O376  1  0.68729000  0.69420000  0.35154000  1.0
  O  O377  1  0.73181000  0.48574000  0.19423000  1.0
