# generated using pymatgen
data_CaH9C11Br(NO3)2
_symmetry_space_group_name_H-M   'P 1'
_cell_length_a   6.93090000
_cell_length_b   12.94690000
_cell_length_c   15.18110000
_cell_angle_alpha   75.96000000
_cell_angle_beta   89.99990000
_cell_angle_gamma   89.99990000
_symmetry_Int_Tables_number   1
_chemical_formula_structural   CaH9C11Br(NO3)2
_chemical_formula_sum   'Ca4 H36 C44 Br4 N8 O24'
_cell_volume   1321.56058827
_cell_formula_units_Z   4
loop_
 _symmetry_equiv_pos_site_id
 _symmetry_equiv_pos_as_xyz
  1  'x, y, z'
loop_
 _atom_site_type_symbol
 _atom_site_label
 _atom_site_symmetry_multiplicity
 _atom_site_fract_x
 _atom_site_fract_y
 _atom_site_fract_z
 _atom_site_occupancy
  Ca  Ca0  1  0.34936000  0.23261000  0.43249000  1.0
  Ca  Ca1  1  0.84936000  0.26739000  0.56752000  1.0
  Ca  Ca2  1  0.65064000  0.76740000  0.56751000  1.0
  Ca  Ca3  1  0.15064000  0.73261000  0.43247000  1.0
  H  H4  1  0.47985000  0.36402000  0.25873000  1.0
  H  H5  1  0.97985000  0.13598000  0.74127000  1.0
  H  H6  1  0.52015000  0.63598000  0.74127000  1.0
  H  H7  1  0.02015000  0.86402000  0.25873000  1.0
  H  H8  1  0.91785000  0.37906000  0.84074000  1.0
  H  H9  1  0.41785000  0.12094000  0.15926000  1.0
  H  H10  1  0.08214000  0.62094000  0.15926000  1.0
  H  H11  1  0.58214000  0.87906000  0.84074000  1.0
  H  H12  1  0.68086000  0.45466000  0.92979000  1.0
  H  H13  1  0.18086000  0.04534000  0.07021000  1.0
  H  H14  1  0.31914000  0.54534000  0.07021000  1.0
  H  H15  1  0.81914000  0.95466000  0.92979000  1.0
  H  H16  1  0.01399000  0.74463000  0.88329000  1.0
  H  H17  1  0.51400000  0.75537000  0.11671000  1.0
  H  H18  1  0.98601000  0.25536000  0.11671000  1.0
  H  H19  1  0.48601000  0.24464000  0.88329000  1.0
  H  H20  1  0.25238000  0.66866000  0.79605000  1.0
  H  H21  1  0.75238000  0.83134000  0.20395000  1.0
  H  H22  1  0.74762000  0.33134000  0.20395000  1.0
  H  H23  1  0.24762000  0.16867000  0.79605000  1.0
  H  H24  1  0.52199000  0.08053000  0.58352000  1.0
  H  H25  1  0.02199000  0.41947000  0.41647000  1.0
  H  H26  1  0.47801000  0.91947000  0.41647000  1.0
  H  H27  1  0.97801000  0.58053000  0.58353000  1.0
  H  H28  1  0.37928000  0.00835000  0.54563000  1.0
  H  H29  1  0.87928000  0.49165000  0.45437000  1.0
  H  H30  1  0.62072000  0.99165000  0.45437000  1.0
  H  H31  1  0.12072000  0.50835000  0.54563000  1.0
  H  H32  1  0.08172000  0.35592000  0.71476000  1.0
  H  H33  1  0.58172000  0.14409000  0.28524000  1.0
  H  H34  1  0.91827000  0.64408000  0.28524000  1.0
  H  H35  1  0.41828000  0.85592000  0.71476000  1.0
  H  H36  1  0.30707000  0.29834000  0.23116000  1.0
  H  H37  1  0.80708000  0.20166000  0.76884000  1.0
  H  H38  1  0.69293000  0.70166000  0.76884000  1.0
  H  H39  1  0.19293000  0.79834000  0.23116000  1.0
  C  C40  1  0.35782000  0.31863000  0.59866000  1.0
  C  C41  1  0.85782000  0.18137000  0.40134000  1.0
  C  C42  1  0.64218000  0.68137000  0.40134000  1.0
  C  C43  1  0.14219000  0.81863000  0.59866000  1.0
  C  C44  1  0.36855000  0.38413000  0.66611000  1.0
  C  C45  1  0.86856000  0.11588000  0.33389000  1.0
  C  C46  1  0.63144000  0.61587000  0.33389000  1.0
  C  C47  1  0.13145000  0.88413000  0.66611000  1.0
  C  C48  1  0.49915000  0.46136000  0.67928000  1.0
  C  C49  1  0.99916000  0.03864000  0.32072000  1.0
  C  C50  1  0.50084000  0.53864000  0.32072000  1.0
  C  C51  1  0.00085000  0.96136000  0.67928000  1.0
  C  C52  1  0.69772000  0.48637000  0.64246000  1.0
  C  C53  1  0.19772000  0.01363000  0.35754000  1.0
  C  C54  1  0.30228000  0.51362000  0.35754000  1.0
  C  C55  1  0.80229000  0.98637000  0.64246000  1.0
  C  C56  1  0.24118000  0.47811000  0.75645000  1.0
  C  C57  1  0.74118000  0.02190000  0.24355000  1.0
  C  C58  1  0.75882000  0.52189000  0.24355000  1.0
  C  C59  1  0.25882000  0.97811000  0.75645000  1.0
  C  C60  1  0.10188000  0.51878000  0.81143000  1.0
  C  C61  1  0.60189000  0.98122000  0.18857000  1.0
  C  C62  1  0.89811000  0.48122000  0.18857000  1.0
  C  C63  1  0.39811000  0.01878000  0.81143000  1.0
  C  C64  1  0.93974000  0.45935000  0.84952000  1.0
  C  C65  1  0.43973000  0.04066000  0.15048000  1.0
  C  C66  1  0.06026000  0.54065000  0.15048000  1.0
  C  C67  1  0.56027000  0.95935000  0.84952000  1.0
  C  C68  1  0.80606000  0.50097000  0.90016000  1.0
  C  C69  1  0.30607000  0.99903000  0.09984000  1.0
  C  C70  1  0.19394000  0.49902000  0.09984000  1.0
  C  C71  1  0.69394000  0.00097000  0.90016000  1.0
  C  C72  1  0.83473000  0.60330000  0.91224000  1.0
  C  C73  1  0.33472000  0.89670000  0.08776000  1.0
  C  C74  1  0.16527000  0.39670000  0.08776000  1.0
  C  C75  1  0.66528000  0.10330000  0.91224000  1.0
  C  C76  1  0.99413000  0.66424000  0.87467000  1.0
  C  C77  1  0.49413000  0.83576000  0.12533000  1.0
  C  C78  1  0.00587000  0.33576000  0.12533000  1.0
  C  C79  1  0.50587000  0.16424000  0.87467000  1.0
  C  C80  1  0.12772000  0.62144000  0.82505000  1.0
  C  C81  1  0.62772000  0.87856000  0.17495000  1.0
  C  C82  1  0.87229000  0.37855000  0.17495000  1.0
  C  C83  1  0.37229000  0.12144000  0.82505000  1.0
  Br  Br84  1  0.65183000  0.66355000  0.97928000  1.0
  Br  Br85  1  0.15183000  0.83645000  0.02072000  1.0
  Br  Br86  1  0.34817000  0.33645000  0.02072000  1.0
  Br  Br87  1  0.84817000  0.16355000  0.97928000  1.0
  N  N88  1  0.20861000  0.39645000  0.71644000  1.0
  N  N89  1  0.70862000  0.10355000  0.28356000  1.0
  N  N90  1  0.79139000  0.60356000  0.28357000  1.0
  N  N91  1  0.29139000  0.89645000  0.71644000  1.0
  N  N92  1  0.41775000  0.51882000  0.73443000  1.0
  N  N93  1  0.91776000  0.98118000  0.26556000  1.0
  N  N94  1  0.58224000  0.48118000  0.26556000  1.0
  N  N95  1  0.08224000  0.01882000  0.73443000  1.0
  O  O96  1  0.51025000  0.29868000  0.55887000  1.0
  O  O97  1  0.01025000  0.20132000  0.44113000  1.0
  O  O98  1  0.48974000  0.70132000  0.44113000  1.0
  O  O99  1  0.98975000  0.79868000  0.55887000  1.0
  O  O100  1  0.19121000  0.28983000  0.57898000  1.0
  O  O101  1  0.69121000  0.21017000  0.42102000  1.0
  O  O102  1  0.80878000  0.71017000  0.42102000  1.0
  O  O103  1  0.30880000  0.78982000  0.57898000  1.0
  O  O104  1  0.80707000  0.41000000  0.63762000  1.0
  O  O105  1  0.30706000  0.08999000  0.36238000  1.0
  O  O106  1  0.19293000  0.59000000  0.36238000  1.0
  O  O107  1  0.69294000  0.91000000  0.63762000  1.0
  O  O108  1  0.74846000  0.58413000  0.62010000  1.0
  O  O109  1  0.24847000  0.91587000  0.37990000  1.0
  O  O110  1  0.25153000  0.41587000  0.37990000  1.0
  O  O111  1  0.75154000  0.08413000  0.62009000  1.0
  O  O112  1  0.39209000  0.07999000  0.55441000  1.0
  O  O113  1  0.89209000  0.42001000  0.44559000  1.0
  O  O114  1  0.60791000  0.92001000  0.44559000  1.0
  O  O115  1  0.10791000  0.57999000  0.55441000  1.0
  O  O116  1  0.42750000  0.28920000  0.26524000  1.0
  O  O117  1  0.92750000  0.21080000  0.73475000  1.0
  O  O118  1  0.57250000  0.71080000  0.73476000  1.0
  O  O119  1  0.07250000  0.78920000  0.26524000  1.0
