# generated using pymatgen
data_Zn4H7C24S6ClO19
_symmetry_space_group_name_H-M   'P 1'
_cell_length_a   19.61660000
_cell_length_b   19.64450000
_cell_length_c   33.33030000
_cell_angle_alpha   79.03470000
_cell_angle_beta   79.15900000
_cell_angle_gamma   63.95990000
_symmetry_Int_Tables_number   1
_chemical_formula_structural   Zn4H7C24S6ClO19
_chemical_formula_sum   'Zn16 H28 C96 S24 Cl4 O76'
_cell_volume   11249.65932495
_cell_formula_units_Z   4
loop_
 _symmetry_equiv_pos_site_id
 _symmetry_equiv_pos_as_xyz
  1  'x, y, z'
loop_
 _atom_site_type_symbol
 _atom_site_label
 _atom_site_symmetry_multiplicity
 _atom_site_fract_x
 _atom_site_fract_y
 _atom_site_fract_z
 _atom_site_occupancy
  Zn  Zn0  1  0.05597000  0.40112000  0.47685000  1.0
  Zn  Zn1  1  0.98592000  0.48397000  0.56074000  1.0
  Zn  Zn2  1  0.05897000  0.56040000  0.48148000  1.0
  Zn  Zn3  1  0.89810000  0.55224000  0.48171000  1.0
  Zn  Zn4  1  0.69643000  0.34826000  0.27114000  1.0
  Zn  Zn5  1  0.69066000  0.18853000  0.26535000  1.0
  Zn  Zn6  1  0.77073000  0.26541000  0.18983000  1.0
  Zn  Zn7  1  0.84864000  0.19310000  0.27425000  1.0
  Zn  Zn8  1  0.26740000  0.76598000  0.68917000  1.0
  Zn  Zn9  1  0.34774000  0.69892000  0.77228000  1.0
  Zn  Zn10  1  0.19100000  0.84835000  0.77043000  1.0
  Zn  Zn11  1  0.19216000  0.68498000  0.76536000  1.0
  Zn  Zn12  1  0.56212000  0.05854000  0.98278000  1.0
  Zn  Zn13  1  0.40122000  0.05578000  0.97809000  1.0
  Zn  Zn14  1  0.55347000  0.90064000  0.97753000  1.0
  Zn  Zn15  1  0.48496000  0.98278000  0.06011000  1.0
  H  H16  1  0.94824000  0.24388000  0.35766000  1.0
  H  H17  1  0.75316000  0.45966000  0.34457000  1.0
  H  H18  1  0.99338000  0.29486000  0.40597000  1.0
  H  H19  1  0.10336000  0.58957000  0.69768000  1.0
  H  H20  1  0.19324000  0.71159000  0.59732000  1.0
  H  H21  1  0.05321000  0.54843000  0.64703000  1.0
  H  H22  1  0.46326000  0.23962000  0.33961000  1.0
  H  H23  1  0.48347000  0.70186000  0.60230000  1.0
  H  H24  1  0.20574000  0.97947000  0.60073000  1.0
  H  H25  1  0.95103000  0.96202000  0.34455000  1.0
  H  H26  1  0.54384000  0.05905000  0.15265000  1.0
  H  H27  1  0.66294000  0.14201000  0.04751000  1.0
  H  H28  1  0.59457000  0.10893000  0.19855000  1.0
  H  H29  1  0.54915000  0.76936000  0.14843000  1.0
  H  H30  1  0.16207000  0.14135000  0.04191000  1.0
  H  H31  1  0.49696000  0.79698000  0.89717000  1.0
  H  H32  1  0.29157000  0.00495000  0.90174000  1.0
  H  H33  1  0.44223000  0.75392000  0.85001000  1.0
  H  H34  1  0.30213000  0.28179000  0.90274000  1.0
  H  H35  1  0.78648000  0.00744000  0.90604000  1.0
  H  H36  1  0.24110000  0.62336000  0.36415000  1.0
  H  H37  1  0.86737000  0.42735000  0.66083000  1.0
  H  H38  1  0.09914000  0.31697000  0.68771000  1.0
  H  H39  1  0.75900000  0.73249000  0.35787000  1.0
  H  H40  1  0.82807000  0.44505000  0.06591000  1.0
  H  H41  1  0.12581000  0.15961000  0.25209000  1.0
  H  H42  1  0.56384000  0.43761000  0.80459000  1.0
  H  H43  1  0.92243000  0.69602000  0.79383000  1.0
  C  C44  1  0.06862000  0.31651000  0.55928000  1.0
  C  C45  1  0.06798000  0.57353000  0.56656000  1.0
  C  C46  1  0.18268000  0.43925000  0.43651000  1.0
  C  C47  1  0.93323000  0.68063000  0.43875000  1.0
  C  C48  1  0.92897000  0.42867000  0.43324000  1.0
  C  C49  1  0.82043000  0.55697000  0.56610000  1.0
  C  C50  1  0.56753000  0.30974000  0.31058000  1.0
  C  C51  1  0.68195000  0.18274000  0.17952000  1.0
  C  C52  1  0.69504000  0.43233000  0.18867000  1.0
  C  C53  1  0.93580000  0.18310000  0.19114000  1.0
  C  C54  1  0.81937000  0.31954000  0.31992000  1.0
  C  C55  1  0.81040000  0.06502000  0.31236000  1.0
  C  C56  1  0.43387000  0.69701000  0.68909000  1.0
  C  C57  1  0.31188000  0.82443000  0.81915000  1.0
  C  C58  1  0.18282000  0.93351000  0.68731000  1.0
  C  C59  1  0.06657000  0.80617000  0.81020000  1.0
  C  C60  1  0.18318000  0.67753000  0.67947000  1.0
  C  C61  1  0.31383000  0.56690000  0.81092000  1.0
  C  C62  1  0.43867000  0.18555000  0.94015000  1.0
  C  C63  1  0.42855000  0.93187000  0.93004000  1.0
  C  C64  1  0.68484000  0.93571000  0.93884000  1.0
  C  C65  1  0.55917000  0.81573000  0.06134000  1.0
  C  C66  1  0.57158000  0.06814000  0.06905000  1.0
  C  C67  1  0.31656000  0.05913000  0.06139000  1.0
  C  C68  1  0.89856000  0.40456000  0.40315000  1.0
  C  C69  1  0.84764000  0.34876000  0.34859000  1.0
  C  C70  1  0.83051000  0.45153000  0.38529000  1.0
  C  C71  1  0.91581000  0.30179000  0.36564000  1.0
  C  C72  1  0.80561000  0.42338000  0.35826000  1.0
  C  C73  1  0.94053000  0.33006000  0.39237000  1.0
  C  C74  1  0.09658000  0.60470000  0.59403000  1.0
  C  C75  1  0.15229000  0.65215000  0.65027000  1.0
  C  C76  1  0.13556000  0.65217000  0.57997000  1.0
  C  C77  1  0.11230000  0.60643000  0.66474000  1.0
  C  C78  1  0.16309000  0.67522000  0.60817000  1.0
  C  C79  1  0.08484000  0.58362000  0.63671000  1.0
  C  C80  1  0.30624000  0.45419000  0.40113000  1.0
  C  C81  1  0.44729000  0.29591000  0.34811000  1.0
  C  C82  1  0.25949000  0.41530000  0.41309000  1.0
  C  C83  1  0.49299000  0.33512000  0.33615000  1.0
  C  C84  1  0.37963000  0.33925000  0.37206000  1.0
  C  C85  1  0.37528000  0.41069000  0.37768000  1.0
  C  C86  1  0.72910000  0.58198000  0.63487000  1.0
  C  C87  1  0.52711000  0.67673000  0.62317000  1.0
  C  C88  1  0.74666000  0.58611000  0.59219000  1.0
  C  C89  1  0.51021000  0.67167000  0.66554000  1.0
  C  C90  1  0.60694000  0.64483000  0.61209000  1.0
  C  C91  1  0.64898000  0.61589000  0.64632000  1.0
  C  C92  1  0.07514000  0.22707000  0.62817000  1.0
  C  C93  1  0.17407000  0.02418000  0.62057000  1.0
  C  C94  1  0.08944000  0.24250000  0.58560000  1.0
  C  C95  1  0.15903000  0.00914000  0.66269000  1.0
  C  C96  1  0.14288000  0.10363000  0.60826000  1.0
  C  C97  1  0.10529000  0.14739000  0.64141000  1.0
  C  C98  1  0.83482000  0.80205000  0.39998000  1.0
  C  C99  1  0.90382000  0.94507000  0.35114000  1.0
  C  C100  1  0.90541000  0.75660000  0.41433000  1.0
  C  C101  1  0.83352000  0.98982000  0.33721000  1.0
  C  C102  1  0.90392000  0.87674000  0.37404000  1.0
  C  C103  1  0.83369000  0.87106000  0.37690000  1.0
  C  C104  1  0.65615000  0.15408000  0.14933000  1.0
  C  C105  1  0.60040000  0.09776000  0.09726000  1.0
  C  C106  1  0.67581000  0.16306000  0.10617000  1.0
  C  C107  1  0.58073000  0.08815000  0.13996000  1.0
  C  C108  1  0.64772000  0.13495000  0.08067000  1.0
  C  C109  1  0.60873000  0.11593000  0.16527000  1.0
  C  C110  1  0.67516000  0.52219000  0.11948000  1.0
  C  C111  1  0.57684000  0.72480000  0.12827000  1.0
  C  C112  1  0.66779000  0.50614000  0.16226000  1.0
  C  C113  1  0.58457000  0.74010000  0.08584000  1.0
  C  C114  1  0.60945000  0.64530000  0.14036000  1.0
  C  C115  1  0.64157000  0.60194000  0.10679000  1.0
  C  C116  1  0.08430000  0.11403000  0.18010000  1.0
  C  C117  1  0.17070000  0.12203000  0.07412000  1.0
  C  C118  1  0.01197000  0.15504000  0.16708000  1.0
  C  C119  1  0.24226000  0.08181000  0.08718000  1.0
  C  C120  1  0.11341000  0.13339000  0.10809000  1.0
  C  C121  1  0.14274000  0.10145000  0.14630000  1.0
  C  C122  1  0.33753000  0.85498000  0.84852000  1.0
  C  C123  1  0.39768000  0.90417000  0.90192000  1.0
  C  C124  1  0.29455000  0.92624000  0.86372000  1.0
  C  C125  1  0.44058000  0.83289000  0.88760000  1.0
  C  C126  1  0.32490000  0.95008000  0.89014000  1.0
  C  C127  1  0.41023000  0.80922000  0.86141000  1.0
  C  C128  1  0.40793000  0.45277000  0.85553000  1.0
  C  C129  1  0.34635000  0.30242000  0.89914000  1.0
  C  C130  1  0.33995000  0.49361000  0.83784000  1.0
  C  C131  1  0.41435000  0.26147000  0.91604000  1.0
  C  C132  1  0.34424000  0.37209000  0.87723000  1.0
  C  C133  1  0.41070000  0.38280000  0.87808000  1.0
  C  C134  1  0.94835000  0.78675000  0.85121000  1.0
  C  C135  1  0.80424000  0.94920000  0.90000000  1.0
  C  C136  1  0.99260000  0.82770000  0.83646000  1.0
  C  C137  1  0.76031000  0.90858000  0.91434000  1.0
  C  C138  1  0.87269000  0.90444000  0.87714000  1.0
  C  C139  1  0.87939000  0.83063000  0.87461000  1.0
  S  S140  1  0.29988000  0.32618000  0.39619000  1.0
  S  S141  1  0.45519000  0.42381000  0.35394000  1.0
  S  S142  1  0.66611000  0.63224000  0.56640000  1.0
  S  S143  1  0.59009000  0.62923000  0.69216000  1.0
  S  S144  1  0.13896000  0.16054000  0.56187000  1.0
  S  S145  1  0.10730000  0.09032000  0.68765000  1.0
  S  S146  1  0.96950000  0.79811000  0.40005000  1.0
  S  S147  1  0.76743000  0.95014000  0.35154000  1.0
  S  S148  1  0.61961000  0.58769000  0.18670000  1.0
  S  S149  1  0.63044000  0.65920000  0.06033000  1.0
  S  S150  1  0.01520000  0.17730000  0.11417000  1.0
  S  S151  1  0.24098000  0.05704000  0.14023000  1.0
  S  S152  1  0.27956000  0.44777000  0.84914000  1.0
  S  S153  1  0.47561000  0.30697000  0.90605000  1.0
  S  S154  1  0.95094000  0.91845000  0.85132000  1.0
  S  S155  1  0.80131000  0.81639000  0.90064000  1.0
  S  S156  1  0.29084000  0.54363000  0.41449000  1.0
  S  S157  1  0.79258000  0.54394000  0.67341000  1.0
  S  S158  1  0.02027000  0.29367000  0.66338000  1.0
  S  S159  1  0.75129000  0.78481000  0.40983000  1.0
  S  S160  1  0.71415000  0.45648000  0.08247000  1.0
  S  S161  1  0.10725000  0.07457000  0.23091000  1.0
  S  S162  1  0.48220000  0.48153000  0.85540000  1.0
  S  S163  1  0.97200000  0.69008000  0.84654000  1.0
  Cl  Cl164  1  0.77618000  0.54558000  0.39362000  1.0
  Cl  Cl165  1  0.15027000  0.68657000  0.52898000  1.0
  Cl  Cl166  1  0.73524000  0.20594000  0.08186000  1.0
  Cl  Cl167  1  0.20315000  0.98770000  0.85251000  1.0
  O  O168  1  0.00048000  0.49816000  0.50006000  1.0
  O  O169  1  0.07370000  0.31380000  0.52074000  1.0
  O  O170  1  0.01987000  0.54616000  0.58391000  1.0
  O  O171  1  0.14718000  0.50919000  0.44187000  1.0
  O  O172  1  0.04884000  0.37496000  0.57724000  1.0
  O  O173  1  0.15869000  0.38684000  0.44864000  1.0
  O  O174  1  0.09442000  0.57486000  0.52865000  1.0
  O  O175  1  0.99665000  0.65999000  0.45288000  1.0
  O  O176  1  0.88182000  0.48180000  0.45412000  1.0
  O  O177  1  0.89325000  0.64291000  0.44294000  1.0
  O  O178  1  0.00064000  0.39216000  0.43606000  1.0
  O  O179  1  0.87875000  0.50685000  0.58271000  1.0
  O  O180  1  0.81840000  0.58449000  0.52804000  1.0
  O  O181  1  0.75159000  0.24871000  0.25032000  1.0
  O  O182  1  0.60105000  0.35444000  0.30514000  1.0
  O  O183  1  0.67327000  0.15612000  0.21737000  1.0
  O  O184  1  0.74350000  0.37435000  0.17170000  1.0
  O  O185  1  0.59154000  0.24638000  0.29620000  1.0
  O  O186  1  0.66769000  0.43431000  0.22670000  1.0
  O  O187  1  0.70929000  0.23171000  0.16577000  1.0
  O  O188  1  0.87923000  0.20961000  0.17014000  1.0
  O  O189  1  0.85935000  0.25047000  0.31298000  1.0
  O  O190  1  0.93348000  0.17963000  0.22975000  1.0
  O  O191  1  0.75780000  0.36599000  0.30486000  1.0
  O  O192  1  0.74275000  0.09496000  0.30194000  1.0
  O  O193  1  0.85954000  0.09337000  0.30359000  1.0
  O  O194  1  0.24899000  0.74917000  0.74941000  1.0
  O  O195  1  0.37659000  0.72439000  0.66861000  1.0
  O  O196  1  0.35181000  0.75428000  0.81409000  1.0
  O  O197  1  0.15991000  0.93338000  0.72585000  1.0
  O  O198  1  0.43194000  0.68896000  0.72824000  1.0
  O  O199  1  0.22387000  0.87578000  0.66809000  1.0
  O  O200  1  0.25379000  0.86992000  0.80104000  1.0
  O  O201  1  0.09828000  0.85213000  0.80670000  1.0
  O  O202  1  0.17313000  0.65391000  0.71757000  1.0
  O  O203  1  0.09096000  0.74582000  0.79326000  1.0
  O  O204  1  0.21706000  0.72070000  0.66382000  1.0
  O  O205  1  0.36166000  0.59578000  0.79807000  1.0
  O  O206  1  0.24492000  0.59352000  0.80268000  1.0
  O  O207  1  0.50038000  0.99935000  0.99971000  1.0
  O  O208  1  0.50493000  0.15774000  0.95220000  1.0
  O  O209  1  0.38527000  0.99691000  0.94217000  1.0
  O  O210  1  0.65402000  0.88843000  0.94825000  1.0
  O  O211  1  0.39204000  0.15419000  0.94670000  1.0
  O  O212  1  0.65704000  0.00352000  0.94836000  1.0
  O  O213  1  0.49558000  0.88835000  0.93958000  1.0
  O  O214  1  0.57005000  0.81595000  0.02227000  1.0
  O  O215  1  0.52943000  0.03357000  0.08580000  1.0
  O  O216  1  0.52919000  0.87369000  0.08114000  1.0
  O  O217  1  0.59162000  0.07970000  0.03060000  1.0
  O  O218  1  0.31544000  0.07780000  0.02262000  1.0
  O  O219  1  0.37546000  0.02274000  0.08063000  1.0
  O  O220  1  0.21952000  0.60442000  0.39043000  1.0
  O  O221  1  0.26589000  0.54743000  0.45742000  1.0
  O  O222  1  0.35718000  0.55657000  0.39511000  1.0
  O  O223  1  0.81681000  0.45487000  0.67657000  1.0
  O  O224  1  0.85814000  0.56095000  0.66074000  1.0
  O  O225  1  0.74429000  0.56708000  0.71106000  1.0
  O  O226  1  0.06930000  0.34083000  0.66434000  1.0
  O  O227  1  0.95137000  0.34786000  0.64665000  1.0
  O  O228  1  0.01774000  0.25018000  0.70320000  1.0
  O  O229  1  0.77413000  0.71251000  0.38561000  1.0
  O  O230  1  0.73716000  0.76012000  0.45245000  1.0
  O  O231  1  0.69419000  0.84990000  0.38859000  1.0
  O  O232  1  0.80470000  0.41670000  0.08676000  1.0
  O  O233  1  0.68766000  0.39760000  0.09377000  1.0
  O  O234  1  0.70457000  0.50259000  0.04291000  1.0
  O  O235  1  0.08115000  0.14831000  0.25461000  1.0
  O  O236  1  0.06114000  0.03550000  0.25096000  1.0
  O  O237  1  0.18969000  0.03704000  0.22738000  1.0
  O  O238  1  0.51814000  0.48545000  0.80774000  1.0
  O  O239  1  0.45085000  0.55721000  0.86634000  1.0
  O  O240  1  0.53905000  0.41828000  0.87778000  1.0
  O  O241  1  0.97313000  0.68971000  0.79800000  1.0
  O  O242  1  0.04792000  0.64229000  0.85623000  1.0
  O  O243  1  0.90733000  0.67584000  0.86772000  1.0
