# generated using pymatgen
data_YbH13(C9O4)2
_symmetry_space_group_name_H-M   'P 1'
_cell_length_a   8.25246000
_cell_length_b   12.24740000
_cell_length_c   12.37810000
_cell_angle_alpha   111.01200000
_cell_angle_beta   101.19700000
_cell_angle_gamma   107.97900000
_symmetry_Int_Tables_number   1
_chemical_formula_structural   YbH13(C9O4)2
_chemical_formula_sum   'Yb2 H26 C36 O16'
_cell_volume   1043.32399384
_cell_formula_units_Z   2
loop_
 _symmetry_equiv_pos_site_id
 _symmetry_equiv_pos_as_xyz
  1  'x, y, z'
loop_
 _atom_site_type_symbol
 _atom_site_label
 _atom_site_symmetry_multiplicity
 _atom_site_fract_x
 _atom_site_fract_y
 _atom_site_fract_z
 _atom_site_occupancy
  Yb  Yb0  1  0.71189000  0.54351000  0.40593000  1.0
  Yb  Yb1  1  0.28811000  0.45649000  0.59408000  1.0
  H  H2  1  0.02862000  0.94272000  0.39235000  1.0
  H  H3  1  0.97139000  0.05724000  0.60761000  1.0
  H  H4  1  0.30284000  0.11642000  0.41008000  1.0
  H  H5  1  0.69717000  0.88355000  0.58988000  1.0
  H  H6  1  0.63385000  0.20901000  0.45214000  1.0
  H  H7  1  0.36617000  0.79098000  0.54786000  1.0
  H  H8  1  0.36205000  0.39576000  0.98364000  1.0
  H  H9  1  0.63792000  0.60422000  0.01637000  1.0
  H  H10  1  0.10207000  0.35742000  0.81427000  1.0
  H  H11  1  0.89790000  0.64258000  0.18574000  1.0
  H  H12  1  0.81789000  0.38513000  0.74668000  1.0
  H  H13  1  0.18211000  0.61486000  0.25333000  1.0
  H  H14  1  0.01674000  0.81205000  0.70499000  1.0
  H  H15  1  0.98325000  0.18798000  0.29501000  1.0
  H  H16  1  0.26673000  0.99316000  0.89280000  1.0
  H  H17  1  0.73325000  0.00687000  0.10720000  1.0
  H  H18  1  0.37027000  0.15991000  0.11043000  1.0
  H  H19  1  0.62975000  0.84012000  0.88958000  1.0
  H  H20  1  0.98142000  0.44537000  0.33444000  1.0
  H  H21  1  0.01858000  0.55463000  0.66556000  1.0
  H  H22  1  0.81497000  0.38987000  0.20826000  1.0
  H  H23  1  0.18503000  0.61013000  0.79174000  1.0
  H  H24  1  0.71216000  0.44995000  0.59318000  1.0
  H  H25  1  0.28785000  0.55004000  0.40682000  1.0
  H  H26  1  0.83843000  0.39652000  0.51997000  1.0
  H  H27  1  0.16158000  0.60347000  0.48003000  1.0
  C  C28  1  0.01610000  0.75254000  0.45567000  1.0
  C  C29  1  0.98393000  0.24746000  0.54432000  1.0
  C  C30  1  0.18157000  0.85552000  0.46753000  1.0
  C  C31  1  0.81843000  0.14446000  0.53245000  1.0
  C  C32  1  0.16383000  0.94796000  0.42778000  1.0
  C  C33  1  0.83618000  0.05201000  0.57219000  1.0
  C  C34  1  0.31545000  0.04255000  0.43600000  1.0
  C  C35  1  0.68458000  0.95743000  0.56398000  1.0
  C  C36  1  0.49077000  0.04676000  0.48006000  1.0
  C  C37  1  0.50925000  0.95323000  0.51993000  1.0
  C  C38  1  0.64843000  0.14032000  0.48569000  1.0
  C  C39  1  0.35158000  0.85967000  0.51430000  1.0
  C  C40  1  0.44007000  0.52500000  0.22744000  1.0
  C  C41  1  0.55992000  0.47499000  0.77257000  1.0
  C  C42  1  0.28384000  0.50514000  0.12840000  1.0
  C  C43  1  0.71614000  0.49486000  0.87160000  1.0
  C  C44  1  0.26184000  0.43307000  0.00349000  1.0
  C  C45  1  0.73815000  0.56692000  0.99652000  1.0
  C  C46  1  0.11721000  0.41205000  0.90997000  1.0
  C  C47  1  0.88277000  0.58794000  0.09003000  1.0
  C  C48  1  0.98855000  0.46281000  0.93675000  1.0
  C  C49  1  0.01145000  0.53719000  0.06327000  1.0
  C  C50  1  0.83869000  0.44339000  0.84275000  1.0
  C  C51  1  0.16129000  0.55661000  0.15726000  1.0
  C  C52  1  0.65935000  0.70762000  0.67473000  1.0
  C  C53  1  0.34065000  0.29239000  0.32527000  1.0
  C  C54  1  0.80805000  0.81756000  0.78729000  1.0
  C  C55  1  0.19196000  0.18248000  0.21273000  1.0
  C  C56  1  0.98933000  0.86034000  0.78767000  1.0
  C  C57  1  0.01068000  0.13969000  0.21233000  1.0
  C  C58  1  0.12732000  0.95996000  0.89189000  1.0
  C  C59  1  0.87268000  0.04007000  0.10811000  1.0
  C  C60  1  0.09156000  0.02174000  0.00015000  1.0
  C  C61  1  0.90843000  0.97828000  0.99985000  1.0
  C  C62  1  0.23052000  0.12460000  0.10831000  1.0
  C  C63  1  0.76947000  0.87544000  0.89171000  1.0
  O  O64  1  0.85918000  0.73580000  0.39630000  1.0
  O  O65  1  0.14085000  0.26418000  0.60369000  1.0
  O  O66  1  0.03072000  0.67607000  0.50344000  1.0
  O  O67  1  0.96928000  0.32393000  0.49657000  1.0
  O  O68  1  0.56787000  0.49644000  0.20174000  1.0
  O  O69  1  0.43212000  0.50355000  0.79827000  1.0
  O  O70  1  0.44616000  0.56976000  0.34103000  1.0
  O  O71  1  0.55384000  0.43024000  0.65898000  1.0
  O  O72  1  0.69926000  0.66368000  0.57850000  1.0
  O  O73  1  0.30075000  0.33632000  0.42151000  1.0
  O  O74  1  0.50166000  0.66194000  0.67933000  1.0
  O  O75  1  0.49834000  0.33806000  0.32069000  1.0
  O  O76  1  0.85231000  0.42882000  0.29748000  1.0
  O  O77  1  0.14769000  0.57117000  0.70252000  1.0
  O  O78  1  0.80390000  0.47108000  0.55260000  1.0
  O  O79  1  0.19611000  0.52892000  0.44741000  1.0
