# generated using pymatgen
data_ZnH11C12N3O2
_symmetry_space_group_name_H-M   'P 1'
_cell_length_a   9.51902000
_cell_length_b   9.77607000
_cell_length_c   20.22360000
_cell_angle_alpha   101.61800000
_cell_angle_beta   103.07200000
_cell_angle_gamma   90.11160000
_symmetry_Int_Tables_number   1
_chemical_formula_structural   ZnH11C12N3O2
_chemical_formula_sum   'Zn4 H44 C48 N12 O8'
_cell_volume   1793.42655711
_cell_formula_units_Z   4
loop_
 _symmetry_equiv_pos_site_id
 _symmetry_equiv_pos_as_xyz
  1  'x, y, z'
loop_
 _atom_site_type_symbol
 _atom_site_label
 _atom_site_symmetry_multiplicity
 _atom_site_fract_x
 _atom_site_fract_y
 _atom_site_fract_z
 _atom_site_occupancy
  Zn  Zn0  1  0.52605000  0.08691000  0.42923000  1.0
  Zn  Zn1  1  0.09461000  0.41132000  0.56904000  1.0
  Zn  Zn2  1  0.47395000  0.91308000  0.57077000  1.0
  Zn  Zn3  1  0.90538000  0.58868000  0.43095000  1.0
  H  H4  1  0.42165000  0.15726000  0.22053000  1.0
  H  H5  1  0.19976000  0.34300000  0.77710000  1.0
  H  H6  1  0.57835000  0.84275000  0.77948000  1.0
  H  H7  1  0.80024000  0.65700000  0.22290000  1.0
  H  H8  1  0.07854000  0.87731000  0.22607000  1.0
  H  H9  1  0.85187000  0.62219000  0.77455000  1.0
  H  H10  1  0.92145000  0.12269000  0.77393000  1.0
  H  H11  1  0.14813000  0.37781000  0.22545000  1.0
  H  H12  1  0.96174000  0.88260000  0.10443000  1.0
  H  H13  1  0.85702000  0.61715000  0.89693000  1.0
  H  H14  1  0.03827000  0.11740000  0.89556000  1.0
  H  H15  1  0.14299000  0.38287000  0.10307000  1.0
  H  H16  1  0.30682000  0.16371000  0.09807000  1.0
  H  H17  1  0.20752000  0.33703000  0.90018000  1.0
  H  H18  1  0.69319000  0.83630000  0.90193000  1.0
  H  H19  1  0.79249000  0.66298000  0.09983000  1.0
  H  H20  1  0.12463000  0.09876000  0.99843000  1.0
  H  H21  1  0.12540000  0.40098000  0.00046000  1.0
  H  H22  1  0.87536000  0.90123000  0.00157000  1.0
  H  H23  1  0.87460000  0.59902000  0.99954000  1.0
  H  H24  1  0.15528000  0.06693000  0.62951000  1.0
  H  H25  1  0.52867000  0.43354000  0.37164000  1.0
  H  H26  1  0.84472000  0.93307000  0.37049000  1.0
  H  H27  1  0.47132000  0.56646000  0.62837000  1.0
  H  H28  1  0.24009000  0.22686000  0.68005000  1.0
  H  H29  1  0.56299000  0.27362000  0.32055000  1.0
  H  H30  1  0.75991000  0.77314000  0.31995000  1.0
  H  H31  1  0.43700000  0.72639000  0.67945000  1.0
  H  H32  1  0.34165000  0.07171000  0.67125000  1.0
  H  H33  1  0.67312000  0.42878000  0.32879000  1.0
  H  H34  1  0.65835000  0.92830000  0.32875000  1.0
  H  H35  1  0.32688000  0.57121000  0.67121000  1.0
  H  H36  1  0.35641000  0.45475000  0.47070000  1.0
  H  H37  1  0.88434000  0.04288000  0.52761000  1.0
  H  H38  1  0.64359000  0.54525000  0.52930000  1.0
  H  H39  1  0.11566000  0.95712000  0.47239000  1.0
  H  H40  1  0.18725000  0.37106000  0.42553000  1.0
  H  H41  1  0.76008000  0.12652000  0.57365000  1.0
  H  H42  1  0.81275000  0.62894000  0.57447000  1.0
  H  H43  1  0.23993000  0.87347000  0.42635000  1.0
  H  H44  1  0.34522000  0.30481000  0.40240000  1.0
  H  H45  1  0.94039000  0.19298000  0.59576000  1.0
  H  H46  1  0.65478000  0.69519000  0.59760000  1.0
  H  H47  1  0.05961000  0.80702000  0.40424000  1.0
  C  C48  1  0.32447000  0.01344000  0.30500000  1.0
  C  C49  1  0.01807000  0.48594000  0.69409000  1.0
  C  C50  1  0.67553000  0.98656000  0.69500000  1.0
  C  C51  1  0.98192000  0.51406000  0.30592000  1.0
  C  C52  1  0.25692000  0.01768000  0.23120000  1.0
  C  C53  1  0.02465000  0.48234000  0.76811000  1.0
  C  C54  1  0.74308000  0.98232000  0.76879000  1.0
  C  C55  1  0.97536000  0.51766000  0.23189000  1.0
  C  C56  1  0.32055000  0.09793000  0.19461000  1.0
  C  C57  1  0.12500000  0.40241000  0.80383000  1.0
  C  C58  1  0.67945000  0.90207000  0.80539000  1.0
  C  C59  1  0.87500000  0.59759000  0.19618000  1.0
  C  C60  1  0.12694000  0.94041000  0.19751000  1.0
  C  C61  1  0.92866000  0.55949000  0.80270000  1.0
  C  C62  1  0.87306000  0.05959000  0.80249000  1.0
  C  C63  1  0.07134000  0.44051000  0.19730000  1.0
  C  C64  1  0.06230000  0.94398000  0.12921000  1.0
  C  C65  1  0.93248000  0.55609000  0.87125000  1.0
  C  C66  1  0.93771000  0.05602000  0.87079000  1.0
  C  C67  1  0.06752000  0.44391000  0.12876000  1.0
  C  C68  1  0.25579000  0.10128000  0.12616000  1.0
  C  C69  1  0.12889000  0.39928000  0.87253000  1.0
  C  C70  1  0.74422000  0.89873000  0.87384000  1.0
  C  C71  1  0.87112000  0.60072000  0.12748000  1.0
  C  C72  1  0.12503000  0.02474000  0.09183000  1.0
  C  C73  1  0.03268000  0.47553000  0.90770000  1.0
  C  C74  1  0.87498000  0.97526000  0.90817000  1.0
  C  C75  1  0.96732000  0.52448000  0.09230000  1.0
  C  C76  1  0.06225000  0.03259000  0.02026000  1.0
  C  C77  1  0.04176000  0.46730000  0.97935000  1.0
  C  C78  1  0.93775000  0.96739000  0.97974000  1.0
  C  C79  1  0.95825000  0.53270000  0.02065000  1.0
  C  C80  1  0.29812000  0.16585000  0.58317000  1.0
  C  C81  1  0.71630000  0.33425000  0.41676000  1.0
  C  C82  1  0.70188000  0.83414000  0.41683000  1.0
  C  C83  1  0.28369000  0.66575000  0.58324000  1.0
  C  C84  1  0.25708000  0.13097000  0.64467000  1.0
  C  C85  1  0.61496000  0.36948000  0.35577000  1.0
  C  C86  1  0.74291000  0.86903000  0.35533000  1.0
  C  C87  1  0.38503000  0.63053000  0.64423000  1.0
  C  C88  1  0.31666000  0.25968000  0.49718000  1.0
  C  C89  1  0.81885000  0.23823000  0.50165000  1.0
  C  C90  1  0.68333000  0.74032000  0.50282000  1.0
  C  C91  1  0.18115000  0.76176000  0.49835000  1.0
  C  C92  1  0.30047000  0.35215000  0.44661000  1.0
  C  C93  1  0.85224000  0.14536000  0.55194000  1.0
  C  C94  1  0.69953000  0.64785000  0.55339000  1.0
  C  C95  1  0.14776000  0.85463000  0.44805000  1.0
  N  N96  1  0.40454000  0.15361000  0.49740000  1.0
  N  N97  1  0.90601000  0.34547000  0.50198000  1.0
  N  N98  1  0.59546000  0.84639000  0.50259000  1.0
  N  N99  1  0.09398000  0.65452000  0.49802000  1.0
  N  N100  1  0.39278000  0.09406000  0.55199000  1.0
  N  N101  1  0.84082000  0.40655000  0.44817000  1.0
  N  N102  1  0.60722000  0.90594000  0.44801000  1.0
  N  N103  1  0.15918000  0.59345000  0.55183000  1.0
  N  N104  1  0.24757000  0.27046000  0.54997000  1.0
  N  N105  1  0.69853000  0.22794000  0.44911000  1.0
  N  N106  1  0.75243000  0.72954000  0.45003000  1.0
  N  N107  1  0.30147000  0.77206000  0.55089000  1.0
  O  O108  1  0.44705000  0.08718000  0.33150000  1.0
  O  O109  1  0.11278000  0.41071000  0.66674000  1.0
  O  O110  1  0.55295000  0.91282000  0.66850000  1.0
  O  O111  1  0.88721000  0.58930000  0.33326000  1.0
  O  O112  1  0.26637000  0.94474000  0.33808000  1.0
  O  O113  1  0.92810000  0.55523000  0.66156000  1.0
  O  O114  1  0.73363000  0.05526000  0.66192000  1.0
  O  O115  1  0.07186000  0.44475000  0.33845000  1.0
