# generated using pymatgen
data_CdH6C6(N2Cl)2
_symmetry_space_group_name_H-M   'P 1'
_cell_length_a   7.13865000
_cell_length_b   8.82981000
_cell_length_c   14.78420000
_cell_angle_alpha   89.99990000
_cell_angle_beta   82.47380000
_cell_angle_gamma   89.99990000
_symmetry_Int_Tables_number   1
_chemical_formula_structural   CdH6C6(N2Cl)2
_chemical_formula_sum   'Cd4 H24 C24 N16 Cl8'
_cell_volume   923.86316495
_cell_formula_units_Z   4
loop_
 _symmetry_equiv_pos_site_id
 _symmetry_equiv_pos_as_xyz
  1  'x, y, z'
loop_
 _atom_site_type_symbol
 _atom_site_label
 _atom_site_symmetry_multiplicity
 _atom_site_fract_x
 _atom_site_fract_y
 _atom_site_fract_z
 _atom_site_occupancy
  Cd  Cd0  1  0.90897000  0.84905000  0.23710000  1.0
  Cd  Cd1  1  0.59103000  0.34904000  0.76290000  1.0
  Cd  Cd2  1  0.09103000  0.15095000  0.76290000  1.0
  Cd  Cd3  1  0.40897000  0.65096000  0.23710000  1.0
  H  H4  1  0.74443000  0.40443000  0.35380000  1.0
  H  H5  1  0.75557000  0.90444000  0.64620000  1.0
  H  H6  1  0.25557000  0.59557000  0.64620000  1.0
  H  H7  1  0.24443000  0.09556000  0.35380000  1.0
  H  H8  1  0.95558000  0.44206000  0.18591000  1.0
  H  H9  1  0.54442000  0.94206000  0.81409000  1.0
  H  H10  1  0.04442000  0.55794000  0.81409000  1.0
  H  H11  1  0.45558000  0.05794000  0.18591000  1.0
  H  H12  1  0.64889000  0.96359000  0.46452000  1.0
  H  H13  1  0.85112000  0.46358000  0.53548000  1.0
  H  H14  1  0.35113000  0.03642000  0.53548000  1.0
  H  H15  1  0.14888000  0.53641000  0.46452000  1.0
  H  H16  1  0.59214000  0.27208000  0.49884000  1.0
  H  H17  1  0.90786000  0.77208000  0.50116000  1.0
  H  H18  1  0.40786000  0.72792000  0.50116000  1.0
  H  H19  1  0.09214000  0.22792000  0.49884000  1.0
  H  H20  1  0.14114000  0.06195000  0.02725000  1.0
  H  H21  1  0.35887000  0.56195000  0.97276000  1.0
  H  H22  1  0.85886000  0.93805000  0.97275000  1.0
  H  H23  1  0.64113000  0.43805000  0.02724000  1.0
  H  H24  1  0.12524000  0.37544000  0.03189000  1.0
  H  H25  1  0.37476000  0.87543000  0.96811000  1.0
  H  H26  1  0.87477000  0.62456000  0.96811000  1.0
  H  H27  1  0.62524000  0.12457000  0.03189000  1.0
  C  C28  1  0.81999000  0.18284000  0.30162000  1.0
  C  C29  1  0.68001000  0.68283000  0.69838000  1.0
  C  C30  1  0.18001000  0.81716000  0.69838000  1.0
  C  C31  1  0.31999000  0.31717000  0.30162000  1.0
  C  C32  1  0.69100000  0.06054000  0.42184000  1.0
  C  C33  1  0.80901000  0.56054000  0.57816000  1.0
  C  C34  1  0.30901000  0.93946000  0.57816000  1.0
  C  C35  1  0.19099000  0.43946000  0.42184000  1.0
  C  C36  1  0.66271000  0.21277000  0.43978000  1.0
  C  C37  1  0.83729000  0.71277000  0.56022000  1.0
  C  C38  1  0.33729000  0.78723000  0.56022000  1.0
  C  C39  1  0.16271000  0.28723000  0.43978000  1.0
  C  C40  1  0.92418000  0.20274000  0.21222000  1.0
  C  C41  1  0.57582000  0.70274000  0.78778000  1.0
  C  C42  1  0.07582000  0.79726000  0.78778000  1.0
  C  C43  1  0.42418000  0.29726000  0.21222000  1.0
  C  C44  1  0.07690000  0.13588000  0.08095000  1.0
  C  C45  1  0.42310000  0.63587000  0.91905000  1.0
  C  C46  1  0.92310000  0.86412000  0.91905000  1.0
  C  C47  1  0.57690000  0.36412000  0.08095000  1.0
  C  C48  1  0.07114000  0.29177000  0.08193000  1.0
  C  C49  1  0.42886000  0.79177000  0.91807000  1.0
  C  C50  1  0.92886000  0.70823000  0.91807000  1.0
  C  C51  1  0.57113000  0.20823000  0.08193000  1.0
  N  N52  1  0.78736000  0.04332000  0.33599000  1.0
  N  N53  1  0.71264000  0.54332000  0.66401000  1.0
  N  N54  1  0.21264000  0.95668000  0.66401000  1.0
  N  N55  1  0.28736000  0.45668000  0.33599000  1.0
  N  N56  1  0.74459000  0.28809000  0.36299000  1.0
  N  N57  1  0.75541000  0.78809000  0.63701000  1.0
  N  N58  1  0.25541000  0.71192000  0.63701000  1.0
  N  N59  1  0.24459000  0.21192000  0.36299000  1.0
  N  N60  1  0.98665000  0.08174000  0.16213000  1.0
  N  N61  1  0.51335000  0.58173000  0.83787000  1.0
  N  N62  1  0.01334000  0.91827000  0.83787000  1.0
  N  N63  1  0.48665000  0.41827000  0.16213000  1.0
  N  N64  1  0.97482000  0.33192000  0.16518000  1.0
  N  N65  1  0.52518000  0.83191000  0.83482000  1.0
  N  N66  1  0.02517000  0.66808000  0.83482000  1.0
  N  N67  1  0.47483000  0.16809000  0.16518000  1.0
  Cl  Cl68  1  0.12151000  0.67061000  0.13346000  1.0
  Cl  Cl69  1  0.37849000  0.17060000  0.86654000  1.0
  Cl  Cl70  1  0.87849000  0.32939000  0.86655000  1.0
  Cl  Cl71  1  0.62151000  0.82939000  0.13345000  1.0
  Cl  Cl72  1  0.71402000  0.64094000  0.33725000  1.0
  Cl  Cl73  1  0.78599000  0.14094000  0.66275000  1.0
  Cl  Cl74  1  0.28598000  0.35906000  0.66274000  1.0
  Cl  Cl75  1  0.21401000  0.85906000  0.33725000  1.0
