# generated using pymatgen
data_FeH16C14(NO3)2
_symmetry_space_group_name_H-M   'P 1'
_cell_length_a   8.45769000
_cell_length_b   9.02903000
_cell_length_c   9.39052000
_cell_angle_alpha   74.30200000
_cell_angle_beta   89.99950000
_cell_angle_gamma   89.99910000
_symmetry_Int_Tables_number   1
_chemical_formula_structural   FeH16C14(NO3)2
_chemical_formula_sum   'Fe2 H32 C28 N4 O12'
_cell_volume   690.35744093
_cell_formula_units_Z   2
loop_
 _symmetry_equiv_pos_site_id
 _symmetry_equiv_pos_as_xyz
  1  'x, y, z'
loop_
 _atom_site_type_symbol
 _atom_site_label
 _atom_site_symmetry_multiplicity
 _atom_site_fract_x
 _atom_site_fract_y
 _atom_site_fract_z
 _atom_site_occupancy
  Fe  Fe0  1  0.50000000  0.50000000  0.00000000  1.0
  Fe  Fe1  1  0.00000000  0.00000000  0.50000000  1.0
  H  H2  1  0.81386000  0.72767000  0.64628000  1.0
  H  H3  1  0.31385000  0.77234000  0.85371000  1.0
  H  H4  1  0.18615000  0.27233000  0.35372000  1.0
  H  H5  1  0.68615000  0.22766000  0.14629000  1.0
  H  H6  1  0.72348000  0.48748000  0.59274000  1.0
  H  H7  1  0.22348000  0.01255000  0.90726000  1.0
  H  H8  1  0.27653000  0.51252000  0.40726000  1.0
  H  H9  1  0.77652000  0.98745000  0.09274000  1.0
  H  H10  1  0.03249000  0.87969000  0.23874000  1.0
  H  H11  1  0.53249000  0.62030000  0.26125000  1.0
  H  H12  1  0.96750000  0.12031000  0.76126000  1.0
  H  H13  1  0.46751000  0.37970000  0.73875000  1.0
  H  H14  1  0.03366000  0.53584000  0.13785000  1.0
  H  H15  1  0.53366000  0.96416000  0.36215000  1.0
  H  H16  1  0.96634000  0.46417000  0.86215000  1.0
  H  H17  1  0.46634000  0.03584000  0.63785000  1.0
  H  H18  1  0.03662000  0.73781000  0.06317000  1.0
  H  H19  1  0.53663000  0.76219000  0.43682000  1.0
  H  H20  1  0.96339000  0.26219000  0.93683000  1.0
  H  H21  1  0.46338000  0.23782000  0.56318000  1.0
  H  H22  1  0.79157000  0.44185000  0.34704000  1.0
  H  H23  1  0.29158000  0.05816000  0.15296000  1.0
  H  H24  1  0.20843000  0.55815000  0.65296000  1.0
  H  H25  1  0.70842000  0.94184000  0.84704000  1.0
  H  H26  1  0.47785000  0.69371000  0.72102000  1.0
  H  H27  1  0.97785000  0.80628000  0.77898000  1.0
  H  H28  1  0.52215000  0.30629000  0.27898000  1.0
  H  H29  1  0.02215000  0.19372000  0.22102000  1.0
  H  H30  1  0.65178000  0.68176000  0.80465000  1.0
  H  H31  1  0.15177000  0.81824000  0.69535000  1.0
  H  H32  1  0.34822000  0.31824000  0.19535000  1.0
  H  H33  1  0.84823000  0.18176000  0.30465000  1.0
  C  C34  1  0.82296000  0.62692000  0.02294000  1.0
  C  C35  1  0.32296000  0.87308000  0.47706000  1.0
  C  C36  1  0.17704000  0.37309000  0.97706000  1.0
  C  C37  1  0.67704000  0.12692000  0.52294000  1.0
  C  C38  1  0.91647000  0.65886000  0.27196000  1.0
  C  C39  1  0.41647000  0.84114000  0.22803000  1.0
  C  C40  1  0.08353000  0.34114000  0.72803000  1.0
  C  C41  1  0.58352000  0.15886000  0.77197000  1.0
  C  C42  1  0.84219000  0.70452000  0.54190000  1.0
  C  C43  1  0.34220000  0.79549000  0.95810000  1.0
  C  C44  1  0.15781000  0.29548000  0.45810000  1.0
  C  C45  1  0.65780000  0.20451000  0.04190000  1.0
  C  C46  1  0.79197000  0.57056000  0.51001000  1.0
  C  C47  1  0.29197000  0.92945000  0.98998000  1.0
  C  C48  1  0.20804000  0.42943000  0.48999000  1.0
  C  C49  1  0.70802000  0.07055000  0.01002000  1.0
  C  C50  1  0.96342000  0.78956000  0.31307000  1.0
  C  C51  1  0.46341000  0.71045000  0.18692000  1.0
  C  C52  1  0.03658000  0.21044000  0.68692000  1.0
  C  C53  1  0.53659000  0.28955000  0.81308000  1.0
  C  C54  1  0.96241000  0.64129000  0.12229000  1.0
  C  C55  1  0.46241000  0.85872000  0.37771000  1.0
  C  C56  1  0.03759000  0.35871000  0.87771000  1.0
  C  C57  1  0.53759000  0.14128000  0.62229000  1.0
  C  C58  1  0.82979000  0.54600000  0.37404000  1.0
  C  C59  1  0.32980000  0.95401000  0.12596000  1.0
  C  C60  1  0.17021000  0.45400000  0.62596000  1.0
  C  C61  1  0.67019000  0.04599000  0.87404000  1.0
  N  N62  1  0.92821000  0.81347000  0.44620000  1.0
  N  N63  1  0.42821000  0.68653000  0.05379000  1.0
  N  N64  1  0.07179000  0.18653000  0.55380000  1.0
  N  N65  1  0.57179000  0.31347000  0.94621000  1.0
  O  O66  1  0.71611000  0.53011000  0.08139000  1.0
  O  O67  1  0.21611000  0.96989000  0.41862000  1.0
  O  O68  1  0.28390000  0.46989000  0.91862000  1.0
  O  O69  1  0.78389000  0.03011000  0.58138000  1.0
  O  O70  1  0.82297000  0.70942000  0.88889000  1.0
  O  O71  1  0.32297000  0.79057000  0.61111000  1.0
  O  O72  1  0.17703000  0.29058000  0.11111000  1.0
  O  O73  1  0.67703000  0.20942000  0.38889000  1.0
  O  O74  1  0.55792000  0.62412000  0.78288000  1.0
  O  O75  1  0.05792000  0.87587000  0.71712000  1.0
  O  O76  1  0.44208000  0.37588000  0.21711000  1.0
  O  O77  1  0.94208000  0.12413000  0.28288000  1.0
