# generated using pymatgen
data_CuH9C16NO4
_symmetry_space_group_name_H-M   'P 1'
_cell_length_a   18.00840000
_cell_length_b   20.63240000
_cell_length_c   20.63240000
_cell_angle_alpha   72.39230000
_cell_angle_beta   64.12730000
_cell_angle_gamma   64.12720000
_symmetry_Int_Tables_number   1
_chemical_formula_structural   CuH9C16NO4
_chemical_formula_sum   'Cu8 H72 C128 N8 O32'
_cell_volume   6146.54724173
_cell_formula_units_Z   8
loop_
 _symmetry_equiv_pos_site_id
 _symmetry_equiv_pos_as_xyz
  1  'x, y, z'
loop_
 _atom_site_type_symbol
 _atom_site_label
 _atom_site_symmetry_multiplicity
 _atom_site_fract_x
 _atom_site_fract_y
 _atom_site_fract_z
 _atom_site_occupancy
  Cu  Cu0  1  0.04807000  0.27681000  0.63203000  1.0
  Cu  Cu1  1  0.45698000  0.22317000  0.86800000  1.0
  Cu  Cu2  1  0.54302000  0.13200000  0.77684000  1.0
  Cu  Cu3  1  0.95192000  0.36798000  0.72320000  1.0
  Cu  Cu4  1  0.95192000  0.72319000  0.36797000  1.0
  Cu  Cu5  1  0.54302000  0.77684000  0.13200000  1.0
  Cu  Cu6  1  0.45698000  0.86800000  0.22316000  1.0
  Cu  Cu7  1  0.04808000  0.63202000  0.27681000  1.0
  H  H8  1  0.53227000  0.01650000  0.01651000  1.0
  H  H9  1  0.06534000  0.48345000  0.48345000  1.0
  H  H10  1  0.93466000  0.51655000  0.51655000  1.0
  H  H11  1  0.46773000  0.98349000  0.98349000  1.0
  H  H12  1  0.83775000  0.97959000  0.97959000  1.0
  H  H13  1  0.29694000  0.52040000  0.52040000  1.0
  H  H14  1  0.70306000  0.47959000  0.47959000  1.0
  H  H15  1  0.16225000  0.02041000  0.02041000  1.0
  H  H16  1  0.73932000  0.27346000  0.84421000  1.0
  H  H17  1  0.35697000  0.22648000  0.65590000  1.0
  H  H18  1  0.64303000  0.34410000  0.77352000  1.0
  H  H19  1  0.26068000  0.15579000  0.72654000  1.0
  H  H20  1  0.26068000  0.72654000  0.15579000  1.0
  H  H21  1  0.64303000  0.77352000  0.34410000  1.0
  H  H22  1  0.35697000  0.65590000  0.22648000  1.0
  H  H23  1  0.73932000  0.84421000  0.27346000  1.0
  H  H24  1  0.89658000  0.00751000  0.83761000  1.0
  H  H25  1  0.24176000  0.49245000  0.66238000  1.0
  H  H26  1  0.75825000  0.33761000  0.50756000  1.0
  H  H27  1  0.10341000  0.16239000  0.99249000  1.0
  H  H28  1  0.10342000  0.99249000  0.16239000  1.0
  H  H29  1  0.75825000  0.50756000  0.33761000  1.0
  H  H30  1  0.24175000  0.66238000  0.49244000  1.0
  H  H31  1  0.89659000  0.83761000  0.00751000  1.0
  H  H32  1  0.97161000  0.09449000  0.75543000  1.0
  H  H33  1  0.32150000  0.40552000  0.74462000  1.0
  H  H34  1  0.67851000  0.25539000  0.59448000  1.0
  H  H35  1  0.02839000  0.24457000  0.90551000  1.0
  H  H36  1  0.02839000  0.90551000  0.24457000  1.0
  H  H37  1  0.67851000  0.59448000  0.25538000  1.0
  H  H38  1  0.32149000  0.74461000  0.40552000  1.0
  H  H39  1  0.97161000  0.75543000  0.09449000  1.0
  H  H40  1  0.17049000  0.27682000  0.47158000  1.0
  H  H41  1  0.41890000  0.22316000  0.02844000  1.0
  H  H42  1  0.58110000  0.97155000  0.77684000  1.0
  H  H43  1  0.82951000  0.52842000  0.72318000  1.0
  H  H44  1  0.82951000  0.72318000  0.52842000  1.0
  H  H45  1  0.58110000  0.77684000  0.97156000  1.0
  H  H46  1  0.41890000  0.02844000  0.22316000  1.0
  H  H47  1  0.17049000  0.47158000  0.27682000  1.0
  H  H48  1  0.26069000  0.19265000  0.37878000  1.0
  H  H49  1  0.33214000  0.30734000  0.12121000  1.0
  H  H50  1  0.66786000  0.87879000  0.69266000  1.0
  H  H51  1  0.73930000  0.62122000  0.80735000  1.0
  H  H52  1  0.73930000  0.80735000  0.62122000  1.0
  H  H53  1  0.66786000  0.69266000  0.87879000  1.0
  H  H54  1  0.33214000  0.12121000  0.30734000  1.0
  H  H55  1  0.26069000  0.37878000  0.19265000  1.0
  H  H56  1  0.66177000  0.18768000  0.92371000  1.0
  H  H57  1  0.27319000  0.31221000  0.57638000  1.0
  H  H58  1  0.72681000  0.42362000  0.68779000  1.0
  H  H59  1  0.33823000  0.07630000  0.81232000  1.0
  H  H60  1  0.33823000  0.81232000  0.07629000  1.0
  H  H61  1  0.72681000  0.68779000  0.42362000  1.0
  H  H62  1  0.27319000  0.57638000  0.31221000  1.0
  H  H63  1  0.66177000  0.92371000  0.18768000  1.0
  H  H64  1  0.09374000  0.11710000  0.63056000  1.0
  H  H65  1  0.34155000  0.38286000  0.86941000  1.0
  H  H66  1  0.65845000  0.13059000  0.61714000  1.0
  H  H67  1  0.90626000  0.36944000  0.88290000  1.0
  H  H68  1  0.90626000  0.88290000  0.36944000  1.0
  H  H69  1  0.65845000  0.61714000  0.13059000  1.0
  H  H70  1  0.34155000  0.86941000  0.38286000  1.0
  H  H71  1  0.09374000  0.63056000  0.11710000  1.0
  H  H72  1  0.18161000  0.02446000  0.54638000  1.0
  H  H73  1  0.25255000  0.47550000  0.95357000  1.0
  H  H74  1  0.74745000  0.04644000  0.52450000  1.0
  H  H75  1  0.81839000  0.45361000  0.97554000  1.0
  H  H76  1  0.81839000  0.97554000  0.45362000  1.0
  H  H77  1  0.74745000  0.52450000  0.04644000  1.0
  H  H78  1  0.25255000  0.95357000  0.47550000  1.0
  H  H79  1  0.18161000  0.54639000  0.02446000  1.0
  C  C80  1  0.64343000  0.05067000  0.95089000  1.0
  C  C81  1  0.14509000  0.44925000  0.54904000  1.0
  C  C82  1  0.85491000  0.45096000  0.55075000  1.0
  C  C83  1  0.35656000  0.04912000  0.94934000  1.0
  C  C84  1  0.35656000  0.94933000  0.04912000  1.0
  C  C85  1  0.85492000  0.55075000  0.45096000  1.0
  C  C86  1  0.14509000  0.54904000  0.44925000  1.0
  C  C87  1  0.64344000  0.95088000  0.05067000  1.0
  C  C88  1  0.59527000  0.10249000  0.90115000  1.0
  C  C89  1  0.09897000  0.39744000  0.59881000  1.0
  C  C90  1  0.90103000  0.40118000  0.60256000  1.0
  C  C91  1  0.40472000  0.09886000  0.89752000  1.0
  C  C92  1  0.40473000  0.89751000  0.09885000  1.0
  C  C93  1  0.90104000  0.60255000  0.40118000  1.0
  C  C94  1  0.09897000  0.59881000  0.39744000  1.0
  C  C95  1  0.59527000  0.90115000  0.10249000  1.0
  C  C96  1  0.60033000  0.00721000  0.00721000  1.0
  C  C97  1  0.11484000  0.49272000  0.49272000  1.0
  C  C98  1  0.88516000  0.50727000  0.50728000  1.0
  C  C99  1  0.39966000  0.99279000  0.99279000  1.0
  C  C100  1  0.90782000  0.24066000  0.74879000  1.0
  C  C101  1  0.39725000  0.25933000  0.75131000  1.0
  C  C102  1  0.60274000  0.24870000  0.74068000  1.0
  C  C103  1  0.09218000  0.25121000  0.75934000  1.0
  C  C104  1  0.09219000  0.75934000  0.25121000  1.0
  C  C105  1  0.60275000  0.74067000  0.24870000  1.0
  C  C106  1  0.39725000  0.75130000  0.25932000  1.0
  C  C107  1  0.90782000  0.74878000  0.24065000  1.0
  C  C108  1  0.23024000  0.09950000  0.45346000  1.0
  C  C109  1  0.28324000  0.40049000  0.04653000  1.0
  C  C110  1  0.71676000  0.95347000  0.59951000  1.0
  C  C111  1  0.76976000  0.54654000  0.90050000  1.0
  C  C112  1  0.76976000  0.90050000  0.54654000  1.0
  C  C113  1  0.71676000  0.59951000  0.95347000  1.0
  C  C114  1  0.28324000  0.04653000  0.40049000  1.0
  C  C115  1  0.23024000  0.45346000  0.09950000  1.0
  C  C116  1  0.86022000  0.18935000  0.79493000  1.0
  C  C117  1  0.34445000  0.31061000  0.70521000  1.0
  C  C118  1  0.65555000  0.29480000  0.68940000  1.0
  C  C119  1  0.13978000  0.20507000  0.81065000  1.0
  C  C120  1  0.13978000  0.81065000  0.20507000  1.0
  C  C121  1  0.65555000  0.68939000  0.29480000  1.0
  C  C122  1  0.34445000  0.70520000  0.31060000  1.0
  C  C123  1  0.86022000  0.79493000  0.18935000  1.0
  C  C124  1  0.73041000  0.04071000  0.93979000  1.0
  C  C125  1  0.21100000  0.45922000  0.56015000  1.0
  C  C126  1  0.78900000  0.43985000  0.54079000  1.0
  C  C127  1  0.26959000  0.06022000  0.95929000  1.0
  C  C128  1  0.26959000  0.95929000  0.06021000  1.0
  C  C129  1  0.78900000  0.54078000  0.43984000  1.0
  C  C130  1  0.21100000  0.56015000  0.45921000  1.0
  C  C131  1  0.73041000  0.93978000  0.04071000  1.0
  C  C132  1  0.77430000  0.09138000  0.88704000  1.0
  C  C133  1  0.25277000  0.40855000  0.61297000  1.0
  C  C134  1  0.74723000  0.38703000  0.59145000  1.0
  C  C135  1  0.22570000  0.11296000  0.90862000  1.0
  C  C136  1  0.22570000  0.90862000  0.11296000  1.0
  C  C137  1  0.74723000  0.59145000  0.38703000  1.0
  C  C138  1  0.25277000  0.61296000  0.40855000  1.0
  C  C139  1  0.77430000  0.88704000  0.09138000  1.0
  C  C140  1  0.77216000  0.98515000  0.98515000  1.0
  C  C141  1  0.24254000  0.51480000  0.51480000  1.0
  C  C142  1  0.75746000  0.48520000  0.48520000  1.0
  C  C143  1  0.22784000  0.01485000  0.01485000  1.0
  C  C144  1  0.77273000  0.21518000  0.84237000  1.0
  C  C145  1  0.33027000  0.28476000  0.65775000  1.0
  C  C146  1  0.66973000  0.34225000  0.71525000  1.0
  C  C147  1  0.22726000  0.15763000  0.78482000  1.0
  C  C148  1  0.22727000  0.78482000  0.15763000  1.0
  C  C149  1  0.66973000  0.71524000  0.34225000  1.0
  C  C150  1  0.33027000  0.65775000  0.28476000  1.0
  C  C151  1  0.77274000  0.84237000  0.21518000  1.0
  C  C152  1  0.86183000  0.06586000  0.83909000  1.0
  C  C153  1  0.26681000  0.43410000  0.66092000  1.0
  C  C154  1  0.73320000  0.33908000  0.56591000  1.0
  C  C155  1  0.13817000  0.16091000  0.93414000  1.0
  C  C156  1  0.13817000  0.93414000  0.16090000  1.0
  C  C157  1  0.73319000  0.56590000  0.33908000  1.0
  C  C158  1  0.26681000  0.66092000  0.43409000  1.0
  C  C159  1  0.86183000  0.83909000  0.06586000  1.0
  C  C160  1  0.90388000  0.11429000  0.79293000  1.0
  C  C161  1  0.31105000  0.38569000  0.70715000  1.0
  C  C162  1  0.68895000  0.29285000  0.61431000  1.0
  C  C163  1  0.09612000  0.20707000  0.88572000  1.0
  C  C164  1  0.09612000  0.88571000  0.20707000  1.0
  C  C165  1  0.68895000  0.61431000  0.29285000  1.0
  C  C166  1  0.31105000  0.70715000  0.38569000  1.0
  C  C167  1  0.90388000  0.79293000  0.11428000  1.0
  C  C168  1  0.17486000  0.22017000  0.48517000  1.0
  C  C169  1  0.38028000  0.27982000  0.01481000  1.0
  C  C170  1  0.61972000  0.98519000  0.72018000  1.0
  C  C171  1  0.82514000  0.51483000  0.77983000  1.0
  C  C172  1  0.82514000  0.77983000  0.51483000  1.0
  C  C173  1  0.61972000  0.72018000  0.98519000  1.0
  C  C174  1  0.38028000  0.01481000  0.27982000  1.0
  C  C175  1  0.17486000  0.48517000  0.22017000  1.0
  C  C176  1  0.22545000  0.17228000  0.43383000  1.0
  C  C177  1  0.33161000  0.32771000  0.06615000  1.0
  C  C178  1  0.66839000  0.93384000  0.67229000  1.0
  C  C179  1  0.77455000  0.56616000  0.82772000  1.0
  C  C180  1  0.77455000  0.82772000  0.56617000  1.0
  C  C181  1  0.66839000  0.67229000  0.93384000  1.0
  C  C182  1  0.33161000  0.06615000  0.32771000  1.0
  C  C183  1  0.22545000  0.43383000  0.17228000  1.0
  C  C184  1  0.72988000  0.16686000  0.88702000  1.0
  C  C185  1  0.28379000  0.33306000  0.61304000  1.0
  C  C186  1  0.71621000  0.38696000  0.66694000  1.0
  C  C187  1  0.27012000  0.11298000  0.83314000  1.0
  C  C188  1  0.27012000  0.83314000  0.11297000  1.0
  C  C189  1  0.71621000  0.66694000  0.38696000  1.0
  C  C190  1  0.28380000  0.61304000  0.33306000  1.0
  C  C191  1  0.72988000  0.88702000  0.16686000  1.0
  C  C192  1  0.13258000  0.13086000  0.57405000  1.0
  C  C193  1  0.33763000  0.36911000  0.92593000  1.0
  C  C194  1  0.66237000  0.07407000  0.63089000  1.0
  C  C195  1  0.86742000  0.42595000  0.86914000  1.0
  C  C196  1  0.86742000  0.86914000  0.42595000  1.0
  C  C197  1  0.66237000  0.63089000  0.07407000  1.0
  C  C198  1  0.33763000  0.92593000  0.36911000  1.0
  C  C199  1  0.13258000  0.57405000  0.13086000  1.0
  C  C200  1  0.18190000  0.07959000  0.52613000  1.0
  C  C201  1  0.28771000  0.42039000  0.97384000  1.0
  C  C202  1  0.71229000  0.02616000  0.57961000  1.0
  C  C203  1  0.81810000  0.47387000  0.92041000  1.0
  C  C204  1  0.81810000  0.92041000  0.47387000  1.0
  C  C205  1  0.71229000  0.57961000  0.02616000  1.0
  C  C206  1  0.28771000  0.97384000  0.42039000  1.0
  C  C207  1  0.18190000  0.52613000  0.07959000  1.0
  N  N208  1  0.12874000  0.20020000  0.55433000  1.0
  N  N209  1  0.38337000  0.29977000  0.94566000  1.0
  N  N210  1  0.61663000  0.05434000  0.70023000  1.0
  N  N211  1  0.87126000  0.44567000  0.79980000  1.0
  N  N212  1  0.87126000  0.79980000  0.44566000  1.0
  N  N213  1  0.61663000  0.70023000  0.05434000  1.0
  N  N214  1  0.38337000  0.94566000  0.29977000  1.0
  N  N215  1  0.12874000  0.55433000  0.20020000  1.0
  O  O216  1  0.98195000  0.21405000  0.69886000  1.0
  O  O217  1  0.39495000  0.28595000  0.80117000  1.0
  O  O218  1  0.60504000  0.19884000  0.71406000  1.0
  O  O219  1  0.01805000  0.30114000  0.78595000  1.0
  O  O220  1  0.01805000  0.78595000  0.30113000  1.0
  O  O221  1  0.60505000  0.71405000  0.19884000  1.0
  O  O222  1  0.39495000  0.80116000  0.28595000  1.0
  O  O223  1  0.98195000  0.69886000  0.21405000  1.0
  O  O224  1  0.52439000  0.15373000  0.92991000  1.0
  O  O225  1  0.10799000  0.34622000  0.57010000  1.0
  O  O226  1  0.89201000  0.42990000  0.65378000  1.0
  O  O227  1  0.47561000  0.07010000  0.84628000  1.0
  O  O228  1  0.47561000  0.84628000  0.07009000  1.0
  O  O229  1  0.89201000  0.65378000  0.42990000  1.0
  O  O230  1  0.10800000  0.57010000  0.34621000  1.0
  O  O231  1  0.52439000  0.92991000  0.15372000  1.0
  O  O232  1  0.62542000  0.08881000  0.83676000  1.0
  O  O233  1  0.05108000  0.41115000  0.66320000  1.0
  O  O234  1  0.94892000  0.33680000  0.58885000  1.0
  O  O235  1  0.37457000  0.16325000  0.91120000  1.0
  O  O236  1  0.37458000  0.91119000  0.16324000  1.0
  O  O237  1  0.94892000  0.58884000  0.33680000  1.0
  O  O238  1  0.05108000  0.66320000  0.41115000  1.0
  O  O239  1  0.62542000  0.83676000  0.08881000  1.0
  O  O240  1  0.87351000  0.30573000  0.76257000  1.0
  O  O241  1  0.44176000  0.19426000  0.73751000  1.0
  O  O242  1  0.55823000  0.26251000  0.80574000  1.0
  O  O243  1  0.12649000  0.23744000  0.69428000  1.0
  O  O244  1  0.12649000  0.69427000  0.23743000  1.0
  O  O245  1  0.55824000  0.80574000  0.26250000  1.0
  O  O246  1  0.44177000  0.73751000  0.19426000  1.0
  O  O247  1  0.87351000  0.76256000  0.30572000  1.0
