# generated using pymatgen
data_Hf3H22C22(NO8)2
_symmetry_space_group_name_H-M   'P 1'
_cell_length_a   12.54180000
_cell_length_b   16.62824619
_cell_length_c   16.68350000
_cell_angle_alpha   81.96054104
_cell_angle_beta   68.26750000
_cell_angle_gamma   68.54337304
_symmetry_Int_Tables_number   1
_chemical_formula_structural   Hf3H22C22(NO8)2
_chemical_formula_sum   'Hf6 H44 C44 N4 O32'
_cell_volume   3007.97805916
_cell_formula_units_Z   2
loop_
 _symmetry_equiv_pos_site_id
 _symmetry_equiv_pos_as_xyz
  1  'x, y, z'
loop_
 _atom_site_type_symbol
 _atom_site_label
 _atom_site_symmetry_multiplicity
 _atom_site_fract_x
 _atom_site_fract_y
 _atom_site_fract_z
 _atom_site_occupancy
  Hf  Hf0  1  0.93223000  0.11189000  0.03334000  1.0
  Hf  Hf1  1  0.09173000  0.95958000  0.86721000  1.0
  Hf  Hf2  1  0.87335000  0.94528000  0.17921000  1.0
  Hf  Hf3  1  0.02936000  0.79340000  0.00990000  1.0
  Hf  Hf4  1  0.78848000  0.98389000  0.99441000  1.0
  Hf  Hf5  1  0.17466000  0.92230000  0.05197000  1.0
  H  H6  1  0.38710000  0.44400000  0.00340000  1.0
  H  H7  1  0.15987000  0.52962000  0.00329000  1.0
  H  H8  1  0.58178000  0.46006000  0.01353000  1.0
  H  H9  1  0.81303000  0.37154000  0.00761000  1.0
  H  H10  1  0.84541000  0.00835000  0.52823000  1.0
  H  H11  1  0.71622000  0.98551000  0.44035000  1.0
  H  H12  1  0.11315000  0.90773000  0.51838000  1.0
  H  H13  1  0.24836000  0.92471000  0.60456000  1.0
  H  H14  1  0.16639000  0.07620000  0.92558000  1.0
  H  H15  1  0.95527000  0.85851000  0.86533000  1.0
  H  H16  1  0.07930000  0.78915000  0.15707000  1.0
  H  H17  1  0.70763000  0.09278000  0.14791000  1.0
  H  H18  1  0.13303000  0.86583000  0.73597000  1.0
  H  H19  1  0.16541000  0.77825000  0.83153000  1.0
  H  H20  1  0.93565000  0.68549000  0.11658000  1.0
  H  H21  1  0.86218000  0.84532000  0.32352000  1.0
  H  H22  1  0.79635000  0.05238000  0.30488000  1.0
  H  H23  1  0.76920000  0.25492000  0.12539000  1.0
  H  H24  1  0.92939000  0.23842000  0.92183000  1.0
  H  H25  1  0.21367000  0.05235000  0.73522000  1.0
  H  H26  1  0.75941000  0.84611000  0.28923000  1.0
  H  H27  1  0.88946000  0.22403000  0.14970000  1.0
  H  H28  1  0.07940000  0.06953000  0.73601000  1.0
  H  H29  1  0.21891000  0.69531000  0.88583000  1.0
  H  H30  1  0.29541000  0.91497000  0.26560000  1.0
  H  H31  1  0.04079000  0.92746000  0.39596000  1.0
  H  H32  1  0.54643000  0.93104000  0.33433000  1.0
  H  H33  1  0.40832000  0.98142000  0.20627000  1.0
  H  H34  1  0.55733000  0.91836000  0.84036000  1.0
  H  H35  1  0.42857000  0.95728000  0.70779000  1.0
  H  H36  1  0.67434000  0.98315000  0.78039000  1.0
  H  H37  1  0.90982000  0.00599000  0.64848000  1.0
  H  H38  1  0.45289000  0.90364000  0.60817000  1.0
  H  H39  1  0.52079000  0.99475000  0.43312000  1.0
  H  H40  1  0.50736000  0.70851000  0.04935000  1.0
  H  H41  1  0.42237000  0.58847000  0.98170000  1.0
  H  H42  1  0.62398000  0.77039000  0.97945000  1.0
  H  H43  1  0.85377000  0.64348000  0.01151000  1.0
  H  H44  1  0.33019000  0.13793000  0.07467000  1.0
  H  H45  1  0.10911000  0.25769000  0.02672000  1.0
  H  H46  1  0.45742000  0.19118000  0.99561000  1.0
  H  H47  1  0.55386000  0.32565000  0.02651000  1.0
  H  H48  1  0.01588000  0.35410000  0.99035000  1.0
  H  H49  1  0.95714000  0.54304000  0.03024000  1.0
  C  C50  1  0.34150000  0.32615000  0.01175000  1.0
  C  C51  1  0.32007000  0.41525000  0.00795000  1.0
  C  C52  1  0.20225000  0.45989000  0.00630000  1.0
  C  C53  1  0.14854000  0.39874000  0.00820000  1.0
  C  C54  1  0.62627000  0.57590000  0.01618000  1.0
  C  C55  1  0.64898000  0.48740000  0.01193000  1.0
  C  C56  1  0.76851000  0.44134000  0.01015000  1.0
  C  C57  1  0.82180000  0.50098000  0.01363000  1.0
  C  C58  1  0.70704000  0.97821000  0.64382000  1.0
  C  C59  1  0.76361000  0.99093000  0.55551000  1.0
  C  C60  1  0.69606000  0.97990000  0.50981000  1.0
  C  C61  1  0.59655000  0.95948000  0.56959000  1.0
  C  C62  1  0.25803000  0.92868000  0.40169000  1.0
  C  C63  1  0.19870000  0.92029000  0.49034000  1.0
  C  C64  1  0.26959000  0.92812000  0.53510000  1.0
  C  C65  1  0.37357000  0.94225000  0.47442000  1.0
  C  C66  1  0.66303000  0.18948000  0.00725000  1.0
  C  C67  1  0.36747000  0.92994000  0.86201000  1.0
  C  C68  1  0.86760000  0.00460000  0.78749000  1.0
  C  C69  1  0.16984000  0.10923000  0.07758000  1.0
  C  C70  1  0.08966000  0.91554000  0.25769000  1.0
  C  C71  1  0.78285000  0.79670000  0.98253000  1.0
  C  C72  1  0.30788000  0.72045000  0.02060000  1.0
  C  C73  1  0.60322000  0.95896000  0.17947000  1.0
  C  C74  1  0.22659000  0.92095000  0.32995000  1.0
  C  C75  1  0.11659000  0.92029000  0.33491000  1.0
  C  C76  1  0.46402000  0.94477000  0.31951000  1.0
  C  C77  1  0.47837000  0.96183000  0.23560000  1.0
  C  C78  1  0.49158000  0.93148000  0.80810000  1.0
  C  C79  1  0.50837000  0.94905000  0.72393000  1.0
  C  C80  1  0.73738000  0.98754000  0.71549000  1.0
  C  C81  1  0.83993000  0.00171000  0.71015000  1.0
  C  C82  1  0.50197000  0.93931000  0.55725000  1.0
  C  C83  1  0.47096000  0.96021000  0.48506000  1.0
  C  C84  1  0.51664000  0.64782000  0.02508000  1.0
  C  C85  1  0.42030000  0.64580000  0.00775000  1.0
  C  C86  1  0.71125000  0.74074000  0.98905000  1.0
  C  C87  1  0.76481000  0.65702000  0.00659000  1.0
  C  C88  1  0.24310000  0.16559000  0.06448000  1.0
  C  C89  1  0.19604000  0.24543000  0.03458000  1.0
  C  C90  1  0.45129000  0.25597000  0.00718000  1.0
  C  C91  1  0.55202000  0.26371000  0.01386000  1.0
  C  C92  1  0.03165000  0.41003000  0.00476000  1.0
  C  C93  1  0.93957000  0.48789000  0.01628000  1.0
  N  N94  1  0.23395000  0.31645000  0.01351000  1.0
  N  N95  1  0.73354000  0.58397000  0.01626000  1.0
  N  N96  1  0.60375000  0.95850000  0.65187000  1.0
  N  N97  1  0.36599000  0.94198000  0.39264000  1.0
  O  O98  1  0.75036000  0.20371000  0.01938000  1.0
  O  O99  1  0.66655000  0.11522000  0.99126000  1.0
  O  O100  1  0.29002000  0.94443000  0.82391000  1.0
  O  O101  1  0.34635000  0.91537000  0.94240000  1.0
  O  O102  1  0.97622000  0.00343000  0.77511000  1.0
  O  O103  1  0.78673000  0.00372000  0.86146000  1.0
  O  O104  1  0.05618000  0.14519000  0.08818000  1.0
  O  O105  1  0.22693000  0.02763000  0.07358000  1.0
  O  O106  1  0.97694000  0.21124000  0.95903000  1.0
  O  O107  1  0.82259000  0.20703000  0.14906000  1.0
  O  O108  1  0.12746000  0.07057000  0.77083000  1.0
  O  O109  1  0.17854000  0.86160000  0.77345000  1.0
  O  O110  1  0.92380000  0.03901000  0.94819000  1.0
  O  O111  1  0.11935000  0.03849000  0.95346000  1.0
  O  O112  1  0.97885000  0.92333000  0.27039000  1.0
  O  O113  1  0.17494000  0.90588000  0.18401000  1.0
  O  O114  1  0.89034000  0.75905000  0.98552000  1.0
  O  O115  1  0.73316000  0.87826000  0.97450000  1.0
  O  O116  1  0.22541000  0.70999000  0.99981000  1.0
  O  O117  1  0.29859000  0.79052000  0.05118000  1.0
  O  O118  1  0.68747000  0.92985000  0.21247000  1.0
  O  O119  1  0.61740000  0.98816000  0.10269000  1.0
  O  O120  1  0.84781000  0.83027000  0.27476000  1.0
  O  O121  1  0.75680000  0.02876000  0.27868000  1.0
  O  O122  1  0.01465000  0.69290000  0.09151000  1.0
  O  O123  1  0.14343000  0.73183000  0.87603000  1.0
  O  O124  1  0.05169000  0.83784000  0.12135000  1.0
  O  O125  1  0.87611000  0.89628000  0.06864000  1.0
  O  O126  1  0.99775000  0.00220000  0.10638000  1.0
  O  O127  1  0.96487000  0.88659000  0.90807000  1.0
  O  O128  1  0.78362000  0.05579000  0.10810000  1.0
  O  O129  1  0.12997000  0.88036000  0.96289000  1.0
