# generated using pymatgen
data_CuH6C7N3Cl
_symmetry_space_group_name_H-M   'P 1'
_cell_length_a   7.32856000
_cell_length_b   8.35645000
_cell_length_c   13.39100000
_cell_angle_alpha   86.42790000
_cell_angle_beta   81.84260000
_cell_angle_gamma   63.99350000
_symmetry_Int_Tables_number   1
_chemical_formula_structural   CuH6C7N3Cl
_chemical_formula_sum   'Cu4 H24 C28 N12 Cl4'
_cell_volume   729.58022927
_cell_formula_units_Z   4
loop_
 _symmetry_equiv_pos_site_id
 _symmetry_equiv_pos_as_xyz
  1  'x, y, z'
loop_
 _atom_site_type_symbol
 _atom_site_label
 _atom_site_symmetry_multiplicity
 _atom_site_fract_x
 _atom_site_fract_y
 _atom_site_fract_z
 _atom_site_occupancy
  Cu  Cu0  1  0.99623000  0.96233000  0.86855000  1.0
  Cu  Cu1  1  0.04154000  0.96217000  0.63153000  1.0
  Cu  Cu2  1  0.00377000  0.03766000  0.13145000  1.0
  Cu  Cu3  1  0.95845000  0.03784000  0.36847000  1.0
  H  H4  1  0.48420000  0.08857000  0.95592000  1.0
  H  H5  1  0.42701000  0.08884000  0.54414000  1.0
  H  H6  1  0.51581000  0.91142000  0.04408000  1.0
  H  H7  1  0.57298000  0.91117000  0.45587000  1.0
  H  H8  1  0.46079000  0.25314000  0.11129000  1.0
  H  H9  1  0.28561000  0.25337000  0.38882000  1.0
  H  H10  1  0.53922000  0.74686000  0.88871000  1.0
  H  H11  1  0.71440000  0.74663000  0.61117000  1.0
  H  H12  1  0.29434000  0.23440000  0.81744000  1.0
  H  H13  1  0.47184000  0.23471000  0.68244000  1.0
  H  H14  1  0.70568000  0.76558000  0.18257000  1.0
  H  H15  1  0.52816000  0.76530000  0.31756000  1.0
  H  H16  1  0.09472000  0.57281000  0.81299000  1.0
  H  H17  1  0.33301000  0.57310000  0.68676000  1.0
  H  H18  1  0.90529000  0.42717000  0.18701000  1.0
  H  H19  1  0.66699000  0.42691000  0.31324000  1.0
  H  H20  1  0.41450000  0.50776000  0.21767000  1.0
  H  H21  1  0.07748000  0.50775000  0.28233000  1.0
  H  H22  1  0.58549000  0.49224000  0.78233000  1.0
  H  H23  1  0.92251000  0.49226000  0.71767000  1.0
  H  H24  1  0.29969000  0.74639000  0.22470000  1.0
  H  H25  1  0.95356000  0.74633000  0.27520000  1.0
  H  H26  1  0.70032000  0.25360000  0.77530000  1.0
  H  H27  1  0.04644000  0.25367000  0.72480000  1.0
  C  C28  1  0.39070000  0.23138000  0.96182000  1.0
  C  C29  1  0.37778000  0.23164000  0.53823000  1.0
  C  C30  1  0.60931000  0.76861000  0.03819000  1.0
  C  C31  1  0.62221000  0.76837000  0.46177000  1.0
  C  C32  1  0.38209000  0.32197000  0.04711000  1.0
  C  C33  1  0.29571000  0.32222000  0.45294000  1.0
  C  C34  1  0.61791000  0.67803000  0.95290000  1.0
  C  C35  1  0.70429000  0.67778000  0.54705000  1.0
  C  C36  1  0.28564000  0.31761000  0.87903000  1.0
  C  C37  1  0.39691000  0.31789000  0.62093000  1.0
  C  C38  1  0.71436000  0.68238000  0.12097000  1.0
  C  C39  1  0.60309000  0.68211000  0.37907000  1.0
  C  C40  1  0.17577000  0.50105000  0.87573000  1.0
  C  C41  1  0.32345000  0.50134000  0.62413000  1.0
  C  C42  1  0.82423000  0.49894000  0.12428000  1.0
  C  C43  1  0.67655000  0.49867000  0.37587000  1.0
  C  C44  1  0.27365000  0.62993000  0.21173000  1.0
  C  C45  1  0.09613000  0.62997000  0.28820000  1.0
  C  C46  1  0.72636000  0.37007000  0.78827000  1.0
  C  C47  1  0.90388000  0.37003000  0.71180000  1.0
  C  C48  1  0.26753000  0.50719000  0.04416000  1.0
  C  C49  1  0.22510000  0.50743000  0.45580000  1.0
  C  C50  1  0.73247000  0.49281000  0.95585000  1.0
  C  C51  1  0.77490000  0.49257000  0.54420000  1.0
  C  C52  1  0.17219000  0.59571000  0.95926000  1.0
  C  C53  1  0.23195000  0.59599000  0.54066000  1.0
  C  C54  1  0.82780000  0.40428000  0.04074000  1.0
  C  C55  1  0.76806000  0.40401000  0.45934000  1.0
  N  N56  1  0.08377000  0.77587000  0.97679000  1.0
  N  N57  1  0.14032000  0.77612000  0.52307000  1.0
  N  N58  1  0.91623000  0.22411000  0.02321000  1.0
  N  N59  1  0.85968000  0.22389000  0.47693000  1.0
  N  N60  1  0.22584000  0.64127000  0.10979000  1.0
  N  N61  1  0.13256000  0.64145000  0.39015000  1.0
  N  N62  1  0.77414000  0.35874000  0.89021000  1.0
  N  N63  1  0.86744000  0.35856000  0.60985000  1.0
  N  N64  1  0.11445000  0.80254000  0.06816000  1.0
  N  N65  1  0.08281000  0.80275000  0.43173000  1.0
  N  N66  1  0.88555000  0.19746000  0.93184000  1.0
  N  N67  1  0.91719000  0.19726000  0.56827000  1.0
  Cl  Cl68  1  0.80781000  0.90886000  0.75573000  1.0
  Cl  Cl69  1  0.28329000  0.90889000  0.74429000  1.0
  Cl  Cl70  1  0.19219000  0.09113000  0.24426000  1.0
  Cl  Cl71  1  0.71670000  0.09111000  0.25571000  1.0
