# generated using pymatgen
data_ZnH22C21NO6
_symmetry_space_group_name_H-M   'P 1'
_cell_length_a   10.87150000
_cell_length_b   13.98870000
_cell_length_c   15.03820000
_cell_angle_alpha   89.89670000
_cell_angle_beta   89.52920000
_cell_angle_gamma   89.84720000
_symmetry_Int_Tables_number   1
_chemical_formula_structural   ZnH22C21NO6
_chemical_formula_sum   'Zn2 H44 C42 N2 O12'
_cell_volume   2286.89269924
_cell_formula_units_Z   2
loop_
 _symmetry_equiv_pos_site_id
 _symmetry_equiv_pos_as_xyz
  1  'x, y, z'
loop_
 _atom_site_type_symbol
 _atom_site_label
 _atom_site_symmetry_multiplicity
 _atom_site_fract_x
 _atom_site_fract_y
 _atom_site_fract_z
 _atom_site_occupancy
  Zn  Zn0  1  0.50100000  0.59832000  0.49957000  1.0
  Zn  Zn1  1  0.50090000  0.39709000  0.49975000  1.0
  H  H2  1  0.88582000  0.34664000  0.49930000  1.0
  H  H3  1  0.52371000  0.35836000  0.23617000  1.0
  H  H4  1  0.46467000  0.34756000  0.92994000  1.0
  H  H5  1  0.56956000  0.35104000  0.07332000  1.0
  H  H6  1  0.32141000  0.06608000  0.56465000  1.0
  H  H7  1  0.67818000  0.06517000  0.43580000  1.0
  H  H8  1  0.32913000  0.24594000  0.56069000  1.0
  H  H9  1  0.67089000  0.24501000  0.43919000  1.0
  H  H10  1  0.76547000  0.70748000  0.68518000  1.0
  H  H11  1  0.75843000  0.58126000  0.68863000  1.0
  H  H12  1  0.89451000  0.70786000  0.82235000  1.0
  H  H13  1  0.11621000  0.34623000  0.50439000  1.0
  H  H14  1  0.88064000  0.58232000  0.83085000  1.0
  H  H15  1  0.99280000  0.56172000  0.68462000  1.0
  H  H16  1  0.08405000  0.62734000  0.76014000  1.0
  H  H17  1  0.00592000  0.68760000  0.67337000  1.0
  H  H18  1  0.24020000  0.70105000  0.30966000  1.0
  H  H19  1  0.24711000  0.57506000  0.30126000  1.0
  H  H20  1  0.11496000  0.70834000  0.17030000  1.0
  H  H21  1  0.12834000  0.58310000  0.15824000  1.0
  H  H22  1  0.01238000  0.55818000  0.30273000  1.0
  H  H23  1  0.92344000  0.62648000  0.22728000  1.0
  H  H24  1  0.55868000  0.75070000  0.36816000  1.0
  H  H25  1  0.99897000  0.68376000  0.31661000  1.0
  H  H26  1  0.51855000  0.02089000  0.24372000  1.0
  H  H27  1  0.40356000  0.00750000  0.32790000  1.0
  H  H28  1  0.49119000  0.84970000  0.19954000  1.0
  H  H29  1  0.37932000  0.83398000  0.28344000  1.0
  H  H30  1  0.24192000  0.95660000  0.20986000  1.0
  H  H31  1  0.27919000  0.86073000  0.13698000  1.0
  H  H32  1  0.35407000  0.97278000  0.12461000  1.0
  H  H33  1  0.48220000  0.01891000  0.75734000  1.0
  H  H34  1  0.59629000  0.00718000  0.67227000  1.0
  H  H35  1  0.44302000  0.75004000  0.63224000  1.0
  H  H36  1  0.51261000  0.84750000  0.80013000  1.0
  H  H37  1  0.62238000  0.83279000  0.71468000  1.0
  H  H38  1  0.76105000  0.95422000  0.78726000  1.0
  H  H39  1  0.72633000  0.85723000  0.85955000  1.0
  H  H40  1  0.65132000  0.96919000  0.87439000  1.0
  H  H41  1  0.91477000  0.56027000  0.45402000  1.0
  H  H42  1  0.08702000  0.56273000  0.53503000  1.0
  H  H43  1  0.60795000  0.63393000  0.95140000  1.0
  H  H44  1  0.40813000  0.63138000  0.04408000  1.0
  H  H45  1  0.50108000  0.35473000  0.76590000  1.0
  C  C46  1  0.56079000  0.50125000  0.66708000  1.0
  C  C47  1  0.53430000  0.89258000  0.42373000  1.0
  C  C48  1  0.46604000  0.89220000  0.57673000  1.0
  C  C49  1  0.53338000  0.79290000  0.42643000  1.0
  C  C50  1  0.46787000  0.79250000  0.57397000  1.0
  C  C51  1  0.49993000  0.94513000  0.50024000  1.0
  C  C52  1  0.26710000  0.49315000  0.53485000  1.0
  C  C53  1  0.73462000  0.49158000  0.46168000  1.0
  C  C54  1  0.93563000  0.41392000  0.49078000  1.0
  C  C55  1  0.06661000  0.41425000  0.50781000  1.0
  C  C56  1  0.87044000  0.49144000  0.46563000  1.0
  C  C57  1  0.44654000  0.50258000  0.33136000  1.0
  C  C58  1  0.13157000  0.49313000  0.52824000  1.0
  C  C59  1  0.58156000  0.57242000  0.91147000  1.0
  C  C60  1  0.43673000  0.57147000  0.08560000  1.0
  C  C61  1  0.60646000  0.57495000  0.82012000  1.0
  C  C62  1  0.40734000  0.57422000  0.17629000  1.0
  C  C63  1  0.57112000  0.49714000  0.76619000  1.0
  C  C64  1  0.44401000  0.49799000  0.23199000  1.0
  C  C65  1  0.52547000  0.41475000  0.80830000  1.0
  C  C66  1  0.49788000  0.41709000  0.19235000  1.0
  C  C67  1  0.50485000  0.41115000  0.89948000  1.0
  C  C68  1  0.52798000  0.49214000  0.95186000  1.0
  C  C69  1  0.52373000  0.41342000  0.10185000  1.0
  C  C70  1  0.76737000  0.64537000  0.73014000  1.0
  C  C71  1  0.88621000  0.64190000  0.78297000  1.0
  C  C72  1  0.99831000  0.62900000  0.72204000  1.0
  C  C73  1  0.23934000  0.64126000  0.26225000  1.0
  C  C74  1  0.12185000  0.64085000  0.20780000  1.0
  C  C75  1  0.00803000  0.62660000  0.26674000  1.0
  C  C76  1  0.47402000  0.96901000  0.28843000  1.0
  C  C77  1  0.41795000  0.88688000  0.23682000  1.0
  C  C78  1  0.31771000  0.92136000  0.17361000  1.0
  C  C79  1  0.49694000  0.49259000  0.04765000  1.0
  C  C80  1  0.52685000  0.96785000  0.71187000  1.0
  C  C81  1  0.58467000  0.88511000  0.76219000  1.0
  C  C82  1  0.68642000  0.91854000  0.82428000  1.0
  C  C83  1  0.40045000  0.10268000  0.53584000  1.0
  C  C84  1  0.59921000  0.10217000  0.46447000  1.0
  C  C85  1  0.40395000  0.20193000  0.53429000  1.0
  C  C86  1  0.59596000  0.20141000  0.46570000  1.0
  C  C87  1  0.49978000  0.05066000  0.50022000  1.0
  N  N88  1  0.50000000  0.25034000  0.49990000  1.0
  N  N89  1  0.50080000  0.74490000  0.50016000  1.0
  O  O90  1  0.53829000  0.58263000  0.63252000  1.0
  O  O91  1  0.34595000  0.65419000  0.20539000  1.0
  O  O92  1  0.57219000  0.93752000  0.34713000  1.0
  O  O93  1  0.42832000  0.93688000  0.65348000  1.0
  O  O94  1  0.46559000  0.58422000  0.36601000  1.0
  O  O95  1  0.56803000  0.42228000  0.62524000  1.0
  O  O96  1  0.43676000  0.42381000  0.37346000  1.0
  O  O97  1  0.31743000  0.57499000  0.52574000  1.0
  O  O98  1  0.68439000  0.57351000  0.47154000  1.0
  O  O99  1  0.32316000  0.41374000  0.54581000  1.0
  O  O100  1  0.67863000  0.41218000  0.45256000  1.0
  O  O101  1  0.66185000  0.65633000  0.78848000  1.0
