# generated using pymatgen
data_ZnH8C14NO6
_symmetry_space_group_name_H-M   'P 1'
_cell_length_a   11.03910000
_cell_length_b   11.09420000
_cell_length_c   13.97670000
_cell_angle_alpha   81.13920000
_cell_angle_beta   89.19010000
_cell_angle_gamma   86.01740000
_symmetry_Int_Tables_number   1
_chemical_formula_structural   ZnH8C14NO6
_chemical_formula_sum   'Zn4 H32 C56 N4 O24'
_cell_volume   1687.20316764
_cell_formula_units_Z   4
loop_
 _symmetry_equiv_pos_site_id
 _symmetry_equiv_pos_as_xyz
  1  'x, y, z'
loop_
 _atom_site_type_symbol
 _atom_site_label
 _atom_site_symmetry_multiplicity
 _atom_site_fract_x
 _atom_site_fract_y
 _atom_site_fract_z
 _atom_site_occupancy
  Zn  Zn0  1  0.72478000  0.66370000  0.60937000  1.0
  Zn  Zn1  1  0.72430000  0.62139000  0.81690000  1.0
  Zn  Zn2  1  0.27522000  0.33630000  0.39063000  1.0
  Zn  Zn3  1  0.27571000  0.37861000  0.18311000  1.0
  H  H4  1  0.53905000  0.64480000  0.46298000  1.0
  H  H5  1  0.53058000  0.62803000  0.28865000  1.0
  H  H6  1  0.53614000  0.63074000  0.96942000  1.0
  H  H7  1  0.92098000  0.62440000  0.14286000  1.0
  H  H8  1  0.90816000  0.68964000  0.45022000  1.0
  H  H9  1  0.78459000  0.28500000  0.57359000  1.0
  H  H10  1  0.52620000  0.64927000  0.14306000  1.0
  H  H11  1  0.11572000  0.64097000  0.56373000  1.0
  H  H12  1  0.91669000  0.67988000  0.27423000  1.0
  H  H13  1  0.78028000  0.06247000  0.56346000  1.0
  H  H14  1  0.91229000  0.61134000  0.96770000  1.0
  H  H15  1  0.34129000  0.65049000  0.56399000  1.0
  H  H16  1  0.19844000  0.79623000  0.94958000  1.0
  H  H17  1  0.21740000  0.64187000  0.01655000  1.0
  H  H18  1  0.63401000  0.07219000  0.01052000  1.0
  H  H19  1  0.50360000  0.10394000  0.92987000  1.0
  H  H20  1  0.46096000  0.35520000  0.53702000  1.0
  H  H21  1  0.46942000  0.37198000  0.71136000  1.0
  H  H22  1  0.46386000  0.36925000  0.03058000  1.0
  H  H23  1  0.07901000  0.37559000  0.85714000  1.0
  H  H24  1  0.09185000  0.31035000  0.54978000  1.0
  H  H25  1  0.21541000  0.71501000  0.42641000  1.0
  H  H26  1  0.47380000  0.35071000  0.85695000  1.0
  H  H27  1  0.88428000  0.35902000  0.43627000  1.0
  H  H28  1  0.08331000  0.32010000  0.72577000  1.0
  H  H29  1  0.21972000  0.93754000  0.43653000  1.0
  H  H30  1  0.08770000  0.38864000  0.03231000  1.0
  H  H31  1  0.65870000  0.34952000  0.43602000  1.0
  H  H32  1  0.80155000  0.20378000  0.05041000  1.0
  H  H33  1  0.78261000  0.35814000  0.98345000  1.0
  H  H34  1  0.36598000  0.92780000  0.98947000  1.0
  H  H35  1  0.49638000  0.89607000  0.07012000  1.0
  C  C36  1  0.72574000  0.40336000  0.72338000  1.0
  C  C37  1  0.72412000  0.26923000  0.72101000  1.0
  C  C38  1  0.96038000  0.63694000  0.71357000  1.0
  C  C39  1  0.68698000  0.06017000  0.79398000  1.0
  C  C40  1  0.72374000  0.64181000  0.15996000  1.0
  C  C41  1  0.15655000  0.66221000  0.79844000  1.0
  C  C42  1  0.62017000  0.65202000  0.41766000  1.0
  C  C43  1  0.61672000  0.64402000  0.31970000  1.0
  C  C44  1  0.72344000  0.65314000  0.26398000  1.0
  C  C45  1  0.09378000  0.64996000  0.71523000  1.0
  C  C46  1  0.61882000  0.63025000  0.01142000  1.0
  C  C47  1  0.83274000  0.62982000  0.10808000  1.0
  C  C48  1  0.82676000  0.67742000  0.41047000  1.0
  C  C49  1  0.75741000  0.22077000  0.63566000  1.0
  C  C50  1  0.61501000  0.64143000  0.10895000  1.0
  C  C51  1  0.68853000  0.18521000  0.79903000  1.0
  C  C52  1  0.28305000  0.66911000  0.79849000  1.0
  C  C53  1  0.16378000  0.64892000  0.62971000  1.0
  C  C54  1  0.48787000  0.65644000  0.71455000  1.0
  C  C55  1  0.35265000  0.66246000  0.71530000  1.0
  C  C56  1  0.72055000  0.01238000  0.71032000  1.0
  C  C57  1  0.83008000  0.67122000  0.31204000  1.0
  C  C58  1  0.75518000  0.09736000  0.63023000  1.0
  C  C59  1  0.82953000  0.61967000  0.01046000  1.0
  C  C60  1  0.28837000  0.65443000  0.62983000  1.0
  C  C61  1  0.72286000  0.87870000  0.70485000  1.0
  C  C62  1  0.21140000  0.69769000  0.94464000  1.0
  C  C63  1  0.60391000  0.09366000  0.93487000  1.0
  C  C64  1  0.27426000  0.59664000  0.27663000  1.0
  C  C65  1  0.27588000  0.73077000  0.27899000  1.0
  C  C66  1  0.03962000  0.36305000  0.28644000  1.0
  C  C67  1  0.31302000  0.93983000  0.20601000  1.0
  C  C68  1  0.27626000  0.35819000  0.84005000  1.0
  C  C69  1  0.84345000  0.33779000  0.20157000  1.0
  C  C70  1  0.37983000  0.34798000  0.58234000  1.0
  C  C71  1  0.38329000  0.35598000  0.68030000  1.0
  C  C72  1  0.27657000  0.34685000  0.73602000  1.0
  C  C73  1  0.90622000  0.35003000  0.28478000  1.0
  C  C74  1  0.38118000  0.36974000  0.98858000  1.0
  C  C75  1  0.16726000  0.37017000  0.89193000  1.0
  C  C76  1  0.17325000  0.32258000  0.58953000  1.0
  C  C77  1  0.24260000  0.77924000  0.36433000  1.0
  C  C78  1  0.38499000  0.35856000  0.89106000  1.0
  C  C79  1  0.31147000  0.81479000  0.20096000  1.0
  C  C80  1  0.71695000  0.33090000  0.20152000  1.0
  C  C81  1  0.83623000  0.35108000  0.37029000  1.0
  C  C82  1  0.51214000  0.34357000  0.28545000  1.0
  C  C83  1  0.64735000  0.33755000  0.28470000  1.0
  C  C84  1  0.27945000  0.98762000  0.28968000  1.0
  C  C85  1  0.16992000  0.32877000  0.68796000  1.0
  C  C86  1  0.24482000  0.90265000  0.36976000  1.0
  C  C87  1  0.17047000  0.38032000  0.98954000  1.0
  C  C88  1  0.71163000  0.34558000  0.37017000  1.0
  C  C89  1  0.27716000  0.12131000  0.29514000  1.0
  C  C90  1  0.78859000  0.30232000  0.05536000  1.0
  C  C91  1  0.39607000  0.90634000  0.06512000  1.0
  N  N92  1  0.72358000  0.66778000  0.46271000  1.0
  N  N93  1  0.72431000  0.61976000  0.96283000  1.0
  N  N94  1  0.27643000  0.33222000  0.53730000  1.0
  N  N95  1  0.27568000  0.38023000  0.03717000  1.0
  O  O96  1  0.73862000  0.47163000  0.64255000  1.0
  O  O97  1  0.90889000  0.66254000  0.63129000  1.0
  O  O98  1  0.90926000  0.60002000  0.79400000  1.0
  O  O99  1  0.54037000  0.65799000  0.63261000  1.0
  O  O100  1  0.54020000  0.64672000  0.79614000  1.0
  O  O101  1  0.73660000  0.80751000  0.78499000  1.0
  O  O102  1  0.71264000  0.84746000  0.62167000  1.0
  O  O103  1  0.71297000  0.43866000  0.80594000  1.0
  O  O104  1  0.11208000  0.66402000  0.89069000  1.0
  O  O105  1  0.32096000  0.67594000  0.89070000  1.0
  O  O106  1  0.65002000  0.99918000  0.88200000  1.0
  O  O107  1  0.65253000  0.20597000  0.89053000  1.0
  O  O108  1  0.26137000  0.52838000  0.35746000  1.0
  O  O109  1  0.09111000  0.33746000  0.36871000  1.0
  O  O110  1  0.09074000  0.39996000  0.20600000  1.0
  O  O111  1  0.45962000  0.34203000  0.36739000  1.0
  O  O112  1  0.45980000  0.35328000  0.20386000  1.0
  O  O113  1  0.26343000  0.19249000  0.21500000  1.0
  O  O114  1  0.28737000  0.15254000  0.37832000  1.0
  O  O115  1  0.28704000  0.56133000  0.19406000  1.0
  O  O116  1  0.88792000  0.33598000  0.10931000  1.0
  O  O117  1  0.67903000  0.32408000  0.10930000  1.0
  O  O118  1  0.34995000  0.00082000  0.11798000  1.0
  O  O119  1  0.34745000  0.79403000  0.10946000  1.0
