# generated using pymatgen
data_AlH9C21N(ClO2)3
_symmetry_space_group_name_H-M   'P 1'
_cell_length_a   4.10734000
_cell_length_b   23.37710000
_cell_length_c   23.37755335
_cell_angle_alpha   59.99992450
_cell_angle_beta   89.99940002
_cell_angle_gamma   89.99850000
_symmetry_Int_Tables_number   1
_chemical_formula_structural   AlH9C21N(ClO2)3
_chemical_formula_sum   'Al3 H27 C63 N3 Cl9 O18'
_cell_volume   1943.93011187
_cell_formula_units_Z   3
loop_
 _symmetry_equiv_pos_site_id
 _symmetry_equiv_pos_as_xyz
  1  'x, y, z'
loop_
 _atom_site_type_symbol
 _atom_site_label
 _atom_site_symmetry_multiplicity
 _atom_site_fract_x
 _atom_site_fract_y
 _atom_site_fract_z
 _atom_site_occupancy
  Al  Al0  1  0.99205000  0.49976000  0.49985000  1.0
  Al  Al1  1  0.99210000  0.83372000  0.83310000  1.0
  Al  Al2  1  0.99207000  0.16651000  0.16707000  1.0
  H  H3  1  0.21140000  0.05245000  0.07876000  1.0
  H  H4  1  0.20577000  0.94781000  0.07730000  1.0
  H  H5  1  0.76574000  0.85606000  0.25748000  1.0
  H  H6  1  0.76575000  0.92415000  0.05312000  1.0
  H  H7  1  0.21146000  0.74542000  0.03546000  1.0
  H  H8  1  0.20580000  0.74396000  0.14157000  1.0
  H  H9  1  0.76578000  0.71979000  0.18940000  1.0
  H  H10  1  0.21134000  0.70213000  0.38578000  1.0
  H  H11  1  0.20574000  0.80824000  0.28113000  1.0
  H  H12  1  0.78054000  0.94705000  0.63276000  1.0
  H  H13  1  0.79283000  0.05134000  0.52628000  1.0
  H  H14  1  0.23391000  0.14524000  0.61267000  1.0
  H  H15  1  0.23385000  0.07544000  0.47857000  1.0
  H  H16  1  0.78045000  0.25352000  0.28040000  1.0
  H  H17  1  0.79278000  0.25571000  0.38468000  1.0
  H  H18  1  0.23384000  0.27933000  0.40878000  1.0
  H  H19  1  0.78054000  0.29943000  0.58685000  1.0
  H  H20  1  0.79286000  0.19294000  0.58905000  1.0
  H  H21  1  0.78164000  0.63292000  0.91996000  1.0
  H  H22  1  0.79345000  0.52643000  0.92229000  1.0
  H  H23  1  0.23388000  0.61271000  0.74211000  1.0
  H  H24  1  0.23386000  0.47852000  0.94604000  1.0
  H  H25  1  0.78157000  0.28044000  0.96626000  1.0
  H  H26  1  0.79340000  0.38459000  0.85977000  1.0
  H  H27  1  0.23384000  0.40878000  0.81185000  1.0
  H  H28  1  0.78164000  0.58662000  0.61379000  1.0
  H  H29  1  0.79348000  0.58896000  0.71794000  1.0
  C  C30  1  0.49093000  0.49785000  0.58839000  1.0
  C  C31  1  0.49621000  0.58741000  0.41268000  1.0
  C  C32  1  0.49096000  0.41354000  0.49794000  1.0
  C  C33  1  0.49626000  0.83325000  0.92074000  1.0
  C  C34  1  0.49098000  0.74710000  0.83118000  1.0
  C  C35  1  0.49101000  0.92186000  0.74688000  1.0
  C  C36  1  0.49624000  0.07935000  0.16658000  1.0
  C  C37  1  0.49093000  0.25506000  0.08043000  1.0
  C  C38  1  0.49096000  0.16460000  0.25520000  1.0
  C  C39  1  0.33795000  0.00948000  0.11739000  1.0
  C  C40  1  0.33180000  0.95030000  0.11687000  1.0
  C  C41  1  0.48868000  0.89399000  0.16683000  1.0
  C  C42  1  0.64492000  0.89873000  0.21762000  1.0
  C  C43  1  0.64143000  0.95778000  0.21860000  1.0
  C  C44  1  0.49488000  0.01458000  0.16780000  1.0
  C  C45  1  0.64493000  0.88430000  0.05031000  1.0
  C  C46  1  0.64144000  0.88526000  0.99029000  1.0
  C  C47  1  0.49489000  0.83446000  0.98430000  1.0
  C  C48  1  0.33798000  0.78405000  0.03980000  1.0
  C  C49  1  0.33183000  0.78353000  0.09950000  1.0
  C  C50  1  0.48869000  0.83350000  0.10584000  1.0
  C  C51  1  0.64494000  0.71698000  0.23207000  1.0
  C  C52  1  0.64144000  0.65695000  0.29112000  1.0
  C  C53  1  0.49488000  0.65096000  0.34791000  1.0
  C  C54  1  0.33792000  0.70647000  0.34281000  1.0
  C  C55  1  0.33178000  0.76617000  0.28363000  1.0
  C  C56  1  0.48867000  0.77251000  0.22732000  1.0
  C  C57  1  0.65680000  0.99049000  0.62794000  1.0
  C  C58  1  0.66639000  0.04945000  0.56804000  1.0
  C  C59  1  0.51179000  0.10625000  0.56102000  1.0
  C  C60  1  0.35381000  0.10224000  0.61607000  1.0
  C  C61  1  0.35398000  0.04344000  0.67629000  1.0
  C  C62  1  0.49877000  0.98625000  0.68298000  1.0
  C  C63  1  0.35379000  0.11503000  0.43558000  1.0
  C  C64  1  0.35392000  0.11360000  0.37678000  1.0
  C  C65  1  0.49874000  0.16411000  0.31958000  1.0
  C  C66  1  0.65674000  0.21490000  0.32384000  1.0
  C  C67  1  0.66634000  0.21585000  0.38279000  1.0
  C  C68  1  0.51176000  0.16606000  0.43959000  1.0
  C  C69  1  0.35377000  0.28274000  0.44837000  1.0
  C  C70  1  0.35393000  0.34296000  0.44695000  1.0
  C  C71  1  0.49873000  0.34964000  0.49745000  1.0
  C  C72  1  0.65678000  0.29460000  0.54824000  1.0
  C  C73  1  0.66639000  0.23470000  0.54919000  1.0
  C  C74  1  0.51177000  0.22769000  0.49940000  1.0
  C  C75  1  0.65725000  0.62808000  0.88142000  1.0
  C  C76  1  0.66678000  0.56815000  0.88243000  1.0
  C  C77  1  0.51199000  0.56106000  0.83270000  1.0
  C  C78  1  0.35391000  0.61610000  0.78170000  1.0
  C  C79  1  0.35398000  0.67634000  0.78027000  1.0
  C  C80  1  0.49890000  0.68316000  0.83069000  1.0
  C  C81  1  0.35387000  0.43553000  0.94943000  1.0
  C  C82  1  0.35393000  0.37672000  0.00967000  1.0
  C  C83  1  0.49885000  0.31949000  0.01649000  1.0
  C  C84  1  0.65720000  0.32381000  0.96143000  1.0
  C  C85  1  0.66666667  0.38274000  0.90149000  1.0
  C  C86  1  0.51198000  0.43957000  0.89439000  1.0
  C  C87  1  0.35387000  0.44837000  0.76887000  1.0
  C  C88  1  0.35392000  0.44694000  0.71006000  1.0
  C  C89  1  0.49886000  0.49736000  0.65282000  1.0
  C  C90  1  0.65723000  0.54808000  0.65716000  1.0
  C  C91  1  0.66677000  0.54910000  0.71608000  1.0
  C  C92  1  0.51198000  0.49937000  0.77291000  1.0
  N  N93  1  0.48678000  0.83333000  0.16667000  1.0
  N  N94  1  0.51687000  0.16665667  0.50001000  1.0
  N  N95  1  0.51713000  0.50000333  0.83333000  1.0
  Cl  Cl96  1  0.81918000  0.95948000  0.28475000  1.0
  Cl  Cl97  1  0.81919000  0.95141000  0.92244000  1.0
  Cl  Cl98  1  0.81922000  0.58910000  0.29282000  1.0
  Cl  Cl99  1  0.17285000  0.04237000  0.74358000  1.0
  Cl  Cl100  1  0.17276000  0.04738000  0.37572000  1.0
  Cl  Cl101  1  0.17278000  0.41024000  0.38073000  1.0
  Cl  Cl102  1  0.17221000  0.74352000  0.71401000  1.0
  Cl  Cl103  1  0.17216000  0.37581000  0.07685000  1.0
  Cl  Cl104  1  0.17213000  0.38067000  0.70915000  1.0
  O  O105  1  0.72463000  0.45345000  0.46985000  1.0
  O  O106  1  0.72432000  0.46975000  0.57653000  1.0
  O  O107  1  0.73170000  0.57819000  0.45195000  1.0
  O  O108  1  0.25245000  0.42218000  0.52767000  1.0
  O  O109  1  0.25944000  0.54840000  0.42397000  1.0
  O  O110  1  0.25243000  0.52762000  0.55003000  1.0
  O  O111  1  0.25251000  0.88348000  0.75552000  1.0
  O  O112  1  0.25948000  0.86098000  0.88172000  1.0
  O  O113  1  0.25250000  0.75569000  0.86095000  1.0
  O  O114  1  0.72467000  0.91003000  0.78679000  1.0
  O  O115  1  0.72438000  0.78706000  0.80308000  1.0
  O  O116  1  0.73177000  0.80319000  0.91153000  1.0
  O  O117  1  0.25246000  0.19433000  0.21683000  1.0
  O  O118  1  0.25945000  0.09064000  0.19431000  1.0
  O  O119  1  0.25243000  0.21670000  0.08903000  1.0
  O  O120  1  0.72464000  0.13651000  0.24338000  1.0
  O  O121  1  0.72429000  0.24320000  0.12040000  1.0
  O  O122  1  0.73173000  0.11862000  0.13653000  1.0
