# generated using pymatgen
data_CuH8C10N2Cl
_symmetry_space_group_name_H-M   'P 1'
_cell_length_a   6.52254000
_cell_length_b   9.14032000
_cell_length_c   16.42730000
_cell_angle_alpha   90.00240000
_cell_angle_beta   90.00150000
_cell_angle_gamma   69.83600000
_symmetry_Int_Tables_number   1
_chemical_formula_structural   CuH8C10N2Cl
_chemical_formula_sum   'Cu4 H32 C40 N8 Cl4'
_cell_volume   919.33901067
_cell_formula_units_Z   4
loop_
 _symmetry_equiv_pos_site_id
 _symmetry_equiv_pos_as_xyz
  1  'x, y, z'
loop_
 _atom_site_type_symbol
 _atom_site_label
 _atom_site_symmetry_multiplicity
 _atom_site_fract_x
 _atom_site_fract_y
 _atom_site_fract_z
 _atom_site_occupancy
  Cu  Cu0  1  0.73579000  0.35156000  0.82184000  1.0
  Cu  Cu1  1  0.76419000  0.64845000  0.32183000  1.0
  Cu  Cu2  1  0.26418000  0.64844000  0.17816000  1.0
  Cu  Cu3  1  0.23581000  0.35155000  0.67817000  1.0
  H  H4  1  0.30483000  0.59490000  0.80816000  1.0
  H  H5  1  0.19514000  0.40513000  0.30814000  1.0
  H  H6  1  0.69515000  0.40509000  0.19185000  1.0
  H  H7  1  0.80486000  0.59488000  0.69185000  1.0
  H  H8  1  0.28079000  0.92259000  0.00085000  1.0
  H  H9  1  0.21923000  0.07745000  0.50083000  1.0
  H  H10  1  0.71921000  0.07740000  0.99915000  1.0
  H  H11  1  0.78077000  0.92257000  0.49917000  1.0
  H  H12  1  0.64693000  0.73697000  0.04803000  1.0
  H  H13  1  0.85308000  0.26304000  0.54803000  1.0
  H  H14  1  0.35306000  0.26300000  0.95197000  1.0
  H  H15  1  0.14693000  0.73697000  0.45197000  1.0
  H  H16  1  0.82573000  0.49529000  0.96800000  1.0
  H  H17  1  0.67427000  0.50471000  0.46800000  1.0
  H  H18  1  0.17425000  0.50468000  0.03199000  1.0
  H  H19  1  0.32574000  0.49531000  0.53200000  1.0
  H  H20  1  0.10659000  0.08953000  0.88360000  1.0
  H  H21  1  0.39341000  0.91049000  0.38359000  1.0
  H  H22  1  0.89338000  0.91049000  0.11641000  1.0
  H  H23  1  0.60659000  0.08951000  0.61641000  1.0
  H  H24  1  0.92656000  0.68074000  0.84699000  1.0
  H  H25  1  0.57345000  0.31926000  0.34697000  1.0
  H  H26  1  0.07343000  0.31926000  0.15303000  1.0
  H  H27  1  0.42657000  0.68073000  0.65303000  1.0
  H  H28  1  0.55577000  0.86198000  0.80416000  1.0
  H  H29  1  0.94424000  0.13801000  0.30416000  1.0
  H  H30  1  0.44423000  0.13802000  0.19584000  1.0
  H  H31  1  0.05578000  0.86198000  0.69584000  1.0
  H  H32  1  0.48148000  0.14944000  0.80283000  1.0
  H  H33  1  0.01852000  0.85056000  0.30282000  1.0
  H  H34  1  0.51852000  0.85056000  0.19717000  1.0
  H  H35  1  0.98149000  0.14943000  0.69718000  1.0
  C  C36  1  0.37433000  0.63287000  0.86103000  1.0
  C  C37  1  0.12566000  0.36715000  0.36102000  1.0
  C  C38  1  0.62565000  0.36713000  0.13896000  1.0
  C  C39  1  0.87433000  0.63286000  0.63897000  1.0
  C  C40  1  0.26148000  0.77248000  0.90142000  1.0
  C  C41  1  0.23852000  0.22754000  0.40140000  1.0
  C  C42  1  0.73852000  0.22752000  0.09858000  1.0
  C  C43  1  0.76148000  0.77246000  0.59859000  1.0
  C  C44  1  0.36296000  0.81429000  0.96838000  1.0
  C  C45  1  0.13704000  0.18573000  0.46836000  1.0
  C  C46  1  0.63705000  0.18570000  0.03162000  1.0
  C  C47  1  0.86296000  0.81428000  0.53163000  1.0
  C  C48  1  0.56604000  0.71349000  0.99402000  1.0
  C  C49  1  0.93396000  0.28652000  0.49402000  1.0
  C  C50  1  0.43394000  0.28650000  0.00597000  1.0
  C  C51  1  0.06605000  0.71348000  0.50598000  1.0
  C  C52  1  0.66621000  0.57716000  0.95052000  1.0
  C  C53  1  0.83379000  0.42284000  0.45051000  1.0
  C  C54  1  0.33378000  0.42282000  0.04948000  1.0
  C  C55  1  0.16621000  0.57718000  0.54949000  1.0
  C  C56  1  0.98836000  0.03338000  0.86864000  1.0
  C  C57  1  0.51165000  0.96664000  0.36863000  1.0
  C  C58  1  0.01163000  0.96663000  0.13137000  1.0
  C  C59  1  0.48836000  0.03336000  0.63136000  1.0
  C  C60  1  0.04349000  0.87142000  0.87285000  1.0
  C  C61  1  0.45654000  0.12859000  0.37284000  1.0
  C  C62  1  0.95652000  0.12858000  0.12715000  1.0
  C  C63  1  0.54348000  0.87141000  0.62716000  1.0
  C  C64  1  0.88773000  0.80687000  0.84700000  1.0
  C  C65  1  0.61228000  0.19315000  0.34699000  1.0
  C  C66  1  0.11227000  0.19314000  0.15301000  1.0
  C  C67  1  0.38774000  0.80686000  0.65301000  1.0
  C  C68  1  0.68304000  0.90709000  0.82247000  1.0
  C  C69  1  0.81697000  0.09291000  0.32245000  1.0
  C  C70  1  0.31696000  0.09291000  0.17754000  1.0
  C  C71  1  0.18304000  0.90708000  0.67754000  1.0
  C  C72  1  0.63996000  0.06701000  0.82134000  1.0
  C  C73  1  0.86006000  0.93299000  0.32133000  1.0
  C  C74  1  0.36004000  0.93300000  0.17866000  1.0
  C  C75  1  0.13996000  0.06700000  0.67866000  1.0
  N  N76  1  0.57469000  0.53787000  0.88376000  1.0
  N  N77  1  0.92531000  0.46214000  0.38375000  1.0
  N  N78  1  0.42529000  0.46213000  0.11624000  1.0
  N  N79  1  0.07470000  0.53787000  0.61625000  1.0
  N  N80  1  0.79274000  0.12990000  0.84206000  1.0
  N  N81  1  0.70726000  0.87011000  0.34206000  1.0
  N  N82  1  0.20725000  0.87010000  0.15794000  1.0
  N  N83  1  0.29274000  0.12989000  0.65794000  1.0
  Cl  Cl84  1  0.09332000  0.37576000  0.81526000  1.0
  Cl  Cl85  1  0.40666000  0.62422000  0.31525000  1.0
  Cl  Cl86  1  0.90666000  0.62423000  0.18474000  1.0
  Cl  Cl87  1  0.59333000  0.37578000  0.68475000  1.0
