# generated using pymatgen
data_Mn2H5CSN5O6
_symmetry_space_group_name_H-M   'P 1'
_cell_length_a   6.85929000
_cell_length_b   9.02908000
_cell_length_c   16.13500000
_cell_angle_alpha   89.99950000
_cell_angle_beta   90.00230000
_cell_angle_gamma   89.99860000
_symmetry_Int_Tables_number   1
_chemical_formula_structural   Mn2H5CSN5O6
_chemical_formula_sum   'Mn8 H20 C4 S4 N20 O24'
_cell_volume   999.29021486
_cell_formula_units_Z   4
loop_
 _symmetry_equiv_pos_site_id
 _symmetry_equiv_pos_as_xyz
  1  'x, y, z'
loop_
 _atom_site_type_symbol
 _atom_site_label
 _atom_site_symmetry_multiplicity
 _atom_site_fract_x
 _atom_site_fract_y
 _atom_site_fract_z
 _atom_site_occupancy
  Mn  Mn0  1  0.24992000  0.20469000  0.83601000  1.0
  Mn  Mn1  1  0.74993000  0.29533000  0.33601000  1.0
  Mn  Mn2  1  0.75014000  0.79529000  0.16398000  1.0
  Mn  Mn3  1  0.24997000  0.70468000  0.66399000  1.0
  Mn  Mn4  1  0.49998000  0.49998000  0.50001000  1.0
  Mn  Mn5  1  0.50002000  0.00006000  0.00002000  1.0
  Mn  Mn6  1  0.99998000  0.50003000  0.50000000  1.0
  Mn  Mn7  1  0.00002000  0.99997000  0.00000000  1.0
  H  H8  1  0.87406000  0.33511000  0.69358000  1.0
  H  H9  1  0.12592000  0.16489000  0.19357000  1.0
  H  H10  1  0.37411000  0.66485000  0.30644000  1.0
  H  H11  1  0.62592000  0.83514000  0.80643000  1.0
  H  H12  1  0.12595000  0.66487000  0.30642000  1.0
  H  H13  1  0.87407000  0.83513000  0.80643000  1.0
  H  H14  1  0.62590000  0.33512000  0.69357000  1.0
  H  H15  1  0.37407000  0.16489000  0.19358000  1.0
  H  H16  1  0.24991000  0.21546000  0.00528000  1.0
  H  H17  1  0.25001000  0.52505000  0.83971000  1.0
  H  H18  1  0.25001000  0.47231000  0.93248000  1.0
  H  H19  1  0.75004000  0.28455000  0.50528000  1.0
  H  H20  1  0.74998000  0.97496000  0.33970000  1.0
  H  H21  1  0.74999000  0.02769000  0.43248000  1.0
  H  H22  1  0.74994000  0.78458000  0.99471000  1.0
  H  H23  1  0.75004000  0.47493000  0.16028000  1.0
  H  H24  1  0.75001000  0.52767000  0.06750000  1.0
  H  H25  1  0.25003000  0.71543000  0.49472000  1.0
  H  H26  1  0.25000000  0.02504000  0.66029000  1.0
  H  H27  1  0.25000000  0.97229000  0.56751000  1.0
  C  C28  1  0.74997000  0.24670000  0.79652000  1.0
  C  C29  1  0.24998000  0.25331000  0.29653000  1.0
  C  C30  1  0.25007000  0.75328000  0.20348000  1.0
  C  C31  1  0.74998000  0.74671000  0.70348000  1.0
  S  S32  1  0.24998000  0.32915000  0.64290000  1.0
  S  S33  1  0.75003000  0.17084000  0.14290000  1.0
  S  S34  1  0.75000000  0.67085000  0.35710000  1.0
  S  S35  1  0.25003000  0.82916000  0.85710000  1.0
  N  N36  1  0.65501000  0.11948000  0.90114000  1.0
  N  N37  1  0.58735000  0.19887000  0.83673000  1.0
  N  N38  1  0.34493000  0.38054000  0.40115000  1.0
  N  N39  1  0.41259000  0.30116000  0.33673000  1.0
  N  N40  1  0.15511000  0.88052000  0.09886000  1.0
  N  N41  1  0.08745000  0.80113000  0.16327000  1.0
  N  N42  1  0.84494000  0.61949000  0.59886000  1.0
  N  N43  1  0.91260000  0.69887000  0.66327000  1.0
  N  N44  1  0.34503000  0.88051000  0.09886000  1.0
  N  N45  1  0.41269000  0.80112000  0.16328000  1.0
  N  N46  1  0.65502000  0.61949000  0.59886000  1.0
  N  N47  1  0.58736000  0.69887000  0.66327000  1.0
  N  N48  1  0.84493000  0.11948000  0.90115000  1.0
  N  N49  1  0.91259000  0.19886000  0.83673000  1.0
  N  N50  1  0.15501000  0.38053000  0.40115000  1.0
  N  N51  1  0.08735000  0.30114000  0.33673000  1.0
  N  N52  1  0.74998000  0.33372000  0.72826000  1.0
  N  N53  1  0.24999000  0.16628000  0.22826000  1.0
  N  N54  1  0.25004000  0.66625000  0.27174000  1.0
  N  N55  1  0.74999000  0.83374000  0.77174000  1.0
  O  O56  1  0.42862000  0.32022000  0.59035000  1.0
  O  O57  1  0.57138000  0.17979000  0.09035000  1.0
  O  O58  1  0.92864000  0.67976000  0.40966000  1.0
  O  O59  1  0.07139000  0.82022000  0.90966000  1.0
  O  O60  1  0.57137000  0.67976000  0.40965000  1.0
  O  O61  1  0.42865000  0.82027000  0.90967000  1.0
  O  O62  1  0.07135000  0.32025000  0.59033000  1.0
  O  O63  1  0.92865000  0.17976000  0.09034000  1.0
  O  O64  1  0.24998000  0.46697000  0.69276000  1.0
  O  O65  1  0.24995000  0.20045000  0.70162000  1.0
  O  O66  1  0.24998000  0.13308000  0.96628000  1.0
  O  O67  1  0.24997000  0.43548000  0.87596000  1.0
  O  O68  1  0.75003000  0.03301000  0.19275000  1.0
  O  O69  1  0.75005000  0.29953000  0.20163000  1.0
  O  O70  1  0.74998000  0.36694000  0.46627000  1.0
  O  O71  1  0.74995000  0.06453000  0.37596000  1.0
  O  O72  1  0.75000000  0.53302000  0.30724000  1.0
  O  O73  1  0.75001000  0.79955000  0.29837000  1.0
  O  O74  1  0.75002000  0.86694000  0.03373000  1.0
  O  O75  1  0.75005000  0.56450000  0.12402000  1.0
  O  O76  1  0.24998000  0.96699000  0.80724000  1.0
  O  O77  1  0.25008000  0.70046000  0.79838000  1.0
  O  O78  1  0.25000000  0.63305000  0.53373000  1.0
  O  O79  1  0.25000000  0.93546000  0.62403000  1.0
