# generated using pymatgen
data_ZnH13C20NO7
_symmetry_space_group_name_H-M   'P 1'
_cell_length_a   10.98620000
_cell_length_b   16.37810000
_cell_length_c   17.61540000
_cell_angle_alpha   95.05900000
_cell_angle_beta   90.43020000
_cell_angle_gamma   92.53690000
_symmetry_Int_Tables_number   1
_chemical_formula_structural   ZnH13C20NO7
_chemical_formula_sum   'Zn2 H26 C40 N2 O14'
_cell_volume   3153.94407935
_cell_formula_units_Z   2
loop_
 _symmetry_equiv_pos_site_id
 _symmetry_equiv_pos_as_xyz
  1  'x, y, z'
loop_
 _atom_site_type_symbol
 _atom_site_label
 _atom_site_symmetry_multiplicity
 _atom_site_fract_x
 _atom_site_fract_y
 _atom_site_fract_z
 _atom_site_occupancy
  Zn  Zn0  1  0.50168000  0.41007000  0.50385000  1.0
  Zn  Zn1  1  0.50661000  0.58863000  0.50609000  1.0
  H  H2  1  0.34465000  0.71821000  0.49286000  1.0
  H  H3  1  0.34499000  0.86936000  0.49305000  1.0
  H  H4  1  0.73456000  0.87367000  0.53802000  1.0
  H  H5  1  0.28611000  0.12038000  0.46031000  1.0
  H  H6  1  0.66323000  0.13342000  0.53751000  1.0
  H  H7  1  0.66008000  0.28393000  0.53316000  1.0
  H  H8  1  0.64391000  0.00182000  0.53100000  1.0
  H  H9  1  0.37352000  0.99603000  0.48212000  1.0
  H  H10  1  0.52527000  0.62414000  0.26872000  1.0
  H  H11  1  0.51245000  0.62072000  0.12800000  1.0
  H  H12  1  0.50290000  0.35512000  0.11477000  1.0
  H  H13  1  0.49752000  0.66274000  0.89038000  1.0
  H  H14  1  0.47955000  0.39750000  0.88484000  1.0
  H  H15  1  0.47294000  0.38930000  0.74399000  1.0
  H  H16  1  0.49052000  0.41594000  0.00210000  1.0
  H  H17  1  0.50511000  0.60450000  0.00660000  1.0
  H  H18  1  0.76260000  0.58879000  0.40170000  1.0
  H  H19  1  0.21305000  0.59453000  0.37339000  1.0
  H  H20  1  0.12777000  0.40454000  0.56183000  1.0
  H  H21  1  0.90157000  0.40126000  0.57555000  1.0
  H  H22  1  0.72856000  0.65601000  0.53252000  1.0
  H  H23  1  0.28393000  0.33754000  0.46669000  1.0
  H  H24  1  0.51961000  0.36014000  0.31550000  1.0
  H  H25  1  0.48309000  0.65116000  0.68951000  1.0
  H  H26  1  0.76445000  0.67057000  0.30598000  1.0
  H  H27  1  0.17906000  0.67478000  0.27689000  1.0
  C  C28  1  0.52797000  0.49845000  0.35542000  1.0
  C  C29  1  0.26617000  0.49940000  0.48306000  1.0
  C  C30  1  0.48061000  0.51135000  0.65311000  1.0
  C  C31  1  0.74266000  0.49106000  0.51162000  1.0
  C  C32  1  0.42888000  0.75583000  0.50197000  1.0
  C  C33  1  0.43011000  0.83991000  0.50213000  1.0
  C  C34  1  0.54198000  0.88565000  0.51505000  1.0
  C  C35  1  0.64568000  0.84237000  0.52753000  1.0
  C  C36  1  0.63789000  0.75619000  0.52601000  1.0
  C  C37  1  0.55341000  0.97470000  0.51575000  1.0
  C  C38  1  0.46329000  0.02365000  0.49846000  1.0
  C  C39  1  0.37143000  0.15359000  0.47737000  1.0
  C  C40  1  0.47308000  0.11264000  0.49868000  1.0
  C  C41  1  0.58023000  0.16074000  0.51990000  1.0
  C  C42  1  0.57928000  0.24458000  0.51823000  1.0
  C  C43  1  0.37634000  0.23967000  0.47798000  1.0
  C  C44  1  0.52286000  0.49338000  0.27161000  1.0
  C  C45  1  0.52153000  0.56571000  0.23366000  1.0
  C  C46  1  0.51377000  0.56355000  0.15522000  1.0
  C  C47  1  0.50681000  0.48698000  0.11058000  1.0
  C  C48  1  0.50830000  0.41480000  0.14771000  1.0
  C  C49  1  0.51610000  0.41658000  0.22728000  1.0
  C  C50  1  0.49766000  0.47924000  0.02777000  1.0
  C  C51  1  0.49770000  0.54096000  0.98147000  1.0
  C  C52  1  0.49160000  0.60208000  0.85921000  1.0
  C  C53  1  0.48997000  0.53136000  0.89855000  1.0
  C  C54  1  0.48189000  0.45365000  0.85595000  1.0
  C  C55  1  0.47789000  0.44869000  0.77732000  1.0
  C  C56  1  0.48049000  0.51944000  0.73711000  1.0
  C  C57  1  0.48614000  0.59753000  0.77939000  1.0
  C  C58  1  0.87637000  0.49275000  0.49784000  1.0
  C  C59  1  0.93109000  0.54387000  0.44473000  1.0
  C  C60  1  0.94612000  0.44144000  0.53707000  1.0
  C  C61  1  0.86162000  0.59022000  0.39732000  1.0
  C  C62  1  0.91546000  0.63627000  0.34391000  1.0
  C  C63  1  0.13059000  0.49540000  0.48137000  1.0
  C  C64  1  0.07285000  0.44291000  0.52895000  1.0
  C  C65  1  0.06138000  0.54533000  0.43626000  1.0
  C  C66  1  0.11449000  0.59334000  0.38091000  1.0
  C  C67  1  0.04466000  0.63765000  0.33530000  1.0
  N  N68  1  0.53038000  0.71369000  0.51330000  1.0
  N  N69  1  0.47986000  0.28458000  0.49776000  1.0
  O  O70  1  0.52230000  0.43051000  0.38779000  1.0
  O  O71  1  0.53733000  0.56929000  0.39205000  1.0
  O  O72  1  0.32266000  0.56863000  0.48371000  1.0
  O  O73  1  0.31902000  0.43131000  0.48702000  1.0
  O  O74  1  0.47822000  0.57863000  0.61937000  1.0
  O  O75  1  0.48400000  0.44043000  0.61778000  1.0
  O  O76  1  0.68765000  0.42147000  0.51202000  1.0
  O  O77  1  0.69003000  0.55963000  0.52260000  1.0
  O  O78  1  0.73990000  0.71797000  0.53725000  1.0
  O  O79  1  0.27574000  0.27537000  0.45860000  1.0
  O  O80  1  0.51641000  0.34465000  0.25899000  1.0
  O  O81  1  0.48755000  0.66841000  0.74566000  1.0
  O  O82  1  0.85107000  0.68085000  0.29688000  1.0
  O  O83  1  0.09190000  0.68315000  0.28021000  1.0
