# generated using pymatgen
data_CdH20C28S4(NO)4
_symmetry_space_group_name_H-M   'P 1'
_cell_length_a   5.05178000
_cell_length_b   11.88350000
_cell_length_c   22.81500000
_cell_angle_alpha   90.00000000
_cell_angle_beta   90.00000000
_cell_angle_gamma   100.13800000
_symmetry_Int_Tables_number   1
_chemical_formula_structural   CdH20C28S4(NO)4
_chemical_formula_sum   'Cd2 H40 C56 S8 N8 O8'
_cell_volume   1348.26416175
_cell_formula_units_Z   2
loop_
 _symmetry_equiv_pos_site_id
 _symmetry_equiv_pos_as_xyz
  1  'x, y, z'
loop_
 _atom_site_type_symbol
 _atom_site_label
 _atom_site_symmetry_multiplicity
 _atom_site_fract_x
 _atom_site_fract_y
 _atom_site_fract_z
 _atom_site_occupancy
  Cd  Cd0  1  0.50000000  0.50000000  0.50000000  1.0
  Cd  Cd1  1  0.50000000  0.00000000  0.00000000  1.0
  H  H2  1  0.88619000  0.46104000  0.31818000  1.0
  H  H3  1  0.11381000  0.03896000  0.81818000  1.0
  H  H4  1  0.11381000  0.53896000  0.68182000  1.0
  H  H5  1  0.88619000  0.96104000  0.18182000  1.0
  H  H6  1  0.60605000  0.41773000  0.36595000  1.0
  H  H7  1  0.39395000  0.08227000  0.86595000  1.0
  H  H8  1  0.39395000  0.58227000  0.63405000  1.0
  H  H9  1  0.60605000  0.91773000  0.13405000  1.0
  H  H10  1  0.54831000  0.10079000  0.16748000  1.0
  H  H11  1  0.45170000  0.39921000  0.66748000  1.0
  H  H12  1  0.45170000  0.89921000  0.83253000  1.0
  H  H13  1  0.54831000  0.60079000  0.33253000  1.0
  H  H14  1  0.87386000  0.24417000  0.11404000  1.0
  H  H15  1  0.12615000  0.25583000  0.61404000  1.0
  H  H16  1  0.12614000  0.75583000  0.88596000  1.0
  H  H17  1  0.87386000  0.74417000  0.38596000  1.0
  H  H18  1  0.90213000  0.45315000  0.13406000  1.0
  H  H19  1  0.09787000  0.04685000  0.63406000  1.0
  H  H20  1  0.09787000  0.54685000  0.86594000  1.0
  H  H21  1  0.90214000  0.95315000  0.36594000  1.0
  H  H22  1  0.59833000  0.51964000  0.20725000  1.0
  H  H23  1  0.40167000  0.98036000  0.70725000  1.0
  H  H24  1  0.40167000  0.48036000  0.79275000  1.0
  H  H25  1  0.59833000  0.01964000  0.29275000  1.0
  H  H26  1  0.20697000  0.26872000  0.43483000  1.0
  H  H27  1  0.79303000  0.23128000  0.93483000  1.0
  H  H28  1  0.79303000  0.73128000  0.56517000  1.0
  H  H29  1  0.20697000  0.76872000  0.06517000  1.0
  H  H30  1  0.18462000  0.05992000  0.43404000  1.0
  H  H31  1  0.81538000  0.44008000  0.93404000  1.0
  H  H32  1  0.81538000  0.94008000  0.56596000  1.0
  H  H33  1  0.18462000  0.55992000  0.06596000  1.0
  H  H34  1  0.82074000  0.10807000  0.56371000  1.0
  H  H35  1  0.17926000  0.39193000  0.06371000  1.0
  H  H36  1  0.17926000  0.89193000  0.43629000  1.0
  H  H37  1  0.82074000  0.60807000  0.93629000  1.0
  H  H38  1  0.82117000  0.31563000  0.55677000  1.0
  H  H39  1  0.17883000  0.18437000  0.05677000  1.0
  H  H40  1  0.17883000  0.68437000  0.44323000  1.0
  H  H41  1  0.82117000  0.81562000  0.94323000  1.0
  C  C42  1  0.98750000  0.47495000  0.40967000  1.0
  C  C43  1  0.01250000  0.02505000  0.90967000  1.0
  C  C44  1  0.01250000  0.52505000  0.59033000  1.0
  C  C45  1  0.98750000  0.97495000  0.09033000  1.0
  C  C46  1  0.81986000  0.41542000  0.35907000  1.0
  C  C47  1  0.18013000  0.08458000  0.85907000  1.0
  C  C48  1  0.18013000  0.58458000  0.64093000  1.0
  C  C49  1  0.81987000  0.91542000  0.14093000  1.0
  C  C50  1  0.09344000  0.27843000  0.29415000  1.0
  C  C51  1  0.90656000  0.22157000  0.79415000  1.0
  C  C52  1  0.90656000  0.72157000  0.70585000  1.0
  C  C53  1  0.09344000  0.77843000  0.20585000  1.0
  C  C54  1  0.40848000  0.34803000  0.23021000  1.0
  C  C55  1  0.59153000  0.15197000  0.73021000  1.0
  C  C56  1  0.59152000  0.65198000  0.76979000  1.0
  C  C57  1  0.40848000  0.84802000  0.26979000  1.0
  C  C58  1  0.39786000  0.22962000  0.21869000  1.0
  C  C59  1  0.60214000  0.27038000  0.71869000  1.0
  C  C60  1  0.60215000  0.77038000  0.78131000  1.0
  C  C61  1  0.39785000  0.72962000  0.28131000  1.0
  C  C62  1  0.56288000  0.19147000  0.17685000  1.0
  C  C63  1  0.43713000  0.30853000  0.67685000  1.0
  C  C64  1  0.43712000  0.80853000  0.82315000  1.0
  C  C65  1  0.56288000  0.69147000  0.32315000  1.0
  C  C66  1  0.74436000  0.27335000  0.14672000  1.0
  C  C67  1  0.25565000  0.22665000  0.64672000  1.0
  C  C68  1  0.25564000  0.72665000  0.85328000  1.0
  C  C69  1  0.74436000  0.77335000  0.35328000  1.0
  C  C70  1  0.75772000  0.39044000  0.15777000  1.0
  C  C71  1  0.24228000  0.10956000  0.65777000  1.0
  C  C72  1  0.24228000  0.60956000  0.84223000  1.0
  C  C73  1  0.75772000  0.89043000  0.34223000  1.0
  C  C74  1  0.59044000  0.42881000  0.19890000  1.0
  C  C75  1  0.40956000  0.07119000  0.69890000  1.0
  C  C76  1  0.40956000  0.57119000  0.80110000  1.0
  C  C77  1  0.59044000  0.92881000  0.30110000  1.0
  C  C78  1  0.33900000  0.22917000  0.46294000  1.0
  C  C79  1  0.66100000  0.27083000  0.96294000  1.0
  C  C80  1  0.66100000  0.77083000  0.53706000  1.0
  C  C81  1  0.33900000  0.72917000  0.03706000  1.0
  C  C82  1  0.32886000  0.11155000  0.46290000  1.0
  C  C83  1  0.67114000  0.38845000  0.96290000  1.0
  C  C84  1  0.67114000  0.88845000  0.53710000  1.0
  C  C85  1  0.32886000  0.61155000  0.03710000  1.0
  C  C86  1  0.50217000  0.06241000  0.49921000  1.0
  C  C87  1  0.49782000  0.43760000  0.99921000  1.0
  C  C88  1  0.49782000  0.93760000  0.50079000  1.0
  C  C89  1  0.50217000  0.56241000  0.00079000  1.0
  C  C90  1  0.68029000  0.13817000  0.53397000  1.0
  C  C91  1  0.31971000  0.36183000  0.03397000  1.0
  C  C92  1  0.31971000  0.86183000  0.46603000  1.0
  C  C93  1  0.68029000  0.63817000  0.96603000  1.0
  C  C94  1  0.67952000  0.25487000  0.53142000  1.0
  C  C95  1  0.32048000  0.24513000  0.03142000  1.0
  C  C96  1  0.32048000  0.74513000  0.46858000  1.0
  C  C97  1  0.67952000  0.75487000  0.96858000  1.0
  S  S98  1  0.15954000  0.14980000  0.26397000  1.0
  S  S99  1  0.84046000  0.35020000  0.76398000  1.0
  S  S100  1  0.84047000  0.85020000  0.73602000  1.0
  S  S101  1  0.15954000  0.64980000  0.23603000  1.0
  S  S102  1  0.84282000  0.26721000  0.34708000  1.0
  S  S103  1  0.15718000  0.23279000  0.84708000  1.0
  S  S104  1  0.15718000  0.73279000  0.65292000  1.0
  S  S105  1  0.84282000  0.76721000  0.15292000  1.0
  N  N106  1  0.23427000  0.37266000  0.27332000  1.0
  N  N107  1  0.76573000  0.12734000  0.77332000  1.0
  N  N108  1  0.76573000  0.62734000  0.72668000  1.0
  N  N109  1  0.23427000  0.87266000  0.22668000  1.0
  N  N110  1  0.51213000  0.30063000  0.49652000  1.0
  N  N111  1  0.48787000  0.19937000  0.99652000  1.0
  N  N112  1  0.48787000  0.69937000  0.50348000  1.0
  N  N113  1  0.51213000  0.80063000  0.00348000  1.0
  O  O114  1  0.22590000  0.45713000  0.41636000  1.0
  O  O115  1  0.77410000  0.04287000  0.91636000  1.0
  O  O116  1  0.77410000  0.54287000  0.58364000  1.0
  O  O117  1  0.22590000  0.95713000  0.08364000  1.0
  O  O118  1  0.87776000  0.54392000  0.43997000  1.0
  O  O119  1  0.12224000  0.95608000  0.93997000  1.0
  O  O120  1  0.12224000  0.45608000  0.56003000  1.0
  O  O121  1  0.87776000  0.04392000  0.06003000  1.0
