# generated using pymatgen
data_CuH16C20(NO)6
_symmetry_space_group_name_H-M   'P 1'
_cell_length_a   9.16857000
_cell_length_b   9.27897000
_cell_length_c   14.03540000
_cell_angle_alpha   96.71230000
_cell_angle_beta   101.37890000
_cell_angle_gamma   91.83680000
_symmetry_Int_Tables_number   1
_chemical_formula_structural   CuH16C20(NO)6
_chemical_formula_sum   'Cu2 H32 C40 N12 O12'
_cell_volume   1160.70167819
_cell_formula_units_Z   2
loop_
 _symmetry_equiv_pos_site_id
 _symmetry_equiv_pos_as_xyz
  1  'x, y, z'
loop_
 _atom_site_type_symbol
 _atom_site_label
 _atom_site_symmetry_multiplicity
 _atom_site_fract_x
 _atom_site_fract_y
 _atom_site_fract_z
 _atom_site_occupancy
  Cu  Cu0  1  0.90758000  0.77894000  0.28581000  1.0
  Cu  Cu1  1  0.09241000  0.22107000  0.71419000  1.0
  H  H2  1  0.92687000  0.76766000  0.50930000  1.0
  H  H3  1  0.07312000  0.23234000  0.49070000  1.0
  H  H4  1  0.09981000  0.66039000  0.63811000  1.0
  H  H5  1  0.90017000  0.33961000  0.36189000  1.0
  H  H6  1  0.29975000  0.50800000  0.58954000  1.0
  H  H7  1  0.70024000  0.49200000  0.41047000  1.0
  H  H8  1  0.31886000  0.46708000  0.41286000  1.0
  H  H9  1  0.68114000  0.53293000  0.58715000  1.0
  H  H10  1  0.33647000  0.46547000  0.26570000  1.0
  H  H11  1  0.66353000  0.53453000  0.73429000  1.0
  H  H12  1  0.34701000  0.48644000  0.09177000  1.0
  H  H13  1  0.65298000  0.51356000  0.90823000  1.0
  H  H14  1  0.15753000  0.63207000  0.99466000  1.0
  H  H15  1  0.84247000  0.36792000  0.00535000  1.0
  H  H16  1  0.96744000  0.75263000  0.07838000  1.0
  H  H17  1  0.03256000  0.24737000  0.92161000  1.0
  H  H18  1  0.60824000  0.67795000  0.31177000  1.0
  H  H19  1  0.39175000  0.32205000  0.68824000  1.0
  H  H20  1  0.41963000  0.77155000  0.40408000  1.0
  H  H21  1  0.58036000  0.22843000  0.59592000  1.0
  H  H22  1  0.71897000  0.14955000  0.51597000  1.0
  H  H23  1  0.28103000  0.85044000  0.48404000  1.0
  H  H24  1  0.89509000  0.03858000  0.41940000  1.0
  H  H25  1  0.10490000  0.96141000  0.58060000  1.0
  H  H26  1  0.88036000  0.05909000  0.20421000  1.0
  H  H27  1  0.11963000  0.94092000  0.79578000  1.0
  H  H28  1  0.69675000  0.17027000  0.08607000  1.0
  H  H29  1  0.30326000  0.82975000  0.91392000  1.0
  H  H30  1  0.46068000  0.74614000  0.00598000  1.0
  H  H31  1  0.53933000  0.25388000  0.99401000  1.0
  H  H32  1  0.65405000  0.65328000  0.12715000  1.0
  H  H33  1  0.34595000  0.34674000  0.87284000  1.0
  C  C34  1  0.01762000  0.70458000  0.49018000  1.0
  C  C35  1  0.98237000  0.29542000  0.50983000  1.0
  C  C36  1  0.11433000  0.64387000  0.56238000  1.0
  C  C37  1  0.88567000  0.35614000  0.43762000  1.0
  C  C38  1  0.22524000  0.55902000  0.53459000  1.0
  C  C39  1  0.77476000  0.44097000  0.46542000  1.0
  C  C40  1  0.23705000  0.53805000  0.43650000  1.0
  C  C41  1  0.76296000  0.46195000  0.56351000  1.0
  C  C42  1  0.14009000  0.60684000  0.36839000  1.0
  C  C43  1  0.85991000  0.39316000  0.63161000  1.0
  C  C44  1  0.14957000  0.60232000  0.26465000  1.0
  C  C45  1  0.85043000  0.39768000  0.73535000  1.0
  C  C46  1  0.25729000  0.52976000  0.22267000  1.0
  C  C47  1  0.74272000  0.47024000  0.77733000  1.0
  C  C48  1  0.26180000  0.54009000  0.12502000  1.0
  C  C49  1  0.73820000  0.45990000  0.87498000  1.0
  C  C50  1  0.15713000  0.62079000  0.07103000  1.0
  C  C51  1  0.84287000  0.37921000  0.92897000  1.0
  C  C52  1  0.05173000  0.68855000  0.11715000  1.0
  C  C53  1  0.94826000  0.31144000  0.88285000  1.0
  C  C54  1  0.62771000  0.78113000  0.35947000  1.0
  C  C55  1  0.37229000  0.21886000  0.64053000  1.0
  C  C56  1  0.52373000  0.83508000  0.41160000  1.0
  C  C57  1  0.47627000  0.16491000  0.58841000  1.0
  C  C58  1  0.55309000  0.96958000  0.47097000  1.0
  C  C59  1  0.44691000  0.03041000  0.52904000  1.0
  C  C60  1  0.68841000  0.04443000  0.47262000  1.0
  C  C61  1  0.31159000  0.95556000  0.52739000  1.0
  C  C62  1  0.78846000  0.98378000  0.41964000  1.0
  C  C63  1  0.21153000  0.01621000  0.58036000  1.0
  C  C64  1  0.78591000  0.99396000  0.15800000  1.0
  C  C65  1  0.21409000  0.00605000  0.84200000  1.0
  C  C66  1  0.68081000  0.05496000  0.09134000  1.0
  C  C67  1  0.31919000  0.94505000  0.90865000  1.0
  C  C68  1  0.55810000  0.96896000  0.03495000  1.0
  C  C69  1  0.44190000  0.03106000  0.96503000  1.0
  C  C70  1  0.55032000  0.82134000  0.04799000  1.0
  C  C71  1  0.44968000  0.17868000  0.95199000  1.0
  C  C72  1  0.65957000  0.76746000  0.11571000  1.0
  C  C73  1  0.34043000  0.23257000  0.88428000  1.0
  N  N74  1  0.03206000  0.68869000  0.39626000  1.0
  N  N75  1  0.96794000  0.31132000  0.60375000  1.0
  N  N76  1  0.04830000  0.67980000  0.21123000  1.0
  N  N77  1  0.95171000  0.32020000  0.78877000  1.0
  N  N78  1  0.75937000  0.85367000  0.36452000  1.0
  N  N79  1  0.24062000  0.14633000  0.63547000  1.0
  N  N80  1  0.77550000  0.85235000  0.17037000  1.0
  N  N81  1  0.22450000  0.14767000  0.82963000  1.0
  N  N82  1  0.76431000  0.42965000  0.18354000  1.0
  N  N83  1  0.23570000  0.57036000  0.81646000  1.0
  N  N84  1  0.18163000  0.05927000  0.32694000  1.0
  N  N85  1  0.81838000  0.94071000  0.67306000  1.0
  O  O86  1  0.75186000  0.52197000  0.25588000  1.0
  O  O87  1  0.24813000  0.47805000  0.74411000  1.0
  O  O88  1  0.87508000  0.35168000  0.18897000  1.0
  O  O89  1  0.12493000  0.64832000  0.81103000  1.0
  O  O90  1  0.66398000  0.41879000  0.10555000  1.0
  O  O91  1  0.33603000  0.58121000  0.89444000  1.0
  O  O92  1  0.05019000  0.01356000  0.33557000  1.0
  O  O93  1  0.94981000  0.98645000  0.66444000  1.0
  O  O94  1  0.22746000  0.18711000  0.36397000  1.0
  O  O95  1  0.77259000  0.81285000  0.63604000  1.0
  O  O96  1  0.25940000  0.97556000  0.28381000  1.0
  O  O97  1  0.74058000  0.02440000  0.71617000  1.0
