# generated using pymatgen
data_KH24C18(N2O3)2
_symmetry_space_group_name_H-M   'P 1'
_cell_length_a   7.30301000
_cell_length_b   7.73459000
_cell_length_c   10.41460000
_cell_angle_alpha   71.45030000
_cell_angle_beta   75.91850000
_cell_angle_gamma   84.12320000
_symmetry_Int_Tables_number   1
_chemical_formula_structural   KH24C18(N2O3)2
_chemical_formula_sum   'K1 H24 C18 N4 O6'
_cell_volume   540.75600621
_cell_formula_units_Z   1
loop_
 _symmetry_equiv_pos_site_id
 _symmetry_equiv_pos_as_xyz
  1  'x, y, z'
loop_
 _atom_site_type_symbol
 _atom_site_label
 _atom_site_symmetry_multiplicity
 _atom_site_fract_x
 _atom_site_fract_y
 _atom_site_fract_z
 _atom_site_occupancy
  K  K0  1  0.00000000  0.99999000  0.50000000  1.0
  H  H1  1  0.43192000  0.82445000  0.28495000  1.0
  H  H2  1  0.56808000  0.17555000  0.71504000  1.0
  H  H3  1  0.47505000  0.98577000  0.11529000  1.0
  H  H4  1  0.52495000  0.01423000  0.88471000  1.0
  H  H5  1  0.51432000  0.37984000  0.36132000  1.0
  H  H6  1  0.48568000  0.62015000  0.63868000  1.0
  H  H7  1  0.30121000  0.41178000  0.29969000  1.0
  H  H8  1  0.69879000  0.58821000  0.70032000  1.0
  H  H9  1  0.13060000  0.99075000  0.11635000  1.0
  H  H10  1  0.86939000  0.00925000  0.88365000  1.0
  H  H11  1  0.24948000  0.77349000  0.12522000  1.0
  H  H12  1  0.75052000  0.22651000  0.87478000  1.0
  H  H13  1  0.55525000  0.23010000  0.18497000  1.0
  H  H14  1  0.44475000  0.76990000  0.81503000  1.0
  H  H15  1  0.55006000  0.06124000  0.35045000  1.0
  H  H16  1  0.44994000  0.93876000  0.64955000  1.0
  H  H17  1  0.15317000  0.46778000  0.51735000  1.0
  H  H18  1  0.84683000  0.53222000  0.48265000  1.0
  H  H19  1  0.35201000  0.39866000  0.59473000  1.0
  H  H20  1  0.64800000  0.60133000  0.40528000  1.0
  H  H21  1  0.92678000  0.65844000  0.22109000  1.0
  H  H22  1  0.07322000  0.34156000  0.77891000  1.0
  H  H23  1  0.82568000  0.87429000  0.23375000  1.0
  H  H24  1  0.17432000  0.12571000  0.76625000  1.0
  C  C25  1  0.03997000  0.65813000  0.81887000  1.0
  C  C26  1  0.96004000  0.34187000  0.18113000  1.0
  C  C27  1  0.94971000  0.57068000  0.95646000  1.0
  C  C28  1  0.05030000  0.42933000  0.04354000  1.0
  C  C29  1  0.76222000  0.61897000  0.00838000  1.0
  C  C30  1  0.23780000  0.38103000  0.99162000  1.0
  C  C31  1  0.36777000  0.93829000  0.21306000  1.0
  C  C32  1  0.63223000  0.06171000  0.78694000  1.0
  C  C33  1  0.39207000  0.30956000  0.35835000  1.0
  C  C34  1  0.60793000  0.69044000  0.64165000  1.0
  C  C35  1  0.20009000  0.87398000  0.18220000  1.0
  C  C36  1  0.79990000  0.12602000  0.81779000  1.0
  C  C37  1  0.46487000  0.16544000  0.28810000  1.0
  C  C38  1  0.53513000  0.83456000  0.71189000  1.0
  C  C39  1  0.22825000  0.34821000  0.57507000  1.0
  C  C40  1  0.77175000  0.65179000  0.42493000  1.0
  C  C41  1  0.89746000  0.74863000  0.28745000  1.0
  C  C42  1  0.10254000  0.25137000  0.71254000  1.0
  N  N43  1  0.60593000  0.65354000  0.05814000  1.0
  N  N44  1  0.39407000  0.34647000  0.94186000  1.0
  N  N45  1  0.12435000  0.72326000  0.70433000  1.0
  N  N46  1  0.87565000  0.27674000  0.29568000  1.0
  O  O47  1  0.30815000  0.08299000  0.27246000  1.0
  O  O48  1  0.69185000  0.91701000  0.72754000  1.0
  O  O49  1  0.28739000  0.22324000  0.49633000  1.0
  O  O50  1  0.71261000  0.77676000  0.50367000  1.0
  O  O51  1  0.06961000  0.79317000  0.31025000  1.0
  O  O52  1  0.93038000  0.20683000  0.68975000  1.0
