# generated using pymatgen
data_ZnHC5O4
_symmetry_space_group_name_H-M   'P 1'
_cell_length_a   7.43772000
_cell_length_b   8.18815000
_cell_length_c   9.02192703
_cell_angle_alpha   90.78233943
_cell_angle_beta   114.32547990
_cell_angle_gamma   90.01000000
_symmetry_Int_Tables_number   1
_chemical_formula_structural   ZnHC5O4
_chemical_formula_sum   'Zn4 H4 C20 O16'
_cell_volume   500.60936861
_cell_formula_units_Z   4
loop_
 _symmetry_equiv_pos_site_id
 _symmetry_equiv_pos_as_xyz
  1  'x, y, z'
loop_
 _atom_site_type_symbol
 _atom_site_label
 _atom_site_symmetry_multiplicity
 _atom_site_fract_x
 _atom_site_fract_y
 _atom_site_fract_z
 _atom_site_occupancy
  Zn  Zn0  1  0.12056000  0.43828000  0.38154000  1.0
  Zn  Zn1  1  0.73929000  0.06168000  0.61840000  1.0
  Zn  Zn2  1  0.87944000  0.56172000  0.61846000  1.0
  Zn  Zn3  1  0.26070000  0.93832000  0.38160000  1.0
  H  H4  1  0.74385000  0.74988000  0.99992000  1.0
  H  H5  1  0.25615000  0.25012000  0.00008000  1.0
  H  H6  1  0.07709000  0.75014000  0.00016000  1.0
  H  H7  1  0.92291000  0.24986000  0.99984000  1.0
  C  C8  1  0.38079000  0.67908000  0.12857000  1.0
  C  C9  1  0.25238000  0.82102000  0.87156000  1.0
  C  C10  1  0.61921000  0.32092000  0.87143000  1.0
  C  C11  1  0.74762000  0.17899000  0.12844000  1.0
  C  C12  1  0.56962000  0.67655000  0.12795000  1.0
  C  C13  1  0.44178000  0.82336000  0.87208000  1.0
  C  C14  1  0.43038000  0.32345000  0.87205000  1.0
  C  C15  1  0.55822000  0.17663000  0.12792000  1.0
  C  C16  1  0.59790000  0.74993000  0.00000000  1.0
  C  C17  1  0.40210000  0.25006000  0.00000000  1.0
  C  C18  1  0.22385000  0.75011000  0.00010000  1.0
  C  C19  1  0.77615000  0.24989000  0.99990000  1.0
  C  C20  1  0.32916000  0.60910000  0.25869000  1.0
  C  C21  1  0.07076000  0.89096000  0.74140000  1.0
  C  C22  1  0.67084000  0.39090000  0.74131000  1.0
  C  C23  1  0.92924000  0.10904000  0.25860000  1.0
  C  C24  1  0.73765000  0.59815000  0.26326000  1.0
  C  C25  1  0.47449000  0.90173000  0.73670000  1.0
  C  C26  1  0.26235000  0.40184000  0.73674000  1.0
  C  C27  1  0.52551000  0.09826000  0.26330000  1.0
  O  O28  1  0.27586000  0.46031000  0.24569000  1.0
  O  O29  1  0.03040000  0.03973000  0.75433000  1.0
  O  O30  1  0.72415000  0.53969000  0.75432000  1.0
  O  O31  1  0.96959000  0.96027000  0.24566000  1.0
  O  O32  1  0.31697000  0.70330000  0.36813000  1.0
  O  O33  1  0.94926000  0.79674000  0.63196000  1.0
  O  O34  1  0.68302000  0.29670000  0.63187000  1.0
  O  O35  1  0.05074000  0.20326000  0.36804000  1.0
  O  O36  1  0.70649000  0.55556000  0.38622000  1.0
  O  O37  1  0.32038000  0.94453000  0.61391000  1.0
  O  O38  1  0.29351000  0.44444000  0.61378000  1.0
  O  O39  1  0.67964000  0.05547000  0.38610000  1.0
  O  O40  1  0.89766000  0.57661000  0.24648000  1.0
  O  O41  1  0.65121000  0.92313000  0.75325000  1.0
  O  O42  1  0.10234000  0.42339000  0.75352000  1.0
  O  O43  1  0.34880000  0.07687000  0.24676000  1.0
