# generated using pymatgen
data_Zn4H6C24S4Br4N2O13
_symmetry_space_group_name_H-M   'P 1'
_cell_length_a   19.54340000
_cell_length_b   19.57020000
_cell_length_c   33.15160000
_cell_angle_alpha   79.39010000
_cell_angle_beta   79.51070000
_cell_angle_gamma   64.05170000
_symmetry_Int_Tables_number   1
_chemical_formula_structural   Zn4H6C24S4Br4N2O13
_chemical_formula_sum   'Zn16 H24 C96 S16 Br16 N8 O52'
_cell_volume   11132.16396020
_cell_formula_units_Z   4
loop_
 _symmetry_equiv_pos_site_id
 _symmetry_equiv_pos_as_xyz
  1  'x, y, z'
loop_
 _atom_site_type_symbol
 _atom_site_label
 _atom_site_symmetry_multiplicity
 _atom_site_fract_x
 _atom_site_fract_y
 _atom_site_fract_z
 _atom_site_occupancy
  Zn  Zn0  1  0.60165000  0.94659000  0.51976000  1.0
  Zn  Zn1  1  0.52375000  0.00907000  0.44102000  1.0
  Zn  Zn2  1  0.43176000  0.94762000  0.51711000  1.0
  Zn  Zn3  1  0.44112000  0.09605000  0.52512000  1.0
  Zn  Zn4  1  0.64911000  0.30951000  0.72791000  1.0
  Zn  Zn5  1  0.80158000  0.31791000  0.73341000  1.0
  Zn  Zn6  1  0.73868000  0.22630000  0.81082000  1.0
  Zn  Zn7  1  0.79897000  0.15188000  0.73039000  1.0
  Zn  Zn8  1  0.24208000  0.72541000  0.31068000  1.0
  Zn  Zn9  1  0.31006000  0.64862000  0.22945000  1.0
  Zn  Zn10  1  0.15446000  0.80441000  0.22765000  1.0
  Zn  Zn11  1  0.30638000  0.81490000  0.23402000  1.0
  Zn  Zn12  1  0.93367000  0.44640000  0.01674000  1.0
  Zn  Zn13  1  0.94681000  0.59979000  0.02091000  1.0
  Zn  Zn14  1  0.10005000  0.44171000  0.02248000  1.0
  Zn  Zn15  1  0.02315000  0.50731000  0.94013000  1.0
  H  H16  1  0.75179000  0.54398000  0.66080000  1.0
  H  H17  1  0.30442000  0.51496000  0.39832000  1.0
  H  H18  1  0.02861000  0.80065000  0.40043000  1.0
  H  H19  1  0.01747000  0.05805000  0.65073000  1.0
  H  H20  1  0.23425000  0.44387000  0.85487000  1.0
  H  H21  1  0.84462000  0.82437000  0.95514000  1.0
  H  H22  1  0.73444000  0.69585000  0.11363000  1.0
  H  H23  1  0.97914000  0.21492000  0.09190000  1.0
  H  H24  1  0.45075000  0.67805000  0.58722000  1.0
  H  H25  1  0.44946000  0.76551000  0.56286000  1.0
  H  H26  1  0.47304000  0.22258000  0.31628000  1.0
  H  H27  1  0.47864000  0.15492000  0.35956000  1.0
  H  H28  1  0.74078000  0.93925000  0.31372000  1.0
  H  H29  1  0.67134000  0.96730000  0.35575000  1.0
  H  H30  1  0.19228000  0.25818000  0.61795000  1.0
  H  H31  1  0.27030000  0.20527000  0.58454000  1.0
  H  H32  1  0.52711000  0.29403000  0.93754000  1.0
  H  H33  1  0.59443000  0.28077000  0.89410000  1.0
  H  H34  1  0.92588000  0.85333000  0.76846000  1.0
  H  H35  1  0.89412000  0.95242000  0.75827000  1.0
  H  H36  1  0.55210000  0.50570000  0.13274000  1.0
  H  H37  1  0.46761000  0.56294000  0.16143000  1.0
  H  H38  1  0.30089000  0.06771000  0.14269000  1.0
  H  H39  1  0.30322000  0.98061000  0.16867000  1.0
  C  C40  1  0.69032000  0.93644000  0.43702000  1.0
  C  C41  1  0.43160000  0.93262000  0.43206000  1.0
  C  C42  1  0.55692000  0.82073000  0.55917000  1.0
  C  C43  1  0.30815000  0.06454000  0.56366000  1.0
  C  C44  1  0.56787000  0.06877000  0.56826000  1.0
  C  C45  1  0.44019000  0.17779000  0.44016000  1.0
  C  C46  1  0.68076000  0.44102000  0.68883000  1.0
  C  C47  1  0.81405000  0.32098000  0.81877000  1.0
  C  C48  1  0.57085000  0.30956000  0.81336000  1.0
  C  C49  1  0.81391000  0.05921000  0.81061000  1.0
  C  C50  1  0.67716000  0.18570000  0.68254000  1.0
  C  C51  1  0.92424000  0.19447000  0.68906000  1.0
  C  C52  1  0.31659000  0.55869000  0.31123000  1.0
  C  C53  1  0.18828000  0.67830000  0.17982000  1.0
  C  C54  1  0.07507000  0.80492000  0.31271000  1.0
  C  C55  1  0.18667000  0.93569000  0.18731000  1.0
  C  C56  1  0.31993000  0.81626000  0.31878000  1.0
  C  C57  1  0.43640000  0.69408000  0.19221000  1.0
  C  C58  1  0.82093000  0.56592000  0.06758000  1.0
  C  C59  1  0.07211000  0.56722000  0.06834000  1.0
  C  C60  1  0.05599000  0.31285000  0.05539000  1.0
  C  C61  1  0.19017000  0.44181000  0.94151000  1.0
  C  C62  1  0.92969000  0.43144000  0.93287000  1.0
  C  C63  1  0.93316000  0.67378000  0.93415000  1.0
  C  C64  1  0.59710000  0.09949000  0.59687000  1.0
  C  C65  1  0.64970000  0.15652000  0.65231000  1.0
  C  C66  1  0.55549000  0.17494000  0.60708000  1.0
  C  C67  1  0.69505000  0.08387000  0.63868000  1.0
  C  C68  1  0.57805000  0.20075000  0.63709000  1.0
  C  C69  1  0.66618000  0.05329000  0.61416000  1.0
  C  C70  1  0.40285000  0.90246000  0.40293000  1.0
  C  C71  1  0.34929000  0.84548000  0.34805000  1.0
  C  C72  1  0.36067000  0.85830000  0.41826000  1.0
  C  C73  1  0.39656000  0.88431000  0.33281000  1.0
  C  C74  1  0.32945000  0.83516000  0.39111000  1.0
  C  C75  1  0.41784000  0.91752000  0.35970000  1.0
  C  C76  1  0.53973000  0.70135000  0.59528000  1.0
  C  C77  1  0.69539000  0.56085000  0.65168000  1.0
  C  C78  1  0.58053000  0.74735000  0.58417000  1.0
  C  C79  1  0.65527000  0.51572000  0.66353000  1.0
  C  C80  1  0.65333000  0.62891000  0.62732000  1.0
  C  C81  1  0.58226000  0.63370000  0.62056000  1.0
  C  C82  1  0.42371000  0.26486000  0.37179000  1.0
  C  C83  1  0.33181000  0.46919000  0.37866000  1.0
  C  C84  1  0.41487000  0.25133000  0.41521000  1.0
  C  C85  1  0.34101000  0.48336000  0.33599000  1.0
  C  C86  1  0.36257000  0.38992000  0.39194000  1.0
  C  C87  1  0.39389000  0.34507000  0.35897000  1.0
  C  C88  1  0.78033000  0.91888000  0.36985000  1.0
  C  C89  1  0.98388000  0.82570000  0.38000000  1.0
  C  C90  1  0.76485000  0.91247000  0.41316000  1.0
  C  C91  1  0.99983000  0.83071000  0.33742000  1.0
  C  C92  1  0.90413000  0.85677000  0.39208000  1.0
  C  C93  1  0.86092000  0.88576000  0.35828000  1.0
  C  C94  1  0.19294000  0.15978000  0.60411000  1.0
  C  C95  1  0.03969000  0.10118000  0.64728000  1.0
  C  C96  1  0.23361000  0.08974000  0.58744000  1.0
  C  C97  1  0.99947000  0.16941000  0.66429000  1.0
  C  C98  1  0.11061000  0.09670000  0.62589000  1.0
  C  C99  1  0.12256000  0.16234000  0.62656000  1.0
  C  C100  1  0.84261000  0.35137000  0.84780000  1.0
  C  C101  1  0.89868000  0.40473000  0.90324000  1.0
  C  C102  1  0.80348000  0.36644000  0.88726000  1.0
  C  C103  1  0.93353000  0.39610000  0.86177000  1.0
  C  C104  1  0.83398000  0.38717000  0.91585000  1.0
  C  C105  1  0.90893000  0.36428000  0.83568000  1.0
  C  C106  1  0.48443000  0.33541000  0.88166000  1.0
  C  C107  1  0.28000000  0.42122000  0.87457000  1.0
  C  C108  1  0.49762000  0.33772000  0.83836000  1.0
  C  C109  1  0.26575000  0.41796000  0.91716000  1.0
  C  C110  1  0.35928000  0.39120000  0.86150000  1.0
  C  C111  1  0.40417000  0.36614000  0.89448000  1.0
  C  C112  1  0.88015000  0.91341000  0.81870000  1.0
  C  C113  1  0.86533000  0.81866000  0.92267000  1.0
  C  C114  1  0.83707000  0.98449000  0.83408000  1.0
  C  C115  1  0.90821000  0.74812000  0.90838000  1.0
  C  C116  1  0.85413000  0.87876000  0.89021000  1.0
  C  C117  1  0.88913000  0.85296000  0.85158000  1.0
  C  C118  1  0.15865000  0.64911000  0.15082000  1.0
  C  C119  1  0.10254000  0.59581000  0.09724000  1.0
  C  C120  1  0.09266000  0.63592000  0.16389000  1.0
  C  C121  1  0.16887000  0.60839000  0.08429000  1.0
  C  C122  1  0.06445000  0.60950000  0.13701000  1.0
  C  C123  1  0.19683000  0.63531000  0.11106000  1.0
  C  C124  1  0.54826000  0.60536000  0.14729000  1.0
  C  C125  1  0.70951000  0.65583000  0.11382000  1.0
  C  C126  1  0.51081000  0.67067000  0.16843000  1.0
  C  C127  1  0.74654000  0.59148000  0.09320000  1.0
  C  C128  1  0.63750000  0.66103000  0.13405000  1.0
  C  C129  1  0.62125000  0.60061000  0.12802000  1.0
  C  C130  1  0.20390000  0.05043000  0.14458000  1.0
  C  C131  1  0.03851000  0.19580000  0.09698000  1.0
  C  C132  1  0.16087000  0.00793000  0.16137000  1.0
  C  C133  1  0.08049000  0.23801000  0.08057000  1.0
  C  C134  1  0.08283000  0.12752000  0.12056000  1.0
  C  C135  1  0.15782000  0.11923000  0.12136000  1.0
  S  S136  1  0.66873000  0.70801000  0.60402000  1.0
  S  S137  1  0.56623000  0.55561000  0.64521000  1.0
  S  S138  1  0.36996000  0.33503000  0.43933000  1.0
  S  S139  1  0.38658000  0.40044000  0.31173000  1.0
  S  S140  1  0.84710000  0.86806000  0.43874000  1.0
  S  S141  1  0.91821000  0.87377000  0.31176000  1.0
  S  S142  1  0.18588000  0.02967000  0.59857000  1.0
  S  S143  1  0.04722000  0.22887000  0.65407000  1.0
  S  S144  1  0.41388000  0.37763000  0.81423000  1.0
  S  S145  1  0.34858000  0.37908000  0.94161000  1.0
  S  S146  1  0.80916000  0.97699000  0.88731000  1.0
  S  S147  1  0.93532000  0.75449000  0.85530000  1.0
  S  S148  1  0.56389000  0.72485000  0.16395000  1.0
  S  S149  1  0.69439000  0.53704000  0.09813000  1.0
  S  S150  1  0.06685000  0.05130000  0.14845000  1.0
  S  S151  1  0.17386000  0.19510000  0.09347000  1.0
  Br  Br152  1  0.47143000  0.24531000  0.57839000  1.0
  Br  Br153  1  0.79845000  0.02722000  0.64983000  1.0
  Br  Br154  1  0.50742000  0.29321000  0.65822000  1.0
  Br  Br155  1  0.71925000  0.94795000  0.60710000  1.0
  Br  Br156  1  0.34802000  0.82482000  0.47550000  1.0
  Br  Br157  1  0.43725000  0.88751000  0.27631000  1.0
  Br  Br158  1  0.25645000  0.79465000  0.41335000  1.0
  Br  Br159  1  0.46155000  0.98767000  0.33606000  1.0
  Br  Br160  1  0.70670000  0.36182000  0.90031000  1.0
  Br  Br161  1  0.01034000  0.43044000  0.83735000  1.0
  Br  Br162  1  0.78657000  0.38541000  0.97110000  1.0
  Br  Br163  1  0.96615000  0.33542000  0.78406000  1.0
  Br  Br164  1  0.04394000  0.65288000  0.21829000  1.0
  Br  Br165  1  0.21873000  0.58900000  0.03032000  1.0
  Br  Br166  1  0.97564000  0.59066000  0.15351000  1.0
  Br  Br167  1  0.28516000  0.65491000  0.09419000  1.0
  N  N168  1  0.46907000  0.71980000  0.58469000  1.0
  N  N169  1  0.45403000  0.20962000  0.34586000  1.0
  N  N170  1  0.72644000  0.95356000  0.34289000  1.0
  N  N171  1  0.21620000  0.21732000  0.59861000  1.0
  N  N172  1  0.54013000  0.30979000  0.90734000  1.0
  N  N173  1  0.91090000  0.90411000  0.77873000  1.0
  N  N174  1  0.51868000  0.55552000  0.14452000  1.0
  N  N175  1  0.27887000  0.02831000  0.14874000  1.0
  O  O176  1  0.49951000  0.00010000  0.50080000  1.0
  O  O177  1  0.68796000  0.91829000  0.47625000  1.0
  O  O178  1  0.49671000  0.93433000  0.42109000  1.0
  O  O179  1  0.49369000  0.84502000  0.54284000  1.0
  O  O180  1  0.63115000  0.97433000  0.41692000  1.0
  O  O181  1  0.60064000  0.85569000  0.55526000  1.0
  O  O182  1  0.38879000  0.95392000  0.46524000  1.0
  O  O183  1  0.33887000  0.99590000  0.55399000  1.0
  O  O184  1  0.49603000  0.08806000  0.57230000  1.0
  O  O185  1  0.33880000  0.11297000  0.55384000  1.0
  O  O186  1  0.61709000  0.02605000  0.54252000  1.0
  O  O187  1  0.47039000  0.11786000  0.42054000  1.0
  O  O188  1  0.43104000  0.17793000  0.47953000  1.0
  O  O189  1  0.74748000  0.25187000  0.75076000  1.0
  O  O190  1  0.63108000  0.41325000  0.70117000  1.0
  O  O191  1  0.79895000  0.36070000  0.78402000  1.0
  O  O192  1  0.63118000  0.28111000  0.83260000  1.0
  O  O193  1  0.75061000  0.41019000  0.69622000  1.0
  O  O194  1  0.57000000  0.31462000  0.77421000  1.0
  O  O195  1  0.80836000  0.25826000  0.83184000  1.0
  O  O196  1  0.77124000  0.11741000  0.83005000  1.0
  O  O197  1  0.71820000  0.13623000  0.70912000  1.0
  O  O198  1  0.83768000  0.06232000  0.77149000  1.0
  O  O199  1  0.65748000  0.25739000  0.67949000  1.0
  O  O200  1  0.90182000  0.25669000  0.70514000  1.0
  O  O201  1  0.88853000  0.15202000  0.69218000  1.0
  O  O202  1  0.25282000  0.74768000  0.25033000  1.0
  O  O203  1  0.27509000  0.61644000  0.33081000  1.0
  O  O204  1  0.24664000  0.62915000  0.19664000  1.0
  O  O205  1  0.07404000  0.81116000  0.27365000  1.0
  O  O206  1  0.33876000  0.55999000  0.27236000  1.0
  O  O207  1  0.13405000  0.77887000  0.33217000  1.0
  O  O208  1  0.15142000  0.74869000  0.18432000  1.0
  O  O209  1  0.13788000  0.90697000  0.20106000  1.0
  O  O210  1  0.29855000  0.85921000  0.28552000  1.0
  O  O211  1  0.25741000  0.90498000  0.19492000  1.0
  O  O212  1  0.31854000  0.75105000  0.32967000  1.0
  O  O213  1  0.40107000  0.65072000  0.19393000  1.0
  O  O214  1  0.41080000  0.75538000  0.20979000  1.0
  O  O215  1  0.00126000  0.49960000  0.00062000  1.0
  O  O216  1  0.84405000  0.50088000  0.05456000  1.0
  O  O217  1  0.01704000  0.61769000  0.04951000  1.0
  O  O218  1  0.10606000  0.34061000  0.04661000  1.0
  O  O219  1  0.85538000  0.61014000  0.06034000  1.0
  O  O220  1  0.98823000  0.34326000  0.04468000  1.0
  O  O221  1  0.10493000  0.49573000  0.06606000  1.0
  O  O222  1  0.18875000  0.42939000  0.98092000  1.0
  O  O223  1  0.99593000  0.43103000  0.92283000  1.0
  O  O224  1  0.13249000  0.47272000  0.92097000  1.0
  O  O225  1  0.88816000  0.45280000  0.96651000  1.0
  O  O226  1  0.91512000  0.67656000  0.97303000  1.0
  O  O227  1  0.97069000  0.61370000  0.91560000  1.0
