# generated using pymatgen
data_MnH8CS(N2O3)2
_symmetry_space_group_name_H-M   'P 1'
_cell_length_a   7.10684000
_cell_length_b   7.84366000
_cell_length_c   14.03890000
_cell_angle_alpha   89.99990000
_cell_angle_beta   89.09270000
_cell_angle_gamma   89.99950000
_symmetry_Int_Tables_number   1
_chemical_formula_structural   MnH8CS(N2O3)2
_chemical_formula_sum   'Mn4 H32 C4 S4 N16 O24'
_cell_volume   782.48122295
_cell_formula_units_Z   4
loop_
 _symmetry_equiv_pos_site_id
 _symmetry_equiv_pos_as_xyz
  1  'x, y, z'
loop_
 _atom_site_type_symbol
 _atom_site_label
 _atom_site_symmetry_multiplicity
 _atom_site_fract_x
 _atom_site_fract_y
 _atom_site_fract_z
 _atom_site_occupancy
  Mn  Mn0  1  0.44766000  0.40834000  0.62037000  1.0
  Mn  Mn1  1  0.05235000  0.90835000  0.87963000  1.0
  Mn  Mn2  1  0.55234000  0.59166000  0.37963000  1.0
  Mn  Mn3  1  0.94766000  0.09165000  0.12037000  1.0
  H  H4  1  0.64798000  0.13949000  0.53801000  1.0
  H  H5  1  0.85203000  0.63949000  0.96199000  1.0
  H  H6  1  0.35203000  0.86051000  0.46199000  1.0
  H  H7  1  0.14798000  0.36051000  0.03801000  1.0
  H  H8  1  0.53856000  0.06278000  0.62932000  1.0
  H  H9  1  0.96143000  0.56278000  0.87069000  1.0
  H  H10  1  0.46143000  0.93722000  0.37068000  1.0
  H  H11  1  0.03857000  0.43722000  0.12931000  1.0
  H  H12  1  0.16171000  0.13478000  0.60733000  1.0
  H  H13  1  0.33830000  0.63478000  0.89267000  1.0
  H  H14  1  0.83830000  0.86522000  0.39267000  1.0
  H  H15  1  0.66170000  0.36522000  0.10733000  1.0
  H  H16  1  0.05910000  0.32112000  0.64084000  1.0
  H  H17  1  0.44090000  0.82112000  0.85916000  1.0
  H  H18  1  0.94090000  0.67888000  0.35916000  1.0
  H  H19  1  0.55910000  0.17888000  0.14084000  1.0
  H  H20  1  0.97384000  0.21894000  0.47662000  1.0
  H  H21  1  0.52616000  0.71894000  0.02338000  1.0
  H  H22  1  0.02616000  0.78106000  0.52338000  1.0
  H  H23  1  0.47383000  0.28106000  0.97662000  1.0
  H  H24  1  0.05721000  0.31770000  0.31651000  1.0
  H  H25  1  0.44279000  0.81771000  0.18349000  1.0
  H  H26  1  0.94279000  0.68228000  0.68349000  1.0
  H  H27  1  0.55720000  0.18229000  0.81651000  1.0
  H  H28  1  0.36682000  0.38247000  0.24713000  1.0
  H  H29  1  0.13318000  0.88248000  0.25287000  1.0
  H  H30  1  0.63319000  0.61752000  0.75287000  1.0
  H  H31  1  0.86682000  0.11752000  0.74713000  1.0
  H  H32  1  0.22771000  0.55165000  0.24556000  1.0
  H  H33  1  0.27228000  0.05166000  0.25444000  1.0
  H  H34  1  0.77228000  0.44834000  0.75444000  1.0
  H  H35  1  0.72771000  0.94834000  0.74556000  1.0
  C  C36  1  0.20853000  0.36839000  0.43991000  1.0
  C  C37  1  0.29148000  0.86839000  0.06009000  1.0
  C  C38  1  0.79148000  0.63161000  0.56009000  1.0
  C  C39  1  0.70853000  0.13161000  0.93991000  1.0
  S  S40  1  0.27696000  0.81397000  0.65900000  1.0
  S  S41  1  0.22304000  0.31397000  0.84100000  1.0
  S  S42  1  0.72304000  0.18602000  0.34100000  1.0
  S  S43  1  0.77696000  0.68603000  0.15900000  1.0
  N  N44  1  0.15119000  0.26344000  0.59414000  1.0
  N  N45  1  0.34882000  0.76344000  0.90587000  1.0
  N  N46  1  0.84882000  0.73656000  0.40586000  1.0
  N  N47  1  0.65118000  0.23656000  0.09413000  1.0
  N  N48  1  0.09053000  0.28428000  0.49983000  1.0
  N  N49  1  0.40947000  0.78428000  0.00018000  1.0
  N  N50  1  0.90948000  0.71572000  0.50017000  1.0
  N  N51  1  0.59052000  0.21572000  0.99982000  1.0
  N  N52  1  0.16372000  0.38662000  0.34712000  1.0
  N  N53  1  0.33628000  0.88663000  0.15288000  1.0
  N  N54  1  0.83628000  0.61337000  0.65288000  1.0
  N  N55  1  0.66372000  0.11337000  0.84712000  1.0
  N  N56  1  0.29849000  0.47019000  0.28924000  1.0
  N  N57  1  0.20152000  0.97019000  0.21076000  1.0
  N  N58  1  0.70152000  0.52981000  0.71075000  1.0
  N  N59  1  0.79848000  0.02981000  0.78924000  1.0
  O  O60  1  0.35870000  0.43360000  0.47042000  1.0
  O  O61  1  0.14130000  0.93360000  0.02958000  1.0
  O  O62  1  0.64130000  0.56641000  0.52958000  1.0
  O  O63  1  0.85871000  0.06641000  0.97042000  1.0
  O  O64  1  0.59802000  0.16745000  0.60303000  1.0
  O  O65  1  0.90199000  0.66745000  0.89697000  1.0
  O  O66  1  0.40198000  0.83255000  0.39697000  1.0
  O  O67  1  0.09802000  0.33255000  0.10303000  1.0
  O  O68  1  0.28156000  0.62758000  0.64439000  1.0
  O  O69  1  0.21844000  0.12756000  0.85561000  1.0
  O  O70  1  0.71844000  0.37242000  0.35561000  1.0
  O  O71  1  0.78156000  0.87244000  0.14438000  1.0
  O  O72  1  0.11521000  0.85111000  0.72561000  1.0
  O  O73  1  0.38481000  0.35111000  0.77438000  1.0
  O  O74  1  0.88480000  0.14889000  0.27439000  1.0
  O  O75  1  0.61520000  0.64890000  0.22562000  1.0
  O  O76  1  0.45765000  0.87883000  0.69653000  1.0
  O  O77  1  0.04232000  0.37884000  0.80346000  1.0
  O  O78  1  0.54234000  0.12116000  0.30347000  1.0
  O  O79  1  0.95767000  0.62117000  0.19653000  1.0
  O  O80  1  0.23539000  0.90126000  0.56619000  1.0
  O  O81  1  0.26462000  0.40126000  0.93382000  1.0
  O  O82  1  0.76461000  0.09874000  0.43382000  1.0
  O  O83  1  0.73538000  0.59874000  0.06618000  1.0
