# generated using pymatgen
data_MgH8C14NO4
_symmetry_space_group_name_H-M   'P 1'
_cell_length_a   6.83772000
_cell_length_b   42.29140000
_cell_length_c   42.29520000
_cell_angle_alpha   119.72200000
_cell_angle_beta   93.08690000
_cell_angle_gamma   93.08210000
_symmetry_Int_Tables_number   1
_chemical_formula_structural   MgH8C14NO4
_chemical_formula_sum   'Mg6 H48 C84 N6 O24'
_cell_volume   10560.55022247
_cell_formula_units_Z   6
loop_
 _symmetry_equiv_pos_site_id
 _symmetry_equiv_pos_as_xyz
  1  'x, y, z'
loop_
 _atom_site_type_symbol
 _atom_site_label
 _atom_site_symmetry_multiplicity
 _atom_site_fract_x
 _atom_site_fract_y
 _atom_site_fract_z
 _atom_site_occupancy
  Mg  Mg0  1  0.49878000  0.63928000  0.32816000  1.0
  Mg  Mg1  1  0.17065000  0.67180000  0.31114000  1.0
  Mg  Mg2  1  0.85937000  0.68886000  0.36070000  1.0
  Mg  Mg3  1  0.34507000  0.35900000  0.66854000  1.0
  Mg  Mg4  1  0.67655000  0.33145000  0.69044000  1.0
  Mg  Mg5  1  0.98613000  0.30955000  0.64098000  1.0
  H  H6  1  0.41979000  0.55551000  0.11255000  1.0
  H  H7  1  0.30704000  0.88741000  0.44292000  1.0
  H  H8  1  0.86425000  0.55708000  0.44454000  1.0
  H  H9  1  0.93422000  0.53399000  0.09760000  1.0
  H  H10  1  0.83628000  0.90235000  0.43625000  1.0
  H  H11  1  0.40025000  0.56370000  0.46605000  1.0
  H  H12  1  0.05035000  0.50103000  0.03635000  1.0
  H  H13  1  0.01363000  0.96361000  0.46465000  1.0
  H  H14  1  0.54949000  0.53533000  0.49893000  1.0
  H  H15  1  0.07411000  0.45279000  0.98565000  1.0
  H  H16  1  0.08787000  0.01430000  0.46715000  1.0
  H  H17  1  0.62112000  0.53290000  0.54723000  1.0
  H  H18  1  0.21916000  0.42618000  0.92683000  1.0
  H  H19  1  0.29190000  0.07309000  0.49934000  1.0
  H  H20  1  0.79277000  0.50070000  0.57385000  1.0
  H  H21  1  0.00351000  0.43357000  0.84870000  1.0
  H  H22  1  0.15446000  0.15126000  0.58488000  1.0
  H  H23  1  0.56984000  0.41518000  0.56645000  1.0
  H  H24  1  0.02322000  0.38504000  0.79402000  1.0
  H  H25  1  0.22903000  0.20599000  0.59106000  1.0
  H  H26  1  0.63799000  0.40901000  0.61500000  1.0
  H  H27  1  0.72236000  0.40337000  0.77572000  1.0
  H  H28  1  0.94660000  0.22419000  0.62758000  1.0
  H  H29  1  0.31894000  0.37238000  0.59658000  1.0
  H  H30  1  0.62158000  0.42433000  0.83905000  1.0
  H  H31  1  0.78224000  0.16088000  0.58527000  1.0
  H  H32  1  0.19697000  0.41475000  0.57566000  1.0
  H  H33  1  0.79021000  0.47255000  0.88721000  1.0
  H  H34  1  0.90291000  0.11274000  0.58540000  1.0
  H  H35  1  0.31759000  0.41468000  0.52742000  1.0
  H  H36  1  0.64758000  0.49956000  0.94607000  1.0
  H  H37  1  0.70129000  0.05390000  0.55356000  1.0
  H  H38  1  0.14791000  0.44655000  0.50044000  1.0
  H  H39  1  0.47128000  0.49625000  0.98771000  1.0
  H  H40  1  0.48315000  0.01224000  0.50854000  1.0
  H  H41  1  0.97521000  0.49152000  0.50377000  1.0
  H  H42  1  0.35741000  0.53038000  0.04905000  1.0
  H  H43  1  0.30798000  0.95088000  0.48126000  1.0
  H  H44  1  0.82706000  0.51874000  0.46966000  1.0
  H  H45  1  0.85051000  0.61750000  0.20947000  1.0
  H  H46  1  0.64071000  0.79050000  0.40804000  1.0
  H  H47  1  0.23286000  0.59198000  0.38252000  1.0
  H  H48  1  0.14148000  0.59679000  0.21807000  1.0
  H  H49  1  0.92306000  0.78195000  0.37874000  1.0
  H  H50  1  0.54446000  0.62128000  0.40324000  1.0
  H  H51  1  0.26482000  0.57099000  0.15817000  1.0
  H  H52  1  0.10632000  0.84185000  0.41288000  1.0
  H  H53  1  0.69357000  0.58714000  0.42899000  1.0
  C  C54  1  0.67981000  0.57447000  0.14544000  1.0
  C  C55  1  0.53419000  0.85453000  0.42899000  1.0
  C  C56  1  0.10522000  0.57101000  0.42557000  1.0
  C  C57  1  0.63874000  0.53493000  0.07779000  1.0
  C  C58  1  0.56059000  0.92216000  0.45701000  1.0
  C  C59  1  0.10388000  0.54297000  0.46515000  1.0
  C  C60  1  0.83379000  0.52566000  0.07353000  1.0
  C  C61  1  0.75985000  0.92643000  0.45201000  1.0
  C  C62  1  0.30820000  0.54796000  0.47440000  1.0
  C  C63  1  0.89698000  0.50700000  0.03877000  1.0
  C  C64  1  0.85781000  0.96119000  0.46818000  1.0
  C  C65  1  0.39015000  0.53183000  0.49302000  1.0
  C  C66  1  0.77239000  0.49657000  0.00700000  1.0
  C  C67  1  0.76492000  0.99294000  0.48956000  1.0
  C  C68  1  0.27593000  0.51049000  0.50344000  1.0
  C  C69  1  0.85052000  0.47878000  0.97090000  1.0
  C  C70  1  0.87912000  0.02905000  0.50790000  1.0
  C  C71  1  0.37166000  0.49217000  0.52124000  1.0
  C  C72  1  0.01193000  0.45772000  0.96435000  1.0
  C  C73  1  0.04701000  0.03559000  0.49337000  1.0
  C  C74  1  0.55403000  0.50668000  0.54231000  1.0
  C  C75  1  0.09409000  0.44218000  0.93111000  1.0
  C  C76  1  0.16255000  0.06883000  0.51107000  1.0
  C  C77  1  0.65169000  0.48899000  0.55786000  1.0
  C  C78  1  0.01446000  0.44741000  0.90290000  1.0
  C  C79  1  0.11126000  0.09705000  0.54452000  1.0
  C  C80  1  0.56689000  0.45553000  0.55260000  1.0
  C  C81  1  0.27413000  0.42163000  0.86006000  1.0
  C  C82  1  0.41362000  0.13989000  0.56154000  1.0
  C  C83  1  0.85236000  0.43851000  0.57840000  1.0
  C  C84  1  0.31562000  0.40800000  0.82120000  1.0
  C  C85  1  0.49414000  0.17875000  0.58678000  1.0
  C  C86  1  0.90745000  0.41329000  0.59204000  1.0
  C  C87  1  0.17694000  0.39050000  0.79101000  1.0
  C  C88  1  0.38580000  0.20898000  0.59950000  1.0
  C  C89  1  0.78632000  0.40056000  0.60954000  1.0
  C  C90  1  0.22961000  0.37712000  0.75502000  1.0
  C  C91  1  0.47466000  0.24496000  0.62208000  1.0
  C  C92  1  0.85258000  0.37796000  0.62291000  1.0
  C  C93  1  0.43079000  0.38245000  0.74937000  1.0
  C  C94  1  0.68151000  0.25060000  0.63302000  1.0
  C  C95  1  0.04844000  0.36698000  0.61757000  1.0
  C  C96  1  0.56940000  0.40002000  0.78043000  1.0
  C  C97  1  0.78891000  0.21951000  0.61953000  1.0
  C  C98  1  0.16930000  0.38045000  0.59997000  1.0
  C  C99  1  0.51394000  0.41185000  0.81518000  1.0
  C  C100  1  0.69850000  0.18476000  0.59665000  1.0
  C  C101  1  0.10185000  0.40338000  0.58816000  1.0
  C  C102  1  0.07509000  0.35657000  0.72452000  1.0
  C  C103  1  0.35064000  0.27547000  0.63206000  1.0
  C  C104  1  0.71860000  0.36796000  0.64342000  1.0
  C  C105  1  0.85240000  0.46803000  0.90882000  1.0
  C  C106  1  0.94345000  0.09111000  0.55925000  1.0
  C  C107  1  0.38431000  0.44083000  0.53195000  1.0
  C  C108  1  0.77181000  0.48329000  0.94216000  1.0
  C  C109  1  0.82936000  0.05780000  0.54119000  1.0
  C  C110  1  0.28836000  0.45891000  0.51671000  1.0
  C  C111  1  0.57564000  0.50488000  0.01158000  1.0
  C  C112  1  0.56362000  0.98836000  0.49327000  1.0
  C  C113  1  0.07090000  0.50678000  0.49514000  1.0
  C  C114  1  0.51016000  0.52380000  0.04629000  1.0
  C  C115  1  0.46344000  0.95366000  0.47742000  1.0
  C  C116  1  0.98640000  0.52257000  0.47624000  1.0
  C  C117  1  0.57356000  0.59135000  0.17921000  1.0
  C  C118  1  0.39402000  0.82078000  0.41214000  1.0
  C  C119  1  0.98202000  0.58786000  0.40866000  1.0
  C  C120  1  0.69481000  0.61273000  0.21140000  1.0
  C  C121  1  0.48307000  0.78858000  0.40135000  1.0
  C  C122  1  0.08189000  0.59867000  0.38729000  1.0
  C  C123  1  0.62593000  0.62765000  0.24598000  1.0
  C  C124  1  0.37955000  0.75401000  0.38169000  1.0
  C  C125  1  0.99797000  0.61830000  0.37234000  1.0
  C  C126  1  0.42209000  0.62102000  0.24909000  1.0
  C  C127  1  0.17258000  0.75091000  0.37196000  1.0
  C  C128  1  0.80071000  0.62803000  0.37896000  1.0
  C  C129  1  0.29790000  0.60111000  0.21617000  1.0
  C  C130  1  0.08137000  0.78384000  0.38499000  1.0
  C  C131  1  0.69654000  0.61503000  0.39889000  1.0
  C  C132  1  0.37085000  0.58649000  0.18214000  1.0
  C  C133  1  0.18836000  0.81787000  0.40439000  1.0
  C  C134  1  0.78411000  0.59562000  0.41351000  1.0
  C  C135  1  0.77266000  0.64907000  0.27755000  1.0
  C  C136  1  0.49472000  0.72243000  0.37154000  1.0
  C  C137  1  0.12335000  0.62844000  0.35092000  1.0
  N  N138  1  0.56776000  0.55446000  0.11237000  1.0
  N  N139  1  0.45516000  0.88759000  0.44201000  1.0
  N  N140  1  0.01328000  0.55799000  0.44561000  1.0
  N  N141  1  0.08847000  0.43230000  0.86839000  1.0
  N  N142  1  0.21972000  0.13157000  0.56391000  1.0
  N  N143  1  0.65604000  0.43614000  0.56771000  1.0
  O  O144  1  0.94568000  0.65781000  0.27315000  1.0
  O  O145  1  0.67205000  0.72683000  0.38472000  1.0
  O  O146  1  0.28755000  0.61527000  0.34214000  1.0
  O  O147  1  0.72179000  0.65811000  0.30979000  1.0
  O  O148  1  0.41176000  0.69018000  0.34832000  1.0
  O  O149  1  0.06357000  0.65168000  0.34191000  1.0
  O  O150  1  0.34751000  0.63253000  0.28127000  1.0
  O  O151  1  0.06589000  0.71873000  0.35128000  1.0
  O  O152  1  0.71456000  0.64868000  0.36743000  1.0
  O  O153  1  0.90106000  0.34970000  0.73023000  1.0
  O  O154  1  0.17094000  0.26977000  0.61947000  1.0
  O  O155  1  0.55143000  0.38053000  0.65029000  1.0
  O  O156  1  0.12003000  0.34561000  0.69149000  1.0
  O  O157  1  0.42858000  0.30850000  0.65414000  1.0
  O  O158  1  0.77449000  0.34588000  0.65436000  1.0
  O  O159  1  0.49603000  0.37124000  0.71645000  1.0
  O  O160  1  0.77967000  0.28352000  0.65471000  1.0
  O  O161  1  0.12489000  0.34527000  0.62878000  1.0
  O  O162  1  0.86225000  0.57799000  0.14775000  1.0
  O  O163  1  0.71428000  0.85219000  0.43016000  1.0
  O  O164  1  0.28419000  0.56982000  0.42207000  1.0
  O  O165  1  0.40331000  0.42357000  0.88274000  1.0
  O  O166  1  0.52005000  0.11720000  0.54078000  1.0
  O  O167  1  0.97958000  0.45924000  0.57646000  1.0
