# generated using pymatgen
data_AgH12C14N5O5F2
_symmetry_space_group_name_H-M   'P 1'
_cell_length_a   7.91923000
_cell_length_b   10.27540000
_cell_length_c   10.38730000
_cell_angle_alpha   108.72800000
_cell_angle_beta   90.00000000
_cell_angle_gamma   90.00000000
_symmetry_Int_Tables_number   1
_chemical_formula_structural   AgH12C14N5O5F2
_chemical_formula_sum   'Ag2 H24 C28 N10 O10 F4'
_cell_volume   800.49546202
_cell_formula_units_Z   2
loop_
 _symmetry_equiv_pos_site_id
 _symmetry_equiv_pos_as_xyz
  1  'x, y, z'
loop_
 _atom_site_type_symbol
 _atom_site_label
 _atom_site_symmetry_multiplicity
 _atom_site_fract_x
 _atom_site_fract_y
 _atom_site_fract_z
 _atom_site_occupancy
  Ag  Ag0  1  0.40080000  0.75000000  0.50000000  1.0
  Ag  Ag1  1  0.59920000  0.25000000  0.50000000  1.0
  H  H2  1  0.09416000  0.26418000  0.25953000  1.0
  H  H3  1  0.09416000  0.23582000  0.74048000  1.0
  H  H4  1  0.90584000  0.73582000  0.74048000  1.0
  H  H5  1  0.90584000  0.76418000  0.25953000  1.0
  H  H6  1  0.69806000  0.58483000  0.35489000  1.0
  H  H7  1  0.69806000  0.91517000  0.64511000  1.0
  H  H8  1  0.30194000  0.41517000  0.64511000  1.0
  H  H9  1  0.30194000  0.08483000  0.35489000  1.0
  H  H10  1  0.52730000  0.18091000  0.11044000  1.0
  H  H11  1  0.52730000  0.31909000  0.88956000  1.0
  H  H12  1  0.47270000  0.81909000  0.88956000  1.0
  H  H13  1  0.47270000  0.68091000  0.11044000  1.0
  H  H14  1  0.19045000  0.48531000  0.37148000  1.0
  H  H15  1  0.19045000  0.01469000  0.62852000  1.0
  H  H16  1  0.80955000  0.51469000  0.62852000  1.0
  H  H17  1  0.80955000  0.98531000  0.37148000  1.0
  H  H18  1  0.91726000  0.14232000  0.05917000  1.0
  H  H19  1  0.91726000  0.35768000  0.94083000  1.0
  H  H20  1  0.08274000  0.85768000  0.94083000  1.0
  H  H21  1  0.08274000  0.64232000  0.05917000  1.0
  H  H22  1  0.96790000  0.03510000  0.15387000  1.0
  H  H23  1  0.96790000  0.46490000  0.84613000  1.0
  H  H24  1  0.03210000  0.96490000  0.84613000  1.0
  H  H25  1  0.03210000  0.53510000  0.15387000  1.0
  C  C26  1  0.59782000  0.50937000  0.31923000  1.0
  C  C27  1  0.59782000  0.99063000  0.68077000  1.0
  C  C28  1  0.40218000  0.49063000  0.68077000  1.0
  C  C29  1  0.40218000  0.00937000  0.31923000  1.0
  C  C30  1  0.62682000  0.38017000  0.22666000  1.0
  C  C31  1  0.62682000  0.11983000  0.77334000  1.0
  C  C32  1  0.37318000  0.61983000  0.77334000  1.0
  C  C33  1  0.37318000  0.88017000  0.22666000  1.0
  C  C34  1  0.50167000  0.28198000  0.18266000  1.0
  C  C35  1  0.50167000  0.21802000  0.81734000  1.0
  C  C36  1  0.49833000  0.71803000  0.81734000  1.0
  C  C37  1  0.49833000  0.78198000  0.18266000  1.0
  C  C38  1  0.33873000  0.32056000  0.23439000  1.0
  C  C39  1  0.33873000  0.17944000  0.76561000  1.0
  C  C40  1  0.66127000  0.67944000  0.76561000  1.0
  C  C41  1  0.66127000  0.82056000  0.23439000  1.0
  C  C42  1  0.31487000  0.45259000  0.32838000  1.0
  C  C43  1  0.31487000  0.04741000  0.67162000  1.0
  C  C44  1  0.68513000  0.54741000  0.67162000  1.0
  C  C45  1  0.68513000  0.95259000  0.32839000  1.0
  C  C46  1  0.18302000  0.12021000  0.08451000  1.0
  C  C47  1  0.18302000  0.37979000  0.91549000  1.0
  C  C48  1  0.81698000  0.87979000  0.91549000  1.0
  C  C49  1  0.81698000  0.62021000  0.08451000  1.0
  C  C50  1  0.00607000  0.06185000  0.06363000  1.0
  C  C51  1  0.00607000  0.43815000  0.93637000  1.0
  C  C52  1  0.99393000  0.93815000  0.93637000  1.0
  C  C53  1  0.99393000  0.56186000  0.06363000  1.0
  N  N54  1  0.44080000  0.54361000  0.36886000  1.0
  N  N55  1  0.44080000  0.95639000  0.63114000  1.0
  N  N56  1  0.55919000  0.45639000  0.63114000  1.0
  N  N57  1  0.55920000  0.04361000  0.36886000  1.0
  N  N58  1  0.19763000  0.23669000  0.19642000  1.0
  N  N59  1  0.19763000  0.26331000  0.80358000  1.0
  N  N60  1  0.80237000  0.76331000  0.80358000  1.0
  N  N61  1  0.80237000  0.73669000  0.19642000  1.0
  N  N62  1  0.99107000  0.75000000  0.50000000  1.0
  N  N63  1  0.00893000  0.25000000  0.50000000  1.0
  O  O64  1  0.30172000  0.06965000  0.00766000  1.0
  O  O65  1  0.30172000  0.43035000  0.99234000  1.0
  O  O66  1  0.69828000  0.93035000  0.99235000  1.0
  O  O67  1  0.69828000  0.56965000  0.00765000  1.0
  O  O68  1  0.07226000  0.72517000  0.59554000  1.0
  O  O69  1  0.07226000  0.77483000  0.40446000  1.0
  O  O70  1  0.92774000  0.27483000  0.40446000  1.0
  O  O71  1  0.92774000  0.22517000  0.59554000  1.0
  O  O72  1  0.83166000  0.75000000  0.50000000  1.0
  O  O73  1  0.16833000  0.25000000  0.50000000  1.0
  F  F74  1  0.78653000  0.35025000  0.17705000  1.0
  F  F75  1  0.78653000  0.14975000  0.82295000  1.0
  F  F76  1  0.21347000  0.64975000  0.82295000  1.0
  F  F77  1  0.21347000  0.85025000  0.17705000  1.0
