# generated using pymatgen
data_ZnH18C17N2(ClO2)2
_symmetry_space_group_name_H-M   'P 1'
_cell_length_a   10.35600000
_cell_length_b   14.57530000
_cell_length_c   14.81720000
_cell_angle_alpha   66.05100000
_cell_angle_beta   89.99990000
_cell_angle_gamma   89.99990000
_symmetry_Int_Tables_number   1
_chemical_formula_structural   ZnH18C17N2(ClO2)2
_chemical_formula_sum   'Zn4 H72 C68 N8 Cl8 O16'
_cell_volume   2043.98524861
_cell_formula_units_Z   4
loop_
 _symmetry_equiv_pos_site_id
 _symmetry_equiv_pos_as_xyz
  1  'x, y, z'
loop_
 _atom_site_type_symbol
 _atom_site_label
 _atom_site_symmetry_multiplicity
 _atom_site_fract_x
 _atom_site_fract_y
 _atom_site_fract_z
 _atom_site_occupancy
  Zn  Zn0  1  0.11829000  0.50671000  0.63181000  1.0
  Zn  Zn1  1  0.61829000  0.99329000  0.86819000  1.0
  Zn  Zn2  1  0.88171000  0.49329000  0.36819000  1.0
  Zn  Zn3  1  0.38171000  0.00671000  0.13181000  1.0
  H  H4  1  0.69340000  0.91241000  0.71876000  1.0
  H  H5  1  0.19340000  0.58759000  0.78124000  1.0
  H  H6  1  0.30660000  0.08759000  0.28124000  1.0
  H  H7  1  0.80660000  0.41241000  0.21876000  1.0
  H  H8  1  0.18867000  0.42310000  0.48465000  1.0
  H  H9  1  0.68867000  0.07690000  0.01535000  1.0
  H  H10  1  0.81133000  0.57690000  0.51535000  1.0
  H  H11  1  0.31133000  0.92310000  0.98465000  1.0
  H  H12  1  0.89925000  0.14910000  0.48582000  1.0
  H  H13  1  0.39925000  0.35090000  0.01418000  1.0
  H  H14  1  0.10075000  0.85090000  0.51418000  1.0
  H  H15  1  0.60075000  0.64910000  0.98582000  1.0
  H  H16  1  0.47379000  0.79597000  0.32039000  1.0
  H  H17  1  0.97379000  0.70403000  0.17961000  1.0
  H  H18  1  0.52621000  0.20403000  0.67961000  1.0
  H  H19  1  0.02621000  0.29597000  0.82039000  1.0
  H  H20  1  0.90694000  0.93921000  0.52560000  1.0
  H  H21  1  0.40694000  0.56079000  0.97440000  1.0
  H  H22  1  0.09306000  0.06079000  0.47440000  1.0
  H  H23  1  0.59306000  0.43921000  0.02560000  1.0
  H  H24  1  0.49144000  0.61372000  0.30378000  1.0
  H  H25  1  0.99143000  0.88628000  0.19623000  1.0
  H  H26  1  0.50856000  0.38629000  0.69622000  1.0
  H  H27  1  0.00857000  0.11372000  0.80378000  1.0
  H  H28  1  0.78151000  0.17335000  0.75443000  1.0
  H  H29  1  0.28151000  0.32664000  0.74557000  1.0
  H  H30  1  0.21849000  0.82665000  0.24557000  1.0
  H  H31  1  0.71849000  0.67335000  0.25443000  1.0
  H  H32  1  0.31941000  0.66112000  0.54572000  1.0
  H  H33  1  0.81941000  0.83888000  0.95428000  1.0
  H  H34  1  0.68059000  0.33888000  0.45428000  1.0
  H  H35  1  0.18059000  0.16112000  0.04572000  1.0
  H  H36  1  0.51772000  0.91034000  0.48684000  1.0
  H  H37  1  0.01772000  0.58966000  0.01316000  1.0
  H  H38  1  0.48228000  0.08967000  0.51316000  1.0
  H  H39  1  0.98228000  0.41034000  0.98684000  1.0
  H  H40  1  0.50558000  0.93145000  0.35929000  1.0
  H  H41  1  0.00558000  0.56855000  0.14071000  1.0
  H  H42  1  0.49442000  0.06855000  0.64071000  1.0
  H  H43  1  0.99442000  0.43145000  0.85929000  1.0
  H  H44  1  0.85882000  0.95073000  0.36513000  1.0
  H  H45  1  0.35882000  0.54927000  0.13487000  1.0
  H  H46  1  0.14118000  0.04927000  0.63487000  1.0
  H  H47  1  0.64118000  0.45073000  0.86513000  1.0
  H  H48  1  0.71077000  0.01257000  0.30965000  1.0
  H  H49  1  0.21078000  0.48744000  0.19035000  1.0
  H  H50  1  0.28923000  0.98743000  0.69035000  1.0
  H  H51  1  0.78922000  0.51256000  0.80965000  1.0
  H  H52  1  0.89545000  0.24674000  0.59063000  1.0
  H  H53  1  0.39545000  0.25326000  0.90937000  1.0
  H  H54  1  0.10455000  0.75326000  0.40937000  1.0
  H  H55  1  0.60455000  0.74674000  0.09063000  1.0
  H  H56  1  0.68400000  0.85078000  0.28587000  1.0
  H  H57  1  0.18400000  0.64922000  0.21413000  1.0
  H  H58  1  0.31600000  0.14922000  0.71413000  1.0
  H  H59  1  0.81600000  0.35078000  0.78587000  1.0
  H  H60  1  0.80869000  0.77734000  0.36775000  1.0
  H  H61  1  0.30870000  0.72266000  0.13225000  1.0
  H  H62  1  0.19130000  0.22266000  0.63225000  1.0
  H  H63  1  0.69130000  0.27734000  0.86775000  1.0
  H  H64  1  0.34561000  0.46365000  0.34490000  1.0
  H  H65  1  0.84561000  0.03635000  0.15510000  1.0
  H  H66  1  0.65440000  0.53635000  0.65510000  1.0
  H  H67  1  0.15440000  0.96365000  0.84490000  1.0
  H  H68  1  0.68508000  0.73930000  0.57392000  1.0
  H  H69  1  0.18508000  0.76070000  0.92608000  1.0
  H  H70  1  0.31492000  0.26070000  0.42608000  1.0
  H  H71  1  0.81492000  0.23930000  0.07392000  1.0
  H  H72  1  0.84280000  0.78338000  0.52808000  1.0
  H  H73  1  0.34280000  0.71662000  0.97191000  1.0
  H  H74  1  0.15720000  0.21662000  0.47192000  1.0
  H  H75  1  0.65720000  0.28338000  0.02809000  1.0
  C  C76  1  0.68668000  0.86275000  0.42739000  1.0
  C  C77  1  0.18668000  0.63725000  0.07261000  1.0
  C  C78  1  0.31332000  0.13725000  0.57261000  1.0
  C  C79  1  0.81332000  0.36275000  0.92739000  1.0
  C  C80  1  0.74068000  0.98551000  0.68799000  1.0
  C  C81  1  0.24068000  0.51449000  0.81201000  1.0
  C  C82  1  0.25932000  0.01449000  0.31201000  1.0
  C  C83  1  0.75932000  0.48551000  0.18799000  1.0
  C  C84  1  0.80143000  0.02081000  0.59618000  1.0
  C  C85  1  0.30143000  0.47919000  0.90382000  1.0
  C  C86  1  0.19857000  0.97919000  0.40382000  1.0
  C  C87  1  0.69857000  0.52081000  0.09618000  1.0
  C  C88  1  0.25619000  0.48545000  0.46551000  1.0
  C  C89  1  0.75619000  0.01455000  0.03449000  1.0
  C  C90  1  0.74381000  0.51455000  0.53449000  1.0
  C  C91  1  0.24381000  0.98545000  0.96551000  1.0
  C  C92  1  0.85615000  0.11667000  0.55932000  1.0
  C  C93  1  0.35615000  0.38333000  0.94068000  1.0
  C  C94  1  0.14385000  0.88333000  0.44068000  1.0
  C  C95  1  0.64385000  0.61667000  0.05932000  1.0
  C  C96  1  0.41644000  0.64845000  0.42219000  1.0
  C  C97  1  0.91644000  0.85155000  0.07782000  1.0
  C  C98  1  0.58355000  0.35155000  0.57782000  1.0
  C  C99  1  0.08356000  0.14845000  0.92219000  1.0
  C  C100  1  0.49721000  0.74120000  0.39627000  1.0
  C  C101  1  0.99721000  0.75880000  0.10373000  1.0
  C  C102  1  0.50279000  0.25880000  0.60373000  1.0
  C  C103  1  0.00279000  0.24120000  0.89627000  1.0
  C  C104  1  0.80543000  0.95843000  0.53638000  1.0
  C  C105  1  0.30544000  0.54157000  0.96362000  1.0
  C  C106  1  0.19457000  0.04157000  0.46362000  1.0
  C  C107  1  0.69457000  0.45843000  0.03638000  1.0
  C  C108  1  0.42367000  0.59198000  0.36525000  1.0
  C  C109  1  0.92367000  0.90802000  0.13476000  1.0
  C  C110  1  0.57633000  0.40802000  0.63476000  1.0
  C  C111  1  0.07633000  0.09198000  0.86524000  1.0
  C  C112  1  0.78943000  0.13224000  0.70738000  1.0
  C  C113  1  0.28942000  0.36775000  0.79262000  1.0
  C  C114  1  0.21057000  0.86776000  0.29262000  1.0
  C  C115  1  0.71058000  0.63225000  0.20738000  1.0
  C  C116  1  0.32877000  0.61896000  0.49987000  1.0
  C  C117  1  0.82877000  0.88104000  0.00013000  1.0
  C  C118  1  0.67123000  0.38104000  0.50013000  1.0
  C  C119  1  0.17123000  0.11896000  0.99987000  1.0
  C  C120  1  0.54084000  0.87931000  0.43265000  1.0
  C  C121  1  0.04084000  0.62068000  0.06735000  1.0
  C  C122  1  0.45916000  0.12069000  0.56735000  1.0
  C  C123  1  0.95916000  0.37932000  0.93265000  1.0
  C  C124  1  0.75677000  0.96369000  0.37954000  1.0
  C  C125  1  0.25677000  0.53631000  0.12046000  1.0
  C  C126  1  0.24323000  0.03631000  0.62046000  1.0
  C  C127  1  0.74323000  0.46369000  0.87954000  1.0
  C  C128  1  0.85205000  0.17239000  0.61657000  1.0
  C  C129  1  0.35205000  0.32761000  0.88343000  1.0
  C  C130  1  0.14795000  0.82761000  0.38343000  1.0
  C  C131  1  0.64795000  0.67239000  0.11657000  1.0
  C  C132  1  0.70836000  0.80340000  0.36370000  1.0
  C  C133  1  0.20836000  0.69660000  0.13629000  1.0
  C  C134  1  0.29164000  0.19660000  0.63629000  1.0
  C  C135  1  0.79164000  0.30340000  0.86371000  1.0
  C  C136  1  0.34302000  0.50933000  0.38757000  1.0
  C  C137  1  0.84302000  0.99067000  0.11243000  1.0
  C  C138  1  0.65698000  0.49067000  0.61243000  1.0
  C  C139  1  0.15698000  0.00933000  0.88757000  1.0
  C  C140  1  0.74194000  0.80650000  0.53148000  1.0
  C  C141  1  0.24194000  0.69350000  0.96852000  1.0
  C  C142  1  0.25806000  0.19350000  0.46852000  1.0
  C  C143  1  0.75806000  0.30650000  0.03148000  1.0
  N  N144  1  0.25036000  0.53924000  0.52067000  1.0
  N  N145  1  0.75036000  0.96076000  0.97933000  1.0
  N  N146  1  0.74964000  0.46076000  0.47933000  1.0
  N  N147  1  0.24964000  0.03924000  0.02067000  1.0
  N  N148  1  0.73339000  0.04090000  0.74176000  1.0
  N  N149  1  0.23339000  0.45910000  0.75824000  1.0
  N  N150  1  0.26661000  0.95910000  0.25824000  1.0
  N  N151  1  0.76661000  0.54090000  0.24176000  1.0
  Cl  Cl152  1  0.01415000  0.37004000  0.63691000  1.0
  Cl  Cl153  1  0.51415000  0.12996000  0.86309000  1.0
  Cl  Cl154  1  0.98584000  0.62996000  0.36309000  1.0
  Cl  Cl155  1  0.48585000  0.87004000  0.13691000  1.0
  Cl  Cl156  1  0.01464000  0.64040000  0.63173000  1.0
  Cl  Cl157  1  0.51464000  0.85960000  0.86827000  1.0
  Cl  Cl158  1  0.98536000  0.35960000  0.36827000  1.0
  Cl  Cl159  1  0.48536000  0.14040000  0.13173000  1.0
  O  O160  1  0.62988000  0.71418000  0.39708000  1.0
  O  O161  1  0.12988000  0.78582000  0.10292000  1.0
  O  O162  1  0.37012000  0.28582000  0.60292000  1.0
  O  O163  1  0.87012000  0.21418000  0.89708000  1.0
  O  O164  1  0.75252000  0.01778000  0.44175000  1.0
  O  O165  1  0.25252000  0.48222000  0.05824000  1.0
  O  O166  1  0.24748000  0.98222000  0.55824000  1.0
  O  O167  1  0.74748000  0.51778000  0.94175000  1.0
  O  O168  1  0.73650000  0.86866000  0.58601000  1.0
  O  O169  1  0.23650000  0.63134000  0.91399000  1.0
  O  O170  1  0.26350000  0.13134000  0.41399000  1.0
  O  O171  1  0.76350000  0.36866000  0.08601000  1.0
  O  O172  1  0.47269000  0.78553000  0.46353000  1.0
  O  O173  1  0.97269000  0.71447000  0.03647000  1.0
  O  O174  1  0.52731000  0.21447000  0.53648000  1.0
  O  O175  1  0.02731000  0.28553000  0.96353000  1.0
