# generated using pymatgen
data_CdH6C10(NO)4
_symmetry_space_group_name_H-M   'P 1'
_cell_length_a   7.99955000
_cell_length_b   9.17250000
_cell_length_c   15.80540000
_cell_angle_alpha   90.00000000
_cell_angle_beta   104.39800000
_cell_angle_gamma   89.99990000
_symmetry_Int_Tables_number   1
_chemical_formula_structural   CdH6C10(NO)4
_chemical_formula_sum   'Cd4 H24 C40 N16 O16'
_cell_volume   1123.30987207
_cell_formula_units_Z   4
loop_
 _symmetry_equiv_pos_site_id
 _symmetry_equiv_pos_as_xyz
  1  'x, y, z'
loop_
 _atom_site_type_symbol
 _atom_site_label
 _atom_site_symmetry_multiplicity
 _atom_site_fract_x
 _atom_site_fract_y
 _atom_site_fract_z
 _atom_site_occupancy
  Cd  Cd0  1  0.43010000  0.50390000  0.37808000  1.0
  Cd  Cd1  1  0.56990000  0.00390000  0.12192000  1.0
  Cd  Cd2  1  0.56990000  0.49609000  0.62192000  1.0
  Cd  Cd3  1  0.43010000  0.99610000  0.87808000  1.0
  H  H4  1  0.16723000  0.99944000  0.11512000  1.0
  H  H5  1  0.83278000  0.49944000  0.38488000  1.0
  H  H6  1  0.83277000  0.00056000  0.88488000  1.0
  H  H7  1  0.16722000  0.50056000  0.61512000  1.0
  H  H8  1  0.55589000  0.27537000  0.24836000  1.0
  H  H9  1  0.44411000  0.77537000  0.25164000  1.0
  H  H10  1  0.44411000  0.72462000  0.75164000  1.0
  H  H11  1  0.55589000  0.22462000  0.74836000  1.0
  H  H12  1  0.34834000  0.88934000  0.37530000  1.0
  H  H13  1  0.65167000  0.38934000  0.12470000  1.0
  H  H14  1  0.65167000  0.11066000  0.62470000  1.0
  H  H15  1  0.34833000  0.61066000  0.87530000  1.0
  H  H16  1  0.11983000  0.25886000  0.44820000  1.0
  H  H17  1  0.88017000  0.75886000  0.05180000  1.0
  H  H18  1  0.88017000  0.74114000  0.55179000  1.0
  H  H19  1  0.11983000  0.24114000  0.94820000  1.0
  H  H20  1  0.23393000  0.91983000  0.62717000  1.0
  H  H21  1  0.76607000  0.41983000  0.87283000  1.0
  H  H22  1  0.76607000  0.08017000  0.37283000  1.0
  H  H23  1  0.23393000  0.58017000  0.12717000  1.0
  H  H24  1  0.05756000  0.35248000  0.27307000  1.0
  H  H25  1  0.94243000  0.85248000  0.22694000  1.0
  H  H26  1  0.94244000  0.64752000  0.72693000  1.0
  H  H27  1  0.05756000  0.14752000  0.77307000  1.0
  C  C28  1  0.38532000  0.73738000  0.53067000  1.0
  C  C29  1  0.61468000  0.23737000  0.96933000  1.0
  C  C30  1  0.61468000  0.26262000  0.46933000  1.0
  C  C31  1  0.38532000  0.76262000  0.03067000  1.0
  C  C32  1  0.30477000  0.88277000  0.50503000  1.0
  C  C33  1  0.69523000  0.38276000  0.99497000  1.0
  C  C34  1  0.69523000  0.11723000  0.49497000  1.0
  C  C35  1  0.30477000  0.61724000  0.00503000  1.0
  C  C36  1  0.29840000  0.94731000  0.42412000  1.0
  C  C37  1  0.70160000  0.44732000  0.07588000  1.0
  C  C38  1  0.70160000  0.05269000  0.57588000  1.0
  C  C39  1  0.29840000  0.55268000  0.92412000  1.0
  C  C40  1  0.17188000  0.14927000  0.46443000  1.0
  C  C41  1  0.82812000  0.64927000  0.03557000  1.0
  C  C42  1  0.82812000  0.85073000  0.53557000  1.0
  C  C43  1  0.17188000  0.35073000  0.96443000  1.0
  C  C44  1  0.23576000  0.96439000  0.56319000  1.0
  C  C45  1  0.76425000  0.46439000  0.93681000  1.0
  C  C46  1  0.76425000  0.03561000  0.43681000  1.0
  C  C47  1  0.23576000  0.53561000  0.06319000  1.0
  C  C48  1  0.89836000  0.12568000  0.17000000  1.0
  C  C49  1  0.10165000  0.62569000  0.33000000  1.0
  C  C50  1  0.10164000  0.87432000  0.83000000  1.0
  C  C51  1  0.89835000  0.37432000  0.66999000  1.0
  C  C52  1  0.08358000  0.17148000  0.18962000  1.0
  C  C53  1  0.91642000  0.67147000  0.31038000  1.0
  C  C54  1  0.91642000  0.82852000  0.81038000  1.0
  C  C55  1  0.08358000  0.32852000  0.68962000  1.0
  C  C56  1  0.20384000  0.09395000  0.15747000  1.0
  C  C57  1  0.79616000  0.59395000  0.34253000  1.0
  C  C58  1  0.79616000  0.90605000  0.84253000  1.0
  C  C59  1  0.20384000  0.40605000  0.65747000  1.0
  C  C60  1  0.41907000  0.24755000  0.23072000  1.0
  C  C61  1  0.58093000  0.74755000  0.26928000  1.0
  C  C62  1  0.58093000  0.75245000  0.76928000  1.0
  C  C63  1  0.41907000  0.25245000  0.73072000  1.0
  C  C64  1  0.14451000  0.28932000  0.24417000  1.0
  C  C65  1  0.85549000  0.78932000  0.25583000  1.0
  C  C66  1  0.85549000  0.71068000  0.75583000  1.0
  C  C67  1  0.14451000  0.21068000  0.74417000  1.0
  N  N68  1  0.31121000  0.32851000  0.26373000  1.0
  N  N69  1  0.68879000  0.82851000  0.23627000  1.0
  N  N70  1  0.68879000  0.67149000  0.73627000  1.0
  N  N71  1  0.31121000  0.17149000  0.76373000  1.0
  N  N72  1  0.37161000  0.13150000  0.17905000  1.0
  N  N73  1  0.62839000  0.63151000  0.32095000  1.0
  N  N74  1  0.62839000  0.86849000  0.82095000  1.0
  N  N75  1  0.37161000  0.36850000  0.67905000  1.0
  N  N76  1  0.23004000  0.07961000  0.40273000  1.0
  N  N77  1  0.76996000  0.57961000  0.09727000  1.0
  N  N78  1  0.76996000  0.92039000  0.59727000  1.0
  N  N79  1  0.23004000  0.42039000  0.90273000  1.0
  N  N80  1  0.17122000  0.09850000  0.54390000  1.0
  N  N81  1  0.82878000  0.59850000  0.95610000  1.0
  N  N82  1  0.82878000  0.90150000  0.45610000  1.0
  N  N83  1  0.17122000  0.40150000  0.04390000  1.0
  O  O84  1  0.49079000  0.68498000  0.48941000  1.0
  O  O85  1  0.50921000  0.18498000  0.01060000  1.0
  O  O86  1  0.50921000  0.31502000  0.51059000  1.0
  O  O87  1  0.49079000  0.81502000  0.98940000  1.0
  O  O88  1  0.35141000  0.67478000  0.59614000  1.0
  O  O89  1  0.64858000  0.17478000  0.90386000  1.0
  O  O90  1  0.64859000  0.32522000  0.40386000  1.0
  O  O91  1  0.35142000  0.82522000  0.09614000  1.0
  O  O92  1  0.84979000  0.02940000  0.10991000  1.0
  O  O93  1  0.15021000  0.52940000  0.39009000  1.0
  O  O94  1  0.15021000  0.97060000  0.89009000  1.0
  O  O95  1  0.84978000  0.47060000  0.60991000  1.0
  O  O96  1  0.80195000  0.18054000  0.21398000  1.0
  O  O97  1  0.19805000  0.68054000  0.28602000  1.0
  O  O98  1  0.19805000  0.81946000  0.78602000  1.0
  O  O99  1  0.80195000  0.31946000  0.71398000  1.0
