# generated using pymatgen
data_ZnH10C16(NO2)2
_symmetry_space_group_name_H-M   'P 1'
_cell_length_a   8.31380000
_cell_length_b   11.17880000
_cell_length_c   14.78190000
_cell_angle_alpha   90.00000000
_cell_angle_beta   90.00030000
_cell_angle_gamma   90.00000000
_symmetry_Int_Tables_number   1
_chemical_formula_structural   ZnH10C16(NO2)2
_chemical_formula_sum   'Zn4 H40 C64 N8 O16'
_cell_volume   1373.80476673
_cell_formula_units_Z   4
loop_
 _symmetry_equiv_pos_site_id
 _symmetry_equiv_pos_as_xyz
  1  'x, y, z'
loop_
 _atom_site_type_symbol
 _atom_site_label
 _atom_site_symmetry_multiplicity
 _atom_site_fract_x
 _atom_site_fract_y
 _atom_site_fract_z
 _atom_site_occupancy
  Zn  Zn0  1  0.10597000  0.15074000  0.98541000  1.0
  Zn  Zn1  1  0.39403000  0.65074000  0.51459000  1.0
  Zn  Zn2  1  0.89403000  0.84926000  0.01459000  1.0
  Zn  Zn3  1  0.60597000  0.34926000  0.48541000  1.0
  H  H4  1  0.67192000  0.90662000  0.32925000  1.0
  H  H5  1  0.82808000  0.40662000  0.17075000  1.0
  H  H6  1  0.32808000  0.09338000  0.67075000  1.0
  H  H7  1  0.17192000  0.59338000  0.82925000  1.0
  H  H8  1  0.21316000  0.79428000  0.22851000  1.0
  H  H9  1  0.28684000  0.29428000  0.27149000  1.0
  H  H10  1  0.78684000  0.20572000  0.77149000  1.0
  H  H11  1  0.71317000  0.70572000  0.72851000  1.0
  H  H12  1  0.48698000  0.05553000  0.08047000  1.0
  H  H13  1  0.01302000  0.55553000  0.41953000  1.0
  H  H14  1  0.51302000  0.94447000  0.91953000  1.0
  H  H15  1  0.98698000  0.44447000  0.58047000  1.0
  H  H16  1  0.85194000  0.01505000  0.17870000  1.0
  H  H17  1  0.64806000  0.51505000  0.32130000  1.0
  H  H18  1  0.14806000  0.98495000  0.82130000  1.0
  H  H19  1  0.35194000  0.48494000  0.67870000  1.0
  H  H20  1  0.73166000  0.13395000  0.14140000  1.0
  H  H21  1  0.76834000  0.63395000  0.35860000  1.0
  H  H22  1  0.26834000  0.86605000  0.85860000  1.0
  H  H23  1  0.23166000  0.36605000  0.64140000  1.0
  H  H24  1  0.55959000  0.23082000  0.29608000  1.0
  H  H25  1  0.94041000  0.73082000  0.20392000  1.0
  H  H26  1  0.44041000  0.76918000  0.70392000  1.0
  H  H27  1  0.05959000  0.26918000  0.79608000  1.0
  H  H28  1  0.07632000  0.99570000  0.26563000  1.0
  H  H29  1  0.42368000  0.49570000  0.23437000  1.0
  H  H30  1  0.92368000  0.00430000  0.73437000  1.0
  H  H31  1  0.57632000  0.50430000  0.76563000  1.0
  H  H32  1  0.28163000  0.01384000  0.38724000  1.0
  H  H33  1  0.21837000  0.51384000  0.11276000  1.0
  H  H34  1  0.71837000  0.98616000  0.61276000  1.0
  H  H35  1  0.78163000  0.48616000  0.88724000  1.0
  H  H36  1  0.23490000  0.14069000  0.52155000  1.0
  H  H37  1  0.26510000  0.64069000  0.97845000  1.0
  H  H38  1  0.76510000  0.85931000  0.47845000  1.0
  H  H39  1  0.73490000  0.35931000  0.02155000  1.0
  H  H40  1  0.97345000  0.24960000  0.54231000  1.0
  H  H41  1  0.52655000  0.74960000  0.95769000  1.0
  H  H42  1  0.02655000  0.75040000  0.45769000  1.0
  H  H43  1  0.47345000  0.25040000  0.04231000  1.0
  C  C44  1  0.59731000  0.98887000  0.20293000  1.0
  C  C45  1  0.90269000  0.48887000  0.29707000  1.0
  C  C46  1  0.40269000  0.01113000  0.79707000  1.0
  C  C47  1  0.09731000  0.51113000  0.70293000  1.0
  C  C48  1  0.57961000  0.91149000  0.27686000  1.0
  C  C49  1  0.92039000  0.41149000  0.22314000  1.0
  C  C50  1  0.42039000  0.08851000  0.72314000  1.0
  C  C51  1  0.07961000  0.58851000  0.77686000  1.0
  C  C52  1  0.44128000  0.84136000  0.28572000  1.0
  C  C53  1  0.05872000  0.34136000  0.21428000  1.0
  C  C54  1  0.55872000  0.15864000  0.71428000  1.0
  C  C55  1  0.94128000  0.65864000  0.78572000  1.0
  C  C56  1  0.32056000  0.84853000  0.22031000  1.0
  C  C57  1  0.17944000  0.34853000  0.27968000  1.0
  C  C58  1  0.67944000  0.15147000  0.77968000  1.0
  C  C59  1  0.82057000  0.65148000  0.72031000  1.0
  C  C60  1  0.33670000  0.92540000  0.14674000  1.0
  C  C61  1  0.16330000  0.42539000  0.35326000  1.0
  C  C62  1  0.66331000  0.07460000  0.85326000  1.0
  C  C63  1  0.83670000  0.57461000  0.64674000  1.0
  C  C64  1  0.47596000  0.99514000  0.13789000  1.0
  C  C65  1  0.02404000  0.49514000  0.36211000  1.0
  C  C66  1  0.52404000  0.00486000  0.86211000  1.0
  C  C67  1  0.97596000  0.50486000  0.63789000  1.0
  C  C68  1  0.74443000  0.06758000  0.19554000  1.0
  C  C69  1  0.75557000  0.56758000  0.30446000  1.0
  C  C70  1  0.25557000  0.93242000  0.80446000  1.0
  C  C71  1  0.24443000  0.43242000  0.69554000  1.0
  C  C72  1  0.67529000  0.20476000  0.32375000  1.0
  C  C73  1  0.82471000  0.70476000  0.17625000  1.0
  C  C74  1  0.32471000  0.79524000  0.67625000  1.0
  C  C75  1  0.17529000  0.29524000  0.82375000  1.0
  C  C76  1  0.88316000  0.18791000  0.41316000  1.0
  C  C77  1  0.61684000  0.68791000  0.08684000  1.0
  C  C78  1  0.11684000  0.81209000  0.58684000  1.0
  C  C79  1  0.38316000  0.31209000  0.91316000  1.0
  C  C80  1  0.91215000  0.11558000  0.33613000  1.0
  C  C81  1  0.58785000  0.61558000  0.16387000  1.0
  C  C82  1  0.08785000  0.88442000  0.66387000  1.0
  C  C83  1  0.41215000  0.38442000  0.83613000  1.0
  C  C84  1  0.05432000  0.05083000  0.32508000  1.0
  C  C85  1  0.44568000  0.55083000  0.17492000  1.0
  C  C86  1  0.94568000  0.94917000  0.67492000  1.0
  C  C87  1  0.55432000  0.44917000  0.82508000  1.0
  C  C88  1  0.16815000  0.06186000  0.39363000  1.0
  C  C89  1  0.33185000  0.56186000  0.10637000  1.0
  C  C90  1  0.83185000  0.93814000  0.60637000  1.0
  C  C91  1  0.66815000  0.43813000  0.89363000  1.0
  C  C92  1  0.14049000  0.13323000  0.47072000  1.0
  C  C93  1  0.35951000  0.63323000  0.02928000  1.0
  C  C94  1  0.85951000  0.86677000  0.52928000  1.0
  C  C95  1  0.64049000  0.36677000  0.97072000  1.0
  C  C96  1  0.99765000  0.19630000  0.48221000  1.0
  C  C97  1  0.50235000  0.69630000  0.01779000  1.0
  C  C98  1  0.00236000  0.80370000  0.51779000  1.0
  C  C99  1  0.49765000  0.30370000  0.98221000  1.0
  C  C100  1  0.41312000  0.76268000  0.36562000  1.0
  C  C101  1  0.08688000  0.26268000  0.13438000  1.0
  C  C102  1  0.58688000  0.23732000  0.63438000  1.0
  C  C103  1  0.91312000  0.73732000  0.86562000  1.0
  C  C104  1  0.20027000  0.93869000  0.08225000  1.0
  C  C105  1  0.29972000  0.43869000  0.41775000  1.0
  C  C106  1  0.79972000  0.06131000  0.91775000  1.0
  C  C107  1  0.70027000  0.56131000  0.58225000  1.0
  N  N108  1  0.77757000  0.12885000  0.28115000  1.0
  N  N109  1  0.72243000  0.62885000  0.21885000  1.0
  N  N110  1  0.22243000  0.87115000  0.71885000  1.0
  N  N111  1  0.27757000  0.37115000  0.78115000  1.0
  N  N112  1  0.73332000  0.24237000  0.40274000  1.0
  N  N113  1  0.76668000  0.74237000  0.09726000  1.0
  N  N114  1  0.26668000  0.75763000  0.59726000  1.0
  N  N115  1  0.23332000  0.25763000  0.90274000  1.0
  O  O116  1  0.52781000  0.74791000  0.42380000  1.0
  O  O117  1  0.97219000  0.24791000  0.07619000  1.0
  O  O118  1  0.47219000  0.25209000  0.57619000  1.0
  O  O119  1  0.02781000  0.75209000  0.92381000  1.0
  O  O120  1  0.27749000  0.71370000  0.37606000  1.0
  O  O121  1  0.22251000  0.21370000  0.12394000  1.0
  O  O122  1  0.72251000  0.28630000  0.62394000  1.0
  O  O123  1  0.77750000  0.78630000  0.87606000  1.0
  O  O124  1  0.06624000  0.89161000  0.10568000  1.0
  O  O125  1  0.43376000  0.39161000  0.39432000  1.0
  O  O126  1  0.93376000  0.10839000  0.89432000  1.0
  O  O127  1  0.56624000  0.60839000  0.60568000  1.0
  O  O128  1  0.22224000  0.99702000  0.00908000  1.0
  O  O129  1  0.27776000  0.49702000  0.49092000  1.0
  O  O130  1  0.77776000  0.00298000  0.99092000  1.0
  O  O131  1  0.72224000  0.50298000  0.50908000  1.0
