# generated using pymatgen
data_CsH5C6(ClO3)2
_symmetry_space_group_name_H-M   'P 1'
_cell_length_a   7.65510000
_cell_length_b   9.23816000
_cell_length_c   14.91260000
_cell_angle_alpha   84.27610000
_cell_angle_beta   89.99900000
_cell_angle_gamma   89.99950000
_symmetry_Int_Tables_number   1
_chemical_formula_structural   CsH5C6(ClO3)2
_chemical_formula_sum   'Cs4 H20 C24 Cl8 O24'
_cell_volume   1049.34653258
_cell_formula_units_Z   4
loop_
 _symmetry_equiv_pos_site_id
 _symmetry_equiv_pos_as_xyz
  1  'x, y, z'
loop_
 _atom_site_type_symbol
 _atom_site_label
 _atom_site_symmetry_multiplicity
 _atom_site_fract_x
 _atom_site_fract_y
 _atom_site_fract_z
 _atom_site_occupancy
  Cs  Cs0  1  0.56693000  0.98145000  0.84183000  1.0
  Cs  Cs1  1  0.06695000  0.51853000  0.65818000  1.0
  Cs  Cs2  1  0.43304000  0.01855000  0.15817000  1.0
  Cs  Cs3  1  0.93308000  0.48146000  0.34183000  1.0
  H  H4  1  0.96080000  0.88612000  0.73928000  1.0
  H  H5  1  0.46080000  0.61386000  0.76072000  1.0
  H  H6  1  0.03919000  0.11386000  0.26073000  1.0
  H  H7  1  0.53920000  0.38614000  0.23929000  1.0
  H  H8  1  0.03931000  0.94194000  0.84337000  1.0
  H  H9  1  0.53934000  0.55806000  0.65663000  1.0
  H  H10  1  0.96065000  0.05806000  0.15663000  1.0
  H  H11  1  0.46069000  0.44194000  0.34338000  1.0
  H  H12  1  0.15562000  0.09889000  0.92911000  1.0
  H  H13  1  0.65568000  0.40112000  0.57088000  1.0
  H  H14  1  0.84434000  0.90112000  0.07088000  1.0
  H  H15  1  0.34436000  0.59888000  0.42912000  1.0
  H  H16  1  0.21521000  0.93257000  0.94184000  1.0
  H  H17  1  0.71526000  0.56743000  0.55815000  1.0
  H  H18  1  0.78475000  0.06744000  0.05815000  1.0
  H  H19  1  0.28477000  0.43257000  0.44186000  1.0
  H  H20  1  0.06063000  0.22962000  0.16272000  1.0
  H  H21  1  0.56068000  0.27037000  0.33730000  1.0
  H  H22  1  0.93933000  0.77037000  0.83729000  1.0
  H  H23  1  0.43936000  0.72963000  0.66271000  1.0
  C  C24  1  0.35642000  0.58042000  0.92304000  1.0
  C  C25  1  0.85647000  0.91956000  0.57696000  1.0
  C  C26  1  0.64353000  0.41958000  0.07696000  1.0
  C  C27  1  0.14357000  0.08043000  0.42303000  1.0
  C  C28  1  0.20070000  0.59696000  0.07160000  1.0
  C  C29  1  0.70073000  0.90304000  0.42841000  1.0
  C  C30  1  0.79927000  0.40304000  0.92841000  1.0
  C  C31  1  0.29931000  0.09697000  0.57160000  1.0
  C  C32  1  0.16071000  0.44823000  0.07880000  1.0
  C  C33  1  0.66076000  0.05176000  0.42121000  1.0
  C  C34  1  0.83925000  0.55177000  0.92121000  1.0
  C  C35  1  0.33930000  0.94823000  0.57879000  1.0
  C  C36  1  0.21660000  0.35966000  0.00163000  1.0
  C  C37  1  0.71664000  0.14033000  0.49837000  1.0
  C  C38  1  0.78335000  0.64034000  0.99837000  1.0
  C  C39  1  0.28341000  0.85967000  0.50163000  1.0
  C  C40  1  0.29909000  0.66836000  0.00017000  1.0
  C  C41  1  0.79915000  0.83163000  0.49983000  1.0
  C  C42  1  0.70086000  0.33165000  0.99983000  1.0
  C  C43  1  0.20090000  0.16835000  0.50017000  1.0
  C  C44  1  0.30959000  0.43297000  0.92838000  1.0
  C  C45  1  0.80963000  0.06702000  0.57161000  1.0
  C  C46  1  0.69036000  0.56705000  0.07161000  1.0
  C  C47  1  0.19041000  0.93297000  0.42839000  1.0
  Cl  Cl48  1  0.36530000  0.33526000  0.83952000  1.0
  Cl  Cl49  1  0.86532000  0.16473000  0.66047000  1.0
  Cl  Cl50  1  0.63466000  0.66475000  0.16048000  1.0
  Cl  Cl51  1  0.13473000  0.83526000  0.33952000  1.0
  Cl  Cl52  1  0.13138000  0.70052000  0.15512000  1.0
  Cl  Cl53  1  0.63146000  0.79949000  0.34486000  1.0
  Cl  Cl54  1  0.86855000  0.29948000  0.84487000  1.0
  Cl  Cl55  1  0.36859000  0.20052000  0.65513000  1.0
  O  O56  1  0.94973000  0.88101000  0.80856000  1.0
  O  O57  1  0.44975000  0.61899000  0.69144000  1.0
  O  O58  1  0.05023000  0.11898000  0.19144000  1.0
  O  O59  1  0.55028000  0.38101000  0.30857000  1.0
  O  O60  1  0.16718000  0.00948000  0.89728000  1.0
  O  O61  1  0.66724000  0.49052000  0.60271000  1.0
  O  O62  1  0.83278000  0.99053000  0.10271000  1.0
  O  O63  1  0.33281000  0.50947000  0.39730000  1.0
  O  O64  1  0.44159000  0.64905000  0.85907000  1.0
  O  O65  1  0.94163000  0.85094000  0.64093000  1.0
  O  O66  1  0.55838000  0.35096000  0.14093000  1.0
  O  O67  1  0.05842000  0.14904000  0.35908000  1.0
  O  O68  1  0.17505000  0.22721000  0.00879000  1.0
  O  O69  1  0.67510000  0.27279000  0.49122000  1.0
  O  O70  1  0.82491000  0.77280000  0.99121000  1.0
  O  O71  1  0.32496000  0.72721000  0.50879000  1.0
  O  O72  1  0.07767000  0.38344000  0.14512000  1.0
  O  O73  1  0.57769000  0.11657000  0.35487000  1.0
  O  O74  1  0.92231000  0.61656000  0.85487000  1.0
  O  O75  1  0.42234000  0.88344000  0.64512000  1.0
  O  O76  1  0.34098000  0.80108000  0.99541000  1.0
  O  O77  1  0.84105000  0.69892000  0.50458000  1.0
  O  O78  1  0.65895000  0.19893000  0.00459000  1.0
  O  O79  1  0.15899000  0.30108000  0.49542000  1.0
