# generated using pymatgen
data_CdH12C13(NO)2
_symmetry_space_group_name_H-M   'P 1'
_cell_length_a   10.51990000
_cell_length_b   17.86660000
_cell_length_c   17.86820019
_cell_angle_alpha   85.03190978
_cell_angle_beta   72.88108010
_cell_angle_gamma   72.88780000
_symmetry_Int_Tables_number   1
_chemical_formula_structural   CdH12C13(NO)2
_chemical_formula_sum   'Cd8 H96 C104 N16 O16'
_cell_volume   3067.53435672
_cell_formula_units_Z   8
loop_
 _symmetry_equiv_pos_site_id
 _symmetry_equiv_pos_as_xyz
  1  'x, y, z'
loop_
 _atom_site_type_symbol
 _atom_site_label
 _atom_site_symmetry_multiplicity
 _atom_site_fract_x
 _atom_site_fract_y
 _atom_site_fract_z
 _atom_site_occupancy
  Cd  Cd0  1  0.19515000  0.20459000  0.32762000  1.0
  Cd  Cd1  1  0.89971000  0.32765000  0.29539000  1.0
  Cd  Cd2  1  0.72734000  0.29545000  0.17236000  1.0
  Cd  Cd3  1  0.52279000  0.17234000  0.20460000  1.0
  Cd  Cd4  1  0.80485000  0.79541000  0.67238000  1.0
  Cd  Cd5  1  0.10029000  0.67235000  0.70461000  1.0
  Cd  Cd6  1  0.27266000  0.70455000  0.82764000  1.0
  Cd  Cd7  1  0.47721000  0.82766000  0.79540000  1.0
  H  H8  1  0.94168000  0.11804000  0.10216000  1.0
  H  H9  1  0.55979000  0.10218000  0.38201000  1.0
  H  H10  1  0.16196000  0.38197000  0.39786000  1.0
  H  H11  1  0.04371000  0.39786000  0.11801000  1.0
  H  H12  1  0.05832000  0.88196000  0.89784000  1.0
  H  H13  1  0.44020000  0.89782000  0.61800000  1.0
  H  H14  1  0.83804000  0.61803000  0.60214000  1.0
  H  H15  1  0.95628000  0.60214000  0.88200000  1.0
  H  H16  1  0.00638000  0.97827000  0.06328000  1.0
  H  H17  1  0.48464000  0.06338000  0.52176000  1.0
  H  H18  1  0.04796000  0.52173000  0.43673000  1.0
  H  H19  1  0.06958000  0.43668000  0.97822000  1.0
  H  H20  1  0.99362000  0.02173000  0.93672000  1.0
  H  H21  1  0.51536000  0.93662000  0.47824000  1.0
  H  H22  1  0.95204000  0.47827000  0.56327000  1.0
  H  H23  1  0.93042000  0.56332000  0.02178000  1.0
  H  H24  1  0.22703000  0.91182000  0.23802000  1.0
  H  H25  1  0.63886000  0.23814000  0.58820000  1.0
  H  H26  1  0.37684000  0.58823000  0.26194000  1.0
  H  H27  1  0.46498000  0.26193000  0.91185000  1.0
  H  H28  1  0.77297000  0.08818000  0.76198000  1.0
  H  H29  1  0.36115000  0.76185000  0.41180000  1.0
  H  H30  1  0.62316000  0.41177000  0.73806000  1.0
  H  H31  1  0.53502000  0.73807000  0.08815000  1.0
  H  H32  1  0.15658000  0.05036000  0.27894000  1.0
  H  H33  1  0.70702000  0.27900000  0.44962000  1.0
  H  H34  1  0.48582000  0.44970000  0.22104000  1.0
  H  H35  1  0.43540000  0.22112000  0.05042000  1.0
  H  H36  1  0.84342000  0.94964000  0.72106000  1.0
  H  H37  1  0.29298000  0.72100000  0.55038000  1.0
  H  H38  1  0.51418000  0.55030000  0.77896000  1.0
  H  H39  1  0.56460000  0.77888000  0.94958000  1.0
  H  H40  1  0.23608000  0.81653000  0.15656000  1.0
  H  H41  1  0.55271000  0.15661000  0.68350000  1.0
  H  H42  1  0.20922000  0.68353000  0.34348000  1.0
  H  H43  1  0.39263000  0.34342000  0.81652000  1.0
  H  H44  1  0.76392000  0.18347000  0.84344000  1.0
  H  H45  1  0.44729000  0.84339000  0.31650000  1.0
  H  H46  1  0.79078000  0.31647000  0.65652000  1.0
  H  H47  1  0.60737000  0.65658000  0.18348000  1.0
  H  H48  1  0.06789000  0.82789000  0.15044000  1.0
  H  H49  1  0.39590000  0.15045000  0.67213000  1.0
  H  H50  1  0.04628000  0.67214000  0.34961000  1.0
  H  H51  1  0.21833000  0.34952000  0.82784000  1.0
  H  H52  1  0.93211000  0.17211000  0.84956000  1.0
  H  H53  1  0.60410000  0.84955000  0.32787000  1.0
  H  H54  1  0.95373000  0.32786000  0.65039000  1.0
  H  H55  1  0.78167000  0.65048000  0.17216000  1.0
  H  H56  1  0.30141000  0.98393000  0.99500000  1.0
  H  H57  1  0.78537000  0.99500000  0.51599000  1.0
  H  H58  1  0.28030000  0.51605000  0.50502000  1.0
  H  H59  1  0.29642000  0.50499000  0.98395000  1.0
  H  H60  1  0.69859000  0.01607000  0.00500000  1.0
  H  H61  1  0.21463000  0.00500000  0.48401000  1.0
  H  H62  1  0.71970000  0.48395000  0.49498000  1.0
  H  H63  1  0.70358000  0.49501000  0.01605000  1.0
  H  H64  1  0.46040000  0.92541000  0.93366000  1.0
  H  H65  1  0.88582000  0.93367000  0.57452000  1.0
  H  H66  1  0.31947000  0.57456000  0.56635000  1.0
  H  H67  1  0.39405000  0.56635000  0.92542000  1.0
  H  H68  1  0.53960000  0.07459000  0.06634000  1.0
  H  H69  1  0.11418000  0.06633000  0.42548000  1.0
  H  H70  1  0.68053000  0.42544000  0.43365000  1.0
  H  H71  1  0.60595000  0.43365000  0.07458000  1.0
  H  H72  1  0.41945000  0.91489000  0.03709000  1.0
  H  H73  1  0.83439000  0.03708000  0.58503000  1.0
  H  H74  1  0.37136000  0.58511000  0.46294000  1.0
  H  H75  1  0.45654000  0.46292000  0.91491000  1.0
  H  H76  1  0.58055000  0.08511000  0.96291000  1.0
  H  H77  1  0.16561000  0.96292000  0.41497000  1.0
  H  H78  1  0.62864000  0.41489000  0.53706000  1.0
  H  H79  1  0.54346000  0.53708000  0.08509000  1.0
  H  H80  1  0.13910000  0.67514000  0.06397000  1.0
  H  H81  1  0.31431000  0.06399000  0.82482000  1.0
  H  H82  1  0.87832000  0.82483000  0.43605000  1.0
  H  H83  1  0.20298000  0.43604000  0.67517000  1.0
  H  H84  1  0.86090000  0.32486000  0.93603000  1.0
  H  H85  1  0.68570000  0.93601000  0.17517000  1.0
  H  H86  1  0.12168000  0.17518000  0.56395000  1.0
  H  H87  1  0.79702000  0.56396000  0.32483000  1.0
  H  H88  1  0.06870000  0.70342000  0.98329000  1.0
  H  H89  1  0.27228000  0.98329000  0.79648000  1.0
  H  H90  1  0.75554000  0.79653000  0.51673000  1.0
  H  H91  1  0.05192000  0.51671000  0.70349000  1.0
  H  H92  1  0.93130000  0.29657000  0.01671000  1.0
  H  H93  1  0.72772000  0.01671000  0.20352000  1.0
  H  H94  1  0.24446000  0.20347000  0.48327000  1.0
  H  H95  1  0.94808000  0.48329000  0.29651000  1.0
  H  H96  1  0.99277000  0.75798000  0.07115000  1.0
  H  H97  1  0.25086000  0.07116000  0.74196000  1.0
  H  H98  1  0.82205000  0.74196000  0.42889000  1.0
  H  H99  1  0.06383000  0.42885000  0.75802000  1.0
  H  H100  1  0.00723000  0.24202000  0.92885000  1.0
  H  H101  1  0.74914000  0.92884000  0.25804000  1.0
  H  H102  1  0.17795000  0.25804000  0.57111000  1.0
  H  H103  1  0.93616000  0.57115000  0.24198000  1.0
  C  C104  1  0.99983000  0.17578000  0.22027000  1.0
  C  C105  1  0.67570000  0.22030000  0.32422000  1.0
  C  C106  1  0.39596000  0.32422000  0.27975000  1.0
  C  C107  1  0.22004000  0.27983000  0.17581000  1.0
  C  C108  1  0.00016000  0.82422000  0.77973000  1.0
  C  C109  1  0.32430000  0.77970000  0.67578000  1.0
  C  C110  1  0.60404000  0.67578000  0.72025000  1.0
  C  C111  1  0.77996000  0.72017000  0.82419000  1.0
  C  C112  1  0.04395000  0.09310000  0.19370000  1.0
  C  C113  1  0.63719000  0.19371000  0.40692000  1.0
  C  C114  1  0.33078000  0.40692000  0.30630000  1.0
  C  C115  1  0.23752000  0.30636000  0.09311000  1.0
  C  C116  1  0.95605000  0.90690000  0.80630000  1.0
  C  C117  1  0.36281000  0.80629000  0.59308000  1.0
  C  C118  1  0.66922000  0.59308000  0.69370000  1.0
  C  C119  1  0.76248000  0.69364000  0.90689000  1.0
  C  C120  1  0.00351000  0.07246000  0.13198000  1.0
  C  C121  1  0.57604000  0.13203000  0.42757000  1.0
  C  C122  1  0.20800000  0.42757000  0.36802000  1.0
  C  C123  1  0.13535000  0.36802000  0.07242000  1.0
  C  C124  1  0.99648000  0.92754000  0.86802000  1.0
  C  C125  1  0.42396000  0.86796000  0.57243000  1.0
  C  C126  1  0.79200000  0.57244000  0.63198000  1.0
  C  C127  1  0.86465000  0.63198000  0.92758000  1.0
  C  C128  1  0.03977000  0.99423000  0.11055000  1.0
  C  C129  1  0.53395000  0.11066000  0.50582000  1.0
  C  C130  1  0.14453000  0.50581000  0.38945000  1.0
  C  C131  1  0.15020000  0.38941000  0.99418000  1.0
  C  C132  1  0.96023000  0.00577000  0.88945000  1.0
  C  C133  1  0.46605000  0.88934000  0.49418000  1.0
  C  C134  1  0.85547000  0.49419000  0.61055000  1.0
  C  C135  1  0.84980000  0.61059000  0.00582000  1.0
  C  C136  1  0.11985000  0.93524000  0.14855000  1.0
  C  C137  1  0.55513000  0.14864000  0.56479000  1.0
  C  C138  1  0.20364000  0.56481000  0.35146000  1.0
  C  C139  1  0.26833000  0.35140000  0.93521000  1.0
  C  C140  1  0.88015000  0.06476000  0.85145000  1.0
  C  C141  1  0.44487000  0.85136000  0.43521000  1.0
  C  C142  1  0.79636000  0.43519000  0.64854000  1.0
  C  C143  1  0.73167000  0.64860000  0.06479000  1.0
  C  C144  1  0.16241000  0.95673000  0.20875000  1.0
  C  C145  1  0.61916000  0.20885000  0.54330000  1.0
  C  C146  1  0.32785000  0.54333000  0.29124000  1.0
  C  C147  1  0.37104000  0.29122000  0.95674000  1.0
  C  C148  1  0.83759000  0.04327000  0.79125000  1.0
  C  C149  1  0.38084000  0.79115000  0.45670000  1.0
  C  C150  1  0.67215000  0.45667000  0.70876000  1.0
  C  C151  1  0.62896000  0.70878000  0.04326000  1.0
  C  C152  1  0.12354000  0.03448000  0.23184000  1.0
  C  C153  1  0.65812000  0.23190000  0.46552000  1.0
  C  C154  1  0.38983000  0.46556000  0.26814000  1.0
  C  C155  1  0.35526000  0.26818000  0.03451000  1.0
  C  C156  1  0.87646000  0.96552000  0.76816000  1.0
  C  C157  1  0.34188000  0.76809000  0.53448000  1.0
  C  C158  1  0.61017000  0.53444000  0.73186000  1.0
  C  C159  1  0.64474000  0.73183000  0.96549000  1.0
  C  C160  1  0.15934000  0.85009000  0.12625000  1.0
  C  C161  1  0.50955000  0.12631000  0.64992000  1.0
  C  C162  1  0.13575000  0.64995000  0.37378000  1.0
  C  C163  1  0.28556000  0.37370000  0.85007000  1.0
  C  C164  1  0.84066000  0.14991000  0.87375000  1.0
  C  C165  1  0.49045000  0.87369000  0.35008000  1.0
  C  C166  1  0.86425000  0.35005000  0.62622000  1.0
  C  C167  1  0.71443000  0.62630000  0.14993000  1.0
  C  C168  1  0.21331000  0.83289000  0.04019000  1.0
  C  C169  1  0.54632000  0.04023000  0.66709000  1.0
  C  C170  1  0.08646000  0.66711000  0.45986000  1.0
  C  C171  1  0.25347000  0.45978000  0.83290000  1.0
  C  C172  1  0.78669000  0.16711000  0.95981000  1.0
  C  C173  1  0.45367000  0.95977000  0.33291000  1.0
  C  C174  1  0.91354000  0.33289000  0.54014000  1.0
  C  C175  1  0.74652000  0.54022000  0.16710000  1.0
  C  C176  1  0.30779000  0.86387000  0.98210000  1.0
  C  C177  1  0.67171000  0.98211000  0.63606000  1.0
  C  C178  1  0.15375000  0.63611000  0.51796000  1.0
  C  C179  1  0.28989000  0.51787000  0.86390000  1.0
  C  C180  1  0.69221000  0.13613000  0.01790000  1.0
  C  C181  1  0.32829000  0.01788000  0.36394000  1.0
  C  C182  1  0.84625000  0.36389000  0.48204000  1.0
  C  C183  1  0.71011000  0.48213000  0.13610000  1.0
  C  C184  1  0.37559000  0.92516000  0.98713000  1.0
  C  C185  1  0.80075000  0.98712000  0.57477000  1.0
  C  C186  1  0.28782000  0.57483000  0.51291000  1.0
  C  C187  1  0.36271000  0.51287000  0.92518000  1.0
  C  C188  1  0.62441000  0.07484000  0.01287000  1.0
  C  C189  1  0.19925000  0.01288000  0.42523000  1.0
  C  C190  1  0.71218000  0.42517000  0.48709000  1.0
  C  C191  1  0.63729000  0.48713000  0.07482000  1.0
  C  C192  1  0.18518000  0.77725000  0.00108000  1.0
  C  C193  1  0.46256000  0.00113000  0.72272000  1.0
  C  C194  1  0.96367000  0.72274000  0.49895000  1.0
  C  C195  1  0.18628000  0.49889000  0.77727000  1.0
  C  C196  1  0.81481000  0.22275000  0.99892000  1.0
  C  C197  1  0.53744000  0.99887000  0.27728000  1.0
  C  C198  1  0.03633000  0.27726000  0.50105000  1.0
  C  C199  1  0.81372000  0.50111000  0.22273000  1.0
  C  C200  1  0.09229000  0.72577000  0.03148000  1.0
  C  C201  1  0.31819000  0.03151000  0.77417000  1.0
  C  C202  1  0.84970000  0.77419000  0.46855000  1.0
  C  C203  1  0.12371000  0.46852000  0.72582000  1.0
  C  C204  1  0.90771000  0.27423000  0.96852000  1.0
  C  C205  1  0.68181000  0.96849000  0.22583000  1.0
  C  C206  1  0.15030000  0.22581000  0.53145000  1.0
  C  C207  1  0.87628000  0.53148000  0.27419000  1.0
  N  N208  1  0.25945000  0.77506000  0.92508000  1.0
  N  N209  1  0.53459000  0.92511000  0.72490000  1.0
  N  N210  1  0.95965000  0.72492000  0.57497000  1.0
  N  N211  1  0.18455000  0.57490000  0.77510000  1.0
  N  N212  1  0.74055000  0.22494000  0.07492000  1.0
  N  N213  1  0.46541000  0.07489000  0.27510000  1.0
  N  N214  1  0.04035000  0.27508000  0.42503000  1.0
  N  N215  1  0.81545000  0.42510000  0.22490000  1.0
  N  N216  1  0.33362000  0.82805000  0.91332000  1.0
  N  N217  1  0.66169000  0.91334000  0.67188000  1.0
  N  N218  1  0.07499000  0.67191000  0.58673000  1.0
  N  N219  1  0.24695000  0.58664000  0.82809000  1.0
  N  N220  1  0.66638000  0.17195000  0.08668000  1.0
  N  N221  1  0.33831000  0.08666000  0.32812000  1.0
  N  N222  1  0.92501000  0.32809000  0.41327000  1.0
  N  N223  1  0.75305000  0.41336000  0.17191000  1.0
  O  O224  1  0.00255000  0.18909000  0.28964000  1.0
  O  O225  1  0.69164000  0.28968000  0.31093000  1.0
  O  O226  1  0.48136000  0.31090000  0.21039000  1.0
  O  O227  1  0.29216000  0.21048000  0.18914000  1.0
  O  O228  1  0.99745000  0.81091000  0.71036000  1.0
  O  O229  1  0.30835000  0.71032000  0.68907000  1.0
  O  O230  1  0.51864000  0.68910000  0.78961000  1.0
  O  O231  1  0.70784000  0.78952000  0.81086000  1.0
  O  O232  1  0.95841000  0.23140000  0.17590000  1.0
  O  O233  1  0.68983000  0.17595000  0.26859000  1.0
  O  O234  1  0.36577000  0.26860000  0.32412000  1.0
  O  O235  1  0.13426000  0.32418000  0.23142000  1.0
  O  O236  1  0.04159000  0.76860000  0.82410000  1.0
  O  O237  1  0.31017000  0.82405000  0.73141000  1.0
  O  O238  1  0.63423000  0.73140000  0.67588000  1.0
  O  O239  1  0.86574000  0.67582000  0.76858000  1.0
