# generated using pymatgen
data_CuH14C12(NO)4
_symmetry_space_group_name_H-M   'P 1'
_cell_length_a   7.54032000
_cell_length_b   9.46055000
_cell_length_c   9.61510000
_cell_angle_alpha   90.00030000
_cell_angle_beta   90.00030000
_cell_angle_gamma   89.10060000
_symmetry_Int_Tables_number   1
_chemical_formula_structural   CuH14C12(NO)4
_chemical_formula_sum   'Cu2 H28 C24 N8 O8'
_cell_volume   685.81417633
_cell_formula_units_Z   2
loop_
 _symmetry_equiv_pos_site_id
 _symmetry_equiv_pos_as_xyz
  1  'x, y, z'
loop_
 _atom_site_type_symbol
 _atom_site_label
 _atom_site_symmetry_multiplicity
 _atom_site_fract_x
 _atom_site_fract_y
 _atom_site_fract_z
 _atom_site_occupancy
  Cu  Cu0  1  0.23794000  0.75446000  0.95268000  1.0
  Cu  Cu1  1  0.76206000  0.24553000  0.45269000  1.0
  H  H2  1  0.43797000  0.45666000  0.54283000  1.0
  H  H3  1  0.56203000  0.54335000  0.04283000  1.0
  H  H4  1  0.52160000  0.21636000  0.17776000  1.0
  H  H5  1  0.47842000  0.78363000  0.67777000  1.0
  H  H6  1  0.14811000  0.49350000  0.36803000  1.0
  H  H7  1  0.85189000  0.50654000  0.86804000  1.0
  H  H8  1  0.25800000  0.26350000  0.04672000  1.0
  H  H9  1  0.74200000  0.73648000  0.54672000  1.0
  H  H10  1  0.01241000  0.18511000  0.19253000  1.0
  H  H11  1  0.98762000  0.81485000  0.69250000  1.0
  H  H12  1  0.92780000  0.28747000  0.05257000  1.0
  H  H13  1  0.07222000  0.71251000  0.55254000  1.0
  H  H14  1  0.93923000  0.36310000  0.22265000  1.0
  H  H15  1  0.06077000  0.63686000  0.72265000  1.0
  H  H16  1  0.03722000  0.01607000  0.35619000  1.0
  H  H17  1  0.96276000  0.98392000  0.85617000  1.0
  H  H18  1  0.05407000  0.28681000  0.70581000  1.0
  H  H19  1  0.94593000  0.71320000  0.20580000  1.0
  H  H20  1  0.35526000  0.96967000  0.49854000  1.0
  H  H21  1  0.64472000  0.03031000  0.99854000  1.0
  H  H22  1  0.49632000  0.07262000  0.68800000  1.0
  H  H23  1  0.50367000  0.92739000  0.18803000  1.0
  H  H24  1  0.51674000  0.32458000  0.70641000  1.0
  H  H25  1  0.48326000  0.67545000  0.20644000  1.0
  H  H26  1  0.52220000  0.26098000  0.87883000  1.0
  H  H27  1  0.47778000  0.73903000  0.37886000  1.0
  H  H28  1  0.32413000  0.33971000  0.81399000  1.0
  H  H29  1  0.67583000  0.66027000  0.31400000  1.0
  C  C30  1  0.41368000  0.41251000  0.44093000  1.0
  C  C31  1  0.58630000  0.58749000  0.94096000  1.0
  C  C32  1  0.46388000  0.28782000  0.25378000  1.0
  C  C33  1  0.53612000  0.71218000  0.75377000  1.0
  C  C34  1  0.27053000  0.43334000  0.35500000  1.0
  C  C35  1  0.72943000  0.56667000  0.85504000  1.0
  C  C36  1  0.19208000  0.34271000  0.11343000  1.0
  C  C37  1  0.80795000  0.65728000  0.61341000  1.0
  C  C38  1  0.00613000  0.29166000  0.14854000  1.0
  C  C39  1  0.99395000  0.70833000  0.64854000  1.0
  C  C40  1  0.17906000  0.48016000  0.02835000  1.0
  C  C41  1  0.82095000  0.51989000  0.52835000  1.0
  C  C42  1  0.08720000  0.06459000  0.44989000  1.0
  C  C43  1  0.91282000  0.93540000  0.94988000  1.0
  C  C44  1  0.08942000  0.20622000  0.62998000  1.0
  C  C45  1  0.91057000  0.79378000  0.13000000  1.0
  C  C46  1  0.24330000  0.03980000  0.51872000  1.0
  C  C47  1  0.75672000  0.96019000  0.01869000  1.0
  C  C48  1  0.38279000  0.12652000  0.73880000  1.0
  C  C49  1  0.61718000  0.87346000  0.23881000  1.0
  C  C50  1  0.43823000  0.27216000  0.78633000  1.0
  C  C51  1  0.56175000  0.72787000  0.28637000  1.0
  C  C52  1  0.32998000  0.02565000  0.85901000  1.0
  C  C53  1  0.67000000  0.97434000  0.35902000  1.0
  N  N54  1  0.53349000  0.32081000  0.37732000  1.0
  N  N55  1  0.46657000  0.67916000  0.87732000  1.0
  N  N56  1  0.30451000  0.35419000  0.23708000  1.0
  N  N57  1  0.69547000  0.64584000  0.73708000  1.0
  N  N58  1  0.99198000  0.16868000  0.51983000  1.0
  N  N59  1  0.00797000  0.83134000  0.01982000  1.0
  N  N60  1  0.24370000  0.12978000  0.63156000  1.0
  N  N61  1  0.75631000  0.87022000  0.13157000  1.0
  O  O62  1  0.11787000  0.47098000  0.90781000  1.0
  O  O63  1  0.88212000  0.52901000  0.40778000  1.0
  O  O64  1  0.23096000  0.59467000  0.08732000  1.0
  O  O65  1  0.76907000  0.40537000  0.58735000  1.0
  O  O66  1  0.25759000  0.91125000  0.81602000  1.0
  O  O67  1  0.74241000  0.08874000  0.31599000  1.0
  O  O68  1  0.36676000  0.05508000  0.98219000  1.0
  O  O69  1  0.63325000  0.94493000  0.48221000  1.0
