# generated using pymatgen
data_ZnH16C24Br2(NO3)2
_symmetry_space_group_name_H-M   'P 1'
_cell_length_a   8.76958000
_cell_length_b   11.40010000
_cell_length_c   13.76576540
_cell_angle_alpha   70.40778894
_cell_angle_beta   71.43109902
_cell_angle_gamma   67.39000000
_symmetry_Int_Tables_number   1
_chemical_formula_structural   ZnH16C24Br2(NO3)2
_chemical_formula_sum   'Zn2 H32 C48 Br4 N4 O12'
_cell_volume   1168.12643264
_cell_formula_units_Z   2
loop_
 _symmetry_equiv_pos_site_id
 _symmetry_equiv_pos_as_xyz
  1  'x, y, z'
loop_
 _atom_site_type_symbol
 _atom_site_label
 _atom_site_symmetry_multiplicity
 _atom_site_fract_x
 _atom_site_fract_y
 _atom_site_fract_z
 _atom_site_occupancy
  Zn  Zn0  1  0.89389000  0.24993000  0.74994000  1.0
  Zn  Zn1  1  0.10612000  0.75007000  0.25005000  1.0
  H  H2  1  0.55407000  0.73233000  0.34344000  1.0
  H  H3  1  0.62964000  0.76734000  0.15640000  1.0
  H  H4  1  0.44594000  0.26768000  0.65655000  1.0
  H  H5  1  0.37035000  0.23267000  0.84361000  1.0
  H  H6  1  0.26803000  0.85590000  0.42428000  1.0
  H  H7  1  0.54812000  0.64407000  0.07524000  1.0
  H  H8  1  0.73198000  0.14411000  0.57571000  1.0
  H  H9  1  0.45187000  0.35594000  0.92477000  1.0
  H  H10  1  0.34398000  0.60786000  0.73251000  1.0
  H  H11  1  0.68458000  0.89248000  0.76720000  1.0
  H  H12  1  0.65601000  0.39215000  0.26748000  1.0
  H  H13  1  0.31540000  0.10752000  0.23281000  1.0
  H  H14  1  0.21713000  0.03813000  0.78896000  1.0
  H  H15  1  0.04384000  0.46219000  0.71101000  1.0
  H  H16  1  0.78286000  0.96188000  0.21105000  1.0
  H  H17  1  0.95613000  0.53781000  0.28900000  1.0
  H  H18  1  0.48072000  0.91690000  0.68596000  1.0
  H  H19  1  0.08330000  0.58329000  0.81408000  1.0
  H  H20  1  0.51928000  0.08309000  0.31407000  1.0
  H  H21  1  0.91669000  0.41670000  0.18592000  1.0
  H  H22  1  0.30020000  0.16632000  0.40279000  1.0
  H  H23  1  0.86872000  0.33385000  0.09714000  1.0
  H  H24  1  0.69983000  0.83367000  0.59722000  1.0
  H  H25  1  0.13130000  0.66614000  0.90287000  1.0
  H  H26  1  0.03912000  0.27017000  0.51892000  1.0
  H  H27  1  0.82785000  0.22999000  0.98094000  1.0
  H  H28  1  0.96090000  0.72982000  0.48108000  1.0
  H  H29  1  0.17215000  0.77001000  0.01907000  1.0
  H  H30  1  0.82123000  0.47220000  0.50544000  1.0
  H  H31  1  0.79896000  0.02757000  0.99472000  1.0
  H  H32  1  0.17877000  0.52780000  0.49456000  1.0
  H  H33  1  0.20102000  0.97244000  0.00528000  1.0
  C  C34  1  0.55128000  0.56778000  0.60205000  1.0
  C  C35  1  0.72135000  0.93216000  0.89788000  1.0
  C  C36  1  0.44871000  0.43222000  0.39795000  1.0
  C  C37  1  0.27864000  0.06784000  0.10212000  1.0
  C  C38  1  0.61352000  0.60396000  0.49146000  1.0
  C  C39  1  0.70899000  0.89589000  0.00850000  1.0
  C  C40  1  0.38649000  0.39604000  0.50853000  1.0
  C  C41  1  0.29101000  0.10412000  0.99150000  1.0
  C  C42  1  0.50824000  0.70682000  0.42881000  1.0
  C  C43  1  0.64392000  0.79299000  0.07098000  1.0
  C  C44  1  0.49177000  0.29318000  0.57118000  1.0
  C  C45  1  0.35608000  0.20702000  0.92902000  1.0
  C  C46  1  0.34693000  0.77633000  0.47463000  1.0
  C  C47  1  0.59787000  0.72365000  0.02500000  1.0
  C  C48  1  0.65307000  0.22366000  0.52536000  1.0
  C  C49  1  0.40212000  0.27635000  0.97501000  1.0
  C  C50  1  0.28866000  0.74215000  0.58424000  1.0
  C  C51  1  0.61487000  0.75809000  0.91539000  1.0
  C  C52  1  0.71133000  0.25786000  0.41575000  1.0
  C  C53  1  0.38512000  0.24190000  0.08462000  1.0
  C  C54  1  0.38799000  0.63820000  0.64738000  1.0
  C  C55  1  0.67366000  0.86199000  0.85237000  1.0
  C  C56  1  0.61200000  0.36181000  0.35261000  1.0
  C  C57  1  0.32633000  0.13801000  0.14764000  1.0
  C  C58  1  0.65238000  0.45463000  0.67121000  1.0
  C  C59  1  0.77886000  0.04520000  0.82884000  1.0
  C  C60  1  0.34762000  0.54539000  0.32878000  1.0
  C  C61  1  0.22113000  0.95480000  0.17115000  1.0
  C  C62  1  0.24002000  0.06217000  0.70305000  1.0
  C  C63  1  0.00485000  0.43810000  0.79690000  1.0
  C  C64  1  0.75998000  0.93783000  0.29696000  1.0
  C  C65  1  0.99513000  0.56190000  0.20310000  1.0
  C  C66  1  0.38964000  0.99629000  0.64373000  1.0
  C  C67  1  0.02932000  0.50391000  0.85627000  1.0
  C  C68  1  0.61037000  0.00370000  0.35628000  1.0
  C  C69  1  0.97067000  0.49609000  0.14373000  1.0
  C  C70  1  0.41963000  0.03226000  0.53296000  1.0
  C  C71  1  0.98457000  0.46785000  0.96705000  1.0
  C  C72  1  0.58039000  0.96774000  0.46705000  1.0
  C  C73  1  0.01544000  0.53214000  0.03295000  1.0
  C  C74  1  0.28948000  0.13282000  0.48784000  1.0
  C  C75  1  0.90958000  0.36742000  0.01210000  1.0
  C  C76  1  0.71054000  0.86717000  0.51217000  1.0
  C  C77  1  0.09044000  0.63257000  0.98790000  1.0
  C  C78  1  0.14215000  0.19294000  0.55224000  1.0
  C  C79  1  0.88686000  0.30730000  0.94763000  1.0
  C  C80  1  0.85787000  0.80704000  0.44776000  1.0
  C  C81  1  0.11314000  0.69269000  0.05237000  1.0
  Br  Br82  1  0.06984000  0.84178000  0.64741000  1.0
  Br  Br83  1  0.55860000  0.65874000  0.85202000  1.0
  Br  Br84  1  0.93016000  0.15826000  0.35256000  1.0
  Br  Br85  1  0.44139000  0.34125000  0.14799000  1.0
  N  N86  1  0.11787000  0.16022000  0.65827000  1.0
  N  N87  1  0.93599000  0.34001000  0.84162000  1.0
  N  N88  1  0.88212000  0.83977000  0.34174000  1.0
  N  N89  1  0.06400000  0.65999000  0.15838000  1.0
  O  O90  1  0.59346000  0.41372000  0.76704000  1.0
  O  O91  1  0.77533000  0.08608000  0.73294000  1.0
  O  O92  1  0.40653000  0.58629000  0.23296000  1.0
  O  O93  1  0.22469000  0.91390000  0.26706000  1.0
  O  O94  1  0.80928000  0.39733000  0.62696000  1.0
  O  O95  1  0.83416000  0.10238000  0.87323000  1.0
  O  O96  1  0.19070000  0.60266000  0.37304000  1.0
  O  O97  1  0.16581000  0.89764000  0.12677000  1.0
  O  O98  1  0.77182000  0.54089000  0.44492000  1.0
  O  O99  1  0.75749000  0.95893000  0.05518000  1.0
  O  O100  1  0.22819000  0.45912000  0.55508000  1.0
  O  O101  1  0.24252000  0.04107000  0.94481000  1.0
