# generated using pymatgen
data_MnH6(CO2)4
_symmetry_space_group_name_H-M   'P 1'
_cell_length_a   7.65379000
_cell_length_b   7.65380000
_cell_length_c   7.79403000
_cell_angle_alpha   87.52690000
_cell_angle_beta   87.52430000
_cell_angle_gamma   73.79380000
_symmetry_Int_Tables_number   1
_chemical_formula_structural   MnH6(CO2)4
_chemical_formula_sum   'Mn2 H12 C8 O16'
_cell_volume   437.79657530
_cell_formula_units_Z   2
loop_
 _symmetry_equiv_pos_site_id
 _symmetry_equiv_pos_as_xyz
  1  'x, y, z'
loop_
 _atom_site_type_symbol
 _atom_site_label
 _atom_site_symmetry_multiplicity
 _atom_site_fract_x
 _atom_site_fract_y
 _atom_site_fract_z
 _atom_site_occupancy
  Mn  Mn0  1  0.50000000  0.00000000  0.00001000  1.0
  Mn  Mn1  1  0.00000000  0.50000000  0.50001000  1.0
  H  H2  1  0.31872000  0.32354000  0.76009000  1.0
  H  H3  1  0.67645000  0.68130000  0.73990000  1.0
  H  H4  1  0.68130000  0.67645000  0.23991000  1.0
  H  H5  1  0.32354000  0.31875000  0.26009000  1.0
  H  H6  1  0.14043000  0.87665000  0.92625000  1.0
  H  H7  1  0.12335000  0.85957000  0.57376000  1.0
  H  H8  1  0.85958000  0.12334000  0.07374000  1.0
  H  H9  1  0.87664000  0.14043000  0.42623000  1.0
  H  H10  1  0.09929000  0.61365000  0.87725000  1.0
  H  H11  1  0.38634000  0.90074000  0.62275000  1.0
  H  H12  1  0.90072000  0.38634000  0.12276000  1.0
  H  H13  1  0.61366000  0.09926000  0.37725000  1.0
  C  C14  1  0.29158000  0.20924000  0.69452000  1.0
  C  C15  1  0.79075000  0.70843000  0.80546000  1.0
  C  C16  1  0.70843000  0.79075000  0.30548000  1.0
  C  C17  1  0.20924000  0.29160000  0.19454000  1.0
  C  C18  1  0.24819000  0.75470000  0.96884000  1.0
  C  C19  1  0.24531000  0.75184000  0.53116000  1.0
  C  C20  1  0.75184000  0.24530000  0.03115000  1.0
  C  C21  1  0.75468000  0.24816000  0.46883000  1.0
  O  O22  1  0.38855000  0.04885000  0.73957000  1.0
  O  O23  1  0.95115000  0.61145000  0.76045000  1.0
  O  O24  1  0.61146000  0.95114000  0.26044000  1.0
  O  O25  1  0.04884000  0.38856000  0.23956000  1.0
  O  O26  1  0.17152000  0.23833000  0.58358000  1.0
  O  O27  1  0.76168000  0.82847000  0.91644000  1.0
  O  O28  1  0.82847000  0.76165000  0.41644000  1.0
  O  O29  1  0.23833000  0.17154000  0.08358000  1.0
  O  O30  1  0.38873000  0.76750000  0.03384000  1.0
  O  O31  1  0.23252000  0.61126000  0.46616000  1.0
  O  O32  1  0.61126000  0.23251000  0.96616000  1.0
  O  O33  1  0.76748000  0.38872000  0.53383000  1.0
  O  O34  1  0.21826000  0.59790000  0.94550000  1.0
  O  O35  1  0.40210000  0.78178000  0.55449000  1.0
  O  O36  1  0.78176000  0.40210000  0.05450000  1.0
  O  O37  1  0.59789000  0.21822000  0.44550000  1.0
