# generated using pymatgen
data_NiH8C9(NO3)2
_symmetry_space_group_name_H-M   'P 1'
_cell_length_a   9.84614000
_cell_length_b   9.84615000
_cell_length_c   13.73480000
_cell_angle_alpha   96.58540000
_cell_angle_beta   96.58560000
_cell_angle_gamma   106.83200000
_symmetry_Int_Tables_number   1
_chemical_formula_structural   NiH8C9(NO3)2
_chemical_formula_sum   'Ni4 H32 C36 N8 O24'
_cell_volume   1250.67743633
_cell_formula_units_Z   4
loop_
 _symmetry_equiv_pos_site_id
 _symmetry_equiv_pos_as_xyz
  1  'x, y, z'
loop_
 _atom_site_type_symbol
 _atom_site_label
 _atom_site_symmetry_multiplicity
 _atom_site_fract_x
 _atom_site_fract_y
 _atom_site_fract_z
 _atom_site_occupancy
  Ni  Ni0  1  0.49700000  0.00678000  0.25375000  1.0
  Ni  Ni1  1  0.99323000  0.50300000  0.24625000  1.0
  Ni  Ni2  1  0.50300000  0.99323000  0.74625000  1.0
  Ni  Ni3  1  0.00677000  0.49700000  0.75375000  1.0
  H  H4  1  0.51359000  0.09948000  0.42917000  1.0
  H  H5  1  0.90052000  0.48641000  0.07083000  1.0
  H  H6  1  0.48641000  0.90052000  0.57083000  1.0
  H  H7  1  0.09948000  0.51358000  0.92917000  1.0
  H  H8  1  0.36181000  0.98690000  0.41311000  1.0
  H  H9  1  0.01310000  0.63819000  0.08689000  1.0
  H  H10  1  0.63819000  0.01310000  0.58690000  1.0
  H  H11  1  0.98690000  0.36181000  0.91310000  1.0
  H  H12  1  0.71306000  0.98094000  0.17789000  1.0
  H  H13  1  0.01905000  0.28694000  0.32211000  1.0
  H  H14  1  0.28695000  0.01906000  0.82211000  1.0
  H  H15  1  0.98095000  0.71306000  0.67789000  1.0
  H  H16  1  0.61658000  0.99100000  0.07877000  1.0
  H  H17  1  0.00900000  0.38342000  0.42123000  1.0
  H  H18  1  0.38342000  0.00900000  0.92123000  1.0
  H  H19  1  0.99100000  0.61658000  0.57877000  1.0
  H  H20  1  0.37664000  0.25582000  0.25876000  1.0
  H  H21  1  0.74418000  0.62336000  0.24124000  1.0
  H  H22  1  0.62336000  0.74418000  0.74124000  1.0
  H  H23  1  0.25581000  0.37664000  0.75876000  1.0
  H  H24  1  0.78134000  0.21866000  0.25000000  1.0
  H  H25  1  0.21866000  0.78134000  0.75000000  1.0
  H  H26  1  0.61589000  0.75817000  0.26032000  1.0
  H  H27  1  0.24183000  0.38411000  0.23969000  1.0
  H  H28  1  0.38411000  0.24183000  0.73968000  1.0
  H  H29  1  0.75817000  0.61589000  0.76031000  1.0
  H  H30  1  0.20654000  0.79346000  0.25001000  1.0
  H  H31  1  0.79346000  0.20654000  0.75000000  1.0
  H  H32  1  0.81814000  0.83577000  0.36636000  1.0
  H  H33  1  0.16423000  0.18185000  0.13364000  1.0
  H  H34  1  0.18185000  0.16423000  0.63363000  1.0
  H  H35  1  0.83577000  0.81815000  0.86637000  1.0
  C  C36  1  0.54117000  0.45883000  0.25000000  1.0
  C  C37  1  0.45883000  0.54117000  0.75000000  1.0
  C  C38  1  0.48821000  0.31102000  0.25372000  1.0
  C  C39  1  0.68898000  0.51179000  0.24628000  1.0
  C  C40  1  0.51179000  0.68898000  0.74628000  1.0
  C  C41  1  0.31102000  0.48821000  0.75372000  1.0
  C  C42  1  0.71274000  0.28726000  0.25000000  1.0
  C  C43  1  0.28726000  0.71275000  0.75000000  1.0
  C  C44  1  0.44750000  0.55251000  0.25000000  1.0
  C  C45  1  0.55250000  0.44749000  0.75000000  1.0
  C  C46  1  0.50198000  0.70209000  0.25569000  1.0
  C  C47  1  0.29791000  0.49803000  0.24432000  1.0
  C  C48  1  0.49802000  0.29791000  0.74432000  1.0
  C  C49  1  0.70209000  0.50197000  0.75568000  1.0
  C  C50  1  0.27534000  0.72467000  0.25001000  1.0
  C  C51  1  0.72466000  0.27534000  0.75000000  1.0
  C  C52  1  0.87745000  0.03611000  0.46486000  1.0
  C  C53  1  0.96390000  0.12255000  0.03514000  1.0
  C  C54  1  0.12254000  0.96389000  0.53513000  1.0
  C  C55  1  0.03611000  0.87745000  0.96487000  1.0
  C  C56  1  0.98086000  0.13064000  0.54087000  1.0
  C  C57  1  0.86936000  0.01914000  0.95913000  1.0
  C  C58  1  0.01914000  0.86935000  0.45912000  1.0
  C  C59  1  0.13065000  0.98086000  0.04087000  1.0
  C  C60  1  0.89903000  0.90830000  0.42492000  1.0
  C  C61  1  0.09170000  0.10097000  0.07508000  1.0
  C  C62  1  0.10096000  0.09169000  0.57507000  1.0
  C  C63  1  0.90831000  0.89903000  0.92493000  1.0
  C  C64  1  0.73905000  0.06131000  0.42794000  1.0
  C  C65  1  0.93869000  0.26095000  0.07206000  1.0
  C  C66  1  0.26095000  0.93868000  0.57205000  1.0
  C  C67  1  0.06131000  0.73905000  0.92795000  1.0
  C  C68  1  0.97332000  0.27649000  0.58182000  1.0
  C  C69  1  0.72352000  0.02668000  0.91818000  1.0
  C  C70  1  0.02668000  0.72351000  0.41817000  1.0
  C  C71  1  0.27649000  0.97332000  0.08183000  1.0
  N  N72  1  0.57312000  0.22623000  0.25148000  1.0
  N  N73  1  0.77377000  0.42688000  0.24852000  1.0
  N  N74  1  0.42688000  0.77377000  0.74852000  1.0
  N  N75  1  0.22623000  0.57312000  0.75148000  1.0
  N  N76  1  0.41693000  0.78671000  0.25577000  1.0
  N  N77  1  0.21330000  0.58307000  0.24424000  1.0
  N  N78  1  0.58307000  0.21329000  0.74423000  1.0
  N  N79  1  0.78670000  0.41693000  0.75577000  1.0
  O  O80  1  0.69274000  0.01853000  0.33511000  1.0
  O  O81  1  0.98149000  0.30726000  0.16489000  1.0
  O  O82  1  0.30725000  0.98147000  0.66489000  1.0
  O  O83  1  0.01852000  0.69275000  0.83512000  1.0
  O  O84  1  0.67446000  0.11576000  0.48891000  1.0
  O  O85  1  0.88424000  0.32554000  0.01109000  1.0
  O  O86  1  0.32553000  0.88424000  0.51109000  1.0
  O  O87  1  0.11576000  0.67446000  0.98891000  1.0
  O  O88  1  0.99870000  0.30598000  0.67724000  1.0
  O  O89  1  0.69403000  0.00130000  0.82276000  1.0
  O  O90  1  0.00129000  0.69402000  0.32276000  1.0
  O  O91  1  0.30598000  0.99870000  0.17724000  1.0
  O  O92  1  0.94928000  0.35893000  0.52374000  1.0
  O  O93  1  0.64107000  0.05072000  0.97626000  1.0
  O  O94  1  0.05072000  0.64107000  0.47626000  1.0
  O  O95  1  0.35894000  0.94928000  0.02374000  1.0
  O  O96  1  0.41898000  0.06698000  0.38275000  1.0
  O  O97  1  0.93302000  0.58102000  0.11725000  1.0
  O  O98  1  0.58102000  0.93302000  0.61725000  1.0
  O  O99  1  0.06698000  0.41897000  0.88275000  1.0
  O  O100  1  0.61422000  0.95253000  0.14413000  1.0
  O  O101  1  0.04746000  0.38578000  0.35587000  1.0
  O  O102  1  0.38578000  0.04746000  0.85587000  1.0
  O  O103  1  0.95253000  0.61422000  0.64413000  1.0
