# generated using pymatgen
data_CdH14C12N5O3
_symmetry_space_group_name_H-M   'P 1'
_cell_length_a   9.76101000
_cell_length_b   11.15270000
_cell_length_c   18.96023538
_cell_angle_alpha   105.24360373
_cell_angle_beta   104.90738514
_cell_angle_gamma   90.01050000
_symmetry_Int_Tables_number   1
_chemical_formula_structural   CdH14C12N5O3
_chemical_formula_sum   'Cd4 H56 C48 N20 O12'
_cell_volume   1919.29820557
_cell_formula_units_Z   4
loop_
 _symmetry_equiv_pos_site_id
 _symmetry_equiv_pos_as_xyz
  1  'x, y, z'
loop_
 _atom_site_type_symbol
 _atom_site_label
 _atom_site_symmetry_multiplicity
 _atom_site_fract_x
 _atom_site_fract_y
 _atom_site_fract_z
 _atom_site_occupancy
  Cd  Cd0  1  0.87711000  0.37157000  0.42241000  1.0
  Cd  Cd1  1  0.45461000  0.12849000  0.57754000  1.0
  Cd  Cd2  1  0.12289000  0.62844000  0.57759000  1.0
  Cd  Cd3  1  0.54539000  0.87151000  0.42246000  1.0
  H  H4  1  0.70585000  0.91495000  0.05903000  1.0
  H  H5  1  0.64745000  0.58483000  0.94107000  1.0
  H  H6  1  0.29414000  0.08505000  0.94097000  1.0
  H  H7  1  0.35256000  0.41517000  0.05893000  1.0
  H  H8  1  0.81197000  0.03023000  0.19211000  1.0
  H  H9  1  0.62032000  0.46961000  0.80796000  1.0
  H  H10  1  0.18804000  0.96977000  0.80790000  1.0
  H  H11  1  0.37969000  0.53039000  0.19204000  1.0
  H  H12  1  0.48532000  0.28627000  0.17950000  1.0
  H  H13  1  0.30577000  0.21385000  0.82052000  1.0
  H  H14  1  0.51467000  0.71373000  0.82050000  1.0
  H  H15  1  0.69424000  0.78615000  0.17948000  1.0
  H  H16  1  0.37661000  0.17339000  0.04594000  1.0
  H  H17  1  0.33072000  0.32673000  0.95411000  1.0
  H  H18  1  0.62339000  0.82661000  0.95407000  1.0
  H  H19  1  0.66930000  0.67327000  0.04590000  1.0
  H  H20  1  0.87830000  0.63983000  0.36683000  1.0
  H  H21  1  0.51121000  0.85991000  0.63315000  1.0
  H  H22  1  0.12169000  0.36017000  0.63317000  1.0
  H  H23  1  0.48879000  0.14010000  0.36685000  1.0
  H  H24  1  0.88263000  0.85211000  0.54376000  1.0
  H  H25  1  0.33837000  0.64783000  0.45614000  1.0
  H  H26  1  0.11736000  0.14790000  0.45623000  1.0
  H  H27  1  0.66163000  0.35217000  0.54386000  1.0
  H  H28  1  0.57904000  0.45513000  0.36846000  1.0
  H  H29  1  0.21071000  0.04490000  0.63163000  1.0
  H  H30  1  0.42096000  0.54487000  0.63154000  1.0
  H  H31  1  0.78929000  0.95510000  0.36837000  1.0
  H  H32  1  0.50420000  0.58952000  0.36123000  1.0
  H  H33  1  0.14300000  0.91051000  0.63885000  1.0
  H  H34  1  0.49580000  0.41048000  0.63877000  1.0
  H  H35  1  0.85700000  0.08949000  0.36115000  1.0
  H  H36  1  0.18707000  0.51834000  0.30964000  1.0
  H  H37  1  0.87714000  0.98176000  0.69028000  1.0
  H  H38  1  0.81293000  0.48166000  0.69036000  1.0
  H  H39  1  0.12286000  0.01823000  0.30972000  1.0
  H  H40  1  0.23368000  0.66141000  0.29209000  1.0
  H  H41  1  0.94145000  0.83877000  0.70783000  1.0
  H  H42  1  0.76630000  0.33859000  0.70790000  1.0
  H  H43  1  0.05854000  0.16123000  0.29217000  1.0
  H  H44  1  0.10791000  0.54756000  0.22039000  1.0
  H  H45  1  0.88717000  0.95247000  0.77951000  1.0
  H  H46  1  0.89209000  0.45244000  0.77961000  1.0
  H  H47  1  0.11283000  0.04753000  0.22049000  1.0
  H  H48  1  0.90342000  0.79680000  0.32297000  1.0
  H  H49  1  0.58056000  0.70282000  0.67690000  1.0
  H  H50  1  0.09658000  0.20319000  0.67703000  1.0
  H  H51  1  0.41943000  0.29718000  0.32309000  1.0
  H  H52  1  0.98926000  0.77809000  0.24887000  1.0
  H  H53  1  0.74049000  0.72177000  0.75103000  1.0
  H  H54  1  0.01074000  0.22191000  0.75113000  1.0
  H  H55  1  0.25950000  0.27823000  0.24897000  1.0
  H  H56  1  0.09049000  0.84053000  0.34508000  1.0
  H  H57  1  0.74559000  0.65943000  0.65482000  1.0
  H  H58  1  0.90951000  0.15947000  0.65492000  1.0
  H  H59  1  0.25440000  0.34057000  0.34518000  1.0
  C  C60  1  0.53170000  0.03397000  0.04037000  1.0
  C  C61  1  0.49148000  0.46604000  0.95964000  1.0
  C  C62  1  0.46830000  0.96603000  0.95963000  1.0
  C  C63  1  0.50854000  0.53397000  0.04036000  1.0
  C  C64  1  0.72199000  0.23746000  0.27496000  1.0
  C  C65  1  0.44697000  0.26259000  0.72505000  1.0
  C  C66  1  0.27800000  0.76254000  0.72504000  1.0
  C  C67  1  0.55304000  0.73740000  0.27495000  1.0
  C  C68  1  0.65511000  0.16552000  0.19468000  1.0
  C  C69  1  0.46057000  0.33452000  0.80535000  1.0
  C  C70  1  0.34488000  0.83448000  0.80532000  1.0
  C  C71  1  0.53943000  0.66547000  0.19465000  1.0
  C  C72  1  0.65514000  0.99610000  0.08414000  1.0
  C  C73  1  0.57142000  0.50381000  0.91594000  1.0
  C  C74  1  0.34486000  0.00391000  0.91586000  1.0
  C  C75  1  0.42859000  0.49619000  0.08406000  1.0
  C  C76  1  0.71586000  0.06044000  0.15947000  1.0
  C  C77  1  0.55675000  0.43948000  0.84060000  1.0
  C  C78  1  0.28415000  0.93956000  0.84054000  1.0
  C  C79  1  0.44326000  0.56052000  0.15940000  1.0
  C  C80  1  0.53171000  0.20380000  0.15233000  1.0
  C  C81  1  0.37943000  0.29627000  0.84769000  1.0
  C  C82  1  0.46828000  0.79620000  0.84767000  1.0
  C  C83  1  0.62058000  0.70373000  0.15232000  1.0
  C  C84  1  0.47176000  0.13958000  0.07690000  1.0
  C  C85  1  0.39494000  0.36047000  0.92312000  1.0
  C  C86  1  0.52824000  0.86043000  0.92311000  1.0
  C  C87  1  0.60507000  0.63953000  0.07688000  1.0
  C  C88  1  0.96215000  0.58692000  0.34579000  1.0
  C  C89  1  0.61607000  0.91286000  0.65411000  1.0
  C  C90  1  0.03784000  0.41307000  0.65421000  1.0
  C  C91  1  0.38393000  0.08713000  0.34589000  1.0
  C  C92  1  0.68115000  0.60822000  0.44502000  1.0
  C  C93  1  0.23607000  0.89178000  0.55502000  1.0
  C  C94  1  0.31885000  0.39178000  0.55498000  1.0
  C  C95  1  0.76392000  0.10822000  0.44498000  1.0
  C  C96  1  0.83171000  0.75914000  0.51517000  1.0
  C  C97  1  0.31618000  0.74082000  0.48476000  1.0
  C  C98  1  0.16829000  0.24086000  0.48483000  1.0
  C  C99  1  0.68381000  0.25918000  0.51524000  1.0
  C  C100  1  0.14743000  0.59085000  0.28190000  1.0
  C  C101  1  0.86528000  0.90920000  0.71799000  1.0
  C  C102  1  0.85257000  0.40914000  0.71810000  1.0
  C  C103  1  0.13470000  0.09080000  0.28200000  1.0
  C  C104  1  0.00263000  0.77318000  0.30744000  1.0
  C  C105  1  0.69525000  0.72665000  0.69245000  1.0
  C  C106  1  0.99736000  0.22682000  0.69255000  1.0
  C  C107  1  0.30473000  0.27335000  0.30754000  1.0
  N  N108  1  0.79993000  0.55713000  0.47415000  1.0
  N  N109  1  0.32574000  0.94283000  0.52586000  1.0
  N  N110  1  0.20008000  0.44287000  0.52585000  1.0
  N  N111  1  0.67426000  0.05717000  0.47414000  1.0
  N  N112  1  0.03336000  0.64774000  0.31241000  1.0
  N  N113  1  0.72077000  0.85214000  0.68747000  1.0
  N  N114  1  0.96664000  0.35226000  0.68759000  1.0
  N  N115  1  0.27923000  0.14786000  0.31253000  1.0
  N  N116  1  0.69668000  0.73502000  0.47011000  1.0
  N  N117  1  0.22633000  0.76500000  0.52989000  1.0
  N  N118  1  0.30333000  0.26498000  0.52989000  1.0
  N  N119  1  0.77367000  0.23500000  0.47011000  1.0
  N  N120  1  0.89658000  0.65572000  0.51916000  1.0
  N  N121  1  0.37721000  0.84420000  0.48078000  1.0
  N  N122  1  0.10343000  0.34428000  0.48084000  1.0
  N  N123  1  0.62279000  0.15579000  0.51922000  1.0
  N  N124  1  0.55926000  0.54155000  0.39767000  1.0
  N  N125  1  0.16163000  0.95850000  0.60241000  1.0
  N  N126  1  0.44074000  0.45845000  0.60233000  1.0
  N  N127  1  0.83837000  0.04150000  0.39759000  1.0
  O  O128  1  0.84519000  0.20947000  0.30781000  1.0
  O  O129  1  0.53745000  0.29037000  0.69218000  1.0
  O  O130  1  0.15481000  0.79053000  0.69219000  1.0
  O  O131  1  0.46255000  0.70963000  0.30782000  1.0
  O  O132  1  0.98736000  0.48023000  0.35318000  1.0
  O  O133  1  0.63381000  0.01954000  0.64666000  1.0
  O  O134  1  0.01263000  0.51977000  0.64681000  1.0
  O  O135  1  0.36619000  0.98046000  0.35333000  1.0
  O  O136  1  0.65652000  0.32399000  0.30770000  1.0
  O  O137  1  0.34849000  0.17629000  0.69232000  1.0
  O  O138  1  0.34347000  0.67601000  0.69230000  1.0
  O  O139  1  0.65151000  0.82371000  0.30768000  1.0
