# generated using pymatgen
data_CdH6C7N4
_symmetry_space_group_name_H-M   'P 1'
_cell_length_a   9.28612000
_cell_length_b   14.79390000
_cell_length_c   15.24600000
_cell_angle_alpha   90.00000000
_cell_angle_beta   90.00000000
_cell_angle_gamma   100.45500000
_symmetry_Int_Tables_number   1
_chemical_formula_structural   CdH6C7N4
_chemical_formula_sum   'Cd8 H48 C56 N32'
_cell_volume   2059.69107891
_cell_formula_units_Z   8
loop_
 _symmetry_equiv_pos_site_id
 _symmetry_equiv_pos_as_xyz
  1  'x, y, z'
loop_
 _atom_site_type_symbol
 _atom_site_label
 _atom_site_symmetry_multiplicity
 _atom_site_fract_x
 _atom_site_fract_y
 _atom_site_fract_z
 _atom_site_occupancy
  Cd  Cd0  1  0.69214000  0.24393000  0.79545000  1.0
  Cd  Cd1  1  0.30786000  0.25607000  0.29545000  1.0
  Cd  Cd2  1  0.30786000  0.75607000  0.20455000  1.0
  Cd  Cd3  1  0.69213000  0.74393000  0.70455000  1.0
  Cd  Cd4  1  0.76538000  0.99809000  0.76641000  1.0
  Cd  Cd5  1  0.23462000  0.50191000  0.26641000  1.0
  Cd  Cd6  1  0.23462000  0.00191000  0.23359000  1.0
  Cd  Cd7  1  0.76538000  0.49809000  0.73359000  1.0
  H  H8  1  0.46529000  0.93622000  0.65064000  1.0
  H  H9  1  0.53471000  0.56378000  0.15064000  1.0
  H  H10  1  0.53471000  0.06378000  0.34936000  1.0
  H  H11  1  0.46529000  0.43622000  0.84936000  1.0
  H  H12  1  0.33974000  0.19318000  0.72515000  1.0
  H  H13  1  0.66026000  0.30681000  0.22515000  1.0
  H  H14  1  0.66026000  0.80682000  0.27485000  1.0
  H  H15  1  0.33973000  0.69318000  0.77485000  1.0
  H  H16  1  0.16647000  0.95917000  0.61211000  1.0
  H  H17  1  0.83353000  0.54083000  0.11211000  1.0
  H  H18  1  0.83353000  0.04083000  0.38789000  1.0
  H  H19  1  0.16647000  0.45917000  0.88789000  1.0
  H  H20  1  0.12463000  0.06676000  0.63878000  1.0
  H  H21  1  0.87537000  0.43324000  0.13878000  1.0
  H  H22  1  0.87537000  0.93324000  0.36122000  1.0
  H  H23  1  0.12463000  0.56676000  0.86122000  1.0
  H  H24  1  0.36779000  0.20467000  0.51328000  1.0
  H  H25  1  0.63221000  0.29533000  0.01328000  1.0
  H  H26  1  0.63221000  0.79533000  0.48672000  1.0
  H  H27  1  0.36779000  0.70467000  0.98672000  1.0
  H  H28  1  0.11338000  0.94154000  0.43760000  1.0
  H  H29  1  0.88662000  0.55846000  0.93760000  1.0
  H  H30  1  0.88662000  0.05846000  0.56240000  1.0
  H  H31  1  0.11338000  0.44154000  0.06240000  1.0
  H  H32  1  0.78281000  0.45868000  0.51289000  1.0
  H  H33  1  0.21719000  0.04133000  0.01289000  1.0
  H  H34  1  0.21719000  0.54133000  0.48711000  1.0
  H  H35  1  0.78281000  0.95868000  0.98711000  1.0
  H  H36  1  0.66310000  0.17257000  0.58811000  1.0
  H  H37  1  0.33690000  0.32743000  0.08811000  1.0
  H  H38  1  0.33690000  0.82743000  0.41189000  1.0
  H  H39  1  0.66310000  0.67257000  0.91189000  1.0
  H  H40  1  0.64038000  0.30788000  0.37966000  1.0
  H  H41  1  0.35962000  0.19212000  0.87966000  1.0
  H  H42  1  0.35962000  0.69212000  0.62034000  1.0
  H  H43  1  0.64038000  0.80788000  0.12034000  1.0
  H  H44  1  0.68283000  0.20103000  0.41130000  1.0
  H  H45  1  0.31717000  0.29897000  0.91130000  1.0
  H  H46  1  0.31717000  0.79897000  0.58871000  1.0
  H  H47  1  0.68283000  0.70103000  0.08870000  1.0
  H  H48  1  0.98878000  0.18490000  0.39566000  1.0
  H  H49  1  0.01123000  0.31510000  0.89566000  1.0
  H  H50  1  0.01122000  0.81510000  0.60434000  1.0
  H  H51  1  0.98877000  0.68490000  0.10434000  1.0
  H  H52  1  0.87523000  0.44541000  0.32068000  1.0
  H  H53  1  0.12477000  0.05459000  0.82068000  1.0
  H  H54  1  0.12477000  0.55459000  0.67932000  1.0
  H  H55  1  0.87523000  0.94542000  0.17932000  1.0
  C  C56  1  0.21020000  0.03337000  0.60960000  1.0
  C  C57  1  0.78980000  0.46663000  0.10960000  1.0
  C  C58  1  0.78980000  0.96663000  0.39040000  1.0
  C  C59  1  0.21020000  0.53337000  0.89040000  1.0
  C  C60  1  0.34504000  0.05505000  0.66539000  1.0
  C  C61  1  0.65496000  0.44495000  0.16539000  1.0
  C  C62  1  0.65496000  0.94495000  0.33461000  1.0
  C  C63  1  0.34504000  0.55505000  0.83461000  1.0
  C  C64  1  0.45432000  0.00235000  0.67845000  1.0
  C  C65  1  0.54567000  0.49765000  0.17845000  1.0
  C  C66  1  0.54567000  0.99764000  0.32155000  1.0
  C  C67  1  0.45432000  0.50235000  0.82155000  1.0
  C  C68  1  0.39138000  0.13353000  0.71639000  1.0
  C  C69  1  0.60862000  0.36647000  0.21639000  1.0
  C  C70  1  0.60862000  0.86647000  0.28361000  1.0
  C  C71  1  0.39138000  0.63353000  0.78361000  1.0
  C  C72  1  0.23215000  0.06173000  0.51504000  1.0
  C  C73  1  0.76786000  0.43827000  0.01504000  1.0
  C  C74  1  0.76786000  0.93827000  0.48496000  1.0
  C  C75  1  0.23215000  0.56173000  0.98496000  1.0
  C  C76  1  0.30671000  0.14479000  0.47996000  1.0
  C  C77  1  0.69329000  0.35521000  0.97995000  1.0
  C  C78  1  0.69329000  0.85521000  0.52005000  1.0
  C  C79  1  0.30671000  0.64479000  0.02005000  1.0
  C  C80  1  0.17672000  0.01088000  0.44113000  1.0
  C  C81  1  0.82328000  0.48912000  0.94113000  1.0
  C  C82  1  0.82328000  0.98912000  0.55887000  1.0
  C  C83  1  0.17672000  0.51088000  0.05887000  1.0
  C  C84  1  0.72038000  0.27582000  0.41605000  1.0
  C  C85  1  0.27962000  0.22418000  0.91605000  1.0
  C  C86  1  0.27962000  0.72418000  0.58395000  1.0
  C  C87  1  0.72037000  0.77582000  0.08395000  1.0
  C  C88  1  0.72069000  0.30387000  0.51084000  1.0
  C  C89  1  0.27931000  0.19613000  0.01084000  1.0
  C  C90  1  0.27931000  0.69613000  0.48916000  1.0
  C  C91  1  0.72069000  0.80387000  0.98916000  1.0
  C  C92  1  0.75360000  0.39281000  0.54600000  1.0
  C  C93  1  0.24640000  0.10719000  0.04600000  1.0
  C  C94  1  0.24639000  0.60719000  0.45400000  1.0
  C  C95  1  0.75360000  0.89281000  0.95400000  1.0
  C  C96  1  0.69340000  0.24704000  0.58458000  1.0
  C  C97  1  0.30661000  0.25296000  0.08458000  1.0
  C  C98  1  0.30660000  0.75296000  0.41542000  1.0
  C  C99  1  0.69340000  0.74704000  0.91542000  1.0
  C  C100  1  0.86808000  0.30252000  0.37370000  1.0
  C  C101  1  0.13192000  0.19748000  0.87370000  1.0
  C  C102  1  0.13192000  0.69748000  0.62630000  1.0
  C  C103  1  0.86808000  0.80252000  0.12630000  1.0
  C  C104  1  0.98351000  0.25328000  0.37117000  1.0
  C  C105  1  0.01650000  0.24673000  0.87117000  1.0
  C  C106  1  0.01649000  0.74673000  0.62883000  1.0
  C  C107  1  0.98350000  0.75328000  0.12883000  1.0
  C  C108  1  0.92631000  0.38613000  0.33312000  1.0
  C  C109  1  0.07369000  0.11388000  0.83312000  1.0
  C  C110  1  0.07369000  0.61388000  0.66688000  1.0
  C  C111  1  0.92631000  0.88613000  0.16688000  1.0
  N  N112  1  0.55720000  0.04625000  0.73389000  1.0
  N  N113  1  0.44280000  0.45375000  0.23389000  1.0
  N  N114  1  0.44280000  0.95375000  0.26611000  1.0
  N  N115  1  0.55720000  0.54625000  0.76611000  1.0
  N  N116  1  0.51798000  0.12732000  0.75806000  1.0
  N  N117  1  0.48202000  0.37268000  0.25807000  1.0
  N  N118  1  0.48202000  0.87268000  0.24193000  1.0
  N  N119  1  0.51798000  0.62732000  0.74193000  1.0
  N  N120  1  0.29599000  0.14287000  0.39138000  1.0
  N  N121  1  0.70401000  0.35713000  0.89137000  1.0
  N  N122  1  0.70401000  0.85713000  0.60863000  1.0
  N  N123  1  0.29599000  0.64287000  0.10863000  1.0
  N  N124  1  0.21356000  0.06025000  0.36735000  1.0
  N  N125  1  0.78644000  0.43975000  0.86735000  1.0
  N  N126  1  0.78644000  0.93975000  0.63265000  1.0
  N  N127  1  0.21356000  0.56025000  0.13265000  1.0
  N  N128  1  0.74638000  0.38844000  0.63445000  1.0
  N  N129  1  0.25362000  0.11156000  0.13445000  1.0
  N  N130  1  0.25362000  0.61156000  0.36556000  1.0
  N  N131  1  0.74638000  0.88844000  0.86555000  1.0
  N  N132  1  0.70889000  0.29861000  0.65836000  1.0
  N  N133  1  0.29111000  0.20139000  0.15836000  1.0
  N  N134  1  0.29111000  0.70139000  0.34164000  1.0
  N  N135  1  0.70889000  0.79861000  0.84164000  1.0
  N  N136  1  0.10140000  0.30397000  0.33176000  1.0
  N  N137  1  0.89860000  0.19603000  0.83176000  1.0
  N  N138  1  0.89860000  0.69603000  0.66824000  1.0
  N  N139  1  0.10140000  0.80397000  0.16824000  1.0
  N  N140  1  0.06582000  0.38598000  0.30785000  1.0
  N  N141  1  0.93418000  0.11403000  0.80785000  1.0
  N  N142  1  0.93418000  0.61403000  0.69215000  1.0
  N  N143  1  0.06582000  0.88598000  0.19215000  1.0
