# generated using pymatgen
data_AlH6C11O6
_symmetry_space_group_name_H-M   'P 1'
_cell_length_a   6.67196000
_cell_length_b   17.98800000
_cell_length_c   19.97020000
_cell_angle_alpha   95.70230000
_cell_angle_beta   92.51130000
_cell_angle_gamma   93.38750000
_symmetry_Int_Tables_number   1
_chemical_formula_structural   AlH6C11O6
_chemical_formula_sum   'Al4 H24 C44 O24'
_cell_volume   2377.72053352
_cell_formula_units_Z   4
loop_
 _symmetry_equiv_pos_site_id
 _symmetry_equiv_pos_as_xyz
  1  'x, y, z'
loop_
 _atom_site_type_symbol
 _atom_site_label
 _atom_site_symmetry_multiplicity
 _atom_site_fract_x
 _atom_site_fract_y
 _atom_site_fract_z
 _atom_site_occupancy
  Al  Al0  1  0.74262000  0.74926000  0.24992000  1.0
  Al  Al1  1  0.25739000  0.25074000  0.75008000  1.0
  Al  Al2  1  0.24287000  0.75011000  0.25031000  1.0
  Al  Al3  1  0.75714000  0.24989000  0.74969000  1.0
  H  H4  1  0.77462000  0.44546000  0.88244000  1.0
  H  H5  1  0.22538000  0.55453000  0.11757000  1.0
  H  H6  1  0.73406000  0.05420000  0.61593000  1.0
  H  H7  1  0.26595000  0.94582000  0.38406000  1.0
  H  H8  1  0.33173000  0.35763000  0.94302000  1.0
  H  H9  1  0.66826000  0.64235000  0.05699000  1.0
  H  H10  1  0.17662000  0.14427000  0.55908000  1.0
  H  H11  1  0.82339000  0.85574000  0.44091000  1.0
  H  H12  1  0.53238000  0.65924000  0.94562000  1.0
  H  H13  1  0.39285000  0.59996000  0.99690000  1.0
  H  H14  1  0.35330000  0.58707000  0.90715000  1.0
  H  H15  1  0.60715000  0.40002000  0.00311000  1.0
  H  H16  1  0.46760000  0.34073000  0.05438000  1.0
  H  H17  1  0.64667000  0.41290000  0.09286000  1.0
  H  H18  1  0.10361000  0.89661000  0.49972000  1.0
  H  H19  1  0.96180000  0.83781000  0.55082000  1.0
  H  H20  1  0.14527000  0.90834000  0.58942000  1.0
  H  H21  1  0.03819000  0.16220000  0.44917000  1.0
  H  H22  1  0.89641000  0.10341000  0.50026000  1.0
  H  H23  1  0.85474000  0.09167000  0.41057000  1.0
  H  H24  1  0.47198000  0.65162000  0.22981000  1.0
  H  H25  1  0.52804000  0.34838000  0.77023000  1.0
  H  H26  1  0.00876000  0.84913000  0.25937000  1.0
  H  H27  1  0.99126000  0.15087000  0.74069000  1.0
  C  C28  1  0.00202000  0.47764000  0.52149000  1.0
  C  C29  1  0.99794000  0.52240000  0.47853000  1.0
  C  C30  1  0.50097000  0.02226000  0.97840000  1.0
  C  C31  1  0.49906000  0.97770000  0.02157000  1.0
  C  C32  1  0.48827000  0.83555000  0.16407000  1.0
  C  C33  1  0.51173000  0.16444000  0.83592000  1.0
  C  C34  1  0.99799000  0.66460000  0.33611000  1.0
  C  C35  1  0.00200000  0.33540000  0.66389000  1.0
  C  C36  1  0.52660000  0.84208000  0.34595000  1.0
  C  C37  1  0.47340000  0.15793000  0.65404000  1.0
  C  C38  1  0.96034000  0.65692000  0.15404000  1.0
  C  C39  1  0.03966000  0.34307000  0.84597000  1.0
  C  C40  1  0.00601000  0.38530000  0.61163000  1.0
  C  C41  1  0.99397000  0.61472000  0.38838000  1.0
  C  C42  1  0.50644000  0.11441000  0.88808000  1.0
  C  C43  1  0.49354000  0.88558000  0.11191000  1.0
  C  C44  1  0.05125000  0.39713000  0.90771000  1.0
  C  C45  1  0.94874000  0.60286000  0.09230000  1.0
  C  C46  1  0.45767000  0.10368000  0.59245000  1.0
  C  C47  1  0.54233000  0.89633000  0.40753000  1.0
  C  C48  1  0.00483000  0.42923000  0.56843000  1.0
  C  C49  1  0.99513000  0.57079000  0.43159000  1.0
  C  C50  1  0.50366000  0.07053000  0.93134000  1.0
  C  C51  1  0.49636000  0.92944000  0.06863000  1.0
  C  C52  1  0.76717000  0.55264000  0.98846000  1.0
  C  C53  1  0.23281000  0.44734000  0.01156000  1.0
  C  C54  1  0.73128000  0.94615000  0.51011000  1.0
  C  C55  1  0.26873000  0.05387000  0.48987000  1.0
  C  C56  1  0.78177000  0.60258000  0.04597000  1.0
  C  C57  1  0.21821000  0.39740000  0.95404000  1.0
  C  C58  1  0.71181000  0.89606000  0.45273000  1.0
  C  C59  1  0.28819000  0.10396000  0.54725000  1.0
  C  C60  1  0.09795000  0.55328000  0.08155000  1.0
  C  C61  1  0.90204000  0.44671000  0.91847000  1.0
  C  C62  1  0.39543000  0.94668000  0.41921000  1.0
  C  C63  1  0.60459000  0.05334000  0.58078000  1.0
  C  C64  1  0.08303000  0.50045000  0.02405000  1.0
  C  C65  1  0.91697000  0.49953000  0.97597000  1.0
  C  C66  1  0.41560000  0.99981000  0.47651000  1.0
  C  C67  1  0.58440000  0.00021000  0.52348000  1.0
  C  C68  1  0.46521000  0.60237000  0.94871000  1.0
  C  C69  1  0.53477000  0.39761000  0.05131000  1.0
  C  C70  1  0.03203000  0.89430000  0.54807000  1.0
  C  C71  1  0.96799000  0.10572000  0.45192000  1.0
  O  O72  1  0.35506000  0.82896000  0.31475000  1.0
  O  O73  1  0.64494000  0.17105000  0.68524000  1.0
  O  O74  1  0.79691000  0.68501000  0.17148000  1.0
  O  O75  1  0.20309000  0.31500000  0.82852000  1.0
  O  O76  1  0.65713000  0.82359000  0.19188000  1.0
  O  O77  1  0.34287000  0.17641000  0.80812000  1.0
  O  O78  1  0.17063000  0.69185000  0.32319000  1.0
  O  O79  1  0.82937000  0.30815000  0.67681000  1.0
  O  O80  1  0.68814000  0.81292000  0.32815000  1.0
  O  O81  1  0.31186000  0.18709000  0.67185000  1.0
  O  O82  1  0.13110000  0.67080000  0.18560000  1.0
  O  O83  1  0.86891000  0.32920000  0.81440000  1.0
  O  O84  1  0.82935000  0.67553000  0.30765000  1.0
  O  O85  1  0.17065000  0.32448000  0.69235000  1.0
  O  O86  1  0.31502000  0.80925000  0.17748000  1.0
  O  O87  1  0.68498000  0.19074000  0.82252000  1.0
  O  O88  1  0.48458000  0.70418000  0.24648000  1.0
  O  O89  1  0.51543000  0.29583000  0.75352000  1.0
  O  O90  1  0.99998000  0.79498000  0.25291000  1.0
  O  O91  1  0.00004000  0.20502000  0.74709000  1.0
  O  O92  1  0.61426000  0.54849000  0.94058000  1.0
  O  O93  1  0.38572000  0.45149000  0.05943000  1.0
  O  O94  1  0.88648000  0.94941000  0.55707000  1.0
  O  O95  1  0.11354000  0.05061000  0.44291000  1.0
