# generated using pymatgen
data_Al3H34C51N15O14
_symmetry_space_group_name_H-M   'P 1'
_cell_length_a   14.09094389
_cell_length_b   14.30720000
_cell_length_c   34.68480000
_cell_angle_alpha   90.07790000
_cell_angle_beta   90.03040755
_cell_angle_gamma   60.85227156
_symmetry_Int_Tables_number   1
_chemical_formula_structural   Al3H34C51N15O14
_chemical_formula_sum   'Al6 H68 C102 N30 O28'
_cell_volume   6107.03202738
_cell_formula_units_Z   2
loop_
 _symmetry_equiv_pos_site_id
 _symmetry_equiv_pos_as_xyz
  1  'x, y, z'
loop_
 _atom_site_type_symbol
 _atom_site_label
 _atom_site_symmetry_multiplicity
 _atom_site_fract_x
 _atom_site_fract_y
 _atom_site_fract_z
 _atom_site_occupancy
  Al  Al0  1  0.48144000  0.74342000  0.50159000  1.0
  Al  Al1  1  0.71650000  0.53707000  0.49934000  1.0
  Al  Al2  1  0.70343000  0.75203000  0.50006000  1.0
  Al  Al3  1  0.21582000  0.26372000  0.00277000  1.0
  Al  Al4  1  0.25005000  0.46839000  0.99945000  1.0
  Al  Al5  1  0.44787000  0.25310000  0.00189000  1.0
  H  H6  1  0.81753000  0.46464000  0.60144000  1.0
  H  H7  1  0.38368000  0.68052000  0.40075000  1.0
  H  H8  1  0.67679000  0.91831000  0.40135000  1.0
  H  H9  1  0.88288000  0.41535000  0.39948000  1.0
  H  H10  1  0.88872000  0.41359000  0.66845000  1.0
  H  H11  1  0.66789000  0.93360000  0.66947000  1.0
  H  H12  1  0.36556000  0.64900000  0.66506000  1.0
  H  H13  1  0.30497000  0.59090000  0.16956000  1.0
  H  H14  1  0.64030000  0.01761000  0.16297000  1.0
  H  H15  1  0.93835000  0.40100000  0.15593000  1.0
  H  H16  1  0.04271000  0.60825000  0.65808000  1.0
  H  H17  1  0.68277000  0.88902000  0.59931000  1.0
  H  H18  1  0.33324000  0.00780000  0.66666667  1.0
  H  H19  1  0.64047000  0.33182000  0.66431000  1.0
  H  H20  1  0.65074000  0.39765000  0.15639000  1.0
  H  H21  1  0.36699000  0.96199000  0.16753000  1.0
  H  H22  1  0.00669000  0.66089000  0.16958000  1.0
  H  H23  1  0.04517000  0.31921000  0.82938000  1.0
  H  H24  1  0.61653000  0.03207000  0.83644000  1.0
  H  H25  1  0.31967000  0.60424000  0.83056000  1.0
  H  H26  1  0.36512000  0.67364000  0.32900000  1.0
  H  H27  1  0.68395000  0.92662000  0.32920000  1.0
  H  H28  1  0.40591000  0.67162000  0.59642000  1.0
  H  H29  1  0.90764000  0.40478000  0.32771000  1.0
  H  H30  1  0.12469000  0.58455000  0.89375000  1.0
  H  H31  1  0.26728000  0.11934000  0.90082000  1.0
  H  H32  1  0.57226000  0.26585000  0.89766000  1.0
  H  H33  1  0.70818000  0.41650000  0.39458000  1.0
  H  H34  1  0.42013000  0.83965000  0.39286000  1.0
  H  H35  1  0.85236000  0.72885000  0.39951000  1.0
  H  H36  1  0.10090000  0.58900000  0.82202000  1.0
  H  H37  1  0.29240000  0.07583000  0.83008000  1.0
  H  H38  1  0.58696000  0.28232000  0.82629000  1.0
  H  H39  1  0.28023000  0.54329000  0.10250000  1.0
  H  H40  1  0.69201000  0.41119000  0.32262000  1.0
  H  H41  1  0.42887000  0.84419000  0.32057000  1.0
  H  H42  1  0.87777000  0.71864000  0.32780000  1.0
  H  H43  1  0.04910000  0.67068000  0.60016000  1.0
  H  H44  1  0.87702000  0.83225000  0.61273000  1.0
  H  H45  1  0.82768000  0.80103000  0.56980000  1.0
  H  H46  1  0.93606000  0.83053000  0.56678000  1.0
  H  H47  1  0.25469000  0.01596000  0.61073000  1.0
  H  H48  1  0.21067000  0.08709000  0.55095000  1.0
  H  H49  1  0.29821000  0.95237000  0.53479000  1.0
  H  H50  1  0.57148000  0.11159000  0.10028000  1.0
  H  H51  1  0.34952000  0.04380000  0.54033000  1.0
  H  H52  1  0.73428000  0.26678000  0.61237000  1.0
  H  H53  1  0.71566000  0.20457000  0.55539000  1.0
  H  H54  1  0.75442000  0.29607000  0.53530000  1.0
  H  H55  1  0.61498000  0.33489000  0.54088000  1.0
  H  H56  1  0.71576000  0.33761000  0.09777000  1.0
  H  H57  1  0.70933000  0.17399000  0.10898000  1.0
  H  H58  1  0.75447000  0.18119000  0.06127000  1.0
  H  H59  1  0.61844000  0.20974000  0.06891000  1.0
  H  H60  1  0.25052000  0.01564000  0.12114000  1.0
  H  H61  1  0.00738000  0.37713000  0.08804000  1.0
  H  H62  1  0.14520000  0.20250000  0.13612000  1.0
  H  H63  1  0.10649000  0.17391000  0.08996000  1.0
  H  H64  1  0.19214000  0.23094000  0.09217000  1.0
  H  H65  1  0.07815000  0.70499000  0.12302000  1.0
  H  H66  1  0.96382000  0.80733000  0.07397000  1.0
  H  H67  1  0.99906000  0.69033000  0.04605000  1.0
  H  H68  1  0.09400000  0.73705000  0.05095000  1.0
  H  H69  1  0.07203000  0.31388000  0.90118000  1.0
  H  H70  1  0.59036000  0.07612000  0.90709000  1.0
  H  H71  1  0.30538000  0.58700000  0.90201000  1.0
  H  H72  1  0.30281000  0.79342000  0.48251000  1.0
  H  H73  1  0.16570000  0.13464000  0.01689000  1.0
  C  C74  1  0.54405000  0.86882000  0.55511000  1.0
  C  C75  1  0.49673000  0.52361000  0.20639000  1.0
  C  C76  1  0.68541000  0.21765000  0.08126000  1.0
  C  C77  1  0.17274000  0.17449000  0.10641000  1.0
  C  C78  1  0.03055000  0.72768000  0.06598000  1.0
  C  C79  1  0.54328000  0.92843000  0.20605000  1.0
  C  C80  1  0.93768000  0.54486000  0.20775000  1.0
  C  C81  1  0.06181000  0.37740000  0.84376000  1.0
  C  C82  1  0.54060000  0.05072000  0.85080000  1.0
  C  C83  1  0.37530000  0.53099000  0.84561000  1.0
  C  C84  1  0.43963000  0.61731000  0.34363000  1.0
  C  C85  1  0.62613000  0.90816000  0.34339000  1.0
  C  C86  1  0.89692000  0.47477000  0.34375000  1.0
  C  C87  1  0.07626000  0.37456000  0.88345000  1.0
  C  C88  1  0.56700000  0.54861000  0.55347000  1.0
  C  C89  1  0.52623000  0.07474000  0.88995000  1.0
  C  C90  1  0.36754000  0.52149000  0.88518000  1.0
  C  C91  1  0.44967000  0.62073000  0.38332000  1.0
  C  C92  1  0.62178000  0.90407000  0.38333000  1.0
  C  C93  1  0.88334000  0.48060000  0.38352000  1.0
  C  C94  1  0.10649000  0.52746000  0.87935000  1.0
  C  C95  1  0.34344000  0.09913000  0.88631000  1.0
  C  C96  1  0.51853000  0.33995000  0.88273000  1.0
  C  C97  1  0.63335000  0.47184000  0.37989000  1.0
  C  C98  1  0.47676000  0.85929000  0.37844000  1.0
  C  C99  1  0.83873000  0.59076000  0.55293000  1.0
  C  C100  1  0.86659000  0.65760000  0.38356000  1.0
  C  C101  1  0.09321000  0.52994000  0.83958000  1.0
  C  C102  1  0.35732000  0.07543000  0.84723000  1.0
  C  C103  1  0.52650000  0.34900000  0.84317000  1.0
  C  C104  1  0.62431000  0.46887000  0.34000000  1.0
  C  C105  1  0.48179000  0.86177000  0.33847000  1.0
  C  C106  1  0.88028000  0.65210000  0.34383000  1.0
  C  C107  1  0.07164000  0.45429000  0.82139000  1.0
  C  C108  1  0.45590000  0.05147000  0.82906000  1.0
  C  C109  1  0.45390000  0.44418000  0.82417000  1.0
  C  C110  1  0.40104000  0.14652000  0.06014000  1.0
  C  C111  1  0.52786000  0.54274000  0.32148000  1.0
  C  C112  1  0.55777000  0.88463000  0.32060000  1.0
  C  C113  1  0.89364000  0.56138000  0.32345000  1.0
  C  C114  1  0.09955000  0.44901000  0.90149000  1.0
  C  C115  1  0.42748000  0.09961000  0.90789000  1.0
  C  C116  1  0.43809000  0.42550000  0.90395000  1.0
  C  C117  1  0.54705000  0.54925000  0.40174000  1.0
  C  C118  1  0.54825000  0.87810000  0.40112000  1.0
  C  C119  1  0.86612000  0.57278000  0.40366000  1.0
  C  C120  1  0.55423000  0.85703000  0.44339000  1.0
  C  C121  1  0.10669000  0.46385000  0.05332000  1.0
  C  C122  1  0.56117000  0.56583000  0.44335000  1.0
  C  C123  1  0.83295000  0.58703000  0.44486000  1.0
  C  C124  1  0.40566000  0.13701000  0.94860000  1.0
  C  C125  1  0.12729000  0.43671000  0.94334000  1.0
  C  C126  1  0.41977000  0.40945000  0.94497000  1.0
  C  C127  1  0.88674000  0.56732000  0.59214000  1.0
  C  C128  1  0.51806000  0.92343000  0.59278000  1.0
  C  C129  1  0.54412000  0.51573000  0.59124000  1.0
  C  C130  1  0.45059000  0.44121000  0.09174000  1.0
  C  C131  1  0.42932000  0.09412000  0.09863000  1.0
  C  C132  1  0.42301000  0.41971000  0.05265000  1.0
  C  C133  1  0.04643000  0.50355000  0.09025000  1.0
  C  C134  1  0.86656000  0.49637000  0.61434000  1.0
  C  C135  1  0.60583000  0.91770000  0.61431000  1.0
  C  C136  1  0.45558000  0.59696000  0.61176000  1.0
  C  C137  1  0.36150000  0.51085000  0.11475000  1.0
  C  C138  1  0.52669000  0.07923000  0.11558000  1.0
  C  C139  1  0.00561000  0.43972000  0.10641000  1.0
  C  C140  1  0.90660000  0.46706000  0.65147000  1.0
  C  C141  1  0.59859000  0.94087000  0.65322000  1.0
  C  C142  1  0.43389000  0.58541000  0.64974000  1.0
  C  C143  1  0.01447000  0.47925000  0.70661000  1.0
  C  C144  1  0.37469000  0.53849000  0.15188000  1.0
  C  C145  1  0.56616000  0.02586000  0.15010000  1.0
  C  C146  1  0.96876000  0.45166000  0.14400000  1.0
  C  C147  1  0.97175000  0.50709000  0.66716000  1.0
  C  C148  1  0.49933000  0.97025000  0.67230000  1.0
  C  C149  1  0.50332000  0.48891000  0.66893000  1.0
  C  C150  1  0.48025000  0.49803000  0.16680000  1.0
  C  C151  1  0.50874000  0.98097000  0.16850000  1.0
  C  C152  1  0.97264000  0.53055000  0.16728000  1.0
  C  C153  1  0.99291000  0.57709000  0.64534000  1.0
  C  C154  1  0.48899000  0.99044000  0.71406000  1.0
  C  C155  1  0.40988000  0.98177000  0.65149000  1.0
  C  C156  1  0.59005000  0.40696000  0.64922000  1.0
  C  C157  1  0.56946000  0.42938000  0.14420000  1.0
  C  C158  1  0.41227000  0.99443000  0.15229000  1.0
  C  C159  1  0.00820000  0.59767000  0.15150000  1.0
  C  C160  1  0.95052000  0.61032000  0.60814000  1.0
  C  C161  1  0.41442000  0.96426000  0.61115000  1.0
  C  C162  1  0.61121000  0.41597000  0.60995000  1.0
  C  C163  1  0.55787000  0.39770000  0.10691000  1.0
  C  C164  1  0.36776000  0.05377000  0.11836000  1.0
  C  C165  1  0.48253000  0.47292000  0.70922000  1.0
  C  C166  1  0.04236000  0.58913000  0.11280000  1.0
  C  C167  1  0.06092000  0.45492000  0.77925000  1.0
  C  C168  1  0.46900000  0.02816000  0.78747000  1.0
  C  C169  1  0.45922000  0.45217000  0.78205000  1.0
  C  C170  1  0.51904000  0.54364000  0.27928000  1.0
  C  C171  1  0.56526000  0.88437000  0.27845000  1.0
  C  C172  1  0.90182000  0.55862000  0.28113000  1.0
  C  C173  1  0.90038000  0.79183000  0.58437000  1.0
  C  C174  1  0.29336000  0.01864000  0.55241000  1.0
  C  C175  1  0.69553000  0.28899000  0.55407000  1.0
  N  N176  1  0.02562000  0.39142000  0.76287000  1.0
  N  N177  1  0.41019000  0.60023000  0.22580000  1.0
  N  N178  1  0.62664000  0.93064000  0.22471000  1.0
  N  N179  1  0.92002000  0.46924000  0.22450000  1.0
  N  N180  1  0.07208000  0.52415000  0.72114000  1.0
  N  N181  1  0.39234000  0.01603000  0.73081000  1.0
  N  N182  1  0.54426000  0.37525000  0.72529000  1.0
  N  N183  1  0.59865000  0.47557000  0.22104000  1.0
  N  N184  1  0.49636000  0.87246000  0.22014000  1.0
  N  N185  1  0.91784000  0.63687000  0.22580000  1.0
  N  N186  1  0.09682000  0.51111000  0.75805000  1.0
  N  N187  1  0.56636000  0.99999000  0.77101000  1.0
  N  N188  1  0.38216000  0.03526000  0.76804000  1.0
  N  N189  1  0.53254000  0.36483000  0.76241000  1.0
  N  N190  1  0.61040000  0.48623000  0.25818000  1.0
  N  N191  1  0.50771000  0.84979000  0.25723000  1.0
  N  N192  1  0.90063000  0.64319000  0.26320000  1.0
  N  N193  1  0.98016000  0.67759000  0.58796000  1.0
  N  N194  1  0.31939000  0.98997000  0.59279000  1.0
  N  N195  1  0.69552000  0.32690000  0.59310000  1.0
  N  N196  1  0.65278000  0.33141000  0.08600000  1.0
  N  N197  1  0.26766000  0.06685000  0.10620000  1.0
  N  N198  1  0.38512000  0.54340000  0.76459000  1.0
  N  N199  1  0.07514000  0.66119000  0.10042000  1.0
  N  N200  1  0.42164000  0.60979000  0.26299000  1.0
  N  N201  1  0.63780000  0.90817000  0.26176000  1.0
  N  N202  1  0.90093000  0.47657000  0.26188000  1.0
  N  N203  1  0.00269000  0.40304000  0.72578000  1.0
  N  N204  1  0.57656000  0.98091000  0.73360000  1.0
  N  N205  1  0.39709000  0.55403000  0.72751000  1.0
  O  O206  1  0.49609000  0.63706000  0.53958000  1.0
  O  O207  1  0.31049000  0.17105000  0.04479000  1.0
  O  O208  1  0.13956000  0.52218000  0.03547000  1.0
  O  O209  1  0.48742000  0.33224000  0.03541000  1.0
  O  O210  1  0.48707000  0.64949000  0.45904000  1.0
  O  O211  1  0.82075000  0.51264000  0.46081000  1.0
  O  O212  1  0.63725000  0.85243000  0.46128000  1.0
  O  O213  1  0.13094000  0.35750000  0.96073000  1.0
  O  O214  1  0.33857000  0.48562000  0.96239000  1.0
  O  O215  1  0.48259000  0.14258000  0.96721000  1.0
  O  O216  1  0.48408000  0.83822000  0.45864000  1.0
  O  O217  1  0.82152000  0.51951000  0.53706000  1.0
  O  O218  1  0.65008000  0.49785000  0.46007000  1.0
  O  O219  1  0.81087000  0.67547000  0.46117000  1.0
  O  O220  1  0.31214000  0.16609000  0.96198000  1.0
  O  O221  1  0.15123000  0.50507000  0.95864000  1.0
  O  O222  1  0.48176000  0.31777000  0.95984000  1.0
  O  O223  1  0.63517000  0.67684000  0.49907000  1.0
  O  O224  1  0.30529000  0.32875000  0.00116000  1.0
  O  O225  1  0.63209000  0.85415000  0.53785000  1.0
  O  O226  1  0.12797000  0.37112000  0.04237000  1.0
  O  O227  1  0.33150000  0.48953000  0.03862000  1.0
  O  O228  1  0.47420000  0.16385000  0.04405000  1.0
  O  O229  1  0.48396000  0.83207000  0.54271000  1.0
  O  O230  1  0.66114000  0.48879000  0.53771000  1.0
  O  O231  1  0.81213000  0.68145000  0.53738000  1.0
  O  O232  1  0.33794000  0.81135000  0.50290000  1.0
  O  O233  1  0.13299000  0.20336000  0.00409000  1.0
