# generated using pymatgen
data_Cu2H5C9O7
_symmetry_space_group_name_H-M   'P 1'
_cell_length_a   6.95302000
_cell_length_b   19.36540000
_cell_length_c   19.36530000
_cell_angle_alpha   89.98220000
_cell_angle_beta   90.00000000
_cell_angle_gamma   89.99990000
_symmetry_Int_Tables_number   1
_chemical_formula_structural   Cu2H5C9O7
_chemical_formula_sum   'Cu16 H40 C72 O56'
_cell_volume   2607.49905015
_cell_formula_units_Z   8
loop_
 _symmetry_equiv_pos_site_id
 _symmetry_equiv_pos_as_xyz
  1  'x, y, z'
loop_
 _atom_site_type_symbol
 _atom_site_label
 _atom_site_symmetry_multiplicity
 _atom_site_fract_x
 _atom_site_fract_y
 _atom_site_fract_z
 _atom_site_occupancy
  Cu  Cu0  1  0.49999000  0.67874000  0.17875000  1.0
  Cu  Cu1  1  0.50001000  0.82125000  0.32126000  1.0
  Cu  Cu2  1  0.50000000  0.32129000  0.67871000  1.0
  Cu  Cu3  1  0.50000000  0.17871000  0.82130000  1.0
  Cu  Cu4  1  0.49999000  0.32125000  0.82126000  1.0
  Cu  Cu5  1  0.50002000  0.17874000  0.67875000  1.0
  Cu  Cu6  1  0.50000000  0.67870000  0.32130000  1.0
  Cu  Cu7  1  0.50000000  0.82129000  0.17871000  1.0
  Cu  Cu8  1  0.35722000  0.52919000  0.52915000  1.0
  Cu  Cu9  1  0.35721000  0.97085000  0.97082000  1.0
  Cu  Cu10  1  0.35714000  0.97079000  0.52921000  1.0
  Cu  Cu11  1  0.35713000  0.52921000  0.97079000  1.0
  Cu  Cu12  1  0.64286000  0.47079000  0.02922000  1.0
  Cu  Cu13  1  0.64287000  0.02921000  0.47079000  1.0
  Cu  Cu14  1  0.64279000  0.02918000  0.02915000  1.0
  Cu  Cu15  1  0.64278000  0.47085000  0.47082000  1.0
  H  H16  1  0.99931000  0.56917000  0.36077000  1.0
  H  H17  1  0.99930000  0.93082000  0.13923000  1.0
  H  H18  1  0.99930000  0.13921000  0.56916000  1.0
  H  H19  1  0.99927000  0.36079000  0.93085000  1.0
  H  H20  1  0.00070000  0.43084000  0.86079000  1.0
  H  H21  1  0.00074000  0.06915000  0.63921000  1.0
  H  H22  1  0.00070000  0.86077000  0.06917000  1.0
  H  H23  1  0.00069000  0.63923000  0.43083000  1.0
  H  H24  1  0.00070000  0.43083000  0.63923000  1.0
  H  H25  1  0.00070000  0.06917000  0.86077000  1.0
  H  H26  1  0.00073000  0.86079000  0.43085000  1.0
  H  H27  1  0.00070000  0.63922000  0.06915000  1.0
  H  H28  1  0.99927000  0.56915000  0.13921000  1.0
  H  H29  1  0.99930000  0.93084000  0.36079000  1.0
  H  H30  1  0.99931000  0.13923000  0.93083000  1.0
  H  H31  1  0.99931000  0.36077000  0.56918000  1.0
  H  H32  1  0.48344000  0.48518000  0.24998000  1.0
  H  H33  1  0.48344000  0.01482000  0.25002000  1.0
  H  H34  1  0.48345000  0.24998000  0.48518000  1.0
  H  H35  1  0.48344000  0.25002000  0.01482000  1.0
  H  H36  1  0.51655000  0.51482000  0.75002000  1.0
  H  H37  1  0.51657000  0.98518000  0.74998000  1.0
  H  H38  1  0.51655000  0.74998000  0.98518000  1.0
  H  H39  1  0.51656000  0.75002000  0.51482000  1.0
  H  H40  1  0.05471000  0.60526000  0.60548000  1.0
  H  H41  1  0.05471000  0.89453000  0.89473000  1.0
  H  H42  1  0.05419000  0.89458000  0.60545000  1.0
  H  H43  1  0.05413000  0.60545000  0.89458000  1.0
  H  H44  1  0.94582000  0.39455000  0.10542000  1.0
  H  H45  1  0.94587000  0.10542000  0.39454000  1.0
  H  H46  1  0.94529000  0.10524000  0.10550000  1.0
  H  H47  1  0.94528000  0.39449000  0.39478000  1.0
  H  H48  1  0.96013000  0.55300000  0.55325000  1.0
  H  H49  1  0.96013000  0.94676000  0.94699000  1.0
  H  H50  1  0.95994000  0.94687000  0.55315000  1.0
  H  H51  1  0.95990000  0.55314000  0.94687000  1.0
  H  H52  1  0.04006000  0.44685000  0.05313000  1.0
  H  H53  1  0.04010000  0.05313000  0.44685000  1.0
  H  H54  1  0.03987000  0.05299000  0.05326000  1.0
  H  H55  1  0.03986000  0.44673000  0.44702000  1.0
  C  C56  1  0.80546000  0.61853000  0.24999000  1.0
  C  C57  1  0.80547000  0.88146000  0.25000000  1.0
  C  C58  1  0.80547000  0.24999000  0.61854000  1.0
  C  C59  1  0.80547000  0.25001000  0.88146000  1.0
  C  C60  1  0.19453000  0.38147000  0.75000000  1.0
  C  C61  1  0.19454000  0.11853000  0.74999000  1.0
  C  C62  1  0.19453000  0.75000000  0.11853000  1.0
  C  C63  1  0.19453000  0.75000000  0.38146000  1.0
  C  C64  1  0.98341000  0.57590000  0.24998000  1.0
  C  C65  1  0.98342000  0.92410000  0.25002000  1.0
  C  C66  1  0.98342000  0.24999000  0.57590000  1.0
  C  C67  1  0.98341000  0.25002000  0.92410000  1.0
  C  C68  1  0.01658000  0.42411000  0.75001000  1.0
  C  C69  1  0.01659000  0.07590000  0.74998000  1.0
  C  C70  1  0.01658000  0.74999000  0.07589000  1.0
  C  C71  1  0.01659000  0.75002000  0.42410000  1.0
  C  C72  1  0.07055000  0.55750000  0.31231000  1.0
  C  C73  1  0.07054000  0.94251000  0.18769000  1.0
  C  C74  1  0.07049000  0.18768000  0.55750000  1.0
  C  C75  1  0.07048000  0.31232000  0.94251000  1.0
  C  C76  1  0.92951000  0.44250000  0.81232000  1.0
  C  C77  1  0.92954000  0.05749000  0.68768000  1.0
  C  C78  1  0.92945000  0.81231000  0.05748000  1.0
  C  C79  1  0.92945000  0.68769000  0.44251000  1.0
  C  C80  1  0.92945000  0.44252000  0.68769000  1.0
  C  C81  1  0.92946000  0.05749000  0.81231000  1.0
  C  C82  1  0.92952000  0.81232000  0.44250000  1.0
  C  C83  1  0.92951000  0.68768000  0.05749000  1.0
  C  C84  1  0.07048000  0.55750000  0.18768000  1.0
  C  C85  1  0.07049000  0.94250000  0.31232000  1.0
  C  C86  1  0.07054000  0.18769000  0.94250000  1.0
  C  C87  1  0.07055000  0.31231000  0.55749000  1.0
  C  C88  1  0.25029000  0.52492000  0.31249000  1.0
  C  C89  1  0.25027000  0.97510000  0.18750000  1.0
  C  C90  1  0.25031000  0.18749000  0.52493000  1.0
  C  C91  1  0.25028000  0.31252000  0.97507000  1.0
  C  C92  1  0.74968000  0.47507000  0.81251000  1.0
  C  C93  1  0.74972000  0.02493000  0.68748000  1.0
  C  C94  1  0.74972000  0.81250000  0.02490000  1.0
  C  C95  1  0.74971000  0.68751000  0.47508000  1.0
  C  C96  1  0.74972000  0.47510000  0.68750000  1.0
  C  C97  1  0.74972000  0.02492000  0.81249000  1.0
  C  C98  1  0.74971000  0.81252000  0.47507000  1.0
  C  C99  1  0.74969000  0.68749000  0.02493000  1.0
  C  C100  1  0.25029000  0.52493000  0.18748000  1.0
  C  C101  1  0.25030000  0.97507000  0.31251000  1.0
  C  C102  1  0.25029000  0.18751000  0.97508000  1.0
  C  C103  1  0.25028000  0.31250000  0.52490000  1.0
  C  C104  1  0.34154000  0.50900000  0.24998000  1.0
  C  C105  1  0.34155000  0.99101000  0.25001000  1.0
  C  C106  1  0.34155000  0.24999000  0.50899000  1.0
  C  C107  1  0.34154000  0.25002000  0.99100000  1.0
  C  C108  1  0.65845000  0.49100000  0.75001000  1.0
  C  C109  1  0.65846000  0.00900000  0.74998000  1.0
  C  C110  1  0.65845000  0.74999000  0.00899000  1.0
  C  C111  1  0.65845000  0.75002000  0.49100000  1.0
  C  C112  1  0.34709000  0.51223000  0.38035000  1.0
  C  C113  1  0.34708000  0.98780000  0.11965000  1.0
  C  C114  1  0.34703000  0.11962000  0.51223000  1.0
  C  C115  1  0.34701000  0.38038000  0.98778000  1.0
  C  C116  1  0.65298000  0.48777000  0.88038000  1.0
  C  C117  1  0.65299000  0.01222000  0.61962000  1.0
  C  C118  1  0.65292000  0.88035000  0.01220000  1.0
  C  C119  1  0.65290000  0.61966000  0.48777000  1.0
  C  C120  1  0.65292000  0.48780000  0.61965000  1.0
  C  C121  1  0.65291000  0.01223000  0.88034000  1.0
  C  C122  1  0.65299000  0.88038000  0.48777000  1.0
  C  C123  1  0.65297000  0.61962000  0.01222000  1.0
  C  C124  1  0.34700000  0.51223000  0.11962000  1.0
  C  C125  1  0.34704000  0.98778000  0.38038000  1.0
  C  C126  1  0.34709000  0.11966000  0.98777000  1.0
  C  C127  1  0.34707000  0.38035000  0.51220000  1.0
  O  O128  1  0.73622000  0.63626000  0.19151000  1.0
  O  O129  1  0.73622000  0.86374000  0.30849000  1.0
  O  O130  1  0.73614000  0.30847000  0.63618000  1.0
  O  O131  1  0.73614000  0.19153000  0.86381000  1.0
  O  O132  1  0.26386000  0.36382000  0.69152000  1.0
  O  O133  1  0.26387000  0.13619000  0.80847000  1.0
  O  O134  1  0.26377000  0.69152000  0.13625000  1.0
  O  O135  1  0.26377000  0.80849000  0.36374000  1.0
  O  O136  1  0.26378000  0.36375000  0.80848000  1.0
  O  O137  1  0.26379000  0.13625000  0.69151000  1.0
  O  O138  1  0.26387000  0.69153000  0.36382000  1.0
  O  O139  1  0.26386000  0.80848000  0.13618000  1.0
  O  O140  1  0.73613000  0.63618000  0.30847000  1.0
  O  O141  1  0.73614000  0.86382000  0.19152000  1.0
  O  O142  1  0.73622000  0.30849000  0.86374000  1.0
  O  O143  1  0.73623000  0.19151000  0.63625000  1.0
  O  O144  1  0.25400000  0.53250000  0.43372000  1.0
  O  O145  1  0.25375000  0.96770000  0.06626000  1.0
  O  O146  1  0.25377000  0.06625000  0.53247000  1.0
  O  O147  1  0.25375000  0.43374000  0.96754000  1.0
  O  O148  1  0.74623000  0.46754000  0.93375000  1.0
  O  O149  1  0.74624000  0.03247000  0.56626000  1.0
  O  O150  1  0.74623000  0.93374000  0.03231000  1.0
  O  O151  1  0.74600000  0.56628000  0.46751000  1.0
  O  O152  1  0.74624000  0.46770000  0.56626000  1.0
  O  O153  1  0.74602000  0.03247000  0.93372000  1.0
  O  O154  1  0.74625000  0.93375000  0.46754000  1.0
  O  O155  1  0.74623000  0.56626000  0.03247000  1.0
  O  O156  1  0.25375000  0.53247000  0.06625000  1.0
  O  O157  1  0.25377000  0.96754000  0.43374000  1.0
  O  O158  1  0.25398000  0.06629000  0.96752000  1.0
  O  O159  1  0.25374000  0.43374000  0.53229000  1.0
  O  O160  1  0.51208000  0.48367000  0.38022000  1.0
  O  O161  1  0.51225000  0.01621000  0.11978000  1.0
  O  O162  1  0.51207000  0.11978000  0.48372000  1.0
  O  O163  1  0.51204000  0.38022000  0.01630000  1.0
  O  O164  1  0.48793000  0.51628000  0.88022000  1.0
  O  O165  1  0.48797000  0.98370000  0.61978000  1.0
  O  O166  1  0.48774000  0.88023000  0.98379000  1.0
  O  O167  1  0.48790000  0.61978000  0.51633000  1.0
  O  O168  1  0.48774000  0.51621000  0.61978000  1.0
  O  O169  1  0.48790000  0.98368000  0.88022000  1.0
  O  O170  1  0.48795000  0.88022000  0.51628000  1.0
  O  O171  1  0.48794000  0.61978000  0.98370000  1.0
  O  O172  1  0.51205000  0.48372000  0.11978000  1.0
  O  O173  1  0.51206000  0.01629000  0.38022000  1.0
  O  O174  1  0.51210000  0.11978000  0.01632000  1.0
  O  O175  1  0.51226000  0.38022000  0.48379000  1.0
  O  O176  1  0.08251000  0.57084000  0.57060000  1.0
  O  O177  1  0.08252000  0.92940000  0.92916000  1.0
  O  O178  1  0.08225000  0.92920000  0.57077000  1.0
  O  O179  1  0.08221000  0.57077000  0.92920000  1.0
  O  O180  1  0.91775000  0.42923000  0.07080000  1.0
  O  O181  1  0.91779000  0.07080000  0.42923000  1.0
  O  O182  1  0.91749000  0.07086000  0.07058000  1.0
  O  O183  1  0.91748000  0.42944000  0.42912000  1.0
