# generated using pymatgen
data_Ag3Mo2H12C12N6O4F7
_symmetry_space_group_name_H-M   'P 1'
_cell_length_a   7.09185000
_cell_length_b   7.78151000
_cell_length_c   19.02240000
_cell_angle_alpha   78.95500000
_cell_angle_beta   89.99990000
_cell_angle_gamma   89.99970000
_symmetry_Int_Tables_number   1
_chemical_formula_structural   Ag3Mo2H12C12N6O4F7
_chemical_formula_sum   'Ag6 Mo4 H24 C24 N12 O8 F14'
_cell_volume   1030.31225683
_cell_formula_units_Z   2
loop_
 _symmetry_equiv_pos_site_id
 _symmetry_equiv_pos_as_xyz
  1  'x, y, z'
loop_
 _atom_site_type_symbol
 _atom_site_label
 _atom_site_symmetry_multiplicity
 _atom_site_fract_x
 _atom_site_fract_y
 _atom_site_fract_z
 _atom_site_occupancy
  Ag  Ag0  1  0.44026000  0.31450000  0.07190000  1.0
  Ag  Ag1  1  0.44025000  0.18550000  0.42811000  1.0
  Ag  Ag2  1  0.55975000  0.68549000  0.92811000  1.0
  Ag  Ag3  1  0.55975000  0.81449000  0.57190000  1.0
  Ag  Ag4  1  0.50846000  0.25000000  0.25000000  1.0
  Ag  Ag5  1  0.49155000  0.75000000  0.75000000  1.0
  Mo  Mo6  1  0.48556000  0.81191000  0.13829000  1.0
  Mo  Mo7  1  0.48557000  0.68810000  0.36170000  1.0
  Mo  Mo8  1  0.51443000  0.18810000  0.86170000  1.0
  Mo  Mo9  1  0.51443000  0.31190000  0.63829000  1.0
  H  H10  1  0.75598000  0.09377000  0.02810000  1.0
  H  H11  1  0.75597000  0.40624000  0.47190000  1.0
  H  H12  1  0.24402000  0.90623000  0.97190000  1.0
  H  H13  1  0.24402000  0.59376000  0.52810000  1.0
  H  H14  1  0.11426000  0.08232000  0.03382000  1.0
  H  H15  1  0.11426000  0.41770000  0.46618000  1.0
  H  H16  1  0.88574000  0.91769000  0.96618000  1.0
  H  H17  1  0.88574000  0.58231000  0.53382000  1.0
  H  H18  1  0.12186000  0.55275000  0.10694000  1.0
  H  H19  1  0.12184000  0.94726000  0.39307000  1.0
  H  H20  1  0.87815000  0.44725000  0.89307000  1.0
  H  H21  1  0.87815000  0.05274000  0.60693000  1.0
  H  H22  1  0.76719000  0.56456000  0.10120000  1.0
  H  H23  1  0.76717000  0.93545000  0.39881000  1.0
  H  H24  1  0.23282000  0.43544000  0.89881000  1.0
  H  H25  1  0.23282000  0.06455000  0.60120000  1.0
  H  H26  1  0.18648000  0.50427000  0.27022000  1.0
  H  H27  1  0.18649000  0.99573000  0.22978000  1.0
  H  H28  1  0.81353000  0.49572000  0.72978000  1.0
  H  H29  1  0.81353000  0.00426000  0.77022000  1.0
  H  H30  1  0.83026000  0.50078000  0.27405000  1.0
  H  H31  1  0.83026000  0.99922000  0.22596000  1.0
  H  H32  1  0.16975000  0.49922000  0.72595000  1.0
  H  H33  1  0.16975000  0.00077000  0.77405000  1.0
  C  C34  1  0.83935000  0.19650000  0.04482000  1.0
  C  C35  1  0.83934000  0.30351000  0.45518000  1.0
  C  C36  1  0.16066000  0.80350000  0.95518000  1.0
  C  C37  1  0.16065000  0.69648000  0.54482000  1.0
  C  C38  1  0.03521000  0.19059000  0.04771000  1.0
  C  C39  1  0.03520000  0.30941000  0.45228000  1.0
  C  C40  1  0.96479000  0.80941000  0.95228000  1.0
  C  C41  1  0.96479000  0.69059000  0.54772000  1.0
  C  C42  1  0.03995000  0.45106000  0.08867000  1.0
  C  C43  1  0.03993000  0.04894000  0.41133000  1.0
  C  C44  1  0.96005000  0.54894000  0.91133000  1.0
  C  C45  1  0.96006000  0.95106000  0.58867000  1.0
  C  C46  1  0.84408000  0.45733000  0.08531000  1.0
  C  C47  1  0.84407000  0.04267000  0.41470000  1.0
  C  C48  1  0.15592000  0.54267000  0.91469000  1.0
  C  C49  1  0.15592000  0.95732000  0.58530000  1.0
  C  C50  1  0.10642000  0.39001000  0.26209000  1.0
  C  C51  1  0.10642000  0.11000000  0.23791000  1.0
  C  C52  1  0.89358000  0.60999000  0.73791000  1.0
  C  C53  1  0.89358000  0.89001000  0.76209000  1.0
  C  C54  1  0.91001000  0.38877000  0.26345000  1.0
  C  C55  1  0.91001000  0.11123000  0.23655000  1.0
  C  C56  1  0.09000000  0.61123000  0.73655000  1.0
  C  C57  1  0.09000000  0.88877000  0.76345000  1.0
  N  N58  1  0.74423000  0.33095000  0.06310000  1.0
  N  N59  1  0.74422000  0.16904000  0.43690000  1.0
  N  N60  1  0.25577000  0.66905000  0.93690000  1.0
  N  N61  1  0.25577000  0.83095000  0.56310000  1.0
  N  N62  1  0.13544000  0.31816000  0.06921000  1.0
  N  N63  1  0.13543000  0.18184000  0.43079000  1.0
  N  N64  1  0.86457000  0.68184000  0.93079000  1.0
  N  N65  1  0.86456000  0.81815000  0.56921000  1.0
  N  N66  1  0.20374000  0.25000000  0.25000000  1.0
  N  N67  1  0.79628000  0.75000000  0.75000000  1.0
  N  N68  1  0.81224000  0.25000000  0.25000000  1.0
  N  N69  1  0.18776000  0.75001000  0.75000000  1.0
  O  O70  1  0.43873000  0.17134000  0.94887000  1.0
  O  O71  1  0.43873000  0.32867000  0.55113000  1.0
  O  O72  1  0.56126000  0.82869000  0.05113000  1.0
  O  O73  1  0.56125000  0.67134000  0.44887000  1.0
  O  O74  1  0.51876000  0.02324000  0.15341000  1.0
  O  O75  1  0.51876000  0.47676000  0.34659000  1.0
  O  O76  1  0.48124000  0.97675000  0.84659000  1.0
  O  O77  1  0.48122000  0.52324000  0.65341000  1.0
  F  F78  1  0.38672000  0.75000000  0.25000000  1.0
  F  F79  1  0.61328000  0.25000000  0.75000000  1.0
  F  F80  1  0.21803000  0.84085000  0.11833000  1.0
  F  F81  1  0.21802000  0.65915000  0.38166000  1.0
  F  F82  1  0.78197000  0.15916000  0.88167000  1.0
  F  F83  1  0.78196000  0.34085000  0.61833000  1.0
  F  F84  1  0.41531000  0.55485000  0.15056000  1.0
  F  F85  1  0.41528000  0.94515000  0.34944000  1.0
  F  F86  1  0.58470000  0.44516000  0.84943000  1.0
  F  F87  1  0.58471000  0.05485000  0.65056000  1.0
  F  F88  1  0.71979000  0.71927000  0.18034000  1.0
  F  F89  1  0.71978000  0.78073000  0.31965000  1.0
  F  F90  1  0.28020000  0.28072000  0.81965000  1.0
  F  F91  1  0.28021000  0.21926000  0.68035000  1.0
