# generated using pymatgen
data_ZnH17C17N4O7
_symmetry_space_group_name_H-M   'P 1'
_cell_length_a   9.56046000
_cell_length_b   10.87050000
_cell_length_c   18.97560000
_cell_angle_alpha   90.40180000
_cell_angle_beta   90.47510000
_cell_angle_gamma   90.76020000
_symmetry_Int_Tables_number   1
_chemical_formula_structural   ZnH17C17N4O7
_chemical_formula_sum   'Zn2 H34 C34 N8 O14'
_cell_volume   1971.78540747
_cell_formula_units_Z   2
loop_
 _symmetry_equiv_pos_site_id
 _symmetry_equiv_pos_as_xyz
  1  'x, y, z'
loop_
 _atom_site_type_symbol
 _atom_site_label
 _atom_site_symmetry_multiplicity
 _atom_site_fract_x
 _atom_site_fract_y
 _atom_site_fract_z
 _atom_site_occupancy
  Zn  Zn0  1  0.64631000  0.49518000  0.50080000  1.0
  Zn  Zn1  1  0.35007000  0.49095000  0.49999000  1.0
  H  H2  1  0.72377000  0.54098000  0.28027000  1.0
  H  H3  1  0.27523000  0.54185000  0.27737000  1.0
  H  H4  1  0.72653000  0.60006000  0.15258000  1.0
  H  H5  1  0.27652000  0.59963000  0.14955000  1.0
  H  H6  1  0.72354000  0.59138000  0.85145000  1.0
  H  H7  1  0.27313000  0.59510000  0.84968000  1.0
  H  H8  1  0.72107000  0.53541000  0.72313000  1.0
  H  H9  1  0.27228000  0.53651000  0.72163000  1.0
  H  H10  1  0.70609000  0.87464000  0.55504000  1.0
  H  H11  1  0.28145000  0.89589000  0.47956000  1.0
  H  H12  1  0.56278000  0.90552000  0.61186000  1.0
  H  H13  1  0.31864000  0.87116000  0.56944000  1.0
  H  H14  1  0.71822000  0.08185000  0.51622000  1.0
  H  H15  1  0.27520000  0.10532000  0.50696000  1.0
  H  H16  1  0.59279000  0.12523000  0.40935000  1.0
  H  H17  1  0.41277000  0.08669000  0.40663000  1.0
  H  H18  1  0.12355000  0.57751000  0.40055000  1.0
  H  H19  1  0.87462000  0.57409000  0.39956000  1.0
  H  H20  1  0.12431000  0.67935000  0.47357000  1.0
  H  H21  1  0.87486000  0.67923000  0.47085000  1.0
  H  H22  1  0.11875000  0.35784000  0.41989000  1.0
  H  H23  1  0.87018000  0.35796000  0.41982000  1.0
  H  H24  1  0.12238000  0.44075000  0.60565000  1.0
  H  H25  1  0.87486000  0.44048000  0.60516000  1.0
  H  H26  1  0.12486000  0.60115000  0.59103000  1.0
  H  H27  1  0.87670000  0.60104000  0.59103000  1.0
  H  H28  1  0.11844000  0.30068000  0.50703000  1.0
  H  H29  1  0.87143000  0.30090000  0.50734000  1.0
  H  H30  1  0.80998000  0.06560000  0.41418000  1.0
  H  H31  1  0.72867000  0.01992000  0.33248000  1.0
  H  H32  1  0.86855000  0.93232000  0.36821000  1.0
  H  H33  1  0.58796000  0.85592000  0.29284000  1.0
  H  H34  1  0.47985000  0.99039000  0.29587000  1.0
  H  H35  1  0.40419000  0.84191000  0.27755000  1.0
  C  C36  1  0.50329000  0.73275000  0.50031000  1.0
  C  C37  1  0.49651000  0.50554000  0.36295000  1.0
  C  C38  1  0.49563000  0.25519000  0.50715000  1.0
  C  C39  1  0.49774000  0.50833000  0.63724000  1.0
  C  C40  1  0.62655000  0.55405000  0.25104000  1.0
  C  C41  1  0.37326000  0.55455000  0.24932000  1.0
  C  C42  1  0.62821000  0.58692000  0.18035000  1.0
  C  C43  1  0.37391000  0.58683000  0.17865000  1.0
  C  C44  1  0.50166000  0.60361000  0.14351000  1.0
  C  C45  1  0.49928000  0.53758000  0.28620000  1.0
  C  C46  1  0.50010000  0.63104000  0.93284000  1.0
  C  C47  1  0.50206000  0.63398000  0.06842000  1.0
  C  C48  1  0.62525000  0.57963000  0.82261000  1.0
  C  C49  1  0.37070000  0.58136000  0.82163000  1.0
  C  C50  1  0.62388000  0.54861000  0.75155000  1.0
  C  C51  1  0.37027000  0.54932000  0.75060000  1.0
  C  C52  1  0.49671000  0.53428000  0.71483000  1.0
  C  C53  1  0.49845000  0.59782000  0.85805000  1.0
  C  C54  1  0.60652000  0.92257000  0.55937000  1.0
  C  C55  1  0.35501000  0.91921000  0.52236000  1.0
  C  C56  1  0.62777000  0.06170000  0.54923000  1.0
  C  C57  1  0.35719000  0.05760000  0.53655000  1.0
  C  C58  1  0.54329000  0.92971000  0.43077000  1.0
  C  C59  1  0.50185000  0.87397000  0.50339000  1.0
  C  C60  1  0.49682000  0.11463000  0.51251000  1.0
  C  C61  1  0.51145000  0.06916000  0.43450000  1.0
  C  C62  1  0.07993000  0.59249000  0.45316000  1.0
  C  C63  1  0.91809000  0.59193000  0.45241000  1.0
  C  C64  1  0.07623000  0.37231000  0.47282000  1.0
  C  C65  1  0.91448000  0.37228000  0.47288000  1.0
  C  C66  1  0.07997000  0.51338000  0.57224000  1.0
  C  C67  1  0.91852000  0.51354000  0.57205000  1.0
  C  C68  1  0.77575000  0.98585000  0.38161000  1.0
  C  C69  1  0.48514000  0.89135000  0.30809000  1.0
  N  N70  1  0.37880000  0.65468000  0.03520000  1.0
  N  N71  1  0.62564000  0.65137000  0.03543000  1.0
  N  N72  1  0.37772000  0.65337000  0.96585000  1.0
  N  N73  1  0.62471000  0.65029000  0.96608000  1.0
  N  N74  1  0.13209000  0.49252000  0.49939000  1.0
  N  N75  1  0.86380000  0.49294000  0.49910000  1.0
  N  N76  1  0.67070000  0.12121000  0.61920000  1.0
  N  N77  1  0.31637000  0.09137000  0.61316000  1.0
  O  O78  1  0.62115000  0.68221000  0.49341000  1.0
  O  O79  1  0.38597000  0.67797000  0.50628000  1.0
  O  O80  1  0.61280000  0.48109000  0.39294000  1.0
  O  O81  1  0.37760000  0.50661000  0.39255000  1.0
  O  O82  1  0.61288000  0.30910000  0.51582000  1.0
  O  O83  1  0.38145000  0.30366000  0.48881000  1.0
  O  O84  1  0.61600000  0.51561000  0.60710000  1.0
  O  O85  1  0.38124000  0.48419000  0.60683000  1.0
  O  O86  1  0.78843000  0.17010000  0.62204000  1.0
  O  O87  1  0.58877000  0.11281000  0.66888000  1.0
  O  O88  1  0.32275000  0.20176000  0.62847000  1.0
  O  O89  1  0.27227000  0.00912000  0.65192000  1.0
  O  O90  1  0.68737000  0.90313000  0.41933000  1.0
  O  O91  1  0.45654000  0.86727000  0.38042000  1.0
