# generated using pymatgen
data_KVH12C12N2O9
_symmetry_space_group_name_H-M   'P 1'
_cell_length_a   9.55230000
_cell_length_b   12.82540000
_cell_length_c   13.88790000
_cell_angle_alpha   90.00000000
_cell_angle_beta   90.00000000
_cell_angle_gamma   97.45380000
_symmetry_Int_Tables_number   1
_chemical_formula_structural   KVH12C12N2O9
_chemical_formula_sum   'K4 V4 H48 C48 N8 O36'
_cell_volume   1687.05786524
_cell_formula_units_Z   4
loop_
 _symmetry_equiv_pos_site_id
 _symmetry_equiv_pos_as_xyz
  1  'x, y, z'
loop_
 _atom_site_type_symbol
 _atom_site_label
 _atom_site_symmetry_multiplicity
 _atom_site_fract_x
 _atom_site_fract_y
 _atom_site_fract_z
 _atom_site_occupancy
  K  K0  1  0.40564000  0.96038000  0.64410000  1.0
  K  K1  1  0.40564000  0.46038000  0.85591000  1.0
  K  K2  1  0.59436000  0.03962000  0.35590000  1.0
  K  K3  1  0.59436000  0.53961000  0.14409000  1.0
  V  V4  1  0.63279000  0.91058000  0.84456000  1.0
  V  V5  1  0.63278000  0.41058000  0.65544000  1.0
  V  V6  1  0.36721000  0.08942000  0.15545000  1.0
  V  V7  1  0.36721000  0.58942000  0.34456000  1.0
  H  H8  1  0.56603000  0.12154000  0.91323000  1.0
  H  H9  1  0.56603000  0.62155000  0.58677000  1.0
  H  H10  1  0.43397000  0.87846000  0.08678000  1.0
  H  H11  1  0.43396000  0.37846000  0.41323000  1.0
  H  H12  1  0.69503000  0.29826000  0.96347000  1.0
  H  H13  1  0.69503000  0.79826000  0.53654000  1.0
  H  H14  1  0.30497000  0.70174000  0.03653000  1.0
  H  H15  1  0.30496000  0.20174000  0.46347000  1.0
  H  H16  1  0.95896000  0.32130000  0.96474000  1.0
  H  H17  1  0.95896000  0.82130000  0.53526000  1.0
  H  H18  1  0.04104000  0.67871000  0.03526000  1.0
  H  H19  1  0.04104000  0.17870000  0.46474000  1.0
  H  H20  1  0.08477000  0.17058000  0.91580000  1.0
  H  H21  1  0.08477000  0.67058000  0.58420000  1.0
  H  H22  1  0.91523000  0.82942000  0.08420000  1.0
  H  H23  1  0.91523000  0.32942000  0.41580000  1.0
  H  H24  1  0.17710000  0.03412000  0.88655000  1.0
  H  H25  1  0.17709000  0.53413000  0.61346000  1.0
  H  H26  1  0.82291000  0.96587000  0.11345000  1.0
  H  H27  1  0.82290000  0.46588000  0.38655000  1.0
  H  H28  1  0.19826000  0.09073000  0.64432000  1.0
  H  H29  1  0.19826000  0.59073000  0.85568000  1.0
  H  H30  1  0.80174000  0.90927000  0.35568000  1.0
  H  H31  1  0.80174000  0.40927000  0.14432000  1.0
  H  H32  1  0.05420000  0.02205000  0.62076000  1.0
  H  H33  1  0.05420000  0.52205000  0.87924000  1.0
  H  H34  1  0.94580000  0.97794000  0.37924000  1.0
  H  H35  1  0.94580000  0.47794000  0.12076000  1.0
  H  H36  1  0.26459000  0.87020000  0.83622000  1.0
  H  H37  1  0.26459000  0.37021000  0.66378000  1.0
  H  H38  1  0.73542000  0.12980000  0.16378000  1.0
  H  H39  1  0.73541000  0.62980000  0.33621000  1.0
  H  H40  1  0.32158000  0.17685000  0.79038000  1.0
  H  H41  1  0.32158000  0.67685000  0.70962000  1.0
  H  H42  1  0.67842000  0.82315000  0.20962000  1.0
  H  H43  1  0.67842000  0.32315000  0.29038000  1.0
  H  H44  1  0.41973000  0.18959000  0.69880000  1.0
  H  H45  1  0.41973000  0.68959000  0.80120000  1.0
  H  H46  1  0.58027000  0.81041000  0.30120000  1.0
  H  H47  1  0.58027000  0.31041000  0.19880000  1.0
  H  H48  1  0.09098000  0.71658000  0.78250000  1.0
  H  H49  1  0.09098000  0.21658000  0.71750000  1.0
  H  H50  1  0.90902000  0.28342000  0.21750000  1.0
  H  H51  1  0.90902000  0.78342000  0.28249000  1.0
  H  H52  1  0.83066000  0.73400000  0.79063000  1.0
  H  H53  1  0.83066000  0.23400000  0.70937000  1.0
  H  H54  1  0.16934000  0.26600000  0.20937000  1.0
  H  H55  1  0.16934000  0.76600000  0.29063000  1.0
  C  C56  1  0.65720000  0.78681000  0.01916000  1.0
  C  C57  1  0.65720000  0.28681000  0.48085000  1.0
  C  C58  1  0.34280000  0.21319000  0.98084000  1.0
  C  C59  1  0.34280000  0.71320000  0.51915000  1.0
  C  C60  1  0.58341000  0.70964000  0.94449000  1.0
  C  C61  1  0.58341000  0.20965000  0.55551000  1.0
  C  C62  1  0.41659000  0.29036000  0.05551000  1.0
  C  C63  1  0.41659000  0.79035000  0.44448000  1.0
  C  C64  1  0.68071000  0.13719000  0.91567000  1.0
  C  C65  1  0.68071000  0.63719000  0.58433000  1.0
  C  C66  1  0.31929000  0.86281000  0.08433000  1.0
  C  C67  1  0.31928000  0.36281000  0.41567000  1.0
  C  C68  1  0.75293000  0.23385000  0.94351000  1.0
  C  C69  1  0.75293000  0.73385000  0.55649000  1.0
  C  C70  1  0.24708000  0.76615000  0.05649000  1.0
  C  C71  1  0.24707000  0.26615000  0.44352000  1.0
  C  C72  1  0.90002000  0.24631000  0.94350000  1.0
  C  C73  1  0.90003000  0.74631000  0.55650000  1.0
  C  C74  1  0.09998000  0.75369000  0.05650000  1.0
  C  C75  1  0.09997000  0.25369000  0.44350000  1.0
  C  C76  1  0.96999000  0.16196000  0.91695000  1.0
  C  C77  1  0.96999000  0.66196000  0.58305000  1.0
  C  C78  1  0.03001000  0.83805000  0.08304000  1.0
  C  C79  1  0.03001000  0.33805000  0.41695000  1.0
  C  C80  1  0.89160000  0.06635000  0.89092000  1.0
  C  C81  1  0.89159000  0.56635000  0.60908000  1.0
  C  C82  1  0.10841000  0.93365000  0.10908000  1.0
  C  C83  1  0.10840000  0.43365000  0.39092000  1.0
  C  C84  1  0.95638000  0.97212000  0.86352000  1.0
  C  C85  1  0.95638000  0.47212000  0.63648000  1.0
  C  C86  1  0.04363000  0.02788000  0.13648000  1.0
  C  C87  1  0.04362000  0.52789000  0.36352000  1.0
  C  C88  1  0.10217000  0.96792000  0.86277000  1.0
  C  C89  1  0.10217000  0.46792000  0.63723000  1.0
  C  C90  1  0.89783000  0.03208000  0.13723000  1.0
  C  C91  1  0.89782000  0.53208000  0.36277000  1.0
  C  C92  1  0.15138000  0.87498000  0.83427000  1.0
  C  C93  1  0.15138000  0.37498000  0.66573000  1.0
  C  C94  1  0.84863000  0.12502000  0.16573000  1.0
  C  C95  1  0.84862000  0.62502000  0.33427000  1.0
  C  C96  1  0.05505000  0.78942000  0.80613000  1.0
  C  C97  1  0.05505000  0.28942000  0.69388000  1.0
  C  C98  1  0.94495000  0.21058000  0.19387000  1.0
  C  C99  1  0.94495000  0.71058000  0.30612000  1.0
  C  C100  1  0.91144000  0.79861000  0.81041000  1.0
  C  C101  1  0.91144000  0.29861000  0.68959000  1.0
  C  C102  1  0.08856000  0.20139000  0.18959000  1.0
  C  C103  1  0.08856000  0.70139000  0.31041000  1.0
  N  N104  1  0.74836000  0.05613000  0.88975000  1.0
  N  N105  1  0.74835000  0.55613000  0.61025000  1.0
  N  N106  1  0.25165000  0.94387000  0.11025000  1.0
  N  N107  1  0.25164000  0.44387000  0.38975000  1.0
  N  N108  1  0.86405000  0.88733000  0.83903000  1.0
  N  N109  1  0.86404000  0.38733000  0.66097000  1.0
  N  N110  1  0.13596000  0.11267000  0.16097000  1.0
  N  N111  1  0.13595000  0.61267000  0.33903000  1.0
  O  O112  1  0.48076000  0.94698000  0.87072000  1.0
  O  O113  1  0.48076000  0.44698000  0.62928000  1.0
  O  O114  1  0.51924000  0.05301000  0.12929000  1.0
  O  O115  1  0.51923000  0.55302000  0.37071000  1.0
  O  O116  1  0.67849000  0.97560000  0.72477000  1.0
  O  O117  1  0.67849000  0.47560000  0.77523000  1.0
  O  O118  1  0.32151000  0.02440000  0.27524000  1.0
  O  O119  1  0.32151000  0.52440000  0.22477000  1.0
  O  O120  1  0.62178000  0.86649000  0.71672000  1.0
  O  O121  1  0.62178000  0.36649000  0.78328000  1.0
  O  O122  1  0.37822000  0.13351000  0.28329000  1.0
  O  O123  1  0.37822000  0.63351000  0.21671000  1.0
  O  O124  1  0.68329000  0.88168000  0.98869000  1.0
  O  O125  1  0.68329000  0.38168000  0.51131000  1.0
  O  O126  1  0.31672000  0.11832000  0.01131000  1.0
  O  O127  1  0.31671000  0.61833000  0.48869000  1.0
  O  O128  1  0.57413000  0.75167000  0.85981000  1.0
  O  O129  1  0.57413000  0.25167000  0.64019000  1.0
  O  O130  1  0.42587000  0.24833000  0.14019000  1.0
  O  O131  1  0.42587000  0.74833000  0.35981000  1.0
  O  O132  1  0.68546000  0.75499000  0.10127000  1.0
  O  O133  1  0.68546000  0.25499000  0.39873000  1.0
  O  O134  1  0.31455000  0.24500000  0.89873000  1.0
  O  O135  1  0.31454000  0.74501000  0.60127000  1.0
  O  O136  1  0.53657000  0.61821000  0.96610000  1.0
  O  O137  1  0.53657000  0.11821000  0.53390000  1.0
  O  O138  1  0.46343000  0.38178000  0.03390000  1.0
  O  O139  1  0.46343000  0.88180000  0.46609000  1.0
  O  O140  1  0.14817000  0.04357000  0.59517000  1.0
  O  O141  1  0.14817000  0.54357000  0.90483000  1.0
  O  O142  1  0.85182000  0.95643000  0.40483000  1.0
  O  O143  1  0.85183000  0.45643000  0.09517000  1.0
  O  O144  1  0.33172000  0.14979000  0.72423000  1.0
  O  O145  1  0.33172000  0.64979000  0.77577000  1.0
  O  O146  1  0.66828000  0.85021000  0.27577000  1.0
  O  O147  1  0.66828000  0.35020000  0.22423000  1.0
