# generated using pymatgen
data_Cd2PH16C7NCl2O7
_symmetry_space_group_name_H-M   'P 1'
_cell_length_a   8.75079000
_cell_length_b   12.60670000
_cell_length_c   13.57400000
_cell_angle_alpha   90.00000000
_cell_angle_beta   90.00000000
_cell_angle_gamma   90.00000000
_symmetry_Int_Tables_number   1
_chemical_formula_structural   Cd2PH16C7NCl2O7
_chemical_formula_sum   'Cd8 P4 H64 C28 N4 Cl8 O28'
_cell_volume   1497.46446319
_cell_formula_units_Z   4
loop_
 _symmetry_equiv_pos_site_id
 _symmetry_equiv_pos_as_xyz
  1  'x, y, z'
loop_
 _atom_site_type_symbol
 _atom_site_label
 _atom_site_symmetry_multiplicity
 _atom_site_fract_x
 _atom_site_fract_y
 _atom_site_fract_z
 _atom_site_occupancy
  Cd  Cd0  1  0.77389000  0.85748000  0.66801000  1.0
  Cd  Cd1  1  0.72611000  0.14252000  0.16801000  1.0
  Cd  Cd2  1  0.22611000  0.35748000  0.83199000  1.0
  Cd  Cd3  1  0.27389000  0.64252000  0.33199000  1.0
  Cd  Cd4  1  0.77464000  0.94416000  0.41151000  1.0
  Cd  Cd5  1  0.72536000  0.05584000  0.91151000  1.0
  Cd  Cd6  1  0.22537000  0.44416000  0.08849000  1.0
  Cd  Cd7  1  0.27464000  0.55584000  0.58849000  1.0
  P  P8  1  0.96754000  0.71427000  0.48794000  1.0
  P  P9  1  0.53246000  0.28573000  0.98794000  1.0
  P  P10  1  0.03246000  0.21427000  0.01206000  1.0
  P  P11  1  0.46755000  0.78573000  0.51206000  1.0
  H  H12  1  0.70871000  0.65151000  0.44330000  1.0
  H  H13  1  0.79129000  0.34849000  0.94330000  1.0
  H  H14  1  0.29129000  0.15151000  0.05670000  1.0
  H  H15  1  0.20871000  0.84849000  0.55670000  1.0
  H  H16  1  0.85206000  0.61539000  0.35602000  1.0
  H  H17  1  0.64794000  0.38461000  0.85602000  1.0
  H  H18  1  0.14794000  0.11539000  0.14398000  1.0
  H  H19  1  0.35207000  0.88461000  0.64398000  1.0
  H  H20  1  0.64019000  0.51507000  0.56828000  1.0
  H  H21  1  0.85981000  0.48493000  0.06828000  1.0
  H  H22  1  0.35981000  0.01507000  0.93172000  1.0
  H  H23  1  0.14019000  0.98493000  0.43172000  1.0
  H  H24  1  0.80274000  0.57894000  0.62091000  1.0
  H  H25  1  0.69726000  0.42106000  0.12091000  1.0
  H  H26  1  0.19726000  0.07894000  0.87909000  1.0
  H  H27  1  0.30274000  0.92106000  0.37909000  1.0
  H  H28  1  0.74955000  0.40224000  0.70053000  1.0
  H  H29  1  0.75045000  0.59776000  0.20053000  1.0
  H  H30  1  0.25045000  0.90224000  0.79947000  1.0
  H  H31  1  0.24955000  0.09776000  0.29947000  1.0
  H  H32  1  0.62565000  0.31610000  0.56516000  1.0
  H  H33  1  0.87435000  0.68390000  0.06516000  1.0
  H  H34  1  0.37435000  0.81610000  0.93484000  1.0
  H  H35  1  0.12565000  0.18390000  0.43484000  1.0
  H  H36  1  0.78388000  0.23607000  0.59824000  1.0
  H  H37  1  0.71612000  0.76394000  0.09825000  1.0
  H  H38  1  0.21612000  0.73606000  0.90175000  1.0
  H  H39  1  0.28388000  0.26393000  0.40175000  1.0
  H  H40  1  0.93406000  0.30376000  0.45797000  1.0
  H  H41  1  0.56594000  0.69624000  0.95797000  1.0
  H  H42  1  0.06594000  0.80376000  0.04203000  1.0
  H  H43  1  0.43406000  0.19624000  0.54203000  1.0
  H  H44  1  0.75491000  0.25899000  0.41405000  1.0
  H  H45  1  0.74509000  0.74101000  0.91405000  1.0
  H  H46  1  0.24509000  0.75899000  0.08595000  1.0
  H  H47  1  0.25491000  0.24101000  0.58595000  1.0
  H  H48  1  0.83773000  0.43603000  0.34243000  1.0
  H  H49  1  0.66227000  0.56397000  0.84243000  1.0
  H  H50  1  0.16227000  0.93603000  0.15757000  1.0
  H  H51  1  0.33773000  0.06397000  0.65757000  1.0
  H  H52  1  0.65656000  0.44246000  0.40387000  1.0
  H  H53  1  0.84344000  0.55754000  0.90387000  1.0
  H  H54  1  0.34344000  0.94246000  0.09613000  1.0
  H  H55  1  0.15656000  0.05754000  0.59613000  1.0
  H  H56  1  0.95360000  0.49737000  0.49542000  1.0
  H  H57  1  0.54640000  0.50264000  0.99542000  1.0
  H  H58  1  0.04640000  0.99737000  0.00458000  1.0
  H  H59  1  0.45360000  0.00264000  0.50458000  1.0
  H  H60  1  0.56589000  0.75228000  0.77848000  1.0
  H  H61  1  0.93411000  0.24772000  0.27848000  1.0
  H  H62  1  0.43410000  0.25228000  0.72152000  1.0
  H  H63  1  0.06589000  0.74772000  0.22152000  1.0
  H  H64  1  0.55969000  0.69564000  0.67506000  1.0
  H  H65  1  0.94031000  0.30436000  0.17506000  1.0
  H  H66  1  0.44031000  0.19564000  0.82494000  1.0
  H  H67  1  0.05969000  0.80436000  0.32494000  1.0
  H  H68  1  0.63456000  0.87842000  0.22736000  1.0
  H  H69  1  0.86544000  0.12158000  0.72736000  1.0
  H  H70  1  0.36544000  0.37842000  0.27264000  1.0
  H  H71  1  0.13456000  0.62158000  0.77264000  1.0
  H  H72  1  0.56793000  0.80812000  0.31672000  1.0
  H  H73  1  0.93207000  0.19188000  0.81672000  1.0
  H  H74  1  0.43207000  0.30812000  0.18328000  1.0
  H  H75  1  0.06793000  0.69188000  0.68328000  1.0
  C  C76  1  0.82610000  0.62252000  0.43485000  1.0
  C  C77  1  0.67390000  0.37748000  0.93485000  1.0
  C  C78  1  0.17390000  0.12252000  0.06515000  1.0
  C  C79  1  0.32610000  0.87748000  0.56515000  1.0
  C  C80  1  0.76405000  0.50953000  0.57934000  1.0
  C  C81  1  0.73595000  0.49047000  0.07934000  1.0
  C  C82  1  0.23595000  0.00953000  0.92066000  1.0
  C  C83  1  0.26405000  0.99047000  0.42066000  1.0
  C  C84  1  0.80775000  0.40548000  0.62909000  1.0
  C  C85  1  0.69225000  0.59452000  0.12909000  1.0
  C  C86  1  0.19225000  0.90548000  0.87091000  1.0
  C  C87  1  0.30775000  0.09452000  0.37091000  1.0
  C  C88  1  0.75151000  0.31229000  0.56546000  1.0
  C  C89  1  0.74849000  0.68771000  0.06546000  1.0
  C  C90  1  0.24849000  0.81229000  0.93454000  1.0
  C  C91  1  0.25151000  0.18770000  0.43454000  1.0
  C  C92  1  0.81032000  0.31980000  0.45966000  1.0
  C  C93  1  0.68968000  0.68020000  0.95966000  1.0
  C  C94  1  0.18968000  0.81980000  0.04034000  1.0
  C  C95  1  0.31032000  0.18020000  0.54034000  1.0
  C  C96  1  0.77944000  0.42799000  0.41350000  1.0
  C  C97  1  0.72056000  0.57202000  0.91350000  1.0
  C  C98  1  0.22056000  0.92798000  0.08650000  1.0
  C  C99  1  0.27944000  0.07202000  0.58650000  1.0
  C  C100  1  0.97998000  0.40079000  0.65011000  1.0
  C  C101  1  0.52002000  0.59921000  0.15011000  1.0
  C  C102  1  0.02002000  0.90079000  0.84988000  1.0
  C  C103  1  0.47998000  0.09920000  0.34989000  1.0
  N  N104  1  0.83818000  0.51478000  0.47947000  1.0
  N  N105  1  0.66182000  0.48522000  0.97947000  1.0
  N  N106  1  0.16182000  0.01478000  0.02053000  1.0
  N  N107  1  0.33818000  0.98522000  0.52053000  1.0
  Cl  Cl108  1  0.56814000  0.95653000  0.77859000  1.0
  Cl  Cl109  1  0.93186000  0.04347000  0.27859000  1.0
  Cl  Cl110  1  0.43186000  0.45653000  0.72141000  1.0
  Cl  Cl111  1  0.06814000  0.54347000  0.22141000  1.0
  Cl  Cl112  1  0.87268000  0.02859000  0.57842000  1.0
  Cl  Cl113  1  0.62732000  0.97141000  0.07842000  1.0
  Cl  Cl114  1  0.12732000  0.52859000  0.92158000  1.0
  Cl  Cl115  1  0.37267000  0.47141000  0.42158000  1.0
  O  O116  1  0.12208000  0.65592000  0.47561000  1.0
  O  O117  1  0.37792000  0.34408000  0.97561000  1.0
  O  O118  1  0.87792000  0.15592000  0.02439000  1.0
  O  O119  1  0.62208000  0.84408000  0.52439000  1.0
  O  O120  1  0.93170000  0.73281000  0.59697000  1.0
  O  O121  1  0.56831000  0.26719000  0.09696000  1.0
  O  O122  1  0.06831000  0.23281000  0.90303000  1.0
  O  O123  1  0.43169000  0.76719000  0.40303000  1.0
  O  O124  1  0.95956000  0.81480000  0.42399000  1.0
  O  O125  1  0.54044000  0.18520000  0.92399000  1.0
  O  O126  1  0.04045000  0.31480000  0.07601000  1.0
  O  O127  1  0.45956000  0.68520000  0.57601000  1.0
  O  O128  1  0.06996000  0.43960000  0.58443000  1.0
  O  O129  1  0.43005000  0.56040000  0.08443000  1.0
  O  O130  1  0.93004000  0.93960000  0.91556000  1.0
  O  O131  1  0.56995000  0.06039000  0.41557000  1.0
  O  O132  1  0.02079000  0.35850000  0.72991000  1.0
  O  O133  1  0.47921000  0.64150000  0.22991000  1.0
  O  O134  1  0.97921000  0.85850000  0.77009000  1.0
  O  O135  1  0.52079000  0.14150000  0.27009000  1.0
  O  O136  1  0.63015000  0.71382000  0.73176000  1.0
  O  O137  1  0.86985000  0.28618000  0.23176000  1.0
  O  O138  1  0.36984000  0.21382000  0.76825000  1.0
  O  O139  1  0.13015000  0.78618000  0.26824000  1.0
  O  O140  1  0.66126000  0.84257000  0.28910000  1.0
  O  O141  1  0.83874000  0.15743000  0.78910000  1.0
  O  O142  1  0.33874000  0.34257000  0.21090000  1.0
  O  O143  1  0.16126000  0.65743000  0.71090000  1.0
