# generated using pymatgen
data_NiH44C28(NO)4
_symmetry_space_group_name_H-M   'P 1'
_cell_length_a   8.59138000
_cell_length_b   9.36474838
_cell_length_c   10.15630000
_cell_angle_alpha   105.17343318
_cell_angle_beta   95.31250000
_cell_angle_gamma   110.72315364
_symmetry_Int_Tables_number   1
_chemical_formula_structural   NiH44C28(NO)4
_chemical_formula_sum   'Ni1 H44 C28 N4 O4'
_cell_volume   721.93266461
_cell_formula_units_Z   1
loop_
 _symmetry_equiv_pos_site_id
 _symmetry_equiv_pos_as_xyz
  1  'x, y, z'
loop_
 _atom_site_type_symbol
 _atom_site_label
 _atom_site_symmetry_multiplicity
 _atom_site_fract_x
 _atom_site_fract_y
 _atom_site_fract_z
 _atom_site_occupancy
  Ni  Ni0  1  0.99999000  0.49999000  0.00000000  1.0
  H  H1  1  0.19733000  0.72729000  0.17788000  1.0
  H  H2  1  0.80266000  0.27270000  0.82213000  1.0
  H  H3  1  0.74549000  0.51616000  0.00979000  1.0
  H  H4  1  0.25451000  0.48385000  0.99021000  1.0
  H  H5  1  0.91681000  0.79302000  0.04121000  1.0
  H  H6  1  0.08320000  0.20698000  0.95879000  1.0
  H  H7  1  0.14511000  0.05399000  0.18808000  1.0
  H  H8  1  0.85490000  0.94602000  0.81193000  1.0
  H  H9  1  0.15617000  0.97611000  0.32831000  1.0
  H  H10  1  0.84383000  0.02389000  0.67168000  1.0
  H  H11  1  0.98391000  0.14353000  0.36040000  1.0
  H  H12  1  0.01611000  0.85648000  0.63961000  1.0
  H  H13  1  0.85292000  0.02818000  0.19471000  1.0
  H  H14  1  0.14708000  0.97183000  0.80530000  1.0
  H  H15  1  0.70236000  0.93779000  0.37214000  1.0
  H  H16  1  0.29765000  0.06223000  0.62788000  1.0
  H  H17  1  0.87691000  0.90514000  0.44406000  1.0
  H  H18  1  0.12309000  0.09487000  0.55594000  1.0
  H  H19  1  0.65383000  0.72094000  0.15089000  1.0
  H  H20  1  0.34617000  0.27907000  0.84913000  1.0
  H  H21  1  0.66005000  0.64906000  0.29468000  1.0
  H  H22  1  0.33995000  0.35095000  0.70533000  1.0
  H  H23  1  0.96150000  0.68485000  0.29423000  1.0
  H  H24  1  0.03850000  0.31517000  0.70576000  1.0
  H  H25  1  0.61833000  0.42164000  0.19177000  1.0
  H  H26  1  0.38167000  0.57837000  0.80822000  1.0
  H  H27  1  0.86290000  0.48604000  0.37135000  1.0
  H  H28  1  0.13710000  0.51396000  0.62866000  1.0
  H  H29  1  0.95323000  0.37857000  0.25253000  1.0
  H  H30  1  0.04677000  0.62143000  0.74746000  1.0
  H  H31  1  0.76401000  0.27477000  0.30573000  1.0
  H  H32  1  0.23599000  0.72523000  0.69426000  1.0
  H  H33  1  0.55253000  0.14429000  0.07691000  1.0
  H  H34  1  0.44748000  0.85573000  0.92310000  1.0
  H  H35  1  0.56183000  0.24731000  0.95283000  1.0
  H  H36  1  0.43817000  0.75268000  0.04716000  1.0
  H  H37  1  0.30675000  0.95396000  0.09824000  1.0
  H  H38  1  0.69325000  0.04604000  0.90177000  1.0
  H  H39  1  0.15571000  0.84804000  0.93922000  1.0
  H  H40  1  0.84429000  0.15194000  0.06078000  1.0
  H  H41  1  0.64941000  0.71309000  0.72623000  1.0
  H  H42  1  0.35057000  0.28690000  0.27377000  1.0
  H  H43  1  0.50183000  0.22758000  0.46605000  1.0
  H  H44  1  0.49819000  0.77244000  0.53396000  1.0
  C  C45  1  0.99438000  0.79774000  0.13664000  1.0
  C  C46  1  0.00561000  0.20227000  0.86336000  1.0
  C  C47  1  0.06944000  0.96981000  0.23781000  1.0
  C  C48  1  0.93056000  0.03020000  0.76219000  1.0
  C  C49  1  0.92776000  0.02126000  0.28531000  1.0
  C  C50  1  0.07224000  0.97874000  0.71470000  1.0
  C  C51  1  0.80814000  0.90310000  0.34606000  1.0
  C  C52  1  0.19186000  0.09690000  0.65394000  1.0
  C  C53  1  0.73767000  0.73165000  0.24513000  1.0
  C  C54  1  0.26234000  0.26835000  0.75486000  1.0
  C  C55  1  0.88145000  0.68285000  0.20183000  1.0
  C  C56  1  0.11855000  0.31715000  0.79817000  1.0
  C  C57  1  0.72309000  0.39148000  0.15526000  1.0
  C  C58  1  0.27691000  0.60852000  0.84475000  1.0
  C  C59  1  0.83272000  0.38250000  0.27781000  1.0
  C  C60  1  0.16728000  0.61750000  0.72219000  1.0
  C  C61  1  0.63984000  0.23285000  0.03675000  1.0
  C  C62  1  0.36017000  0.76716000  0.96325000  1.0
  C  C63  1  0.23512000  0.83351000  0.02199000  1.0
  C  C64  1  0.76487000  0.16649000  0.97802000  1.0
  C  C65  1  0.66335000  0.43023000  0.72614000  1.0
  C  C66  1  0.33664000  0.56973000  0.27382000  1.0
  C  C67  1  0.58453000  0.46750000  0.60676000  1.0
  C  C68  1  0.41548000  0.53250000  0.39323000  1.0
  C  C69  1  0.58364000  0.62109000  0.62608000  1.0
  C  C70  1  0.41635000  0.37891000  0.37394000  1.0
  C  C71  1  0.50028000  0.34645000  0.47919000  1.0
  C  C72  1  0.49971000  0.65355000  0.52081000  1.0
  N  N73  1  0.12106000  0.73132000  0.09064000  1.0
  N  N74  1  0.87893000  0.26867000  0.90937000  1.0
  N  N75  1  0.82160000  0.51956000  0.09907000  1.0
  N  N76  1  0.17840000  0.48044000  0.90093000  1.0
  O  O77  1  0.69683000  0.53293000  0.84653000  1.0
  O  O78  1  0.30317000  0.46703000  0.15346000  1.0
  O  O79  1  0.68413000  0.29825000  0.69757000  1.0
  O  O80  1  0.31582000  0.70171000  0.30240000  1.0
