# generated using pymatgen
data_ZnH12C17SN2O5
_symmetry_space_group_name_H-M   'P 1'
_cell_length_a   14.10570000
_cell_length_b   14.10580000
_cell_length_c   23.64034245
_cell_angle_alpha   105.66337823
_cell_angle_beta   105.66310287
_cell_angle_gamma   95.39100000
_symmetry_Int_Tables_number   1
_chemical_formula_structural   ZnH12C17SN2O5
_chemical_formula_sum   'Zn8 H96 C136 S8 N16 O40'
_cell_volume   4289.71294068
_cell_formula_units_Z   8
loop_
 _symmetry_equiv_pos_site_id
 _symmetry_equiv_pos_as_xyz
  1  'x, y, z'
loop_
 _atom_site_type_symbol
 _atom_site_label
 _atom_site_symmetry_multiplicity
 _atom_site_fract_x
 _atom_site_fract_y
 _atom_site_fract_z
 _atom_site_occupancy
  Zn  Zn0  1  0.00000000  0.00000000  0.00000000  1.0
  Zn  Zn1  1  0.50000000  0.00000000  0.00000000  1.0
  Zn  Zn2  1  0.50000000  1.00000000  0.50000000  1.0
  Zn  Zn3  1  0.50000000  0.50000000  0.50000000  1.0
  Zn  Zn4  1  0.17507000  0.92552000  0.85075000  1.0
  Zn  Zn5  1  0.57449000  0.32493000  0.64925000  1.0
  Zn  Zn6  1  0.82493000  0.07448000  0.14925000  1.0
  Zn  Zn7  1  0.42551000  0.67507000  0.35075000  1.0
  H  H8  1  0.90692000  0.62344000  0.98568000  1.0
  H  H9  1  0.57903000  0.36176000  0.98569000  1.0
  H  H10  1  0.13824000  0.92097000  0.51431000  1.0
  H  H11  1  0.87657000  0.59308000  0.51432000  1.0
  H  H12  1  0.09308000  0.37656000  0.01432000  1.0
  H  H13  1  0.42097000  0.63824000  0.01431000  1.0
  H  H14  1  0.86176000  0.07903000  0.48569000  1.0
  H  H15  1  0.12344000  0.40692000  0.48568000  1.0
  H  H16  1  0.05853000  0.56903000  0.04220000  1.0
  H  H17  1  0.48408000  0.47273000  0.04227000  1.0
  H  H18  1  0.02727000  0.01592000  0.45773000  1.0
  H  H19  1  0.93098000  0.44146000  0.45780000  1.0
  H  H20  1  0.94146000  0.43096000  0.95779000  1.0
  H  H21  1  0.51592000  0.52727000  0.95773000  1.0
  H  H22  1  0.97273000  0.98407000  0.54227000  1.0
  H  H23  1  0.06902000  0.55854000  0.54220000  1.0
  H  H24  1  0.22861000  0.64309000  0.04364000  1.0
  H  H25  1  0.31525000  0.40035000  0.04360000  1.0
  H  H26  1  0.09965000  0.18475000  0.45640000  1.0
  H  H27  1  0.85691000  0.27139000  0.45636000  1.0
  H  H28  1  0.77139000  0.35691000  0.95636000  1.0
  H  H29  1  0.68474000  0.59964000  0.95639000  1.0
  H  H30  1  0.90035000  0.81525000  0.54360000  1.0
  H  H31  1  0.14309000  0.72861000  0.54364000  1.0
  H  H32  1  0.24407000  0.76423000  0.98737000  1.0
  H  H33  1  0.24329000  0.22316000  0.98713000  1.0
  H  H34  1  0.27684000  0.25670000  0.51287000  1.0
  H  H35  1  0.73577000  0.25592000  0.51263000  1.0
  H  H36  1  0.75592000  0.23577000  0.01263000  1.0
  H  H37  1  0.75670000  0.77684000  0.01287000  1.0
  H  H38  1  0.72316000  0.74330000  0.48713000  1.0
  H  H39  1  0.26423000  0.74408000  0.48737000  1.0
  H  H40  1  0.05124000  0.10999000  0.91605000  1.0
  H  H41  1  0.36485000  0.80652000  0.91634000  1.0
  H  H42  1  0.69348000  0.13515000  0.58366000  1.0
  H  H43  1  0.39000000  0.44875000  0.58394000  1.0
  H  H44  1  0.94877000  0.89001000  0.08395000  1.0
  H  H45  1  0.63514000  0.19347000  0.08365000  1.0
  H  H46  1  0.30652000  0.86485000  0.41634000  1.0
  H  H47  1  0.60999000  0.55124000  0.41605000  1.0
  H  H48  1  0.95957000  0.18300000  0.83689000  1.0
  H  H49  1  0.37719000  0.65444000  0.83707000  1.0
  H  H50  1  0.84556000  0.12281000  0.66293000  1.0
  H  H51  1  0.31699000  0.54043000  0.66310000  1.0
  H  H52  1  0.04044000  0.81700000  0.16311000  1.0
  H  H53  1  0.62281000  0.34556000  0.16293000  1.0
  H  H54  1  0.15444000  0.87719000  0.33707000  1.0
  H  H55  1  0.68300000  0.45956000  0.33689000  1.0
  H  H56  1  0.68366000  0.05621000  0.85727000  1.0
  H  H57  1  0.67346000  0.80132000  0.85726000  1.0
  H  H58  1  0.69868000  0.82654000  0.64274000  1.0
  H  H59  1  0.44379000  0.81634000  0.64273000  1.0
  H  H60  1  0.31634000  0.94379000  0.14273000  1.0
  H  H61  1  0.32654000  0.19867000  0.14274000  1.0
  H  H62  1  0.30133000  0.17346000  0.35726000  1.0
  H  H63  1  0.55621000  0.18366000  0.35727000  1.0
  H  H64  1  0.78880000  0.98389000  0.93318000  1.0
  H  H65  1  0.64435000  0.94953000  0.93323000  1.0
  H  H66  1  0.55047000  0.85564000  0.56676000  1.0
  H  H67  1  0.51611000  0.71120000  0.56682000  1.0
  H  H68  1  0.21121000  0.01611000  0.06682000  1.0
  H  H69  1  0.35565000  0.05047000  0.06677000  1.0
  H  H70  1  0.44954000  0.14436000  0.43324000  1.0
  H  H71  1  0.48389000  0.28879000  0.43318000  1.0
  H  H72  1  0.87311000  0.29937000  0.81783000  1.0
  H  H73  1  0.44435000  0.51899000  0.81785000  1.0
  H  H74  1  0.98101000  0.05565000  0.68215000  1.0
  H  H75  1  0.20063000  0.62689000  0.68217000  1.0
  H  H76  1  0.12690000  0.70064000  0.18218000  1.0
  H  H77  1  0.55565000  0.48101000  0.18215000  1.0
  H  H78  1  0.01899000  0.94435000  0.31785000  1.0
  H  H79  1  0.79936000  0.37310000  0.31782000  1.0
  H  H80  1  0.77351000  0.36889000  0.73947000  1.0
  H  H81  1  0.46577000  0.37118000  0.73959000  1.0
  H  H82  1  0.12882000  0.03423000  0.76041000  1.0
  H  H83  1  0.13111000  0.72650000  0.76053000  1.0
  H  H84  1  0.22649000  0.63111000  0.26053000  1.0
  H  H85  1  0.53423000  0.62882000  0.26041000  1.0
  H  H86  1  0.87118000  0.96577000  0.23959000  1.0
  H  H87  1  0.86889000  0.27350000  0.23947000  1.0
  H  H88  1  0.53006000  0.13867000  0.68689000  1.0
  H  H89  1  0.65721000  0.54869000  0.68721000  1.0
  H  H90  1  0.95131000  0.84280000  0.81279000  1.0
  H  H91  1  0.36133000  0.96994000  0.81311000  1.0
  H  H92  1  0.46994000  0.86133000  0.31311000  1.0
  H  H93  1  0.34280000  0.45132000  0.31280000  1.0
  H  H94  1  0.04869000  0.15721000  0.18721000  1.0
  H  H95  1  0.63867000  0.03006000  0.18689000  1.0
  H  H96  1  0.61922000  0.05975000  0.76184000  1.0
  H  H97  1  0.64280000  0.70255000  0.76210000  1.0
  H  H98  1  0.79745000  0.85720000  0.73790000  1.0
  H  H99  1  0.44025000  0.88078000  0.73816000  1.0
  H  H100  1  0.38078000  0.94025000  0.23816000  1.0
  H  H101  1  0.35720000  0.29744000  0.23790000  1.0
  H  H102  1  0.20255000  0.14281000  0.26210000  1.0
  H  H103  1  0.55975000  0.11922000  0.26184000  1.0
  C  C104  1  0.10459000  0.84224000  0.92584000  1.0
  C  C105  1  0.32101000  0.08356000  0.92568000  1.0
  C  C106  1  0.41644000  0.17900000  0.57433000  1.0
  C  C107  1  0.65776000  0.39542000  0.57416000  1.0
  C  C108  1  0.89541000  0.15776000  0.07416000  1.0
  C  C109  1  0.67900000  0.91645000  0.07433000  1.0
  C  C110  1  0.58356000  0.82100000  0.42568000  1.0
  C  C111  1  0.34223000  0.60458000  0.42584000  1.0
  C  C112  1  0.08581000  0.76490000  0.95619000  1.0
  C  C113  1  0.37037000  0.19114000  0.95598000  1.0
  C  C114  1  0.30886000  0.12963000  0.54402000  1.0
  C  C115  1  0.73510000  0.41419000  0.54381000  1.0
  C  C116  1  0.91419000  0.23510000  0.04381000  1.0
  C  C117  1  0.62963000  0.80886000  0.04402000  1.0
  C  C118  1  0.69114000  0.87037000  0.45598000  1.0
  C  C119  1  0.26490000  0.58581000  0.45619000  1.0
  C  C120  1  0.99089000  0.72571000  0.95688000  1.0
  C  C121  1  0.46607000  0.23084000  0.95671000  1.0
  C  C122  1  0.26915000  0.03393000  0.54329000  1.0
  C  C123  1  0.77429000  0.50911000  0.54312000  1.0
  C  C124  1  0.00910000  0.27429000  0.04312000  1.0
  C  C125  1  0.53393000  0.76915000  0.04329000  1.0
  C  C126  1  0.73085000  0.96607000  0.45671000  1.0
  C  C127  1  0.22571000  0.49090000  0.45688000  1.0
  C  C128  1  0.98159000  0.65420000  0.98699000  1.0
  C  C129  1  0.50561000  0.33238000  0.98694000  1.0
  C  C130  1  0.16760000  0.99438000  0.51305000  1.0
  C  C131  1  0.84580000  0.51841000  0.51301000  1.0
  C  C132  1  0.01840000  0.34580000  0.01301000  1.0
  C  C133  1  0.49439000  0.66761000  0.01306000  1.0
  C  C134  1  0.83239000  0.00561000  0.48694000  1.0
  C  C135  1  0.15420000  0.48160000  0.48699000  1.0
  C  C136  1  0.06647000  0.62382000  0.01812000  1.0
  C  C137  1  0.45194000  0.39393000  0.01812000  1.0
  C  C138  1  0.10607000  0.04806000  0.48188000  1.0
  C  C139  1  0.87618000  0.43352000  0.48188000  1.0
  C  C140  1  0.93352000  0.37618000  0.98187000  1.0
  C  C141  1  0.54806000  0.60606000  0.98188000  1.0
  C  C142  1  0.89394000  0.95194000  0.51812000  1.0
  C  C143  1  0.12382000  0.56648000  0.51812000  1.0
  C  C144  1  0.16104000  0.66360000  0.01836000  1.0
  C  C145  1  0.35753000  0.35457000  0.01831000  1.0
  C  C146  1  0.14543000  0.14247000  0.48169000  1.0
  C  C147  1  0.83640000  0.33896000  0.48164000  1.0
  C  C148  1  0.83896000  0.33640000  0.98164000  1.0
  C  C149  1  0.64247000  0.64543000  0.98169000  1.0
  C  C150  1  0.85457000  0.85752000  0.51830000  1.0
  C  C151  1  0.16360000  0.66104000  0.51836000  1.0
  C  C152  1  0.17019000  0.73238000  0.98663000  1.0
  C  C153  1  0.31652000  0.25417000  0.98646000  1.0
  C  C154  1  0.24584000  0.18349000  0.51355000  1.0
  C  C155  1  0.76764000  0.32982000  0.51338000  1.0
  C  C156  1  0.82981000  0.26763000  0.01337000  1.0
  C  C157  1  0.68348000  0.74583000  0.01354000  1.0
  C  C158  1  0.75416000  0.81651000  0.48645000  1.0
  C  C159  1  0.23237000  0.67018000  0.48663000  1.0
  C  C160  1  0.96980000  0.09913000  0.90072000  1.0
  C  C161  1  0.43092000  0.80199000  0.90095000  1.0
  C  C162  1  0.69801000  0.06908000  0.59905000  1.0
  C  C163  1  0.40087000  0.53020000  0.59928000  1.0
  C  C164  1  0.03020000  0.90087000  0.09928000  1.0
  C  C165  1  0.56908000  0.19801000  0.09905000  1.0
  C  C166  1  0.30198000  0.93092000  0.40095000  1.0
  C  C167  1  0.59913000  0.46980000  0.40072000  1.0
  C  C168  1  0.91777000  0.14019000  0.85721000  1.0
  C  C169  1  0.43933000  0.71746000  0.85738000  1.0
  C  C170  1  0.78254000  0.06067000  0.64262000  1.0
  C  C171  1  0.35981000  0.58224000  0.64279000  1.0
  C  C172  1  0.08223000  0.85981000  0.14279000  1.0
  C  C173  1  0.56066000  0.28253000  0.14261000  1.0
  C  C174  1  0.21746000  0.93934000  0.35738000  1.0
  C  C175  1  0.64019000  0.41777000  0.35721000  1.0
  C  C176  1  0.81293000  0.12571000  0.84007000  1.0
  C  C177  1  0.52700000  0.71480000  0.84018000  1.0
  C  C178  1  0.78520000  0.97300000  0.65982000  1.0
  C  C179  1  0.37428000  0.68706000  0.65992000  1.0
  C  C180  1  0.18707000  0.87429000  0.15993000  1.0
  C  C181  1  0.47300000  0.28520000  0.15982000  1.0
  C  C182  1  0.21480000  0.02700000  0.34018000  1.0
  C  C183  1  0.62571000  0.31293000  0.34007000  1.0
  C  C184  1  0.76454000  0.06703000  0.86696000  1.0
  C  C185  1  0.60230000  0.80025000  0.86701000  1.0
  C  C186  1  0.69975000  0.89770000  0.63299000  1.0
  C  C187  1  0.43297000  0.73545000  0.63304000  1.0
  C  C188  1  0.23545000  0.93298000  0.13304000  1.0
  C  C189  1  0.39770000  0.19975000  0.13299000  1.0
  C  C190  1  0.30026000  0.10231000  0.36702000  1.0
  C  C191  1  0.56703000  0.26455000  0.36696000  1.0
  C  C192  1  0.82191000  0.02835000  0.90993000  1.0
  C  C193  1  0.58800000  0.88187000  0.91002000  1.0
  C  C194  1  0.61813000  0.91199000  0.58997000  1.0
  C  C195  1  0.47164000  0.67808000  0.59006000  1.0
  C  C196  1  0.17809000  0.97165000  0.09007000  1.0
  C  C197  1  0.41199000  0.11813000  0.08997000  1.0
  C  C198  1  0.38187000  0.08801000  0.41003000  1.0
  C  C199  1  0.52835000  0.32191000  0.40993000  1.0
  C  C200  1  0.75551000  0.17153000  0.79592000  1.0
  C  C201  1  0.54029000  0.62486000  0.79603000  1.0
  C  C202  1  0.87514000  0.95971000  0.70397000  1.0
  C  C203  1  0.32847000  0.74449000  0.70408000  1.0
  C  C204  1  0.24450000  0.82847000  0.20409000  1.0
  C  C205  1  0.45971000  0.37514000  0.20397000  1.0
  C  C206  1  0.12486000  0.04029000  0.29603000  1.0
  C  C207  1  0.67154000  0.25551000  0.29592000  1.0
  C  C208  1  0.79802000  0.26038000  0.78912000  1.0
  C  C209  1  0.49088000  0.52928000  0.78920000  1.0
  C  C210  1  0.97072000  0.00912000  0.71080000  1.0
  C  C211  1  0.23962000  0.70198000  0.71088000  1.0
  C  C212  1  0.20198000  0.73962000  0.21088000  1.0
  C  C213  1  0.50912000  0.47072000  0.21080000  1.0
  C  C214  1  0.02928000  0.99088000  0.28920000  1.0
  C  C215  1  0.76038000  0.29802000  0.28912000  1.0
  C  C216  1  0.74262000  0.30045000  0.74627000  1.0
  C  C217  1  0.50353000  0.44637000  0.74640000  1.0
  C  C218  1  0.05363000  0.99648000  0.75360000  1.0
  C  C219  1  0.19955000  0.75738000  0.75373000  1.0
  C  C220  1  0.25738000  0.69955000  0.25373000  1.0
  C  C221  1  0.49647000  0.55363000  0.25360000  1.0
  C  C222  1  0.94637000  0.00352000  0.24640000  1.0
  C  C223  1  0.80045000  0.24262000  0.24627000  1.0
  C  C224  1  0.60590000  0.17277000  0.71703000  1.0
  C  C225  1  0.61134000  0.54476000  0.71729000  1.0
  C  C226  1  0.95524000  0.88866000  0.78271000  1.0
  C  C227  1  0.32723000  0.89410000  0.78296000  1.0
  C  C228  1  0.39410000  0.82723000  0.28297000  1.0
  C  C229  1  0.38866000  0.45523000  0.28271000  1.0
  C  C230  1  0.04477000  0.11134000  0.21729000  1.0
  C  C231  1  0.67276000  0.10589000  0.21703000  1.0
  C  C232  1  0.65698000  0.12843000  0.75901000  1.0
  C  C233  1  0.60214000  0.63104000  0.75923000  1.0
  C  C234  1  0.86896000  0.89786000  0.74077000  1.0
  C  C235  1  0.37156000  0.84302000  0.74098000  1.0
  C  C236  1  0.34302000  0.87157000  0.24099000  1.0
  C  C237  1  0.39786000  0.36896000  0.24077000  1.0
  C  C238  1  0.13105000  0.10214000  0.25923000  1.0
  C  C239  1  0.62843000  0.15698000  0.25901000  1.0
  S  S240  1  0.87938000  0.76689000  0.92204000  1.0
  S  S241  1  0.54293000  0.15490000  0.92198000  1.0
  S  S242  1  0.34510000  0.95707000  0.57802000  1.0
  S  S243  1  0.73311000  0.62061000  0.57795000  1.0
  S  S244  1  0.12062000  0.23311000  0.07796000  1.0
  S  S245  1  0.45707000  0.84510000  0.07802000  1.0
  S  S246  1  0.65490000  0.04293000  0.42198000  1.0
  S  S247  1  0.26689000  0.37939000  0.42205000  1.0
  N  N248  1  0.92241000  0.04491000  0.92706000  1.0
  N  N249  1  0.50469000  0.88243000  0.92723000  1.0
  N  N250  1  0.61758000  0.99531000  0.57277000  1.0
  N  N251  1  0.45508000  0.57758000  0.57293000  1.0
  N  N252  1  0.07759000  0.95509000  0.07294000  1.0
  N  N253  1  0.49530000  0.11757000  0.07276000  1.0
  N  N254  1  0.38243000  0.00470000  0.42724000  1.0
  N  N255  1  0.54491000  0.42241000  0.42706000  1.0
  N  N256  1  0.64830000  0.25729000  0.71061000  1.0
  N  N257  1  0.56236000  0.45387000  0.71079000  1.0
  N  N258  1  0.04613000  0.93765000  0.78921000  1.0
  N  N259  1  0.24271000  0.85170000  0.78939000  1.0
  N  N260  1  0.35170000  0.74271000  0.28939000  1.0
  N  N261  1  0.43764000  0.54613000  0.28921000  1.0
  N  N262  1  0.95386000  0.06236000  0.21079000  1.0
  N  N263  1  0.75729000  0.14830000  0.21061000  1.0
  O  O264  1  0.08423000  0.92890000  0.94199000  1.0
  O  O265  1  0.35756000  0.01299000  0.94171000  1.0
  O  O266  1  0.48701000  0.14244000  0.55829000  1.0
  O  O267  1  0.57111000  0.41577000  0.55801000  1.0
  O  O268  1  0.91577000  0.07111000  0.05801000  1.0
  O  O269  1  0.64245000  0.98702000  0.05830000  1.0
  O  O270  1  0.51299000  0.85755000  0.44171000  1.0
  O  O271  1  0.42889000  0.58423000  0.44199000  1.0
  O  O272  1  0.14877000  0.81627000  0.88445000  1.0
  O  O273  1  0.23524000  0.06837000  0.88453000  1.0
  O  O274  1  0.43165000  0.26477000  0.61548000  1.0
  O  O275  1  0.68373000  0.35123000  0.61555000  1.0
  O  O276  1  0.85122000  0.18373000  0.11555000  1.0
  O  O277  1  0.76477000  0.93163000  0.11547000  1.0
  O  O278  1  0.56836000  0.73523000  0.38453000  1.0
  O  O279  1  0.31627000  0.64877000  0.38445000  1.0
  O  O280  1  0.88667000  0.78007000  0.86403000  1.0
  O  O281  1  0.47796000  0.08358000  0.86397000  1.0
  O  O282  1  0.41642000  0.02204000  0.63603000  1.0
  O  O283  1  0.71993000  0.61332000  0.63597000  1.0
  O  O284  1  0.11332000  0.21993000  0.13597000  1.0
  O  O285  1  0.52204000  0.91641000  0.13603000  1.0
  O  O286  1  0.58358000  0.97796000  0.36397000  1.0
  O  O287  1  0.28007000  0.38668000  0.36403000  1.0
  O  O288  1  0.88224000  0.86402000  0.96883000  1.0
  O  O289  1  0.58681000  0.10472000  0.96889000  1.0
  O  O290  1  0.39528000  0.91320000  0.53111000  1.0
  O  O291  1  0.63598000  0.61777000  0.53117000  1.0
  O  O292  1  0.11777000  0.13598000  0.03118000  1.0
  O  O293  1  0.41319000  0.89528000  0.03111000  1.0
  O  O294  1  0.60472000  0.08681000  0.46889000  1.0
  O  O295  1  0.36402000  0.38224000  0.46883000  1.0
  O  O296  1  0.79584000  0.69122000  0.91517000  1.0
  O  O297  1  0.61961000  0.22377000  0.91514000  1.0
  O  O298  1  0.27623000  0.88040000  0.58486000  1.0
  O  O299  1  0.80879000  0.70416000  0.58483000  1.0
  O  O300  1  0.20417000  0.30879000  0.08484000  1.0
  O  O301  1  0.38039000  0.77623000  0.08486000  1.0
  O  O302  1  0.72377000  0.11960000  0.41514000  1.0
  O  O303  1  0.19121000  0.29585000  0.41517000  1.0
