# generated using pymatgen
data_CoH26C32(N5O3)2
_symmetry_space_group_name_H-M   'P 1'
_cell_length_a   8.29793000
_cell_length_b   9.02786000
_cell_length_c   11.20090000
_cell_angle_alpha   83.98280000
_cell_angle_beta   68.93340000
_cell_angle_gamma   73.89600000
_symmetry_Int_Tables_number   1
_chemical_formula_structural   CoH26C32(N5O3)2
_chemical_formula_sum   'Co1 H26 C32 N10 O6'
_cell_volume   752.26846211
_cell_formula_units_Z   1
loop_
 _symmetry_equiv_pos_site_id
 _symmetry_equiv_pos_as_xyz
  1  'x, y, z'
loop_
 _atom_site_type_symbol
 _atom_site_label
 _atom_site_symmetry_multiplicity
 _atom_site_fract_x
 _atom_site_fract_y
 _atom_site_fract_z
 _atom_site_occupancy
  Co  Co0  1  0.49999000  0.50000000  0.50001000  1.0
  H  H1  1  0.27709000  0.23148000  0.76533000  1.0
  H  H2  1  0.72291000  0.76854000  0.23467000  1.0
  H  H3  1  0.94728000  0.33709000  0.88051000  1.0
  H  H4  1  0.05272000  0.66291000  0.11950000  1.0
  H  H5  1  0.85427000  0.60091000  0.78010000  1.0
  H  H6  1  0.14570000  0.39908000  0.21989000  1.0
  H  H7  1  0.28774000  0.71963000  0.37521000  1.0
  H  H8  1  0.71226000  0.28037000  0.62479000  1.0
  H  H9  1  0.80947000  0.24299000  0.10073000  1.0
  H  H10  1  0.19053000  0.75700000  0.89927000  1.0
  H  H11  1  0.74527000  0.80757000  0.63930000  1.0
  H  H12  1  0.25472000  0.19242000  0.36069000  1.0
  H  H13  1  0.18184000  0.46660000  0.71231000  1.0
  H  H14  1  0.81815000  0.53341000  0.28769000  1.0
  H  H15  1  0.33553000  0.97077000  0.08171000  1.0
  H  H16  1  0.66447000  0.02923000  0.91829000  1.0
  H  H17  1  0.45793000  0.83340000  0.45142000  1.0
  H  H18  1  0.54206000  0.16660000  0.54859000  1.0
  H  H19  1  0.49371000  0.69744000  0.14194000  1.0
  H  H20  1  0.50632000  0.30256000  0.85806000  1.0
  H  H21  1  0.51142000  0.23038000  0.07755000  1.0
  H  H22  1  0.48859000  0.76963000  0.92246000  1.0
  H  H23  1  0.54771000  0.74986000  0.54794000  1.0
  H  H24  1  0.45229000  0.25013000  0.45206000  1.0
  H  H25  1  0.70890000  0.14991000  0.30155000  1.0
  H  H26  1  0.29111000  0.85009000  0.69844000  1.0
  C  C27  1  0.21313000  0.19793000  0.86421000  1.0
  C  C28  1  0.78687000  0.80207000  0.13580000  1.0
  C  C29  1  0.02986000  0.25580000  0.92775000  1.0
  C  C30  1  0.97015000  0.74421000  0.07225000  1.0
  C  C31  1  0.00925000  0.77752000  0.49457000  1.0
  C  C32  1  0.99075000  0.22248000  0.50543000  1.0
  C  C33  1  0.94670000  0.63028000  0.68933000  1.0
  C  C34  1  0.05329000  0.36971000  0.31067000  1.0
  C  C35  1  0.18863000  0.69635000  0.46440000  1.0
  C  C36  1  0.81137000  0.30365000  0.53560000  1.0
  C  C37  1  0.95301000  0.20346000  0.05106000  1.0
  C  C38  1  0.04699000  0.79653000  0.94893000  1.0
  C  C39  1  0.50400000  0.45851000  0.12332000  1.0
  C  C40  1  0.49601000  0.54150000  0.87668000  1.0
  C  C41  1  0.51305000  0.40907000  0.25371000  1.0
  C  C42  1  0.48694000  0.59093000  0.74629000  1.0
  C  C43  1  0.99152000  0.02919000  0.23369000  1.0
  C  C44  1  0.00849000  0.97081000  0.76631000  1.0
  C  C45  1  0.06199000  0.09590000  0.10781000  1.0
  C  C46  1  0.93801000  0.90410000  0.89219000  1.0
  C  C47  1  0.96200000  0.89350000  0.40335000  1.0
  C  C48  1  0.03801000  0.10651000  0.59665000  1.0
  C  C49  1  0.88566000  0.74514000  0.61082000  1.0
  C  C50  1  0.11433000  0.25486000  0.38917000  1.0
  C  C51  1  0.50655000  0.34829000  0.04261000  1.0
  C  C52  1  0.49347000  0.65171000  0.95739000  1.0
  C  C53  1  0.49660000  0.61090000  0.08006000  1.0
  C  C54  1  0.50341000  0.38909000  0.91994000  1.0
  C  C55  1  0.12737000  0.55453000  0.65315000  1.0
  C  C56  1  0.87262000  0.44546000  0.34685000  1.0
  C  C57  1  0.24629000  0.04963000  0.03782000  1.0
  C  C58  1  0.75372000  0.95037000  0.96217000  1.0
  N  N59  1  0.08497000  0.91601000  0.28809000  1.0
  N  N60  1  0.91503000  0.08399000  0.71190000  1.0
  N  N61  1  0.81930000  0.07127000  0.31457000  1.0
  N  N62  1  0.18071000  0.92873000  0.68542000  1.0
  N  N63  1  0.24790000  0.58886000  0.54240000  1.0
  N  N64  1  0.75210000  0.41114000  0.45759000  1.0
  N  N65  1  0.79730000  0.98698000  0.42357000  1.0
  N  N66  1  0.20270000  0.01303000  0.57643000  1.0
  N  N67  1  0.32082000  0.09773000  0.91851000  1.0
  N  N68  1  0.67919000  0.90228000  0.08149000  1.0
  O  O69  1  0.51272000  0.27027000  0.28857000  1.0
  O  O70  1  0.48727000  0.72973000  0.71144000  1.0
  O  O71  1  0.52343000  0.51078000  0.32022000  1.0
  O  O72  1  0.47655000  0.48922000  0.67979000  1.0
  O  O73  1  0.55355000  0.74400000  0.45808000  1.0
  O  O74  1  0.44644000  0.25600000  0.54193000  1.0
