# generated using pymatgen
data_NiH15C23(N2O3)2
_symmetry_space_group_name_H-M   'P 1'
_cell_length_a   7.41608000
_cell_length_b   9.81629000
_cell_length_c   15.66350000
_cell_angle_alpha   78.26050000
_cell_angle_beta   80.94600000
_cell_angle_gamma   70.41070000
_symmetry_Int_Tables_number   1
_chemical_formula_structural   NiH15C23(N2O3)2
_chemical_formula_sum   'Ni2 H30 C46 N8 O12'
_cell_volume   1046.88362090
_cell_formula_units_Z   2
loop_
 _symmetry_equiv_pos_site_id
 _symmetry_equiv_pos_as_xyz
  1  'x, y, z'
loop_
 _atom_site_type_symbol
 _atom_site_label
 _atom_site_symmetry_multiplicity
 _atom_site_fract_x
 _atom_site_fract_y
 _atom_site_fract_z
 _atom_site_occupancy
  Ni  Ni0  1  0.48322000  0.38808000  0.26105000  1.0
  Ni  Ni1  1  0.51680000  0.61191000  0.73895000  1.0
  H  H2  1  0.76427000  0.53247000  0.29742000  1.0
  H  H3  1  0.23574000  0.46752000  0.70258000  1.0
  H  H4  1  0.93604000  0.51709000  0.42667000  1.0
  H  H5  1  0.06394000  0.48294000  0.57332000  1.0
  H  H6  1  0.84675000  0.37167000  0.57220000  1.0
  H  H7  1  0.15322000  0.62838000  0.42781000  1.0
  H  H8  1  0.60927000  0.24418000  0.57767000  1.0
  H  H9  1  0.39070000  0.75583000  0.42235000  1.0
  H  H10  1  0.37577000  0.16435000  0.57428000  1.0
  H  H11  1  0.62426000  0.83566000  0.42574000  1.0
  H  H12  1  0.15589000  0.03701000  0.55383000  1.0
  H  H13  1  0.84410000  0.96299000  0.44621000  1.0
  H  H14  1  0.08156000  0.04648000  0.39762000  1.0
  H  H15  1  0.91845000  0.95349000  0.60242000  1.0
  H  H16  1  0.24209000  0.18020000  0.27452000  1.0
  H  H17  1  0.75793000  0.81978000  0.72551000  1.0
  H  H18  1  0.54038000  0.34377000  0.07214000  1.0
  H  H19  1  0.45961000  0.65623000  0.92787000  1.0
  H  H20  1  0.33318000  0.41529000  0.94970000  1.0
  H  H21  1  0.66684000  0.58471000  0.05029000  1.0
  H  H22  1  0.84081000  0.52186000  0.14297000  1.0
  H  H23  1  0.15919000  0.47814000  0.85703000  1.0
  H  H24  1  0.07139000  0.45424000  0.25405000  1.0
  H  H25  1  0.92861000  0.54575000  0.74595000  1.0
  H  H26  1  0.42511000  0.80245000  0.05386000  1.0
  H  H27  1  0.57488000  0.19755000  0.94612000  1.0
  H  H28  1  0.95836000  0.20555000  0.06694000  1.0
  H  H29  1  0.04165000  0.79444000  0.93306000  1.0
  H  H30  1  0.04891000  0.86524000  0.29187000  1.0
  H  H31  1  0.95106000  0.13477000  0.70813000  1.0
  C  C32  1  0.82358000  0.13703000  0.24145000  1.0
  C  C33  1  0.17645000  0.86294000  0.75854000  1.0
  C  C34  1  0.73884000  0.46716000  0.36053000  1.0
  C  C35  1  0.26115000  0.53283000  0.63947000  1.0
  C  C36  1  0.83067000  0.45972000  0.43311000  1.0
  C  C37  1  0.16935000  0.54028000  0.56687000  1.0
  C  C38  1  0.78392000  0.37849000  0.51248000  1.0
  C  C39  1  0.21608000  0.62154000  0.48752000  1.0
  C  C40  1  0.64872000  0.30703000  0.51615000  1.0
  C  C41  1  0.35128000  0.69299000  0.48385000  1.0
  C  C42  1  0.56515000  0.31675000  0.44022000  1.0
  C  C43  1  0.43485000  0.68327000  0.55978000  1.0
  C  C44  1  0.42497000  0.24244000  0.43566000  1.0
  C  C45  1  0.57506000  0.75755000  0.56434000  1.0
  C  C46  1  0.34214000  0.16814000  0.50844000  1.0
  C  C47  1  0.65787000  0.83188000  0.49156000  1.0
  C  C48  1  0.21694000  0.09627000  0.49647000  1.0
  C  C49  1  0.78307000  0.90372000  0.50355000  1.0
  C  C50  1  0.17962000  0.09886000  0.41156000  1.0
  C  C51  1  0.82038000  0.90113000  0.58846000  1.0
  C  C52  1  0.26603000  0.17582000  0.34201000  1.0
  C  C53  1  0.73400000  0.82415000  0.65802000  1.0
  C  C54  1  0.38434000  0.38541000  0.08373000  1.0
  C  C55  1  0.61565000  0.61457000  0.91627000  1.0
  C  C56  1  0.26631000  0.42485000  0.01628000  1.0
  C  C57  1  0.73368000  0.57516000  0.98371000  1.0
  C  C58  1  0.06550000  0.47708000  0.03483000  1.0
  C  C59  1  0.93448000  0.52294000  0.96517000  1.0
  C  C60  1  0.99413000  0.48404000  0.12286000  1.0
  C  C61  1  0.00585000  0.51597000  0.87713000  1.0
  C  C62  1  0.12192000  0.44488000  0.18580000  1.0
  C  C63  1  0.87807000  0.55510000  0.81419000  1.0
  C  C64  1  0.34951000  0.66326000  0.21871000  1.0
  C  C65  1  0.65049000  0.33674000  0.78130000  1.0
  C  C66  1  0.25001000  0.81695000  0.17808000  1.0
  C  C67  1  0.74996000  0.18306000  0.82189000  1.0
  C  C68  1  0.30380000  0.86922000  0.09140000  1.0
  C  C69  1  0.69618000  0.13080000  0.90857000  1.0
  C  C70  1  0.19618000  0.00793000  0.05306000  1.0
  C  C71  1  0.80380000  0.99208000  0.94695000  1.0
  C  C72  1  0.04021000  0.09816000  0.09888000  1.0
  C  C73  1  0.95980000  0.90183000  0.90113000  1.0
  C  C74  1  0.98995000  0.04678000  0.18638000  1.0
  C  C75  1  0.01011000  0.95318000  0.81363000  1.0
  C  C76  1  0.09374000  0.90602000  0.22470000  1.0
  C  C77  1  0.90626000  0.09396000  0.77530000  1.0
  N  N78  1  0.61184000  0.39596000  0.36371000  1.0
  N  N79  1  0.38814000  0.60404000  0.63628000  1.0
  N  N80  1  0.24837000  0.05908000  0.96030000  1.0
  N  N81  1  0.75161000  0.94093000  0.03970000  1.0
  N  N82  1  0.38223000  0.24850000  0.35358000  1.0
  N  N83  1  0.61781000  0.75150000  0.64641000  1.0
  N  N84  1  0.31428000  0.39699000  0.16748000  1.0
  N  N85  1  0.68572000  0.60298000  0.83253000  1.0
  O  O86  1  0.71652000  0.25693000  0.19993000  1.0
  O  O87  1  0.28351000  0.74302000  0.80006000  1.0
  O  O88  1  0.15002000  0.18185000  0.92609000  1.0
  O  O89  1  0.84996000  0.81819000  0.07390000  1.0
  O  O90  1  0.38720000  0.97617000  0.92096000  1.0
  O  O91  1  0.61280000  0.02384000  0.07903000  1.0
  O  O92  1  0.51273000  0.59178000  0.18373000  1.0
  O  O93  1  0.48724000  0.40823000  0.81626000  1.0
  O  O94  1  0.26365000  0.60275000  0.28501000  1.0
  O  O95  1  0.73632000  0.39727000  0.71497000  1.0
  O  O96  1  0.80319000  0.08964000  0.32169000  1.0
  O  O97  1  0.19686000  0.91037000  0.67832000  1.0
