# generated using pymatgen
data_Sn2H22(C2O)5
_symmetry_space_group_name_H-M   'P 1'
_cell_length_a   8.21529000
_cell_length_b   8.21529000
_cell_length_c   12.13340000
_cell_angle_alpha   78.98300000
_cell_angle_beta   78.98320000
_cell_angle_gamma   75.42250000
_symmetry_Int_Tables_number   1
_chemical_formula_structural   Sn2H22(C2O)5
_chemical_formula_sum   'Sn4 H44 C20 O10'
_cell_volume   769.06330067
_cell_formula_units_Z   2
loop_
 _symmetry_equiv_pos_site_id
 _symmetry_equiv_pos_as_xyz
  1  'x, y, z'
loop_
 _atom_site_type_symbol
 _atom_site_label
 _atom_site_symmetry_multiplicity
 _atom_site_fract_x
 _atom_site_fract_y
 _atom_site_fract_z
 _atom_site_occupancy
  Sn  Sn0  1  0.18468000  0.41012000  0.97018000  1.0
  Sn  Sn1  1  0.58988000  0.81533000  0.02982000  1.0
  Sn  Sn2  1  0.28383000  0.15429000  0.55627000  1.0
  Sn  Sn3  1  0.84571000  0.71618000  0.44373000  1.0
  H  H4  1  0.91356000  0.01564000  0.76362000  1.0
  H  H5  1  0.98436000  0.08645000  0.23638000  1.0
  H  H6  1  0.63999000  0.40720000  0.67227000  1.0
  H  H7  1  0.59280000  0.36002000  0.32773000  1.0
  H  H8  1  0.66140000  0.21094000  0.62553000  1.0
  H  H9  1  0.78906000  0.33861000  0.37447000  1.0
  H  H10  1  0.23094000  0.95960000  0.41489000  1.0
  H  H11  1  0.04039000  0.76906000  0.58512000  1.0
  H  H12  1  0.34245000  0.11464000  0.33350000  1.0
  H  H13  1  0.88536000  0.65755000  0.66650000  1.0
  H  H14  1  0.11911000  0.17473000  0.37940000  1.0
  H  H15  1  0.82527000  0.88090000  0.62060000  1.0
  H  H16  1  0.05387000  0.28490000  0.82469000  1.0
  H  H17  1  0.71511000  0.94613000  0.17531000  1.0
  H  H18  1  0.95149000  0.22930000  0.96697000  1.0
  H  H19  1  0.77071000  0.04851000  0.03303000  1.0
  H  H20  1  0.15992000  0.11287000  0.91897000  1.0
  H  H21  1  0.88713000  0.84008000  0.08102000  1.0
  H  H22  1  0.39089000  0.44810000  0.49344000  1.0
  H  H23  1  0.55191000  0.60911000  0.50656000  1.0
  H  H24  1  0.34611000  0.40780000  0.64555000  1.0
  H  H25  1  0.59220000  0.65389000  0.35445000  1.0
  H  H26  1  0.17570000  0.49034000  0.56307000  1.0
  H  H27  1  0.50966000  0.82429000  0.43692000  1.0
  H  H28  1  0.41305000  0.44134000  0.09582000  1.0
  H  H29  1  0.55865000  0.58695000  0.90419000  1.0
  H  H30  1  0.40622000  0.22214000  0.10844000  1.0
  H  H31  1  0.77785000  0.59377000  0.89157000  1.0
  H  H32  1  0.24169000  0.36216000  0.18701000  1.0
  H  H33  1  0.63783000  0.75831000  0.81300000  1.0
  H  H34  1  0.30774000  0.97249000  0.76677000  1.0
  H  H35  1  0.02751000  0.69226000  0.23323000  1.0
  H  H36  1  0.51384000  0.95216000  0.68247000  1.0
  H  H37  1  0.04784000  0.48616000  0.31753000  1.0
  H  H38  1  0.37206000  0.83078000  0.66346000  1.0
  H  H39  1  0.16923000  0.62794000  0.33654000  1.0
  H  H40  1  0.76881000  0.25721000  0.84440000  1.0
  H  H41  1  0.74278000  0.23119000  0.15560000  1.0
  H  H42  1  0.15280000  0.75483000  0.93194000  1.0
  H  H43  1  0.24517000  0.84720000  0.06806000  1.0
  H  H44  1  0.02346000  0.70109000  0.84868000  1.0
  H  H45  1  0.29891000  0.97654000  0.15132000  1.0
  H  H46  1  0.24919000  0.66654000  0.80490000  1.0
  H  H47  1  0.33345000  0.75081000  0.19509000  1.0
  C  C48  1  0.52926000  0.20027000  0.85847000  1.0
  C  C49  1  0.79973000  0.47074000  0.14153000  1.0
  C  C50  1  0.71761000  0.27720000  0.67443000  1.0
  C  C51  1  0.72280000  0.28239000  0.32557000  1.0
  C  C52  1  0.23899000  0.09325000  0.40231000  1.0
  C  C53  1  0.90676000  0.76101000  0.59769000  1.0
  C  C54  1  0.07291000  0.23813000  0.91319000  1.0
  C  C55  1  0.76187000  0.92709000  0.08681000  1.0
  C  C56  1  0.30166000  0.40644000  0.56620000  1.0
  C  C57  1  0.59356000  0.69834000  0.43380000  1.0
  C  C58  1  0.89428000  0.28429000  0.61081000  1.0
  C  C59  1  0.71571000  0.10572000  0.38919000  1.0
  C  C60  1  0.32959000  0.35228000  0.10752000  1.0
  C  C61  1  0.64772000  0.67041000  0.89248000  1.0
  C  C62  1  0.38036000  0.95293000  0.68303000  1.0
  C  C63  1  0.04707000  0.61964000  0.31697000  1.0
  C  C64  1  0.71216000  0.18714000  0.79768000  1.0
  C  C65  1  0.81286000  0.28784000  0.20232000  1.0
  C  C66  1  0.14771000  0.66415000  0.87778000  1.0
  C  C67  1  0.33585000  0.85229000  0.12221000  1.0
  O  O68  1  0.01964000  0.16526000  0.64537000  1.0
  O  O69  1  0.83474000  0.98037000  0.35462000  1.0
  O  O70  1  0.43210000  0.34893000  0.84501000  1.0
  O  O71  1  0.65106000  0.56790000  0.15499000  1.0
  O  O72  1  0.79940000  0.01368000  0.80621000  1.0
  O  O73  1  0.98632000  0.20060000  0.19379000  1.0
  O  O74  1  0.48180000  0.07305000  0.91981000  1.0
  O  O75  1  0.92695000  0.51820000  0.08019000  1.0
  O  O76  1  0.91469000  0.39733000  0.52717000  1.0
  O  O77  1  0.60266000  0.08531000  0.47283000  1.0
