# generated using pymatgen
data_Tl2H3C7NO4
_symmetry_space_group_name_H-M   'P 1'
_cell_length_a   7.56623000
_cell_length_b   8.06219000
_cell_length_c   8.06211000
_cell_angle_alpha   100.88500000
_cell_angle_beta   99.06430000
_cell_angle_gamma   99.06470000
_symmetry_Int_Tables_number   1
_chemical_formula_structural   Tl2H3C7NO4
_chemical_formula_sum   'Tl4 H6 C14 N2 O8'
_cell_volume   467.93265063
_cell_formula_units_Z   2
loop_
 _symmetry_equiv_pos_site_id
 _symmetry_equiv_pos_as_xyz
  1  'x, y, z'
loop_
 _atom_site_type_symbol
 _atom_site_label
 _atom_site_symmetry_multiplicity
 _atom_site_fract_x
 _atom_site_fract_y
 _atom_site_fract_z
 _atom_site_occupancy
  Tl  Tl0  1  0.51245000  0.70617000  0.38833000  1.0
  Tl  Tl1  1  0.98754000  0.61167000  0.29383000  1.0
  Tl  Tl2  1  0.48754000  0.29383000  0.61167000  1.0
  Tl  Tl3  1  0.01246000  0.38833000  0.70617000  1.0
  H  H4  1  0.25001000  0.15895000  0.84106000  1.0
  H  H5  1  0.74999000  0.84105000  0.15895000  1.0
  H  H6  1  0.29542000  0.66467000  0.95431000  1.0
  H  H7  1  0.20457000  0.04570000  0.33534000  1.0
  H  H8  1  0.70458000  0.33532000  0.04570000  1.0
  H  H9  1  0.79542000  0.95430000  0.66466000  1.0
  C  C10  1  0.27082000  0.90218000  0.87169000  1.0
  C  C11  1  0.22918000  0.12833000  0.09782000  1.0
  C  C12  1  0.72917000  0.09781000  0.12833000  1.0
  C  C13  1  0.77082000  0.87167000  0.90218000  1.0
  C  C14  1  0.25001000  0.07135000  0.92867000  1.0
  C  C15  1  0.75000000  0.92867000  0.07133000  1.0
  C  C16  1  0.29266000  0.83366000  0.69003000  1.0
  C  C17  1  0.20735000  0.30998000  0.16635000  1.0
  C  C18  1  0.70735000  0.16634000  0.30997000  1.0
  C  C19  1  0.79265000  0.69002000  0.83365000  1.0
  C  C20  1  0.27321000  0.79606000  0.99039000  1.0
  C  C21  1  0.22678000  0.00961000  0.20395000  1.0
  C  C22  1  0.72678000  0.20395000  0.00960000  1.0
  C  C23  1  0.77321000  0.99038000  0.79605000  1.0
  N  N24  1  0.25000000  0.84766000  0.15235000  1.0
  N  N25  1  0.75000000  0.15235000  0.84765000  1.0
  O  O26  1  0.30695000  0.93780000  0.59030000  1.0
  O  O27  1  0.19306000  0.40971000  0.06219000  1.0
  O  O28  1  0.69306000  0.06219000  0.40970000  1.0
  O  O29  1  0.80695000  0.59030000  0.93780000  1.0
  O  O30  1  0.29593000  0.67350000  0.64750000  1.0
  O  O31  1  0.20408000  0.35252000  0.32651000  1.0
  O  O32  1  0.70408000  0.32649000  0.35251000  1.0
  O  O33  1  0.79593000  0.64749000  0.67349000  1.0
