# generated using pymatgen
data_HgH12C13N2Cl2O
_symmetry_space_group_name_H-M   'P 1'
_cell_length_a   7.07953000
_cell_length_b   9.26330000
_cell_length_c   20.67190000
_cell_angle_alpha   95.06610000
_cell_angle_beta   90.00000000
_cell_angle_gamma   90.00000000
_symmetry_Int_Tables_number   1
_chemical_formula_structural   HgH12C13N2Cl2O
_chemical_formula_sum   'Hg4 H48 C52 N8 Cl8 O4'
_cell_volume   1350.36337869
_cell_formula_units_Z   4
loop_
 _symmetry_equiv_pos_site_id
 _symmetry_equiv_pos_as_xyz
  1  'x, y, z'
loop_
 _atom_site_type_symbol
 _atom_site_label
 _atom_site_symmetry_multiplicity
 _atom_site_fract_x
 _atom_site_fract_y
 _atom_site_fract_z
 _atom_site_occupancy
  Hg  Hg0  1  0.22370000  0.32710000  0.23720000  1.0
  Hg  Hg1  1  0.72370000  0.67290000  0.26280000  1.0
  Hg  Hg2  1  0.77630000  0.67290000  0.76280000  1.0
  Hg  Hg3  1  0.27630000  0.32710000  0.73720000  1.0
  H  H4  1  0.40988000  0.97963000  0.41898000  1.0
  H  H5  1  0.90988000  0.02037000  0.08102000  1.0
  H  H6  1  0.59012000  0.02037000  0.58102000  1.0
  H  H7  1  0.09012000  0.97963000  0.91898000  1.0
  H  H8  1  0.41485000  0.17208000  0.51463000  1.0
  H  H9  1  0.91485000  0.82792000  0.98537000  1.0
  H  H10  1  0.58514000  0.82792000  0.48537000  1.0
  H  H11  1  0.08514000  0.17209000  0.01463000  1.0
  H  H12  1  0.34818000  0.42894000  0.49355000  1.0
  H  H13  1  0.84818000  0.57106000  0.00645000  1.0
  H  H14  1  0.65182000  0.57106000  0.50645000  1.0
  H  H15  1  0.15182000  0.42894000  0.99355000  1.0
  H  H16  1  0.27625000  0.48474000  0.37916000  1.0
  H  H17  1  0.77625000  0.51526000  0.12084000  1.0
  H  H18  1  0.72375000  0.51526000  0.62084000  1.0
  H  H19  1  0.22375000  0.48474000  0.87916000  1.0
  H  H20  1  0.36944000  0.91192000  0.30792000  1.0
  H  H21  1  0.86944000  0.08808000  0.19208000  1.0
  H  H22  1  0.63056000  0.08808000  0.69208000  1.0
  H  H23  1  0.13056000  0.91192000  0.80792000  1.0
  H  H24  1  0.24650000  0.76287000  0.23484000  1.0
  H  H25  1  0.74649000  0.23713000  0.26516000  1.0
  H  H26  1  0.75350000  0.23713000  0.76516000  1.0
  H  H27  1  0.25350000  0.76287000  0.73484000  1.0
  H  H28  1  0.27582000  0.59084000  0.13792000  1.0
  H  H29  1  0.77582000  0.40916000  0.36208000  1.0
  H  H30  1  0.72418000  0.40916000  0.86208000  1.0
  H  H31  1  0.22418000  0.59084000  0.63792000  1.0
  H  H32  1  0.39826000  0.94294000  0.02109000  1.0
  H  H33  1  0.89826000  0.05706000  0.47891000  1.0
  H  H34  1  0.60174000  0.05706000  0.97891000  1.0
  H  H35  1  0.10174000  0.94294000  0.52109000  1.0
  H  H36  1  0.37310000  0.11715000  0.11945000  1.0
  H  H37  1  0.87310000  0.88285000  0.38055000  1.0
  H  H38  1  0.62690000  0.88285000  0.88055000  1.0
  H  H39  1  0.12690000  0.11715000  0.61945000  1.0
  H  H40  1  0.54909000  0.76289000  0.96714000  1.0
  H  H41  1  0.04909000  0.23711000  0.53286000  1.0
  H  H42  1  0.45091000  0.23711000  0.03286000  1.0
  H  H43  1  0.95091000  0.76289000  0.46714000  1.0
  H  H44  1  0.30844000  0.74891000  0.93850000  1.0
  H  H45  1  0.80844000  0.25109000  0.56150000  1.0
  H  H46  1  0.69156000  0.25109000  0.06150000  1.0
  H  H47  1  0.19156000  0.74891000  0.43850000  1.0
  H  H48  1  0.46042000  0.59358000  0.93252000  1.0
  H  H49  1  0.96042000  0.40642000  0.56748000  1.0
  H  H50  1  0.53958000  0.40642000  0.06748000  1.0
  H  H51  1  0.03958000  0.59358000  0.43252000  1.0
  C  C52  1  0.33423000  0.13262000  0.35133000  1.0
  C  C53  1  0.83423000  0.86738000  0.14867000  1.0
  C  C54  1  0.66577000  0.86738000  0.64867000  1.0
  C  C55  1  0.16577000  0.13262000  0.85133000  1.0
  C  C56  1  0.37805000  0.09304000  0.41343000  1.0
  C  C57  1  0.87805000  0.90696000  0.08657000  1.0
  C  C58  1  0.62195000  0.90696000  0.58657000  1.0
  C  C59  1  0.12195000  0.09304000  0.91343000  1.0
  C  C60  1  0.38293000  0.19906000  0.46549000  1.0
  C  C61  1  0.88293000  0.80094000  0.03451000  1.0
  C  C62  1  0.61707000  0.80094000  0.53451000  1.0
  C  C63  1  0.11707000  0.19906000  0.96549000  1.0
  C  C64  1  0.34677000  0.34262000  0.45422000  1.0
  C  C65  1  0.84676000  0.65738000  0.04578000  1.0
  C  C66  1  0.65323000  0.65738000  0.54578000  1.0
  C  C67  1  0.15323000  0.34262000  0.95422000  1.0
  C  C68  1  0.30405000  0.37466000  0.39115000  1.0
  C  C69  1  0.80405000  0.62534000  0.10885000  1.0
  C  C70  1  0.69595000  0.62534000  0.60885000  1.0
  C  C71  1  0.19595000  0.37466000  0.89115000  1.0
  C  C72  1  0.33669000  0.02266000  0.29620000  1.0
  C  C73  1  0.83668000  0.97734000  0.20380000  1.0
  C  C74  1  0.66332000  0.97734000  0.70380000  1.0
  C  C75  1  0.16332000  0.02266000  0.79620000  1.0
  C  C76  1  0.31827000  0.95296000  0.18421000  1.0
  C  C77  1  0.81826000  0.04704000  0.31579000  1.0
  C  C78  1  0.68173000  0.04704000  0.81579000  1.0
  C  C79  1  0.18174000  0.95296000  0.68421000  1.0
  C  C80  1  0.28712000  0.80358000  0.18890000  1.0
  C  C81  1  0.78712000  0.19642000  0.31110000  1.0
  C  C82  1  0.71288000  0.19642000  0.81110000  1.0
  C  C83  1  0.21288000  0.80358000  0.68890000  1.0
  C  C84  1  0.30071000  0.70602000  0.13450000  1.0
  C  C85  1  0.80070000  0.29397000  0.36550000  1.0
  C  C86  1  0.69930000  0.29397000  0.86550000  1.0
  C  C87  1  0.19930000  0.70602000  0.63450000  1.0
  C  C88  1  0.34734000  0.75465000  0.07395000  1.0
  C  C89  1  0.84734000  0.24535000  0.42605000  1.0
  C  C90  1  0.65266000  0.24536000  0.92605000  1.0
  C  C91  1  0.15266000  0.75465000  0.57395000  1.0
  C  C92  1  0.37084000  0.90345000  0.06818000  1.0
  C  C93  1  0.87085000  0.09655000  0.43182000  1.0
  C  C94  1  0.62916000  0.09655000  0.93182000  1.0
  C  C95  1  0.12916000  0.90345000  0.56818000  1.0
  C  C96  1  0.35560000  0.00133000  0.12306000  1.0
  C  C97  1  0.85560000  0.99867000  0.37694000  1.0
  C  C98  1  0.64440000  0.99867000  0.87694000  1.0
  C  C99  1  0.14440000  0.00133000  0.62306000  1.0
  C  C100  1  0.42353000  0.69317000  0.96204000  1.0
  C  C101  1  0.92353000  0.30683000  0.53796000  1.0
  C  C102  1  0.57647000  0.30683000  0.03796000  1.0
  C  C103  1  0.07647000  0.69317000  0.46204000  1.0
  N  N104  1  0.29516000  0.27180000  0.34163000  1.0
  N  N105  1  0.79516000  0.72820000  0.15838000  1.0
  N  N106  1  0.70484000  0.72820000  0.65837000  1.0
  N  N107  1  0.20484000  0.27180000  0.84162000  1.0
  N  N108  1  0.31229000  0.05640000  0.23762000  1.0
  N  N109  1  0.81229000  0.94360000  0.26238000  1.0
  N  N110  1  0.68771000  0.94360000  0.76238000  1.0
  N  N111  1  0.18771000  0.05640000  0.73762000  1.0
  Cl  Cl112  1  0.04651000  0.30508000  0.13461000  1.0
  Cl  Cl113  1  0.54651000  0.69492000  0.36540000  1.0
  Cl  Cl114  1  0.95349000  0.69492000  0.86539000  1.0
  Cl  Cl115  1  0.45349000  0.30508000  0.63461000  1.0
  Cl  Cl116  1  0.55938000  0.42200000  0.20707000  1.0
  Cl  Cl117  1  0.05938000  0.57800000  0.29293000  1.0
  Cl  Cl118  1  0.44062000  0.57800000  0.79293000  1.0
  Cl  Cl119  1  0.94062000  0.42200000  0.70707000  1.0
  O  O120  1  0.36542000  0.64986000  0.02395000  1.0
  O  O121  1  0.86542000  0.35014000  0.47605000  1.0
  O  O122  1  0.63458000  0.35014000  0.97605000  1.0
  O  O123  1  0.13457000  0.64986000  0.52395000  1.0
