# generated using pymatgen
data_Zn2H15C25N3O8
_symmetry_space_group_name_H-M   'P 1'
_cell_length_a   10.69110000
_cell_length_b   16.84300000
_cell_length_c   18.10853636
_cell_angle_alpha   117.71511117
_cell_angle_beta   107.13802328
_cell_angle_gamma   89.99420000
_symmetry_Int_Tables_number   1
_chemical_formula_structural   Zn2H15C25N3O8
_chemical_formula_sum   'Zn8 H60 C100 N12 O32'
_cell_volume   2722.13857334
_cell_formula_units_Z   4
loop_
 _symmetry_equiv_pos_site_id
 _symmetry_equiv_pos_as_xyz
  1  'x, y, z'
loop_
 _atom_site_type_symbol
 _atom_site_label
 _atom_site_symmetry_multiplicity
 _atom_site_fract_x
 _atom_site_fract_y
 _atom_site_fract_z
 _atom_site_occupancy
  Zn  Zn0  1  0.77414000  0.78932000  0.35243000  1.0
  Zn  Zn1  1  0.23610000  0.47018000  0.84096000  1.0
  Zn  Zn2  1  0.22611000  0.43690000  0.64754000  1.0
  Zn  Zn3  1  0.76409000  0.62926000  0.15891000  1.0
  Zn  Zn4  1  0.57879000  0.28936000  0.35265000  1.0
  Zn  Zn5  1  0.60401000  0.97015000  0.84083000  1.0
  Zn  Zn6  1  0.42101000  0.93684000  0.64751000  1.0
  Zn  Zn7  1  0.39586000  0.12962000  0.15914000  1.0
  H  H8  1  0.55192000  0.49297000  0.30469000  1.0
  H  H9  1  0.30958000  0.30071000  0.03766000  1.0
  H  H10  1  0.46022000  0.56823000  0.09972000  1.0
  H  H11  1  0.39952000  0.00362000  0.36074000  1.0
  H  H12  1  0.48785000  0.85503000  0.24704000  1.0
  H  H13  1  0.70501000  0.01942000  0.64076000  1.0
  H  H14  1  0.90200000  0.00544000  0.74409000  1.0
  H  H15  1  0.06004000  0.90222000  0.68279000  1.0
  H  H16  1  0.00531000  0.81601000  0.51849000  1.0
  H  H17  1  0.46218000  0.09978000  0.51541000  1.0
  H  H18  1  0.54002000  0.05792000  0.58753000  1.0
  H  H19  1  0.70202000  0.18126000  0.71143000  1.0
  H  H20  1  0.90180000  0.29807000  0.77360000  1.0
  H  H21  1  0.87028000  0.23733000  0.50947000  1.0
  H  H22  1  0.67284000  0.12483000  0.44815000  1.0
  H  H23  1  0.44827000  0.18784000  0.69540000  1.0
  H  H24  1  0.69090000  0.26287000  0.96242000  1.0
  H  H25  1  0.53955000  0.46815000  0.90024000  1.0
  H  H26  1  0.60061000  0.64306000  0.63929000  1.0
  H  H27  1  0.51221000  0.60823000  0.75297000  1.0
  H  H28  1  0.29529000  0.37903000  0.35920000  1.0
  H  H29  1  0.09796000  0.26218000  0.25570000  1.0
  H  H30  1  0.93974000  0.22012000  0.31679000  1.0
  H  H31  1  0.99472000  0.29758000  0.48111000  1.0
  H  H32  1  0.53787000  0.58453000  0.48453000  1.0
  H  H33  1  0.46039000  0.47048000  0.41251000  1.0
  H  H34  1  0.29859000  0.47014000  0.28845000  1.0
  H  H35  1  0.09864000  0.52463000  0.22630000  1.0
  H  H36  1  0.12922000  0.72737000  0.49048000  1.0
  H  H37  1  0.32671000  0.67628000  0.55181000  1.0
  H  H38  1  0.75334000  0.99265000  0.30446000  1.0
  H  H39  1  0.72800000  0.80010000  0.03727000  1.0
  H  H40  1  0.64028000  0.06785000  0.09942000  1.0
  H  H41  1  0.96098000  0.50387000  0.36082000  1.0
  H  H42  1  0.75907000  0.35531000  0.24728000  1.0
  H  H43  1  0.93563000  0.51988000  0.64107000  1.0
  H  H44  1  0.84192000  0.50602000  0.74450000  1.0
  H  H45  1  0.62291000  0.40264000  0.68330000  1.0
  H  H46  1  0.51373000  0.31613000  0.51900000  1.0
  H  H47  1  0.05338000  0.59981000  0.51546000  1.0
  H  H48  1  0.04755000  0.55807000  0.58766000  1.0
  H  H49  1  0.00973000  0.68177000  0.71158000  1.0
  H  H50  1  0.87184000  0.79842000  0.77376000  1.0
  H  H51  1  0.63902000  0.73725000  0.50963000  1.0
  H  H52  1  0.77529000  0.62479000  0.44825000  1.0
  H  H53  1  0.24678000  0.68798000  0.69575000  1.0
  H  H54  1  0.27142000  0.76309000  0.96290000  1.0
  H  H55  1  0.35984000  0.96835000  0.90049000  1.0
  H  H56  1  0.03808000  0.14304000  0.63893000  1.0
  H  H57  1  0.23999000  0.10847000  0.75280000  1.0
  H  H58  1  0.06420000  0.87873000  0.35911000  1.0
  H  H59  1  0.15810000  0.76153000  0.25580000  1.0
  H  H60  1  0.37730000  0.71958000  0.31707000  1.0
  H  H61  1  0.48633000  0.79741000  0.48140000  1.0
  H  H62  1  0.94628000  0.08419000  0.48407000  1.0
  H  H63  1  0.95238000  0.97022000  0.41218000  1.0
  H  H64  1  0.99003000  0.97032000  0.28811000  1.0
  H  H65  1  0.12782000  0.02512000  0.22615000  1.0
  H  H66  1  0.36120000  0.22734000  0.49047000  1.0
  H  H67  1  0.22498000  0.17602000  0.55165000  1.0
  C  C68  1  0.50226000  0.47618000  0.23624000  1.0
  C  C69  1  0.42818000  0.38979000  0.17470000  1.0
  C  C70  1  0.36568000  0.36828000  0.08628000  1.0
  C  C71  1  0.37507000  0.43339000  0.06008000  1.0
  C  C72  1  0.45175000  0.51891000  0.12163000  1.0
  C  C73  1  0.51636000  0.54021000  0.20936000  1.0
  C  C74  1  0.30761000  0.41192000  0.96561000  1.0
  C  C75  1  0.59987000  0.63045000  0.27438000  1.0
  C  C76  1  0.42116000  0.31968000  0.20270000  1.0
  C  C77  1  0.47852000  0.96680000  0.37411000  1.0
  C  C78  1  0.52333000  0.89302000  0.31877000  1.0
  C  C79  1  0.64636000  0.93250000  0.45446000  1.0
  C  C80  1  0.75523000  0.92989000  0.52419000  1.0
  C  C81  1  0.77549000  0.97782000  0.61505000  1.0
  C  C82  1  0.88610000  0.96905000  0.67333000  1.0
  C  C83  1  0.97305000  0.91202000  0.64020000  1.0
  C  C84  1  0.94437000  0.86408000  0.54893000  1.0
  C  C85  1  0.55214000  0.07411000  0.53770000  1.0
  C  C86  1  0.67372000  0.14466000  0.57585000  1.0
  C  C87  1  0.73900000  0.19409000  0.66738000  1.0
  C  C88  1  0.85063000  0.25941000  0.70245000  1.0
  C  C89  1  0.89974000  0.27520000  0.64589000  1.0
  C  C90  1  0.83478000  0.22538000  0.55436000  1.0
  C  C91  1  0.72226000  0.16120000  0.51961000  1.0
  C  C92  1  0.01961000  0.34522000  0.68319000  1.0
  C  C93  1  0.49783000  0.23961000  0.76383000  1.0
  C  C94  1  0.57204000  0.21484000  0.82541000  1.0
  C  C95  1  0.63464000  0.28178000  0.91381000  1.0
  C  C96  1  0.62513000  0.37307000  0.93996000  1.0
  C  C97  1  0.54823000  0.39695000  0.87838000  1.0
  C  C98  1  0.48358000  0.33048000  0.79066000  1.0
  C  C99  1  0.69277000  0.44618000  0.03438000  1.0
  C  C100  1  0.40012000  0.35566000  0.72556000  1.0
  C  C101  1  0.57893000  0.11675000  0.79744000  1.0
  C  C102  1  0.52165000  0.59283000  0.62590000  1.0
  C  C103  1  0.47681000  0.57441000  0.68124000  1.0
  C  C104  1  0.35404000  0.47804000  0.54553000  1.0
  C  C105  1  0.24520000  0.40573000  0.47574000  1.0
  C  C106  1  0.22488000  0.36306000  0.38489000  1.0
  C  C107  1  0.11407000  0.29623000  0.32648000  1.0
  C  C108  1  0.02701000  0.27226000  0.35950000  1.0
  C  C109  1  0.05585000  0.31526000  0.45079000  1.0
  C  C110  1  0.44806000  0.53647000  0.46228000  1.0
  C  C111  1  0.32634000  0.56874000  0.42409000  1.0
  C  C112  1  0.26133000  0.52679000  0.33253000  1.0
  C  C113  1  0.14964000  0.55696000  0.29745000  1.0
  C  C114  1  0.10021000  0.62910000  0.35400000  1.0
  C  C115  1  0.16491000  0.67067000  0.44555000  1.0
  C  C116  1  0.27746000  0.64129000  0.48033000  1.0
  C  C117  1  0.98034000  0.66184000  0.31670000  1.0
  C  C118  1  0.73439000  0.97585000  0.23598000  1.0
  C  C119  1  0.74686000  0.88939000  0.17440000  1.0
  C  C120  1  0.72066000  0.86774000  0.08592000  1.0
  C  C121  1  0.68513000  0.93287000  0.05973000  1.0
  C  C122  1  0.67032000  0.01852000  0.12137000  1.0
  C  C123  1  0.69338000  0.03989000  0.20912000  1.0
  C  C124  1  0.65786000  0.91140000  0.96522000  1.0
  C  C125  1  0.67506000  0.13024000  0.27423000  1.0
  C  C126  1  0.78211000  0.81932000  0.20242000  1.0
  C  C127  1  0.89550000  0.46701000  0.37425000  1.0
  C  C128  1  0.79545000  0.39325000  0.31900000  1.0
  C  C129  1  0.80841000  0.43263000  0.45475000  1.0
  C  C130  1  0.76925000  0.43005000  0.52453000  1.0
  C  C131  1  0.83962000  0.47817000  0.61539000  1.0
  C  C132  1  0.78729000  0.46947000  0.67373000  1.0
  C  C133  1  0.66735000  0.41239000  0.64067000  1.0
  C  C134  1  0.60501000  0.36423000  0.54939000  1.0
  C  C135  1  0.98567000  0.57425000  0.53782000  1.0
  C  C136  1  0.90226000  0.64488000  0.57599000  1.0
  C  C137  1  0.92856000  0.69445000  0.66753000  1.0
  C  C138  1  0.85184000  0.75969000  0.70260000  1.0
  C  C139  1  0.74605000  0.77531000  0.64604000  1.0
  C  C140  1  0.71951000  0.72540000  0.55451000  1.0
  C  C141  1  0.79735000  0.66124000  0.51973000  1.0
  C  C142  1  0.66329000  0.84526000  0.68329000  1.0
  C  C143  1  0.26556000  0.73979000  0.76416000  1.0
  C  C144  1  0.25296000  0.71503000  0.82578000  1.0
  C  C145  1  0.27898000  0.78195000  0.91422000  1.0
  C  C146  1  0.31461000  0.87323000  0.94033000  1.0
  C  C147  1  0.32958000  0.89713000  0.87865000  1.0
  C  C148  1  0.30649000  0.83065000  0.79091000  1.0
  C  C149  1  0.34186000  0.94636000  0.03480000  1.0
  C  C150  1  0.32480000  0.85568000  0.72566000  1.0
  C  C151  1  0.21800000  0.61690000  0.79773000  1.0
  C  C152  1  0.10378000  0.09286000  0.62563000  1.0
  C  C153  1  0.20384000  0.07453000  0.68106000  1.0
  C  C154  1  0.19135000  0.97807000  0.54543000  1.0
  C  C155  1  0.23061000  0.90568000  0.47574000  1.0
  C  C156  1  0.16027000  0.86281000  0.38487000  1.0
  C  C157  1  0.21273000  0.79581000  0.32658000  1.0
  C  C158  1  0.33276000  0.77190000  0.35970000  1.0
  C  C159  1  0.39501000  0.81508000  0.45100000  1.0
  C  C160  1  0.01415000  0.03629000  0.46197000  1.0
  C  C161  1  0.09776000  0.06870000  0.42385000  1.0
  C  C162  1  0.07131000  0.02695000  0.33229000  1.0
  C  C163  1  0.14801000  0.05727000  0.29731000  1.0
  C  C164  1  0.25399000  0.12931000  0.35395000  1.0
  C  C165  1  0.28067000  0.17067000  0.44548000  1.0
  C  C166  1  0.20282000  0.14118000  0.48017000  1.0
  C  C167  1  0.33675000  0.16209000  0.31676000  1.0
  N  N168  1  0.55615000  0.99113000  0.45951000  1.0
  N  N169  1  0.62643000  0.87270000  0.36937000  1.0
  N  N170  1  0.83917000  0.87283000  0.49234000  1.0
  N  N171  1  0.44416000  0.53168000  0.54050000  1.0
  N  N172  1  0.37385000  0.50336000  0.63061000  1.0
  N  N173  1  0.16124000  0.38043000  0.50752000  1.0
  N  N174  1  0.90348000  0.49128000  0.45969000  1.0
  N  N175  1  0.74323000  0.37285000  0.36970000  1.0
  N  N176  1  0.65363000  0.37292000  0.49273000  1.0
  N  N177  1  0.09612000  0.03164000  0.54026000  1.0
  N  N178  1  0.25644000  0.00351000  0.63055000  1.0
  N  N179  1  0.34626000  0.88040000  0.50761000  1.0
  O  O180  1  0.31069000  0.48444000  0.95623000  1.0
  O  O181  1  0.25780000  0.33333333  0.90556000  1.0
  O  O182  1  0.61555000  0.66666667  0.35482000  1.0
  O  O183  1  0.65579000  0.67210000  0.24300000  1.0
  O  O184  1  0.45551000  0.34645000  0.28591000  1.0
  O  O185  1  0.38255000  0.23752000  0.14147000  1.0
  O  O186  1  0.07194000  0.34757000  0.62941000  1.0
  O  O187  1  0.05935000  0.39746000  0.76680000  1.0
  O  O188  1  0.68963000  0.52807000  0.04371000  1.0
  O  O189  1  0.74285000  0.42766000  0.09445000  1.0
  O  O190  1  0.38450000  0.31132000  0.64514000  1.0
  O  O191  1  0.34431000  0.42878000  0.75686000  1.0
  O  O192  1  0.54468000  0.06033000  0.71421000  1.0
  O  O193  1  0.61729000  0.09577000  0.85863000  1.0
  O  O194  1  0.92786000  0.71784000  0.37046000  1.0
  O  O195  1  0.94081000  0.63063000  0.23312000  1.0
  O  O196  1  0.64501000  0.98396000  0.95593000  1.0
  O  O197  1  0.64784000  0.83280000  0.90513000  1.0
  O  O198  1  0.73965000  0.16630000  0.35467000  1.0
  O  O199  1  0.58803000  0.17211000  0.24301000  1.0
  O  O200  1  0.83101000  0.84615000  0.28564000  1.0
  O  O201  1  0.75975000  0.73716000  0.14122000  1.0
  O  O202  1  0.55711000  0.84744000  0.62951000  1.0
  O  O203  1  0.70713000  0.89768000  0.76686000  1.0
  O  O204  1  0.35461000  0.02820000  0.04405000  1.0
  O  O205  1  0.35203000  0.92793000  0.09495000  1.0
  O  O206  1  0.26017000  0.81123000  0.64525000  1.0
  O  O207  1  0.41185000  0.92875000  0.75683000  1.0
  O  O208  1  0.16930000  0.56055000  0.71449000  1.0
  O  O209  1  0.24042000  0.59590000  0.85890000  1.0
  O  O210  1  0.44303000  0.21795000  0.37061000  1.0
  O  O211  1  0.29292000  0.13108000  0.23322000  1.0
