# generated using pymatgen
data_CdH9C10N2ClO3
_symmetry_space_group_name_H-M   'P 1'
_cell_length_a   8.97433000
_cell_length_b   10.83400000
_cell_length_c   12.85600000
_cell_angle_alpha   93.15190000
_cell_angle_beta   90.00000000
_cell_angle_gamma   114.46700000
_symmetry_Int_Tables_number   1
_chemical_formula_structural   CdH9C10N2ClO3
_chemical_formula_sum   'Cd4 H36 C40 N8 Cl4 O12'
_cell_volume   1135.63743497
_cell_formula_units_Z   4
loop_
 _symmetry_equiv_pos_site_id
 _symmetry_equiv_pos_as_xyz
  1  'x, y, z'
loop_
 _atom_site_type_symbol
 _atom_site_label
 _atom_site_symmetry_multiplicity
 _atom_site_fract_x
 _atom_site_fract_y
 _atom_site_fract_z
 _atom_site_occupancy
  Cd  Cd0  1  0.71729000  0.99984000  0.24998000  1.0
  Cd  Cd1  1  0.28271000  0.00016000  0.75002000  1.0
  Cd  Cd2  1  0.11941000  0.00002000  0.24998000  1.0
  Cd  Cd3  1  0.88059000  0.99998000  0.75002000  1.0
  H  H4  1  0.15443000  0.24727000  0.60967000  1.0
  H  H5  1  0.90738000  0.75290000  0.89041000  1.0
  H  H6  1  0.84557000  0.75273000  0.39033000  1.0
  H  H7  1  0.09262000  0.24710000  0.10958000  1.0
  H  H8  1  0.79559000  0.27498000  0.80889000  1.0
  H  H9  1  0.52080000  0.72482000  0.69106000  1.0
  H  H10  1  0.20441000  0.72502000  0.19111000  1.0
  H  H11  1  0.47920000  0.27517000  0.30894000  1.0
  H  H12  1  0.93755000  0.51540000  0.70736000  1.0
  H  H13  1  0.42252000  0.48446000  0.79265000  1.0
  H  H14  1  0.06245000  0.48460000  0.29265000  1.0
  H  H15  1  0.57748000  0.51554000  0.20734000  1.0
  H  H16  1  0.13139000  0.67538000  0.64204000  1.0
  H  H17  1  0.45632000  0.32465000  0.85803000  1.0
  H  H18  1  0.86861000  0.32462000  0.35797000  1.0
  H  H19  1  0.54368000  0.67535000  0.14197000  1.0
  H  H20  1  0.31109000  0.84501000  0.52678000  1.0
  H  H21  1  0.46618000  0.15500000  0.97331000  1.0
  H  H22  1  0.68891000  0.15499000  0.47322000  1.0
  H  H23  1  0.53382000  0.84500000  0.02669000  1.0
  H  H24  1  0.44342000  0.54392000  0.37285000  1.0
  H  H25  1  0.89981000  0.45599000  0.12724000  1.0
  H  H26  1  0.55658000  0.45608000  0.62715000  1.0
  H  H27  1  0.10019000  0.54401000  0.87276000  1.0
  H  H28  1  0.25575000  0.36881000  0.48252000  1.0
  H  H29  1  0.88714000  0.63111000  0.01760000  1.0
  H  H30  1  0.74425000  0.63119000  0.51748000  1.0
  H  H31  1  0.11286000  0.36889000  0.98240000  1.0
  H  H32  1  0.37008000  0.00218000  0.10219000  1.0
  H  H33  1  0.36803000  0.99800000  0.39776000  1.0
  H  H34  1  0.62991000  0.99782000  0.89781000  1.0
  H  H35  1  0.63197000  0.00200000  0.60224000  1.0
  H  H36  1  0.20701000  0.97774000  0.03903000  1.0
  H  H37  1  0.22951000  0.02260000  0.46091000  1.0
  H  H38  1  0.79299000  0.02226000  0.96097000  1.0
  H  H39  1  0.77049000  0.97740000  0.53909000  1.0
  C  C40  1  0.07413000  0.28606000  0.64857000  1.0
  C  C41  1  0.78832000  0.71403000  0.85148000  1.0
  C  C42  1  0.92587000  0.71394000  0.35143000  1.0
  C  C43  1  0.21168000  0.28597000  0.14852000  1.0
  C  C44  1  0.89087000  0.30585000  0.75165000  1.0
  C  C45  1  0.58518000  0.69402000  0.74835000  1.0
  C  C46  1  0.10913000  0.69415000  0.24835000  1.0
  C  C47  1  0.41482000  0.30598000  0.25165000  1.0
  C  C48  1  0.96077000  0.42501000  0.70271000  1.0
  C  C49  1  0.53606000  0.57489000  0.79734000  1.0
  C  C50  1  0.03922000  0.57499000  0.29729000  1.0
  C  C51  1  0.46394000  0.42511000  0.20266000  1.0
  C  C52  1  0.18138000  0.51048000  0.57062000  1.0
  C  C53  1  0.67116000  0.48951000  0.92948000  1.0
  C  C54  1  0.81862000  0.48952000  0.42938000  1.0
  C  C55  1  0.32884000  0.51049000  0.07052000  1.0
  C  C56  1  0.19637000  0.64447000  0.58193000  1.0
  C  C57  1  0.55220000  0.35551000  0.91815000  1.0
  C  C58  1  0.80363000  0.35553000  0.41807000  1.0
  C  C59  1  0.44780000  0.64449000  0.08185000  1.0
  C  C60  1  0.29909000  0.74090000  0.51710000  1.0
  C  C61  1  0.55842000  0.25907000  0.98301000  1.0
  C  C62  1  0.70090000  0.25910000  0.48290000  1.0
  C  C63  1  0.44158000  0.74093000  0.01699000  1.0
  C  C64  1  0.38909000  0.70564000  0.44154000  1.0
  C  C65  1  0.68367000  0.29427000  0.05856000  1.0
  C  C66  1  0.61091000  0.29436000  0.55846000  1.0
  C  C67  1  0.31633000  0.70573000  0.94144000  1.0
  C  C68  1  0.49919000  0.80671000  0.37081000  1.0
  C  C69  1  0.69255000  0.19309000  0.12926000  1.0
  C  C70  1  0.50081000  0.19329000  0.62919000  1.0
  C  C71  1  0.30745000  0.80691000  0.87075000  1.0
  C  C72  1  0.37400000  0.57152000  0.43184000  1.0
  C  C73  1  0.80268000  0.42842000  0.06832000  1.0
  C  C74  1  0.62600000  0.42848000  0.56816000  1.0
  C  C75  1  0.19732000  0.57158000  0.93168000  1.0
  C  C76  1  0.26922000  0.47326000  0.49436000  1.0
  C  C77  1  0.79611000  0.52666000  0.00579000  1.0
  C  C78  1  0.73078000  0.52674000  0.50564000  1.0
  C  C79  1  0.20389000  0.47334000  0.99421000  1.0
  N  N80  1  0.96278000  0.22072000  0.71699000  1.0
  N  N81  1  0.74220000  0.77925000  0.78301000  1.0
  N  N82  1  0.03722000  0.77928000  0.28301000  1.0
  N  N83  1  0.25780000  0.22075000  0.21698000  1.0
  N  N84  1  0.07739000  0.41196000  0.63718000  1.0
  N  N85  1  0.66574000  0.58808000  0.86292000  1.0
  N  N86  1  0.92261000  0.58804000  0.36282000  1.0
  N  N87  1  0.33426000  0.41192000  0.13708000  1.0
  Cl  Cl88  1  0.93723000  0.06888000  0.39511000  1.0
  Cl  Cl89  1  0.86819000  0.93072000  0.10488000  1.0
  Cl  Cl90  1  0.06277000  0.93112000  0.60489000  1.0
  Cl  Cl91  1  0.13181000  0.06928000  0.89512000  1.0
  O  O92  1  0.59369000  0.77415000  0.31281000  1.0
  O  O93  1  0.81954000  0.22562000  0.18729000  1.0
  O  O94  1  0.40631000  0.22585000  0.68719000  1.0
  O  O95  1  0.18046000  0.77438000  0.81271000  1.0
  O  O96  1  0.24860000  0.94950000  0.09988000  1.0
  O  O97  1  0.29940000  0.05083000  0.40008000  1.0
  O  O98  1  0.75140000  0.05050000  0.90012000  1.0
  O  O99  1  0.70060000  0.94917000  0.59992000  1.0
  O  O100  1  0.49825000  0.92520000  0.36931000  1.0
  O  O101  1  0.57308000  0.07460000  0.13060000  1.0
  O  O102  1  0.50175000  0.07480000  0.63069000  1.0
  O  O103  1  0.42693000  0.92540000  0.86940000  1.0
