# generated using pymatgen
data_CdH6C5N8
_symmetry_space_group_name_H-M   'P 1'
_cell_length_a   6.56545000
_cell_length_b   7.89702000
_cell_length_c   8.95310000
_cell_angle_alpha   72.61700000
_cell_angle_beta   88.13710000
_cell_angle_gamma   87.52760000
_symmetry_Int_Tables_number   1
_chemical_formula_structural   CdH6C5N8
_chemical_formula_sum   'Cd2 H12 C10 N16'
_cell_volume   442.48938811
_cell_formula_units_Z   2
loop_
 _symmetry_equiv_pos_site_id
 _symmetry_equiv_pos_as_xyz
  1  'x, y, z'
loop_
 _atom_site_type_symbol
 _atom_site_label
 _atom_site_symmetry_multiplicity
 _atom_site_fract_x
 _atom_site_fract_y
 _atom_site_fract_z
 _atom_site_occupancy
  Cd  Cd0  1  0.40288000  0.63459000  0.80211000  1.0
  Cd  Cd1  1  0.59712000  0.36541000  0.19789000  1.0
  H  H2  1  0.33657000  0.87849000  0.46305000  1.0
  H  H3  1  0.66342000  0.12151000  0.53696000  1.0
  H  H4  1  0.09391000  0.39901000  0.45075000  1.0
  H  H5  1  0.90609000  0.60099000  0.54925000  1.0
  H  H6  1  0.04495000  0.28534000  0.74195000  1.0
  H  H7  1  0.95505000  0.71467000  0.25804000  1.0
  H  H8  1  0.15435000  0.97087000  0.88102000  1.0
  H  H9  1  0.84565000  0.02914000  0.11898000  1.0
  H  H10  1  0.16038000  0.30380000  0.21632000  1.0
  H  H11  1  0.83961000  0.69620000  0.78368000  1.0
  H  H12  1  0.28741000  0.10981000  0.22270000  1.0
  H  H13  1  0.71259000  0.89018000  0.77730000  1.0
  C  C14  1  0.27625000  0.97430000  0.52076000  1.0
  C  C15  1  0.72375000  0.02570000  0.47924000  1.0
  C  C16  1  0.22560000  0.14952000  0.43437000  1.0
  C  C17  1  0.77440000  0.85047000  0.56563000  1.0
  C  C18  1  0.13785000  0.26255000  0.51483000  1.0
  C  C19  1  0.86215000  0.73746000  0.48517000  1.0
  C  C20  1  0.10975000  0.19910000  0.67636000  1.0
  C  C21  1  0.89025000  0.80091000  0.32364000  1.0
  C  C22  1  0.17039000  0.02462000  0.75433000  1.0
  C  C23  1  0.82961000  0.97538000  0.24567000  1.0
  N  N24  1  0.43804000  0.64389000  0.06246000  1.0
  N  N25  1  0.56196000  0.35611000  0.93754000  1.0
  N  N26  1  0.39957000  0.76869000  0.11121000  1.0
  N  N27  1  0.60043000  0.23131000  0.88880000  1.0
  N  N28  1  0.36134000  0.88967000  0.15761000  1.0
  N  N29  1  0.63867000  0.11033000  0.84240000  1.0
  N  N30  1  0.06318000  0.52761000  0.86969000  1.0
  N  N31  1  0.93682000  0.47239000  0.13030000  1.0
  N  N32  1  0.00000000  0.50000000  0.00001000  1.0
  N  N33  1  0.38776000  0.57587000  0.56598000  1.0
  N  N34  1  0.61224000  0.42413000  0.43401000  1.0
  N  N35  1  0.49999000  0.50001000  0.50001000  1.0
  N  N36  1  0.25118000  0.91458000  0.67702000  1.0
  N  N37  1  0.74882000  0.08542000  0.32299000  1.0
  N  N38  1  0.26943000  0.21101000  0.27266000  1.0
  N  N39  1  0.73058000  0.78898000  0.72735000  1.0
