# generated using pymatgen
data_CdH22C30(NO)6
_symmetry_space_group_name_H-M   'P 1'
_cell_length_a   12.24750000
_cell_length_b   12.24760000
_cell_length_c   13.43920000
_cell_angle_alpha   77.59260000
_cell_angle_beta   77.59290000
_cell_angle_gamma   66.59010000
_symmetry_Int_Tables_number   1
_chemical_formula_structural   CdH22C30(NO)6
_chemical_formula_sum   'Cd2 H44 C60 N12 O12'
_cell_volume   1787.81131688
_cell_formula_units_Z   2
loop_
 _symmetry_equiv_pos_site_id
 _symmetry_equiv_pos_as_xyz
  1  'x, y, z'
loop_
 _atom_site_type_symbol
 _atom_site_label
 _atom_site_symmetry_multiplicity
 _atom_site_fract_x
 _atom_site_fract_y
 _atom_site_fract_z
 _atom_site_occupancy
  Cd  Cd0  1  0.00001000  0.50000000  0.50000000  1.0
  Cd  Cd1  1  0.50000000  0.00001000  0.00000000  1.0
  H  H2  1  0.80971000  0.54891000  0.71581000  1.0
  H  H3  1  0.78356000  0.95805000  0.55880000  1.0
  H  H4  1  0.68742000  0.72133000  0.81738000  1.0
  H  H5  1  0.35400000  0.01861000  0.66189000  1.0
  H  H6  1  0.14055000  0.65428000  0.33895000  1.0
  H  H7  1  0.53614000  0.84088000  0.39611000  1.0
  H  H8  1  0.34530000  0.85992000  0.41660000  1.0
  H  H9  1  0.13100000  0.55995000  0.65518000  1.0
  H  H10  1  0.24694000  0.68312000  0.66322000  1.0
  H  H11  1  0.25921000  0.78188000  0.33265000  1.0
  H  H12  1  0.89213000  0.77996000  0.46471000  1.0
  H  H13  1  0.45109000  0.19027000  0.78419000  1.0
  H  H14  1  0.04195000  0.21644000  0.94121000  1.0
  H  H15  1  0.27867000  0.31256000  0.68262000  1.0
  H  H16  1  0.98139000  0.64600000  0.83811000  1.0
  H  H17  1  0.34573000  0.85945000  0.16105000  1.0
  H  H18  1  0.15913000  0.46386000  0.10389000  1.0
  H  H19  1  0.14007000  0.65471000  0.08341000  1.0
  H  H20  1  0.44005000  0.86900000  0.84482000  1.0
  H  H21  1  0.31687000  0.75307000  0.83678000  1.0
  H  H22  1  0.21812000  0.74079000  0.16735000  1.0
  H  H23  1  0.22003000  0.10788000  0.03529000  1.0
  H  H24  1  0.19026000  0.45109000  0.28419000  1.0
  H  H25  1  0.21645000  0.04195000  0.44120000  1.0
  H  H26  1  0.31255000  0.27868000  0.18262000  1.0
  H  H27  1  0.64600000  0.98139000  0.33811000  1.0
  H  H28  1  0.85945000  0.34573000  0.66106000  1.0
  H  H29  1  0.46386000  0.15913000  0.60389000  1.0
  H  H30  1  0.65471000  0.14007000  0.58341000  1.0
  H  H31  1  0.86901000  0.44004000  0.34483000  1.0
  H  H32  1  0.75308000  0.31687000  0.33679000  1.0
  H  H33  1  0.74079000  0.21812000  0.66736000  1.0
  H  H34  1  0.10788000  0.22003000  0.53529000  1.0
  H  H35  1  0.54891000  0.80973000  0.21581000  1.0
  H  H36  1  0.95805000  0.78356000  0.05879000  1.0
  H  H37  1  0.72133000  0.68744000  0.31738000  1.0
  H  H38  1  0.01862000  0.35399000  0.16189000  1.0
  H  H39  1  0.65427000  0.14055000  0.83895000  1.0
  H  H40  1  0.84088000  0.53614000  0.89611000  1.0
  H  H41  1  0.85993000  0.34530000  0.91659000  1.0
  H  H42  1  0.55996000  0.13099000  0.15517000  1.0
  H  H43  1  0.68313000  0.24693000  0.16321000  1.0
  H  H44  1  0.78188000  0.25921000  0.83264000  1.0
  H  H45  1  0.77996000  0.89213000  0.96471000  1.0
  C  C46  1  0.65799000  0.95725000  0.75636000  1.0
  C  C47  1  0.72596000  0.85300000  0.69552000  1.0
  C  C48  1  0.79825000  0.64184000  0.68309000  1.0
  C  C49  1  0.78476000  0.86942000  0.59542000  1.0
  C  C50  1  0.73244000  0.73647000  0.73936000  1.0
  C  C51  1  0.41848000  0.01073000  0.59132000  1.0
  C  C52  1  0.16715000  0.66227000  0.40891000  1.0
  C  C53  1  0.51988000  0.91107000  0.44127000  1.0
  C  C54  1  0.16149000  0.61011000  0.58490000  1.0
  C  C55  1  0.26465000  0.74214000  0.49724000  1.0
  C  C56  1  0.22716000  0.67853000  0.58957000  1.0
  C  C57  1  0.43747000  0.92171000  0.53230000  1.0
  C  C58  1  0.23276000  0.73299000  0.40549000  1.0
  C  C59  1  0.36692000  0.84147000  0.56866000  1.0
  C  C60  1  0.84643000  0.77071000  0.54343000  1.0
  C  C61  1  0.04274000  0.34201000  0.74364000  1.0
  C  C62  1  0.14700000  0.27404000  0.80448000  1.0
  C  C63  1  0.35815000  0.20175000  0.81691000  1.0
  C  C64  1  0.13057000  0.21525000  0.90458000  1.0
  C  C65  1  0.26353000  0.26756000  0.76064000  1.0
  C  C66  1  0.98927000  0.58152000  0.90867000  1.0
  C  C67  1  0.33773000  0.83285000  0.09109000  1.0
  C  C68  1  0.08894000  0.48012000  0.05873000  1.0
  C  C69  1  0.38989000  0.83851000  0.91510000  1.0
  C  C70  1  0.25786000  0.73536000  0.00276000  1.0
  C  C71  1  0.32146000  0.77285000  0.91043000  1.0
  C  C72  1  0.07829000  0.56253000  0.96770000  1.0
  C  C73  1  0.26701000  0.76725000  0.09451000  1.0
  C  C74  1  0.15853000  0.63309000  0.93134000  1.0
  C  C75  1  0.22929000  0.15357000  0.95658000  1.0
  C  C76  1  0.34200000  0.04275000  0.24364000  1.0
  C  C77  1  0.27403000  0.14700000  0.30448000  1.0
  C  C78  1  0.20174000  0.35816000  0.31691000  1.0
  C  C79  1  0.21524000  0.13058000  0.40458000  1.0
  C  C80  1  0.26755000  0.26354000  0.26063000  1.0
  C  C81  1  0.58152000  0.98927000  0.40868000  1.0
  C  C82  1  0.83285000  0.33773000  0.59110000  1.0
  C  C83  1  0.48012000  0.08894000  0.55873000  1.0
  C  C84  1  0.83851000  0.38988000  0.41511000  1.0
  C  C85  1  0.73536000  0.25786000  0.50277000  1.0
  C  C86  1  0.77286000  0.32146000  0.41044000  1.0
  C  C87  1  0.56253000  0.07829000  0.46771000  1.0
  C  C88  1  0.76725000  0.26701000  0.59452000  1.0
  C  C89  1  0.63309000  0.15853000  0.43134000  1.0
  C  C90  1  0.15357000  0.22929000  0.45658000  1.0
  C  C91  1  0.95725000  0.65799000  0.25636000  1.0
  C  C92  1  0.85300000  0.72597000  0.19552000  1.0
  C  C93  1  0.64184000  0.79826000  0.18309000  1.0
  C  C94  1  0.86942000  0.78476000  0.09542000  1.0
  C  C95  1  0.73646000  0.73244000  0.23936000  1.0
  C  C96  1  0.01074000  0.41848000  0.09132000  1.0
  C  C97  1  0.66227000  0.16715000  0.90891000  1.0
  C  C98  1  0.91107000  0.51988000  0.94127000  1.0
  C  C99  1  0.61012000  0.16149000  0.08490000  1.0
  C  C100  1  0.74214000  0.26464000  0.99723000  1.0
  C  C101  1  0.67854000  0.22715000  0.08956000  1.0
  C  C102  1  0.92172000  0.43747000  0.03229000  1.0
  C  C103  1  0.73299000  0.23275000  0.90549000  1.0
  C  C104  1  0.84148000  0.36691000  0.06865000  1.0
  C  C105  1  0.77071000  0.84643000  0.04342000  1.0
  N  N106  1  0.85450000  0.65861000  0.58662000  1.0
  N  N107  1  0.13135000  0.60079000  0.49721000  1.0
  N  N108  1  0.33107000  0.81359000  0.48968000  1.0
  N  N109  1  0.34139000  0.14550000  0.91338000  1.0
  N  N110  1  0.39922000  0.86865000  0.00279000  1.0
  N  N111  1  0.18640000  0.66894000  0.01032000  1.0
  N  N112  1  0.14549000  0.34139000  0.41338000  1.0
  N  N113  1  0.86865000  0.39921000  0.50280000  1.0
  N  N114  1  0.66894000  0.18640000  0.51033000  1.0
  N  N115  1  0.65861000  0.85451000  0.08662000  1.0
  N  N116  1  0.60079000  0.13135000  0.99720000  1.0
  N  N117  1  0.81360000  0.33106000  0.98967000  1.0
  O  O118  1  0.61822000  0.92792000  0.84947000  1.0
  O  O119  1  0.64680000  0.06264000  0.71188000  1.0
  O  O120  1  0.34205000  0.80757000  0.66109000  1.0
  O  O121  1  0.07208000  0.38177000  0.65053000  1.0
  O  O122  1  0.93735000  0.35321000  0.78812000  1.0
  O  O123  1  0.19243000  0.65795000  0.83892000  1.0
  O  O124  1  0.38177000  0.07208000  0.15053000  1.0
  O  O125  1  0.35318000  0.93736000  0.28812000  1.0
  O  O126  1  0.65795000  0.19244000  0.33892000  1.0
  O  O127  1  0.92792000  0.61821000  0.34947000  1.0
  O  O128  1  0.06264000  0.64681000  0.21188000  1.0
  O  O129  1  0.80758000  0.34203000  0.16108000  1.0
