# generated using pymatgen
data_Zr3H5C25(Cl5O8)2
_symmetry_space_group_name_H-M   'P 1'
_cell_length_a   14.72700000
_cell_length_b   14.78760000
_cell_length_c   14.80794159
_cell_angle_alpha   90.80800370
_cell_angle_beta   119.70290887
_cell_angle_gamma   119.18680000
_symmetry_Int_Tables_number   1
_chemical_formula_structural   Zr3H5C25(Cl5O8)2
_chemical_formula_sum   'Zr6 H10 C50 Cl20 O32'
_cell_volume   2302.20318152
_cell_formula_units_Z   2
loop_
 _symmetry_equiv_pos_site_id
 _symmetry_equiv_pos_as_xyz
  1  'x, y, z'
loop_
 _atom_site_type_symbol
 _atom_site_label
 _atom_site_symmetry_multiplicity
 _atom_site_fract_x
 _atom_site_fract_y
 _atom_site_fract_z
 _atom_site_occupancy
  Zr  Zr0  1  0.50324000  0.88819000  0.12238000  1.0
  Zr  Zr1  1  0.50121000  0.11891000  0.87763000  1.0
  Zr  Zr2  1  0.50251000  0.12623000  0.11749000  1.0
  Zr  Zr3  1  0.50335000  0.88055000  0.88295000  1.0
  Zr  Zr4  1  0.74025000  0.12227000  0.11778000  1.0
  Zr  Zr5  1  0.26438000  0.88332000  0.88048000  1.0
  H  H6  1  0.68997000  0.10180000  0.28094000  1.0
  H  H7  1  0.68966000  0.09142000  0.90347000  1.0
  H  H8  1  0.31278000  0.09752000  0.90234000  1.0
  H  H9  1  0.31836000  0.72213000  0.91354000  1.0
  H  H10  1  0.52249000  0.15259000  0.60216000  1.0
  H  H11  1  0.51882000  0.16064000  0.43346000  1.0
  H  H12  1  0.35411000  0.74052000  0.32515000  1.0
  H  H13  1  0.51948000  0.79761000  0.40649000  1.0
  H  H14  1  0.51668000  0.78555000  0.57582000  1.0
  H  H15  1  0.35127000  0.73005000  0.49137000  1.0
  C  C16  1  0.81038000  0.00821000  0.30145000  1.0
  C  C17  1  0.80475000  0.30831000  0.00201000  1.0
  C  C18  1  0.19725000  0.99129000  0.68902000  1.0
  C  C19  1  0.19541000  0.70704000  0.00250000  1.0
  C  C20  1  0.49562000  0.00856000  0.29890000  1.0
  C  C21  1  0.51137000  0.70464000  0.01419000  1.0
  C  C22  1  0.49148000  0.99115000  0.69123000  1.0
  C  C23  1  0.50926000  0.30939000  0.99959000  1.0
  C  C24  1  0.80349000  0.30982000  0.29874000  1.0
  C  C25  1  0.20461000  0.00634000  0.00660000  1.0
  C  C26  1  0.20561000  0.69170000  0.70535000  1.0
  C  C27  1  0.80039000  0.99033000  0.00088000  1.0
  C  C28  1  0.09436000  0.98894000  0.58576000  1.0
  C  C29  1  0.91314000  0.00932000  0.40362000  1.0
  C  C30  1  0.11770000  0.03089000  0.50904000  1.0
  C  C31  1  0.89040000  0.96814000  0.48087000  1.0
  C  C32  1  0.03104000  0.04557000  0.42170000  1.0
  C  C33  1  0.97724000  0.95407000  0.56856000  1.0
  C  C34  1  0.90659000  0.41230000  0.00466000  1.0
  C  C35  1  0.09316000  0.60405000  0.00047000  1.0
  C  C36  1  0.89089000  0.49777000  0.98148000  1.0
  C  C37  1  0.10855000  0.51835000  0.02313000  1.0
  C  C38  1  0.98153000  0.59135000  0.97690000  1.0
  C  C39  1  0.01719000  0.42416000  0.02625000  1.0
  C  C40  1  0.10283000  0.00493000  0.00880000  1.0
  C  C41  1  0.90194000  0.99003000  0.99980000  1.0
  C  C42  1  0.04139000  0.04874000  0.93958000  1.0
  C  C43  1  0.96311000  0.94591000  0.06876000  1.0
  C  C44  1  0.93827000  0.03872000  0.93280000  1.0
  C  C45  1  0.06727000  0.95701000  0.07647000  1.0
  C  C46  1  0.90725000  0.40519000  0.40635000  1.0
  C  C47  1  0.10663000  0.58309000  0.61149000  1.0
  C  C48  1  0.03235000  0.47224000  0.43497000  1.0
  C  C49  1  0.98191000  0.51431000  0.58430000  1.0
  C  C50  1  0.13270000  0.55128000  0.54147000  1.0
  C  C51  1  0.88526000  0.42353000  0.48547000  1.0
  C  C52  1  0.49065000  0.00374000  0.39625000  1.0
  C  C53  1  0.49037000  0.99284000  0.59018000  1.0
  C  C54  1  0.47277000  0.91360000  0.43188000  1.0
  C  C55  1  0.50764000  0.08438000  0.55382000  1.0
  C  C56  1  0.47232000  0.90781000  0.52591000  1.0
  C  C57  1  0.50684000  0.08948000  0.45956000  1.0
  C  C58  1  0.44525000  0.80035000  0.40411000  1.0
  C  C59  1  0.44403000  0.79345000  0.50955000  1.0
  C  C60  1  0.51214000  0.41279000  0.00262000  1.0
  C  C61  1  0.50978000  0.60179000  0.01320000  1.0
  C  C62  1  0.61182000  0.50823000  0.09608000  1.0
  C  C63  1  0.40926000  0.50579000  0.92058000  1.0
  C  C64  1  0.60968000  0.60212000  0.10186000  1.0
  C  C65  1  0.41100000  0.41184000  0.91481000  1.0
  Cl  Cl66  1  0.24871000  0.05890000  0.51536000  1.0
  Cl  Cl67  1  0.76047000  0.94214000  0.47578000  1.0
  Cl  Cl68  1  0.07585000  0.11020000  0.34193000  1.0
  Cl  Cl69  1  0.93496000  0.89369000  0.65155000  1.0
  Cl  Cl70  1  0.76287000  0.49179000  0.96195000  1.0
  Cl  Cl71  1  0.23641000  0.52414000  0.04187000  1.0
  Cl  Cl72  1  0.95222000  0.68882000  0.94189000  1.0
  Cl  Cl73  1  0.04287000  0.32347000  0.05485000  1.0
  Cl  Cl74  1  0.09897000  0.12081000  0.86936000  1.0
  Cl  Cl75  1  0.90473000  0.87317000  0.13779000  1.0
  Cl  Cl76  1  0.85368000  0.08257000  0.84024000  1.0
  Cl  Cl77  1  0.15365000  0.91582000  0.17049000  1.0
  Cl  Cl78  1  0.06879000  0.46402000  0.34284000  1.0
  Cl  Cl79  1  0.94712000  0.53263000  0.67498000  1.0
  Cl  Cl80  1  0.28386000  0.60137000  0.58215000  1.0
  Cl  Cl81  1  0.74261000  0.33364000  0.46657000  1.0
  Cl  Cl82  1  0.73793000  0.51156000  0.20243000  1.0
  Cl  Cl83  1  0.28125000  0.50168000  0.81544000  1.0
  Cl  Cl84  1  0.72987000  0.71716000  0.21813000  1.0
  Cl  Cl85  1  0.28764000  0.29504000  0.80018000  1.0
  O  O86  1  0.69591000  0.92880000  0.25927000  1.0
  O  O87  1  0.69054000  0.26394000  0.91958000  1.0
  O  O88  1  0.31091000  0.07355000  0.73279000  1.0
  O  O89  1  0.30961000  0.75086000  0.08411000  1.0
  O  O90  1  0.49900000  0.08646000  0.26133000  1.0
  O  O91  1  0.51879000  0.74422000  0.94092000  1.0
  O  O92  1  0.49112000  0.91436000  0.72992000  1.0
  O  O93  1  0.50202000  0.26947000  0.07301000  1.0
  O  O94  1  0.83913000  0.26565000  0.26165000  1.0
  O  O95  1  0.16507000  0.92887000  0.92925000  1.0
  O  O96  1  0.16621000  0.73754000  0.73470000  1.0
  O  O97  1  0.84013000  0.06906000  0.07696000  1.0
  O  O98  1  0.31856000  0.08478000  0.08061000  1.0
  O  O99  1  0.32219000  0.73275000  0.74654000  1.0
  O  O100  1  0.68593000  0.91438000  0.92448000  1.0
  O  O101  1  0.68913000  0.27803000  0.25456000  1.0
  O  O102  1  0.49866000  0.93253000  0.26027000  1.0
  O  O103  1  0.51121000  0.27044000  0.92418000  1.0
  O  O104  1  0.49427000  0.06953000  0.73360000  1.0
  O  O105  1  0.50353000  0.74110000  0.08653000  1.0
  O  O106  1  0.15888000  0.74097000  0.92138000  1.0
  O  O107  1  0.84557000  0.08593000  0.26412000  1.0
  O  O108  1  0.84131000  0.27211000  0.08102000  1.0
  O  O109  1  0.16319000  0.91418000  0.72730000  1.0
  O  O110  1  0.37010000  0.80198000  0.93797000  1.0
  O  O111  1  0.36602000  0.07005000  0.92972000  1.0
  O  O112  1  0.63773000  0.06657000  0.93182000  1.0
  O  O113  1  0.63627000  0.07391000  0.20083000  1.0
  O  O114  1  0.60030000  0.15150000  0.04649000  1.0
  O  O115  1  0.60170000  0.95449000  0.05092000  1.0
  O  O116  1  0.40464000  0.95129000  0.85260000  1.0
  O  O117  1  0.40355000  0.95732000  0.04903000  1.0
