# generated using pymatgen
data_CoH2C4O3
_symmetry_space_group_name_H-M   'P 1'
_cell_length_a   6.48632000
_cell_length_b   14.92300000
_cell_length_c   14.93079166
_cell_angle_alpha   117.79259872
_cell_angle_beta   98.35547416
_cell_angle_gamma   98.35540000
_symmetry_Int_Tables_number   1
_chemical_formula_structural   CoH2C4O3
_chemical_formula_sum   'Co6 H12 C24 O18'
_cell_volume   1226.88674484
_cell_formula_units_Z   6
loop_
 _symmetry_equiv_pos_site_id
 _symmetry_equiv_pos_as_xyz
  1  'x, y, z'
loop_
 _atom_site_type_symbol
 _atom_site_label
 _atom_site_symmetry_multiplicity
 _atom_site_fract_x
 _atom_site_fract_y
 _atom_site_fract_z
 _atom_site_occupancy
  Co  Co0  1  0.11936000  0.31089000  0.58359000  1.0
  Co  Co1  1  0.53651000  0.41711000  0.72812000  1.0
  Co  Co2  1  0.80866000  0.27225000  0.68994000  1.0
  Co  Co3  1  0.88062000  0.68898000  0.41667000  1.0
  Co  Co4  1  0.46362000  0.58327000  0.27175000  1.0
  Co  Co5  1  0.19178000  0.72844000  0.31073000  1.0
  H  H6  1  0.15269000  0.25676000  0.47970000  1.0
  H  H7  1  0.67404000  0.52112000  0.77773000  1.0
  H  H8  1  0.89596000  0.22236000  0.74426000  1.0
  H  H9  1  0.84766000  0.74240000  0.52071000  1.0
  H  H10  1  0.32592000  0.47926000  0.22143000  1.0
  H  H11  1  0.10501000  0.77889000  0.25693000  1.0
  H  H12  1  0.63127000  0.02178000  0.46588000  1.0
  H  H13  1  0.16474000  0.53367000  0.55519000  1.0
  H  H14  1  0.60979000  0.44419000  0.97851000  1.0
  H  H15  1  0.36949000  0.97859000  0.53471000  1.0
  H  H16  1  0.83269000  0.46382000  0.44232000  1.0
  H  H17  1  0.39111000  0.55632000  0.02193000  1.0
  C  C18  1  0.36465000  0.17737000  0.61235000  1.0
  C  C19  1  0.75229000  0.38792000  0.56547000  1.0
  C  C20  1  0.18767000  0.43434000  0.82320000  1.0
  C  C21  1  0.63589000  0.82308000  0.38862000  1.0
  C  C22  1  0.24660000  0.61092000  0.43347000  1.0
  C  C23  1  0.81282000  0.56652000  0.17706000  1.0
  C  C24  1  0.17527000  0.08831000  0.55420000  1.0
  C  C25  1  0.62036000  0.44541000  0.53372000  1.0
  C  C26  1  0.08740000  0.46549000  0.91219000  1.0
  C  C27  1  0.82539000  0.91204000  0.44667000  1.0
  C  C28  1  0.37783000  0.55270000  0.46439000  1.0
  C  C29  1  0.91335000  0.53533000  0.08819000  1.0
  C  C30  1  0.96318000  0.10170000  0.53541000  1.0
  C  C31  1  0.42760000  0.46460000  0.56621000  1.0
  C  C32  1  0.86189000  0.43333000  0.89879000  1.0
  C  C33  1  0.03742000  0.89861000  0.46545000  1.0
  C  C34  1  0.57093000  0.53378000  0.43212000  1.0
  C  C35  1  0.13883000  0.56753000  0.10160000  1.0
  C  C36  1  0.79348000  0.01257000  0.48177000  1.0
  C  C37  1  0.31106000  0.51779000  0.53015000  1.0
  C  C38  1  0.78122000  0.46933000  0.98777000  1.0
  C  C39  1  0.20718000  0.98775000  0.51898000  1.0
  C  C40  1  0.68678000  0.48002000  0.46767000  1.0
  C  C41  1  0.21959000  0.53139000  0.01264000  1.0
  O  O42  1  0.33750000  0.26973000  0.63974000  1.0
  O  O43  1  0.69864000  0.36123000  0.63117000  1.0
  O  O44  1  0.06806000  0.36931000  0.73100000  1.0
  O  O45  1  0.66255000  0.73067000  0.36132000  1.0
  O  O46  1  0.30100000  0.63858000  0.36855000  1.0
  O  O47  1  0.93189000  0.63172000  0.26931000  1.0
  O  O48  1  0.54965000  0.16375000  0.63593000  1.0
  O  O49  1  0.91382000  0.36435000  0.52849000  1.0
  O  O50  1  0.38622000  0.47153000  0.83657000  1.0
  O  O51  1  0.45102000  0.83684000  0.36503000  1.0
  O  O52  1  0.08527000  0.63443000  0.47067000  1.0
  O  O53  1  0.61424000  0.52922000  0.16349000  1.0
  O  O54  1  0.91223000  0.19517000  0.56410000  1.0
  O  O55  1  0.34883000  0.43671000  0.63183000  1.0
  O  O56  1  0.71744000  0.36830000  0.80546000  1.0
  O  O57  1  0.08819000  0.80508000  0.43677000  1.0
  O  O58  1  0.65068000  0.56271000  0.36738000  1.0
  O  O59  1  0.28315000  0.63268000  0.19496000  1.0
