# generated using pymatgen
data_AlH24C45(ClO2)3
_symmetry_space_group_name_H-M   'P 1'
_cell_length_a   3.95451000
_cell_length_b   23.51620000
_cell_length_c   23.52760000
_cell_angle_alpha   60.04780000
_cell_angle_beta   87.01550000
_cell_angle_gamma   86.73530000
_symmetry_Int_Tables_number   1
_chemical_formula_structural   AlH24C45(ClO2)3
_chemical_formula_sum   'Al1 H24 C45 Cl3 O6'
_cell_volume   1891.94950882
_cell_formula_units_Z   1
loop_
 _symmetry_equiv_pos_site_id
 _symmetry_equiv_pos_as_xyz
  1  'x, y, z'
loop_
 _atom_site_type_symbol
 _atom_site_label
 _atom_site_symmetry_multiplicity
 _atom_site_fract_x
 _atom_site_fract_y
 _atom_site_fract_z
 _atom_site_occupancy
  Al  Al0  1  0.99008000  0.49972000  0.50045000  1.0
  H  H1  1  0.51241000  0.32090000  0.68086000  1.0
  H  H2  1  0.51091000  0.25789000  0.80243000  1.0
  H  H3  1  0.82329000  0.22585000  0.89182000  1.0
  H  H4  1  0.83666000  0.16521000  0.01221000  1.0
  H  H5  1  0.47730000  0.80458000  0.25495000  1.0
  H  H6  1  0.22714000  0.89834000  0.22471000  1.0
  H  H7  1  0.24103000  0.01812000  0.16503000  1.0
  H  H8  1  0.52662000  0.10584000  0.10524000  1.0
  H  H9  1  0.54392000  0.67942000  0.49711000  1.0
  H  H10  1  0.53990000  0.80087000  0.43951000  1.0
  H  H11  1  0.80264000  0.89147000  0.37883000  1.0
  H  H12  1  0.81587000  0.01135000  0.31909000  1.0
  H  H13  1  0.55418000  0.25500000  0.43915000  1.0
  H  H14  1  0.26068000  0.22796000  0.38029000  1.0
  H  H15  1  0.25838000  0.16754000  0.32048000  1.0
  H  H16  1  0.54889000  0.10532000  0.28806000  1.0
  H  H17  1  0.59168000  0.49779000  0.32145000  1.0
  H  H18  1  0.58493000  0.44007000  0.25763000  1.0
  H  H19  1  0.85832000  0.37667000  0.22351000  1.0
  H  H20  1  0.85559000  0.31615000  0.16367000  1.0
  H  H21  1  0.50721000  0.44016000  0.80506000  1.0
  H  H22  1  0.20655000  0.37964000  0.89833000  1.0
  H  H23  1  0.22071000  0.31902000  0.01871000  1.0
  H  H24  1  0.54965000  0.28806000  0.10562000  1.0
  C  C25  1  0.47987000  0.45033000  0.60137000  1.0
  C  C26  1  0.52511000  0.44827000  0.45065000  1.0
  C  C27  1  0.47698000  0.60062000  0.44871000  1.0
  C  C28  1  0.50637000  0.34650000  0.70885000  1.0
  C  C29  1  0.50975000  0.31138000  0.77695000  1.0
  C  C30  1  0.68398000  0.24598000  0.91940000  1.0
  C  C31  1  0.69129000  0.21163000  0.98753000  1.0
  C  C32  1  0.46234000  0.71018000  0.34144000  1.0
  C  C33  1  0.47905000  0.77836000  0.30836000  1.0
  C  C34  1  0.36536000  0.92256000  0.24508000  1.0
  C  C35  1  0.37278000  0.99065000  0.21120000  1.0
  C  C36  1  0.48814000  0.41533000  0.67453000  1.0
  C  C37  1  0.50643000  0.34412000  0.81326000  1.0
  C  C38  1  0.51455000  0.30760000  0.88557000  1.0
  C  C39  1  0.52988000  0.23738000  0.02487000  1.0
  C  C40  1  0.53777000  0.20103000  0.09722000  1.0
  C  C41  1  0.53426000  0.13228000  0.13222000  1.0
  C  C42  1  0.52298000  0.70781000  0.44393000  1.0
  C  C43  1  0.52551000  0.77588000  0.41127000  1.0
  C  C44  1  0.67128000  0.91887000  0.33264000  1.0
  C  C45  1  0.67835000  0.98701000  0.29874000  1.0
  C  C46  1  0.54064000  0.34144000  0.44772000  1.0
  C  C47  1  0.55081000  0.30847000  0.41224000  1.0
  C  C48  1  0.39948000  0.24690000  0.33346000  1.0
  C  C49  1  0.39842000  0.21258000  0.29960000  1.0
  C  C50  1  0.48596000  0.67363000  0.41003000  1.0
  C  C51  1  0.50590000  0.81263000  0.34249000  1.0
  C  C52  1  0.51473000  0.88496000  0.30661000  1.0
  C  C53  1  0.52970000  0.02457000  0.23715000  1.0
  C  C54  1  0.53759000  0.09696000  0.20099000  1.0
  C  C55  1  0.54662000  0.13207000  0.23460000  1.0
  C  C56  1  0.57914000  0.44444000  0.34664000  1.0
  C  C57  1  0.57895000  0.41179000  0.31109000  1.0
  C  C58  1  0.71881000  0.33157000  0.24449000  1.0
  C  C59  1  0.71748000  0.29723000  0.21060000  1.0
  C  C60  1  0.48287000  0.44816000  0.71062000  1.0
  C  C61  1  0.49670000  0.41304000  0.77886000  1.0
  C  C62  1  0.35240000  0.33329000  0.92294000  1.0
  C  C63  1  0.36010000  0.29895000  0.99105000  1.0
  C  C64  1  0.55194000  0.41019000  0.41536000  1.0
  C  C65  1  0.56308000  0.34299000  0.34334000  1.0
  C  C66  1  0.56031000  0.30713000  0.30679000  1.0
  C  C67  1  0.55724000  0.23697000  0.23733000  1.0
  C  C68  1  0.55156000  0.20082000  0.20108000  1.0
  C  C69  1  0.54691000  0.23457000  0.13235000  1.0
  Cl  Cl70  1  0.53378000  0.29498000  0.53252000  1.0
  Cl  Cl71  1  0.48009000  0.53304000  0.67154000  1.0
  Cl  Cl72  1  0.43366000  0.67245000  0.29490000  1.0
  O  O73  1  0.24613000  0.57249000  0.43723000  1.0
  O  O74  1  0.23182000  0.49007000  0.57361000  1.0
  O  O75  1  0.27661000  0.43674000  0.49106000  1.0
  O  O76  1  0.70085000  0.57120000  0.49227000  1.0
  O  O77  1  0.74674000  0.49097000  0.43664000  1.0
  O  O78  1  0.72204000  0.43641000  0.57190000  1.0
