# generated using pymatgen
data_ZnPH12C5NO5
_symmetry_space_group_name_H-M   'P 1'
_cell_length_a   9.24724000
_cell_length_b   10.38290000
_cell_length_c   10.79734878
_cell_angle_alpha   61.88683701
_cell_angle_beta   89.99991335
_cell_angle_gamma   89.99970000
_symmetry_Int_Tables_number   1
_chemical_formula_structural   ZnPH12C5NO5
_chemical_formula_sum   'Zn4 P4 H48 C20 N4 O20'
_cell_volume   914.37783736
_cell_formula_units_Z   4
loop_
 _symmetry_equiv_pos_site_id
 _symmetry_equiv_pos_as_xyz
  1  'x, y, z'
loop_
 _atom_site_type_symbol
 _atom_site_label
 _atom_site_symmetry_multiplicity
 _atom_site_fract_x
 _atom_site_fract_y
 _atom_site_fract_z
 _atom_site_occupancy
  Zn  Zn0  1  0.40740000  0.35490000  0.41762000  1.0
  Zn  Zn1  1  0.90741000  0.64510000  0.08238000  1.0
  Zn  Zn2  1  0.59259000  0.64511000  0.58238000  1.0
  Zn  Zn3  1  0.09260000  0.35490000  0.91762000  1.0
  P  P4  1  0.14865000  0.40418000  0.18516000  1.0
  P  P5  1  0.64867000  0.59582000  0.31485000  1.0
  P  P6  1  0.85135000  0.59582000  0.81484000  1.0
  P  P7  1  0.35133000  0.40419000  0.68515000  1.0
  H  H8  1  0.04862000  0.28733000  0.24756000  1.0
  H  H9  1  0.54863000  0.71266000  0.25246000  1.0
  H  H10  1  0.95139000  0.71267000  0.75244000  1.0
  H  H11  1  0.45137000  0.28733000  0.74754000  1.0
  H  H12  1  0.50759000  0.85942000  0.66994000  1.0
  H  H13  1  0.00760000  0.14058000  0.83006000  1.0
  H  H14  1  0.49240000  0.14058000  0.33006000  1.0
  H  H15  1  0.99241000  0.85942000  0.16994000  1.0
  H  H16  1  0.56829000  0.94667000  0.76737000  1.0
  H  H17  1  0.06830000  0.05333000  0.73263000  1.0
  H  H18  1  0.43170000  0.05334000  0.23262000  1.0
  H  H19  1  0.93171000  0.94667000  0.26737000  1.0
  H  H20  1  0.43148000  0.91821000  0.97351000  1.0
  H  H21  1  0.93148000  0.08179000  0.52649000  1.0
  H  H22  1  0.56853000  0.08179000  0.02649000  1.0
  H  H23  1  0.06852000  0.91821000  0.47351000  1.0
  H  H24  1  0.27069000  0.80722000  0.02285000  1.0
  H  H25  1  0.77069000  0.19278000  0.47716000  1.0
  H  H26  1  0.72931000  0.19278000  0.97716000  1.0
  H  H27  1  0.22931000  0.80721000  0.52285000  1.0
  H  H28  1  0.27003000  0.98071000  0.86885000  1.0
  H  H29  1  0.77003000  0.01929000  0.63115000  1.0
  H  H30  1  0.72997000  0.01930000  0.13115000  1.0
  H  H31  1  0.22997000  0.98071000  0.36885000  1.0
  H  H32  1  0.52202000  0.63641000  0.88146000  1.0
  H  H33  1  0.02203000  0.36358000  0.61855000  1.0
  H  H34  1  0.47798000  0.36359000  0.11854000  1.0
  H  H35  1  0.97798000  0.63641000  0.38146000  1.0
  H  H36  1  0.42493000  0.61312000  0.03549000  1.0
  H  H37  1  0.92494000  0.38688000  0.46451000  1.0
  H  H38  1  0.57507000  0.38688000  0.96451000  1.0
  H  H39  1  0.07506000  0.61312000  0.53549000  1.0
  H  H40  1  0.57884000  0.73429000  0.97127000  1.0
  H  H41  1  0.07885000  0.26570000  0.52874000  1.0
  H  H42  1  0.42115000  0.26571000  0.02873000  1.0
  H  H43  1  0.92115000  0.73430000  0.47127000  1.0
  H  H44  1  0.19017000  0.84110000  0.74157000  1.0
  H  H45  1  0.69017000  0.15890000  0.75843000  1.0
  H  H46  1  0.80982000  0.15890000  0.25843000  1.0
  H  H47  1  0.30983000  0.84110000  0.24157000  1.0
  H  H48  1  0.20481000  0.67270000  0.90429000  1.0
  H  H49  1  0.70481000  0.32730000  0.59571000  1.0
  H  H50  1  0.79519000  0.32730000  0.09571000  1.0
  H  H51  1  0.29519000  0.67270000  0.40429000  1.0
  H  H52  1  0.30407000  0.69288000  0.75479000  1.0
  H  H53  1  0.80407000  0.30712000  0.74521000  1.0
  H  H54  1  0.69593000  0.30712000  0.24521000  1.0
  H  H55  1  0.19593000  0.69288000  0.25479000  1.0
  C  C56  1  0.39472000  0.05798000  0.62117000  1.0
  C  C57  1  0.89474000  0.94201000  0.87883000  1.0
  C  C58  1  0.60525000  0.94201000  0.37883000  1.0
  C  C59  1  0.10527000  0.05799000  0.12117000  1.0
  C  C60  1  0.47186000  0.91863000  0.72607000  1.0
  C  C61  1  0.97187000  0.08137000  0.77393000  1.0
  C  C62  1  0.52813000  0.08137000  0.27393000  1.0
  C  C63  1  0.02814000  0.91863000  0.22607000  1.0
  C  C64  1  0.33573000  0.88570000  0.93532000  1.0
  C  C65  1  0.83573000  0.11430000  0.56468000  1.0
  C  C66  1  0.66427000  0.11430000  0.06468000  1.0
  C  C67  1  0.16427000  0.88570000  0.43532000  1.0
  C  C68  1  0.48533000  0.68942000  0.94250000  1.0
  C  C69  1  0.98533000  0.31057000  0.55751000  1.0
  C  C70  1  0.51467000  0.31058000  0.05750000  1.0
  C  C71  1  0.01467000  0.68942000  0.44250000  1.0
  C  C72  1  0.26052000  0.75092000  0.80917000  1.0
  C  C73  1  0.76052000  0.24908000  0.69083000  1.0
  C  C74  1  0.73947000  0.24908000  0.19083000  1.0
  C  C75  1  0.23948000  0.75092000  0.30917000  1.0
  N  N76  1  0.38607000  0.81289000  0.85176000  1.0
  N  N77  1  0.88608000  0.18711000  0.64824000  1.0
  N  N78  1  0.61392000  0.18711000  0.14824000  1.0
  N  N79  1  0.11392000  0.81288000  0.35177000  1.0
  O  O80  1  0.28705000  0.35279000  0.27194000  1.0
  O  O81  1  0.78706000  0.64720000  0.22807000  1.0
  O  O82  1  0.71295000  0.64721000  0.72806000  1.0
  O  O83  1  0.21294000  0.35281000  0.77193000  1.0
  O  O84  1  0.08010000  0.53717000  0.18955000  1.0
  O  O85  1  0.58011000  0.46283000  0.31047000  1.0
  O  O86  1  0.91990000  0.46283000  0.81045000  1.0
  O  O87  1  0.41989000  0.53717000  0.68953000  1.0
  O  O88  1  0.17501000  0.43159000  0.03420000  1.0
  O  O89  1  0.67503000  0.56842000  0.46581000  1.0
  O  O90  1  0.82499000  0.56841000  0.96580000  1.0
  O  O91  1  0.32496000  0.43158000  0.53419000  1.0
  O  O92  1  0.48675000  0.15493000  0.54038000  1.0
  O  O93  1  0.98677000  0.84507000  0.95963000  1.0
  O  O94  1  0.51324000  0.84508000  0.45962000  1.0
  O  O95  1  0.01325000  0.15492000  0.04038000  1.0
  O  O96  1  0.26056000  0.07153000  0.61517000  1.0
  O  O97  1  0.76057000  0.92845000  0.88483000  1.0
  O  O98  1  0.73943000  0.92846000  0.38482000  1.0
  O  O99  1  0.23944000  0.07154000  0.11518000  1.0
