# generated using pymatgen
data_CaH20C16(N5O4)2
_symmetry_space_group_name_H-M   'P 1'
_cell_length_a   7.78578000
_cell_length_b   11.81100000
_cell_length_c   11.81100000
_cell_angle_alpha   85.36270000
_cell_angle_beta   89.48000000
_cell_angle_gamma   89.48030000
_symmetry_Int_Tables_number   1
_chemical_formula_structural   CaH20C16(N5O4)2
_chemical_formula_sum   'Ca2 H40 C32 N20 O16'
_cell_volume   1082.47624433
_cell_formula_units_Z   2
loop_
 _symmetry_equiv_pos_site_id
 _symmetry_equiv_pos_as_xyz
  1  'x, y, z'
loop_
 _atom_site_type_symbol
 _atom_site_label
 _atom_site_symmetry_multiplicity
 _atom_site_fract_x
 _atom_site_fract_y
 _atom_site_fract_z
 _atom_site_occupancy
  Ca  Ca0  1  0.25000000  0.98647000  0.01353000  1.0
  Ca  Ca1  1  0.75000000  0.01353000  0.98647000  1.0
  H  H2  1  0.54154000  0.85299000  0.13935000  1.0
  H  H3  1  0.95845000  0.86065000  0.14701000  1.0
  H  H4  1  0.45846000  0.14701000  0.86065000  1.0
  H  H5  1  0.04155000  0.13935000  0.85299000  1.0
  H  H6  1  0.54248000  0.81864000  0.00751000  1.0
  H  H7  1  0.95752000  0.99249000  0.18136000  1.0
  H  H8  1  0.45752000  0.18136000  0.99249000  1.0
  H  H9  1  0.04248000  0.00752000  0.81864000  1.0
  H  H10  1  0.24118000  0.77663000  0.91895000  1.0
  H  H11  1  0.25882000  0.08106000  0.22337000  1.0
  H  H12  1  0.75882000  0.22337000  0.08106000  1.0
  H  H13  1  0.74118000  0.91895000  0.77663000  1.0
  H  H14  1  0.04957000  0.79394000  0.96197000  1.0
  H  H15  1  0.45043000  0.03803000  0.20606000  1.0
  H  H16  1  0.95043000  0.20606000  0.03803000  1.0
  H  H17  1  0.54957000  0.96197000  0.79394000  1.0
  H  H18  1  0.44778000  0.48322000  0.42968000  1.0
  H  H19  1  0.05222000  0.57032000  0.51678000  1.0
  H  H20  1  0.55222000  0.51678000  0.57032000  1.0
  H  H21  1  0.94779000  0.42968000  0.48322000  1.0
  H  H22  1  0.27061000  0.34385000  0.34448000  1.0
  H  H23  1  0.22939000  0.65553000  0.65614000  1.0
  H  H24  1  0.72939000  0.65614000  0.65553000  1.0
  H  H25  1  0.77061000  0.34447000  0.34386000  1.0
  H  H26  1  0.22195000  0.55066000  0.04283000  1.0
  H  H27  1  0.27804000  0.95717000  0.44933000  1.0
  H  H28  1  0.77804000  0.44934000  0.95717000  1.0
  H  H29  1  0.72196000  0.04283000  0.55067000  1.0
  H  H30  1  0.38909000  0.70337000  0.11917000  1.0
  H  H31  1  0.11090000  0.88083000  0.29663000  1.0
  H  H32  1  0.61090000  0.29663000  0.88083000  1.0
  H  H33  1  0.88910000  0.11917000  0.70337000  1.0
  H  H34  1  0.05564000  0.39610000  0.07671000  1.0
  H  H35  1  0.44436000  0.92329000  0.60390000  1.0
  H  H36  1  0.94436000  0.60390000  0.92329000  1.0
  H  H37  1  0.55564000  0.07671000  0.39610000  1.0
  H  H38  1  0.05338000  0.31767000  0.21150000  1.0
  H  H39  1  0.44662000  0.78850000  0.68233000  1.0
  H  H40  1  0.94662000  0.68233000  0.78850000  1.0
  H  H41  1  0.55338000  0.21150000  0.31767000  1.0
  C  C42  1  0.52848000  0.69712000  0.33341000  1.0
  C  C43  1  0.97151000  0.66659000  0.30288000  1.0
  C  C44  1  0.47152000  0.30288000  0.66659000  1.0
  C  C45  1  0.02849000  0.33341000  0.69712000  1.0
  C  C46  1  0.43701000  0.60840000  0.28213000  1.0
  C  C47  1  0.06299000  0.71787000  0.39160000  1.0
  C  C48  1  0.56299000  0.39160000  0.71788000  1.0
  C  C49  1  0.93701000  0.28212000  0.60840000  1.0
  C  C50  1  0.40252000  0.50392000  0.34386000  1.0
  C  C51  1  0.09748000  0.65614000  0.49608000  1.0
  C  C52  1  0.59748000  0.49608000  0.65614000  1.0
  C  C53  1  0.90253000  0.34386000  0.50392000  1.0
  C  C54  1  0.30381000  0.42396000  0.29736000  1.0
  C  C55  1  0.19619000  0.70264000  0.57604000  1.0
  C  C56  1  0.69619000  0.57604000  0.70264000  1.0
  C  C57  1  0.80381000  0.29736000  0.42396000  1.0
  C  C58  1  0.27580000  0.54109000  0.12772000  1.0
  C  C59  1  0.22419000  0.87229000  0.45890000  1.0
  C  C60  1  0.72420000  0.45890000  0.87229000  1.0
  C  C61  1  0.77580000  0.12772000  0.54110000  1.0
  C  C62  1  0.37157000  0.62457000  0.17141000  1.0
  C  C63  1  0.12843000  0.82859000  0.37543000  1.0
  C  C64  1  0.62843000  0.37543000  0.82859000  1.0
  C  C65  1  0.87157000  0.17141000  0.62457000  1.0
  C  C66  1  0.13697000  0.35612000  0.14403000  1.0
  C  C67  1  0.36303000  0.85597000  0.64387000  1.0
  C  C68  1  0.86303000  0.64387000  0.85597000  1.0
  C  C69  1  0.63697000  0.14403000  0.35613000  1.0
  C  C70  1  0.24481000  0.26328000  0.09302000  1.0
  C  C71  1  0.25520000  0.90698000  0.73672000  1.0
  C  C72  1  0.75520000  0.73672000  0.90698000  1.0
  C  C73  1  0.74481000  0.09302000  0.26328000  1.0
  N  N74  1  0.57908000  0.69004000  0.44315000  1.0
  N  N75  1  0.92092000  0.55685000  0.30996000  1.0
  N  N76  1  0.42092000  0.30996000  0.55685000  1.0
  N  N77  1  0.07908000  0.44315000  0.69004000  1.0
  N  N78  1  0.64936000  0.79061000  0.45773000  1.0
  N  N79  1  0.85064000  0.54227000  0.20940000  1.0
  N  N80  1  0.35064000  0.20940000  0.54227000  1.0
  N  N81  1  0.14936000  0.45773000  0.79060000  1.0
  N  N82  1  0.64196000  0.85714000  0.36009000  1.0
  N  N83  1  0.85804000  0.63991000  0.14287000  1.0
  N  N84  1  0.35804000  0.14286000  0.63991000  1.0
  N  N85  1  0.14196000  0.36009000  0.85714000  1.0
  N  N86  1  0.56686000  0.80023000  0.28117000  1.0
  N  N87  1  0.93313000  0.71883000  0.19977000  1.0
  N  N88  1  0.43314000  0.19977000  0.71883000  1.0
  N  N89  1  0.06686000  0.28117000  0.80023000  1.0
  N  N90  1  0.24038000  0.44321000  0.19089000  1.0
  N  N91  1  0.25962000  0.80911000  0.55679000  1.0
  N  N92  1  0.75962000  0.55679000  0.80911000  1.0
  N  N93  1  0.74039000  0.19089000  0.44321000  1.0
  O  O94  1  0.15628000  0.17924000  0.06595000  1.0
  O  O95  1  0.34372000  0.93405000  0.82076000  1.0
  O  O96  1  0.84372000  0.82076000  0.93405000  1.0
  O  O97  1  0.65628000  0.06595000  0.17924000  1.0
  O  O98  1  0.40487000  0.27401000  0.08398000  1.0
  O  O99  1  0.09513000  0.91602000  0.72599000  1.0
  O  O100  1  0.59513000  0.72599000  0.91602000  1.0
  O  O101  1  0.90487000  0.08398000  0.27401000  1.0
  O  O102  1  0.52007000  0.88260000  0.05762000  1.0
  O  O103  1  0.97993000  0.94238000  0.11740000  1.0
  O  O104  1  0.47993000  0.11740000  0.94238000  1.0
  O  O105  1  0.02007000  0.05762000  0.88260000  1.0
  O  O106  1  0.17281000  0.78741000  0.98671000  1.0
  O  O107  1  0.32719000  0.01329000  0.21259000  1.0
  O  O108  1  0.82719000  0.21259000  0.01329000  1.0
  O  O109  1  0.67281000  0.98671000  0.78741000  1.0
