# generated using pymatgen
data_Cd3H18C22Br4(N6O)2
_symmetry_space_group_name_H-M   'P 1'
_cell_length_a   7.36225000
_cell_length_b   7.95568000
_cell_length_c   12.87020000
_cell_angle_alpha   89.05430000
_cell_angle_beta   89.09430000
_cell_angle_gamma   69.64880000
_symmetry_Int_Tables_number   1
_chemical_formula_structural   Cd3H18C22Br4(N6O)2
_chemical_formula_sum   'Cd3 H18 C22 Br4 N12 O2'
_cell_volume   706.63739430
_cell_formula_units_Z   1
loop_
 _symmetry_equiv_pos_site_id
 _symmetry_equiv_pos_as_xyz
  1  'x, y, z'
loop_
 _atom_site_type_symbol
 _atom_site_label
 _atom_site_symmetry_multiplicity
 _atom_site_fract_x
 _atom_site_fract_y
 _atom_site_fract_z
 _atom_site_occupancy
  Cd  Cd0  1  0.50001000  0.00000000  0.00000000  1.0
  Cd  Cd1  1  0.64008000  0.70895000  0.26185000  1.0
  Cd  Cd2  1  0.35992000  0.29105000  0.73815000  1.0
  H  H3  1  0.74166000  0.42780000  0.05994000  1.0
  H  H4  1  0.25835000  0.57220000  0.94006000  1.0
  H  H5  1  0.03376000  0.18559000  0.98175000  1.0
  H  H6  1  0.96625000  0.81441000  0.01825000  1.0
  H  H7  1  0.39182000  0.29746000  0.19588000  1.0
  H  H8  1  0.60818000  0.70254000  0.80412000  1.0
  H  H9  1  0.03040000  0.76819000  0.65047000  1.0
  H  H10  1  0.96959000  0.23181000  0.34952000  1.0
  H  H11  1  0.78928000  0.00631000  0.75634000  1.0
  H  H12  1  0.21072000  0.99369000  0.24366000  1.0
  H  H13  1  0.47899000  0.24398000  0.49520000  1.0
  H  H14  1  0.52100000  0.75602000  0.50480000  1.0
  H  H15  1  0.70509000  0.01910000  0.37867000  1.0
  H  H16  1  0.29491000  0.98090000  0.62133000  1.0
  H  H17  1  0.49502000  0.45505000  0.36147000  1.0
  H  H18  1  0.50497000  0.54496000  0.63853000  1.0
  H  H19  1  0.69162000  0.42966000  0.42442000  1.0
  H  H20  1  0.30838000  0.57034000  0.57558000  1.0
  C  C21  1  0.88692000  0.39666000  0.09100000  1.0
  C  C22  1  0.11309000  0.60333000  0.90900000  1.0
  C  C23  1  0.04711000  0.26513000  0.04750000  1.0
  C  C24  1  0.95290000  0.73487000  0.95249000  1.0
  C  C25  1  0.24545000  0.32660000  0.16693000  1.0
  C  C26  1  0.75455000  0.67339000  0.83307000  1.0
  C  C27  1  0.08292000  0.45299000  0.21451000  1.0
  C  C28  1  0.91708000  0.54701000  0.78549000  1.0
  C  C29  1  0.08965000  0.54468000  0.31087000  1.0
  C  C30  1  0.91035000  0.45531000  0.68914000  1.0
  C  C31  1  0.99420000  0.71766000  0.44017000  1.0
  C  C32  1  0.00579000  0.28234000  0.55983000  1.0
  C  C33  1  0.87605000  0.86332000  0.50611000  1.0
  C  C34  1  0.12395000  0.13668000  0.49389000  1.0
  C  C35  1  0.90650000  0.86755000  0.61335000  1.0
  C  C36  1  0.09349000  0.13246000  0.38665000  1.0
  C  C37  1  0.77384000  0.99950000  0.67254000  1.0
  C  C38  1  0.22616000  0.00050000  0.32746000  1.0
  C  C39  1  0.60066000  0.13445000  0.52733000  1.0
  C  C40  1  0.39934000  0.86555000  0.47267000  1.0
  C  C41  1  0.72597000  0.00719000  0.46246000  1.0
  C  C42  1  0.27402000  0.99281000  0.53754000  1.0
  Br  Br43  1  0.72137000  0.00674000  0.16678000  1.0
  Br  Br44  1  0.27865000  0.99326000  0.83323000  1.0
  Br  Br45  1  0.39570000  0.72656000  0.10111000  1.0
  Br  Br46  1  0.60431000  0.27346000  0.89888000  1.0
  N  N47  1  0.90556000  0.48904000  0.17332000  1.0
  N  N48  1  0.09444000  0.51096000  0.82668000  1.0
  N  N49  1  0.22557000  0.23367000  0.08474000  1.0
  N  N50  1  0.77443000  0.76633000  0.91526000  1.0
  N  N51  1  0.24072000  0.50214000  0.37664000  1.0
  N  N52  1  0.75927000  0.49786000  0.62336000  1.0
  N  N53  1  0.17857000  0.61089000  0.45959000  1.0
  N  N54  1  0.82143000  0.38911000  0.54041000  1.0
  N  N55  1  0.93242000  0.67738000  0.34830000  1.0
  N  N56  1  0.06757000  0.32262000  0.65170000  1.0
  N  N57  1  0.61757000  0.12631000  0.63127000  1.0
  N  N58  1  0.38243000  0.87369000  0.36873000  1.0
  O  O59  1  0.63171000  0.45105000  0.35338000  1.0
  O  O60  1  0.36829000  0.54895000  0.64661000  1.0
