# generated using pymatgen
data_CdH4C2IN5
_symmetry_space_group_name_H-M   'P 1'
_cell_length_a   7.17388000
_cell_length_b   9.74579000
_cell_length_c   10.82295890
_cell_angle_alpha   89.99799859
_cell_angle_beta   71.30162991
_cell_angle_gamma   89.99850000
_symmetry_Int_Tables_number   1
_chemical_formula_structural   CdH4C2IN5
_chemical_formula_sum   'Cd4 H16 C8 I4 N20'
_cell_volume   716.75007850
_cell_formula_units_Z   4
loop_
 _symmetry_equiv_pos_site_id
 _symmetry_equiv_pos_as_xyz
  1  'x, y, z'
loop_
 _atom_site_type_symbol
 _atom_site_label
 _atom_site_symmetry_multiplicity
 _atom_site_fract_x
 _atom_site_fract_y
 _atom_site_fract_z
 _atom_site_occupancy
  Cd  Cd0  1  0.42833000  0.07843000  0.85895000  1.0
  Cd  Cd1  1  0.07169000  0.57845000  0.64105000  1.0
  Cd  Cd2  1  0.57168000  0.92156000  0.14105000  1.0
  Cd  Cd3  1  0.92832000  0.42156000  0.35896000  1.0
  H  H4  1  0.15142000  0.31656000  0.94406000  1.0
  H  H5  1  0.34859000  0.81656000  0.55593000  1.0
  H  H6  1  0.84859000  0.68344000  0.05594000  1.0
  H  H7  1  0.65142000  0.18345000  0.44406000  1.0
  H  H8  1  0.96909000  0.35608000  0.08153000  1.0
  H  H9  1  0.53092000  0.85609000  0.41846000  1.0
  H  H10  1  0.03091000  0.64392000  0.91846000  1.0
  H  H11  1  0.46908000  0.14392000  0.58154000  1.0
  H  H12  1  0.28388000  0.03399000  0.42106000  1.0
  H  H13  1  0.21609000  0.53396000  0.07893000  1.0
  H  H14  1  0.71609000  0.96603000  0.57894000  1.0
  H  H15  1  0.78390000  0.46603000  0.92107000  1.0
  H  H16  1  0.12410000  0.16972000  0.47184000  1.0
  H  H17  1  0.37592000  0.66974000  0.02816000  1.0
  H  H18  1  0.87591000  0.83027000  0.52816000  1.0
  H  H19  1  0.62408000  0.33026000  0.97185000  1.0
  C  C20  1  0.19487000  0.25405000  0.11127000  1.0
  C  C21  1  0.30514000  0.75406000  0.38874000  1.0
  C  C22  1  0.80516000  0.74594000  0.88872000  1.0
  C  C23  1  0.69486000  0.24596000  0.61126000  1.0
  C  C24  1  0.24889000  0.15813000  0.27540000  1.0
  C  C25  1  0.25112000  0.65813000  0.22461000  1.0
  C  C26  1  0.75111000  0.84187000  0.72462000  1.0
  C  C27  1  0.74886000  0.34187000  0.77541000  1.0
  I  I28  1  0.11794000  0.07581000  0.76484000  1.0
  I  I29  1  0.38206000  0.57581000  0.73516000  1.0
  I  I30  1  0.88205000  0.92419000  0.23516000  1.0
  I  I31  1  0.61794000  0.42418000  0.26484000  1.0
  N  N32  1  0.33604000  0.16164000  0.06145000  1.0
  N  N33  1  0.16396000  0.66163000  0.43854000  1.0
  N  N34  1  0.66395000  0.83837000  0.93853000  1.0
  N  N35  1  0.83604000  0.33836000  0.56145000  1.0
  N  N36  1  0.37146000  0.09894000  0.16840000  1.0
  N  N37  1  0.12852000  0.59893000  0.33160000  1.0
  N  N38  1  0.62851000  0.90108000  0.83161000  1.0
  N  N39  1  0.87147000  0.40106000  0.66839000  1.0
  N  N40  1  0.11848000  0.34250000  0.04022000  1.0
  N  N41  1  0.38155000  0.84251000  0.45977000  1.0
  N  N42  1  0.88155000  0.65749000  0.95977000  1.0
  N  N43  1  0.61846000  0.15749000  0.54023000  1.0
  N  N44  1  0.13869000  0.25785000  0.24341000  1.0
  N  N45  1  0.36132000  0.75787000  0.25662000  1.0
  N  N46  1  0.86133000  0.74213000  0.75661000  1.0
  N  N47  1  0.63870000  0.24213000  0.74339000  1.0
  N  N48  1  0.23791000  0.12808000  0.39986000  1.0
  N  N49  1  0.26208000  0.62808000  0.10013000  1.0
  N  N50  1  0.76209000  0.87192000  0.60014000  1.0
  N  N51  1  0.73792000  0.37192000  0.89987000  1.0
