# generated using pymatgen
data_AlH5C11NO7F
_symmetry_space_group_name_H-M   'P 1'
_cell_length_a   6.63704000
_cell_length_b   11.04570000
_cell_length_c   11.14870000
_cell_angle_alpha   84.19810000
_cell_angle_beta   73.15340000
_cell_angle_gamma   73.93290000
_symmetry_Int_Tables_number   1
_chemical_formula_structural   AlH5C11NO7F
_chemical_formula_sum   'Al2 H10 C22 N2 O14 F2'
_cell_volume   751.49401432
_cell_formula_units_Z   2
loop_
 _symmetry_equiv_pos_site_id
 _symmetry_equiv_pos_as_xyz
  1  'x, y, z'
loop_
 _atom_site_type_symbol
 _atom_site_label
 _atom_site_symmetry_multiplicity
 _atom_site_fract_x
 _atom_site_fract_y
 _atom_site_fract_z
 _atom_site_occupancy
  Al  Al0  1  0.49123000  0.49169000  0.50716000  1.0
  Al  Al1  1  0.99311000  0.49332000  0.50477000  1.0
  H  H2  1  0.26399000  0.34779000  0.59220000  1.0
  H  H3  1  0.78155000  0.55874000  0.35801000  1.0
  H  H4  1  0.01557000  0.71021000  0.10509000  1.0
  H  H5  1  0.92840000  0.56994000  0.10828000  1.0
  H  H6  1  0.06044000  0.56581000  0.87158000  1.0
  H  H7  1  0.14284000  0.70624000  0.87084000  1.0
  H  H8  1  0.20468000  0.22458000  0.30811000  1.0
  H  H9  1  0.56168000  0.10938000  0.17762000  1.0
  H  H10  1  0.47279000  0.75992000  0.36419000  1.0
  H  H11  1  0.69655000  0.87667000  0.20651000  1.0
  C  C12  1  0.85012000  0.26543000  0.48779000  1.0
  C  C13  1  0.64560000  0.48564000  0.72895000  1.0
  C  C14  1  0.13659000  0.71707000  0.52641000  1.0
  C  C15  1  0.34917000  0.49189000  0.27819000  1.0
  C  C16  1  0.42557000  0.48342000  0.13950000  1.0
  C  C17  1  0.57374000  0.48080000  0.86797000  1.0
  C  C18  1  0.28780000  0.53747000  0.06389000  1.0
  C  C19  1  0.71342000  0.42326000  0.94293000  1.0
  C  C20  1  0.35923000  0.53616000  0.93354000  1.0
  C  C21  1  0.64151000  0.42462000  0.07409000  1.0
  C  C22  1  0.05980000  0.61616000  0.06549000  1.0
  C  C23  1  0.14161000  0.61384000  0.91721000  1.0
  C  C24  1  0.92052000  0.12380000  0.48943000  1.0
  C  C25  1  0.12902000  0.05879000  0.41361000  1.0
  C  C26  1  0.79109000  0.05654000  0.57324000  1.0
  C  C27  1  0.26175000  0.12319000  0.32120000  1.0
  C  C28  1  0.46170000  0.05850000  0.24818000  1.0
  C  C29  1  0.06996000  0.85916000  0.52021000  1.0
  C  C30  1  0.86776000  0.92535000  0.59131000  1.0
  C  C31  1  0.20479000  0.92444000  0.42892000  1.0
  C  C32  1  0.41192000  0.86098000  0.35164000  1.0
  C  C33  1  0.53749000  0.92686000  0.26415000  1.0
  N  N34  1  0.73452000  0.85900000  0.69052000  1.0
  N  N35  1  0.57898000  0.12702000  0.65558000  1.0
  O  O36  1  0.66209000  0.31798000  0.47449000  1.0
  O  O37  1  0.83207000  0.50356000  0.67591000  1.0
  O  O38  1  0.00423000  0.66475000  0.50345000  1.0
  O  O39  1  0.47814000  0.51214000  0.33453000  1.0
  O  O40  1  0.32093000  0.66308000  0.54352000  1.0
  O  O41  1  0.15545000  0.48262000  0.32914000  1.0
  O  O42  1  0.98600000  0.31897000  0.50415000  1.0
  O  O43  1  0.50924000  0.47312000  0.67420000  1.0
  O  O44  1  0.24638000  0.43189000  0.55360000  1.0
  O  O45  1  0.74287000  0.54878000  0.44873000  1.0
  O  O46  1  0.83270000  0.77424000  0.75025000  1.0
  O  O47  1  0.53409000  0.89372000  0.70854000  1.0
  O  O48  1  0.41851000  0.15271000  0.61409000  1.0
  O  O49  1  0.58405000  0.15768000  0.75800000  1.0
  F  F50  1  0.92289000  0.36085000  0.89017000  1.0
  F  F51  1  0.78805000  0.36274000  0.13752000  1.0
