# generated using pymatgen
data_GdH18C20N4Cl3
_symmetry_space_group_name_H-M   'P 1'
_cell_length_a   12.73260000
_cell_length_b   14.21510000
_cell_length_c   14.84200000
_cell_angle_alpha   90.00010000
_cell_angle_beta   89.99980000
_cell_angle_gamma   90.00000000
_symmetry_Int_Tables_number   1
_chemical_formula_structural   GdH18C20N4Cl3
_chemical_formula_sum   'Gd4 H72 C80 N16 Cl12'
_cell_volume   2686.33049508
_cell_formula_units_Z   4
loop_
 _symmetry_equiv_pos_site_id
 _symmetry_equiv_pos_as_xyz
  1  'x, y, z'
loop_
 _atom_site_type_symbol
 _atom_site_label
 _atom_site_symmetry_multiplicity
 _atom_site_fract_x
 _atom_site_fract_y
 _atom_site_fract_z
 _atom_site_occupancy
  Gd  Gd0  1  0.33463000  0.16482000  0.36558000  1.0
  Gd  Gd1  1  0.16537000  0.83518000  0.86558000  1.0
  Gd  Gd2  1  0.83463000  0.33518000  0.63443000  1.0
  Gd  Gd3  1  0.66537000  0.66483000  0.13442000  1.0
  H  H4  1  0.09174000  0.50683000  0.66949000  1.0
  H  H5  1  0.40826000  0.49317000  0.16949000  1.0
  H  H6  1  0.59174000  0.99317000  0.33051000  1.0
  H  H7  1  0.90826000  0.00683000  0.83051000  1.0
  H  H8  1  0.44117000  0.44033000  0.61840000  1.0
  H  H9  1  0.05883000  0.55967000  0.11840000  1.0
  H  H10  1  0.94117000  0.05967000  0.38160000  1.0
  H  H11  1  0.55883000  0.94034000  0.88160000  1.0
  H  H12  1  0.33676000  0.06536000  0.79004000  1.0
  H  H13  1  0.16324000  0.93463000  0.29004000  1.0
  H  H14  1  0.83676000  0.43464000  0.20996000  1.0
  H  H15  1  0.66324000  0.56536000  0.70996000  1.0
  H  H16  1  0.41483000  0.59954000  0.64329000  1.0
  H  H17  1  0.08517000  0.40046000  0.14329000  1.0
  H  H18  1  0.91483000  0.90046000  0.35671000  1.0
  H  H19  1  0.58517000  0.09954000  0.85672000  1.0
  H  H20  1  0.18073000  0.17460000  0.55527000  1.0
  H  H21  1  0.31927000  0.82540000  0.05526000  1.0
  H  H22  1  0.68073000  0.32539000  0.44473000  1.0
  H  H23  1  0.81927000  0.67460000  0.94473000  1.0
  H  H24  1  0.37219000  0.72874000  0.75028000  1.0
  H  H25  1  0.12781000  0.27126000  0.25028000  1.0
  H  H26  1  0.87219000  0.77126000  0.24972000  1.0
  H  H27  1  0.62781000  0.22874000  0.74972000  1.0
  H  H28  1  0.20833000  0.08484000  0.01061000  1.0
  H  H29  1  0.29167000  0.91516000  0.51061000  1.0
  H  H30  1  0.70833000  0.41516000  0.98939000  1.0
  H  H31  1  0.79167000  0.58484000  0.48939000  1.0
  H  H32  1  0.46494000  0.31246000  0.50880000  1.0
  H  H33  1  0.03506000  0.68754000  0.00880000  1.0
  H  H34  1  0.96494000  0.18754000  0.49120000  1.0
  H  H35  1  0.53506000  0.81246000  0.99120000  1.0
  H  H36  1  0.54145000  0.04979000  0.05424000  1.0
  H  H37  1  0.95855000  0.95020000  0.55424000  1.0
  H  H38  1  0.04145000  0.45020000  0.94576000  1.0
  H  H39  1  0.45855000  0.54979000  0.44576000  1.0
  H  H40  1  0.15503000  0.32972000  0.42387000  1.0
  H  H41  1  0.34497000  0.67028000  0.92387000  1.0
  H  H42  1  0.65503000  0.17028000  0.57613000  1.0
  H  H43  1  0.84497000  0.82972000  0.07613000  1.0
  H  H44  1  0.17741000  0.13709000  0.71894000  1.0
  H  H45  1  0.32259000  0.86291000  0.21893000  1.0
  H  H46  1  0.67741000  0.36291000  0.28107000  1.0
  H  H47  1  0.82259000  0.63709000  0.78106000  1.0
  H  H48  1  0.11899000  0.46332000  0.52844000  1.0
  H  H49  1  0.38101000  0.53668000  0.02844000  1.0
  H  H50  1  0.61899000  0.03668000  0.47156000  1.0
  H  H51  1  0.88101000  0.96332000  0.97156000  1.0
  H  H52  1  0.06266000  0.64107000  0.77237000  1.0
  H  H53  1  0.43734000  0.35893000  0.27237000  1.0
  H  H54  1  0.56267000  0.85893000  0.22763000  1.0
  H  H55  1  0.93733000  0.14107000  0.72763000  1.0
  H  H56  1  0.48629000  0.07901000  0.52910000  1.0
  H  H57  1  0.01371000  0.92099000  0.02910000  1.0
  H  H58  1  0.98629000  0.42099000  0.47090000  1.0
  H  H59  1  0.51371000  0.57901000  0.97090000  1.0
  H  H60  1  0.51406000  0.10513000  0.21237000  1.0
  H  H61  1  0.98594000  0.89487000  0.71237000  1.0
  H  H62  1  0.01406000  0.39487000  0.78763000  1.0
  H  H63  1  0.48594000  0.60513000  0.28763000  1.0
  H  H64  1  0.19423000  0.13557000  0.17215000  1.0
  H  H65  1  0.30577000  0.86443000  0.67215000  1.0
  H  H66  1  0.69423000  0.36443000  0.82785000  1.0
  H  H67  1  0.80577000  0.63557000  0.32785000  1.0
  H  H68  1  0.49727000  0.03870000  0.69278000  1.0
  H  H69  1  0.00273000  0.96130000  0.19278000  1.0
  H  H70  1  0.99726000  0.46130000  0.30722000  1.0
  H  H71  1  0.50274000  0.53870000  0.80722000  1.0
  H  H72  1  0.38391000  0.03771000  0.95119000  1.0
  H  H73  1  0.11609000  0.96229000  0.45119000  1.0
  H  H74  1  0.88391000  0.46229000  0.04881000  1.0
  H  H75  1  0.61609000  0.53771000  0.54881000  1.0
  C  C76  1  0.25680000  0.54117000  0.64664000  1.0
  C  C77  1  0.24320000  0.45883000  0.14663000  1.0
  C  C78  1  0.75680000  0.95883000  0.35336000  1.0
  C  C79  1  0.74320000  0.04117000  0.85336000  1.0
  C  C80  1  0.27685000  0.46433000  0.58232000  1.0
  C  C81  1  0.22315000  0.53567000  0.08232000  1.0
  C  C82  1  0.77685000  0.03567000  0.41768000  1.0
  C  C83  1  0.72315000  0.96433000  0.91768000  1.0
  C  C84  1  0.15700000  0.55396000  0.68478000  1.0
  C  C85  1  0.34300000  0.44604000  0.18478000  1.0
  C  C86  1  0.65700000  0.94604000  0.31522000  1.0
  C  C87  1  0.84300000  0.05396000  0.81522000  1.0
  C  C88  1  0.37522000  0.42065000  0.57556000  1.0
  C  C89  1  0.12478000  0.57935000  0.07556000  1.0
  C  C90  1  0.87522000  0.07935000  0.42444000  1.0
  C  C91  1  0.62478000  0.92065000  0.92444000  1.0
  C  C92  1  0.33740000  0.08515000  0.71907000  1.0
  C  C93  1  0.16260000  0.91485000  0.21907000  1.0
  C  C94  1  0.83740000  0.41485000  0.28093000  1.0
  C  C95  1  0.66260000  0.58515000  0.78093000  1.0
  C  C96  1  0.33587000  0.60490000  0.67126000  1.0
  C  C97  1  0.16413000  0.39510000  0.17126000  1.0
  C  C98  1  0.83587000  0.89510000  0.32874000  1.0
  C  C99  1  0.66413000  0.10490000  0.82874000  1.0
  C  C100  1  0.24971000  0.14460000  0.58788000  1.0
  C  C101  1  0.25029000  0.85540000  0.08787000  1.0
  C  C102  1  0.74971000  0.35540000  0.41212000  1.0
  C  C103  1  0.75029000  0.64460000  0.91212000  1.0
  C  C104  1  0.31229000  0.67799000  0.73002000  1.0
  C  C105  1  0.18771000  0.32201000  0.23002000  1.0
  C  C106  1  0.81229000  0.82201000  0.26998000  1.0
  C  C107  1  0.68771000  0.17799000  0.76998000  1.0
  C  C108  1  0.27792000  0.08947000  0.05327000  1.0
  C  C109  1  0.22208000  0.91053000  0.55327000  1.0
  C  C110  1  0.77792000  0.41053000  0.94673000  1.0
  C  C111  1  0.72208000  0.58947000  0.44673000  1.0
  C  C112  1  0.38904000  0.34744000  0.51469000  1.0
  C  C113  1  0.11096000  0.65256000  0.01469000  1.0
  C  C114  1  0.88904000  0.15256000  0.48531000  1.0
  C  C115  1  0.61096000  0.84744000  0.98531000  1.0
  C  C116  1  0.46310000  0.06936000  0.07708000  1.0
  C  C117  1  0.03690000  0.93064000  0.57708000  1.0
  C  C118  1  0.96310000  0.43064000  0.92292000  1.0
  C  C119  1  0.53690000  0.56936000  0.42292000  1.0
  C  C120  1  0.21692000  0.35779000  0.46702000  1.0
  C  C121  1  0.28308000  0.64221000  0.96702000  1.0
  C  C122  1  0.71692000  0.14221000  0.53298000  1.0
  C  C123  1  0.78308000  0.85779000  0.03298000  1.0
  C  C124  1  0.24815000  0.12419000  0.67964000  1.0
  C  C125  1  0.25185000  0.87581000  0.17964000  1.0
  C  C126  1  0.74815000  0.37581000  0.32036000  1.0
  C  C127  1  0.75185000  0.62419000  0.82036000  1.0
  C  C128  1  0.19673000  0.43161000  0.52573000  1.0
  C  C129  1  0.30327000  0.56839000  0.02573000  1.0
  C  C130  1  0.69673000  0.06839000  0.47427000  1.0
  C  C131  1  0.80327000  0.93161000  0.97427000  1.0
  C  C132  1  0.14010000  0.62916000  0.74288000  1.0
  C  C133  1  0.35990000  0.37084000  0.24288000  1.0
  C  C134  1  0.64010000  0.87084000  0.25712000  1.0
  C  C135  1  0.85990000  0.12916000  0.75712000  1.0
  C  C136  1  0.42032000  0.09165000  0.57409000  1.0
  C  C137  1  0.07968000  0.90835000  0.07409000  1.0
  C  C138  1  0.92031000  0.40835000  0.42591000  1.0
  C  C139  1  0.57968000  0.59165000  0.92591000  1.0
  C  C140  1  0.44845000  0.09925000  0.16551000  1.0
  C  C141  1  0.05155000  0.90075000  0.66551000  1.0
  C  C142  1  0.94845000  0.40075000  0.83449000  1.0
  C  C143  1  0.55155000  0.59925000  0.33449000  1.0
  C  C144  1  0.27015000  0.11768000  0.14279000  1.0
  C  C145  1  0.22985000  0.88232000  0.64279000  1.0
  C  C146  1  0.77015000  0.38232000  0.85721000  1.0
  C  C147  1  0.72985000  0.61768000  0.35721000  1.0
  C  C148  1  0.42561000  0.06931000  0.66524000  1.0
  C  C149  1  0.07439000  0.93069000  0.16523000  1.0
  C  C150  1  0.92561000  0.43069000  0.33477000  1.0
  C  C151  1  0.57439000  0.56931000  0.83477000  1.0
  C  C152  1  0.37630000  0.06394000  0.01995000  1.0
  C  C153  1  0.12370000  0.93606000  0.51995000  1.0
  C  C154  1  0.87630000  0.43606000  0.98005000  1.0
  C  C155  1  0.62370000  0.56394000  0.48005000  1.0
  N  N156  1  0.31133000  0.31546000  0.46115000  1.0
  N  N157  1  0.18867000  0.68454000  0.96115000  1.0
  N  N158  1  0.81133000  0.18454000  0.53885000  1.0
  N  N159  1  0.68867000  0.81546000  0.03885000  1.0
  N  N160  1  0.33395000  0.12827000  0.53518000  1.0
  N  N161  1  0.16605000  0.87173000  0.03518000  1.0
  N  N162  1  0.83395000  0.37173000  0.46482000  1.0
  N  N163  1  0.66605000  0.62827000  0.96482000  1.0
  N  N164  1  0.21578000  0.69138000  0.76521000  1.0
  N  N165  1  0.28422000  0.30862000  0.26521000  1.0
  N  N166  1  0.71578000  0.80862000  0.23479000  1.0
  N  N167  1  0.78422000  0.19139000  0.73479000  1.0
  N  N168  1  0.35343000  0.12267000  0.19863000  1.0
  N  N169  1  0.14657000  0.87733000  0.69863000  1.0
  N  N170  1  0.85343000  0.37732000  0.80137000  1.0
  N  N171  1  0.64657000  0.62268000  0.30137000  1.0
  Cl  Cl172  1  0.53161000  0.21758000  0.36112000  1.0
  Cl  Cl173  1  0.96839000  0.78242000  0.86112000  1.0
  Cl  Cl174  1  0.03161000  0.28242000  0.63888000  1.0
  Cl  Cl175  1  0.46839000  0.71758000  0.13888000  1.0
  Cl  Cl176  1  0.12958000  0.13576000  0.36157000  1.0
  Cl  Cl177  1  0.37042000  0.86424000  0.86157000  1.0
  Cl  Cl178  1  0.62958000  0.36424000  0.63843000  1.0
  Cl  Cl179  1  0.87042000  0.63576000  0.13843000  1.0
  Cl  Cl180  1  0.38875000  0.98477000  0.37044000  1.0
  Cl  Cl181  1  0.11125000  0.01523000  0.87045000  1.0
  Cl  Cl182  1  0.88875000  0.51523000  0.62956000  1.0
  Cl  Cl183  1  0.61125000  0.48477000  0.12955000  1.0
