# generated using pymatgen
data_CoH11C18N2O5
_symmetry_space_group_name_H-M   'P 1'
_cell_length_a   9.03919000
_cell_length_b   13.86660000
_cell_length_c   13.96110000
_cell_angle_alpha   76.05440000
_cell_angle_beta   77.22860000
_cell_angle_gamma   77.60800000
_symmetry_Int_Tables_number   1
_chemical_formula_structural   CoH11C18N2O5
_chemical_formula_sum   'Co4 H44 C72 N8 O20'
_cell_volume   1632.09240541
_cell_formula_units_Z   4
loop_
 _symmetry_equiv_pos_site_id
 _symmetry_equiv_pos_as_xyz
  1  'x, y, z'
loop_
 _atom_site_type_symbol
 _atom_site_label
 _atom_site_symmetry_multiplicity
 _atom_site_fract_x
 _atom_site_fract_y
 _atom_site_fract_z
 _atom_site_occupancy
  Co  Co0  1  0.70625000  0.84162000  0.51765000  1.0
  Co  Co1  1  0.79416000  0.48238000  0.16059000  1.0
  Co  Co2  1  0.29375000  0.15839000  0.48235000  1.0
  Co  Co3  1  0.20584000  0.51762000  0.83941000  1.0
  H  H4  1  0.51252000  0.40605000  0.85518000  1.0
  H  H5  1  0.98673000  0.14361000  0.59297000  1.0
  H  H6  1  0.48748000  0.59395000  0.14483000  1.0
  H  H7  1  0.01326000  0.85639000  0.40703000  1.0
  H  H8  1  0.75930000  0.44307000  0.88475000  1.0
  H  H9  1  0.73860000  0.11577000  0.55665000  1.0
  H  H10  1  0.24069000  0.55693000  0.11526000  1.0
  H  H11  1  0.26139000  0.88423000  0.44334000  1.0
  H  H12  1  0.34327000  0.77704000  0.00147000  1.0
  H  H13  1  0.15700000  0.99797000  0.22423000  1.0
  H  H14  1  0.65673000  0.22296000  0.99853000  1.0
  H  H15  1  0.84300000  0.00202000  0.77577000  1.0
  H  H16  1  0.07391000  0.05740000  0.87446000  1.0
  H  H17  1  0.42464000  0.12501000  0.94248000  1.0
  H  H18  1  0.92610000  0.94259000  0.12554000  1.0
  H  H19  1  0.57536000  0.87499000  0.05752000  1.0
  H  H20  1  0.31689000  0.70986000  0.81433000  1.0
  H  H21  1  0.18476000  0.18397000  0.29060000  1.0
  H  H22  1  0.68311000  0.29013000  0.18567000  1.0
  H  H23  1  0.81524000  0.81603000  0.70940000  1.0
  H  H24  1  0.11467000  0.91252000  0.01995000  1.0
  H  H25  1  0.38511000  0.97963000  0.08827000  1.0
  H  H26  1  0.88533000  0.08748000  0.98005000  1.0
  H  H27  1  0.61489000  0.02037000  0.91173000  1.0
  H  H28  1  0.78173000  0.62223000  0.87470000  1.0
  H  H29  1  0.71693000  0.12610000  0.37858000  1.0
  H  H30  1  0.21827000  0.37776000  0.12530000  1.0
  H  H31  1  0.28306000  0.87390000  0.62142000  1.0
  H  H32  1  0.49896000  0.62978000  0.35063000  1.0
  H  H33  1  0.00227000  0.65049000  0.37087000  1.0
  H  H34  1  0.50104000  0.37023000  0.64936000  1.0
  H  H35  1  0.99773000  0.34952000  0.62914000  1.0
  H  H36  1  0.59198000  0.48952000  0.65006000  1.0
  H  H37  1  0.90689000  0.34894000  0.51033000  1.0
  H  H38  1  0.40802000  0.51048000  0.34994000  1.0
  H  H39  1  0.09311000  0.65106000  0.48968000  1.0
  H  H40  1  0.69487000  0.64003000  0.64815000  1.0
  H  H41  1  0.80474000  0.35075000  0.36108000  1.0
  H  H42  1  0.30513000  0.35997000  0.35185000  1.0
  H  H43  1  0.19527000  0.64925000  0.63892000  1.0
  H  H44  1  0.60342000  0.77360000  0.36221000  1.0
  H  H45  1  0.89762000  0.63888000  0.22843000  1.0
  H  H46  1  0.39658000  0.22640000  0.63779000  1.0
  H  H47  1  0.10239000  0.36112000  0.77157000  1.0
  C  C48  1  0.52915000  0.48256000  0.85185000  1.0
  C  C49  1  0.97032000  0.14717000  0.51694000  1.0
  C  C50  1  0.47085000  0.51744000  0.14816000  1.0
  C  C51  1  0.02968000  0.85284000  0.48306000  1.0
  C  C52  1  0.66518000  0.50411000  0.86632000  1.0
  C  C53  1  0.83352000  0.13374000  0.49578000  1.0
  C  C54  1  0.33481000  0.49589000  0.13368000  1.0
  C  C55  1  0.16647000  0.86626000  0.50422000  1.0
  C  C56  1  0.23550000  0.08238000  0.69054000  1.0
  C  C57  1  0.26235000  0.30905000  0.91673000  1.0
  C  C58  1  0.76449000  0.91762000  0.30946000  1.0
  C  C59  1  0.73765000  0.69095000  0.08327000  1.0
  C  C60  1  0.55020000  0.67888000  0.84436000  1.0
  C  C61  1  0.95004000  0.15512000  0.32187000  1.0
  C  C62  1  0.44980000  0.32111000  0.15564000  1.0
  C  C63  1  0.04996000  0.84488000  0.67813000  1.0
  C  C64  1  0.53305000  0.93211000  0.67650000  1.0
  C  C65  1  0.96631000  0.32322000  0.06914000  1.0
  C  C66  1  0.46695000  0.06789000  0.32350000  1.0
  C  C67  1  0.03369000  0.67678000  0.93086000  1.0
  C  C68  1  0.40953000  0.92848000  0.76896000  1.0
  C  C69  1  0.08988000  0.23070000  0.07232000  1.0
  C  C70  1  0.59047000  0.07152000  0.23103000  1.0
  C  C71  1  0.91012000  0.76930000  0.92768000  1.0
  C  C72  1  0.42935000  0.84831000  0.85008000  1.0
  C  C73  1  0.07065000  0.14955000  0.15284000  1.0
  C  C74  1  0.57065000  0.15169000  0.14992000  1.0
  C  C75  1  0.92935000  0.85045000  0.84716000  1.0
  C  C76  1  0.32483000  0.84141000  0.94030000  1.0
  C  C77  1  0.17517000  0.05926000  0.15970000  1.0
  C  C78  1  0.67517000  0.15859000  0.05970000  1.0
  C  C79  1  0.82483000  0.94074000  0.84030000  1.0
  C  C80  1  0.27705000  0.00298000  0.77885000  1.0
  C  C81  1  0.22176000  0.22069000  0.99724000  1.0
  C  C82  1  0.72295000  0.99702000  0.22115000  1.0
  C  C83  1  0.77824000  0.77930000  0.00276000  1.0
  C  C84  1  0.17391000  0.99778000  0.86982000  1.0
  C  C85  1  0.32508000  0.12971000  0.00250000  1.0
  C  C86  1  0.82609000  0.00222000  0.13018000  1.0
  C  C87  1  0.67493000  0.87028000  0.99750000  1.0
  C  C88  1  0.41740000  0.65296000  0.82871000  1.0
  C  C89  1  0.08349000  0.16999000  0.34733000  1.0
  C  C90  1  0.58260000  0.34703000  0.17130000  1.0
  C  C91  1  0.91651000  0.83000000  0.65267000  1.0
  C  C92  1  0.53119000  0.54454000  0.50108000  1.0
  C  C93  1  0.96899000  0.49895000  0.45573000  1.0
  C  C94  1  0.46882000  0.45546000  0.49891000  1.0
  C  C95  1  0.03101000  0.50105000  0.54427000  1.0
  C  C96  1  0.19699000  0.91737000  0.94993000  1.0
  C  C97  1  0.30267000  0.04965000  0.08340000  1.0
  C  C98  1  0.80302000  0.08263000  0.05007000  1.0
  C  C99  1  0.69733000  0.95035000  0.91660000  1.0
  C  C100  1  0.67702000  0.60353000  0.86257000  1.0
  C  C101  1  0.82210000  0.13765000  0.39701000  1.0
  C  C102  1  0.32298000  0.39646000  0.13743000  1.0
  C  C103  1  0.17790000  0.86235000  0.60299000  1.0
  C  C104  1  0.53687000  0.62753000  0.42000000  1.0
  C  C105  1  0.96396000  0.58056000  0.37324000  1.0
  C  C106  1  0.46314000  0.37248000  0.57999000  1.0
  C  C107  1  0.03605000  0.41943000  0.62676000  1.0
  C  C108  1  0.58999000  0.55043000  0.58439000  1.0
  C  C109  1  0.90962000  0.41509000  0.44987000  1.0
  C  C110  1  0.41001000  0.44958000  0.41560000  1.0
  C  C111  1  0.09038000  0.58491000  0.55013000  1.0
  C  C112  1  0.64880000  0.63482000  0.58407000  1.0
  C  C113  1  0.85111000  0.41534000  0.36614000  1.0
  C  C114  1  0.35119000  0.36519000  0.41592000  1.0
  C  C115  1  0.14889000  0.58466000  0.63386000  1.0
  C  C116  1  0.59720000  0.70961000  0.42502000  1.0
  C  C117  1  0.90365000  0.57553000  0.29184000  1.0
  C  C118  1  0.40280000  0.29039000  0.57498000  1.0
  C  C119  1  0.09636000  0.42448000  0.70816000  1.0
  N  N120  1  0.40780000  0.55621000  0.83326000  1.0
  N  N121  1  0.09268000  0.16512000  0.44353000  1.0
  N  N122  1  0.59220000  0.44379000  0.16675000  1.0
  N  N123  1  0.90732000  0.83488000  0.55647000  1.0
  N  N124  1  0.65279000  0.71415000  0.50580000  1.0
  N  N125  1  0.84770000  0.49412000  0.28731000  1.0
  N  N126  1  0.34721000  0.28585000  0.49420000  1.0
  N  N127  1  0.15231000  0.50588000  0.71269000  1.0
  O  O128  1  0.31205000  0.06306000  0.60425000  1.0
  O  O129  1  0.18667000  0.39589000  0.93568000  1.0
  O  O130  1  0.68796000  0.93694000  0.39575000  1.0
  O  O131  1  0.81333000  0.60411000  0.06432000  1.0
  O  O132  1  0.62233000  0.99356000  0.65581000  1.0
  O  O133  1  0.87681000  0.34340000  0.00876000  1.0
  O  O134  1  0.37767000  0.00644000  0.34419000  1.0
  O  O135  1  0.12319000  0.65660000  0.99124000  1.0
  O  O136  1  0.56392000  0.77613000  0.84079000  1.0
  O  O137  1  0.93638000  0.15875000  0.22533000  1.0
  O  O138  1  0.43608000  0.22387000  0.15921000  1.0
  O  O139  1  0.06362000  0.84124000  0.77467000  1.0
  O  O140  1  0.54078000  0.86068000  0.62816000  1.0
  O  O141  1  0.95906000  0.37195000  0.14000000  1.0
  O  O142  1  0.45922000  0.13932000  0.37184000  1.0
  O  O143  1  0.04094000  0.62804000  0.86000000  1.0
  O  O144  1  0.13253000  0.15742000  0.70018000  1.0
  O  O145  1  0.36381000  0.29901000  0.84105000  1.0
  O  O146  1  0.86747000  0.84258000  0.29982000  1.0
  O  O147  1  0.63618000  0.70099000  0.15895000  1.0
