# generated using pymatgen
data_Cd2H5C7NO6
_symmetry_space_group_name_H-M   'P 1'
_cell_length_a   6.05652000
_cell_length_b   10.62750000
_cell_length_c   15.44250000
_cell_angle_alpha   72.27200000
_cell_angle_beta   89.99940000
_cell_angle_gamma   89.99960000
_symmetry_Int_Tables_number   1
_chemical_formula_structural   Cd2H5C7NO6
_chemical_formula_sum   'Cd8 H20 C28 N4 O24'
_cell_volume   946.76609045
_cell_formula_units_Z   4
loop_
 _symmetry_equiv_pos_site_id
 _symmetry_equiv_pos_as_xyz
  1  'x, y, z'
loop_
 _atom_site_type_symbol
 _atom_site_label
 _atom_site_symmetry_multiplicity
 _atom_site_fract_x
 _atom_site_fract_y
 _atom_site_fract_z
 _atom_site_occupancy
  Cd  Cd0  1  0.78146000  0.46656000  0.31400000  1.0
  Cd  Cd1  1  0.28146000  0.53343000  0.18600000  1.0
  Cd  Cd2  1  0.21853000  0.53344000  0.68600000  1.0
  Cd  Cd3  1  0.71854000  0.46657000  0.81400000  1.0
  Cd  Cd4  1  0.76874000  0.42591000  0.06260000  1.0
  Cd  Cd5  1  0.26874000  0.57409000  0.43740000  1.0
  Cd  Cd6  1  0.23126000  0.57409000  0.93740000  1.0
  Cd  Cd7  1  0.73125000  0.42591000  0.56260000  1.0
  H  H8  1  0.53766000  0.33547000  0.22436000  1.0
  H  H9  1  0.03766000  0.66453000  0.27564000  1.0
  H  H10  1  0.46234000  0.66453000  0.77564000  1.0
  H  H11  1  0.96234000  0.33547000  0.72436000  1.0
  H  H12  1  0.47131000  0.35197000  0.44225000  1.0
  H  H13  1  0.97131000  0.64803000  0.05775000  1.0
  H  H14  1  0.52868000  0.64804000  0.55775000  1.0
  H  H15  1  0.02870000  0.35197000  0.94224000  1.0
  H  H16  1  0.82425000  0.01412000  0.42076000  1.0
  H  H17  1  0.32425000  0.98587000  0.07924000  1.0
  H  H18  1  0.17575000  0.98588000  0.57924000  1.0
  H  H19  1  0.67575000  0.01413000  0.92076000  1.0
  H  H20  1  0.45413000  0.09831000  0.28513000  1.0
  H  H21  1  0.95413000  0.90168000  0.21487000  1.0
  H  H22  1  0.54587000  0.90169000  0.71487000  1.0
  H  H23  1  0.04586000  0.09831000  0.78513000  1.0
  H  H24  1  0.52595000  0.85419000  0.33443000  1.0
  H  H25  1  0.02594000  0.14580000  0.16557000  1.0
  H  H26  1  0.47405000  0.14581000  0.66557000  1.0
  H  H27  1  0.97406000  0.85420000  0.83443000  1.0
  C  C28  1  0.03194000  0.84861000  0.42323000  1.0
  C  C29  1  0.53194000  0.15138000  0.07677000  1.0
  C  C30  1  0.96806000  0.15139000  0.57677000  1.0
  C  C31  1  0.46806000  0.84862000  0.92323000  1.0
  C  C32  1  0.98115000  0.98283000  0.39978000  1.0
  C  C33  1  0.48115000  0.01717000  0.10022000  1.0
  C  C34  1  0.01885000  0.01718000  0.60022000  1.0
  C  C35  1  0.51885000  0.98283000  0.89978000  1.0
  C  C36  1  0.13215000  0.07519000  0.34832000  1.0
  C  C37  1  0.63215000  0.92480000  0.15168000  1.0
  C  C38  1  0.86785000  0.92481000  0.65168000  1.0
  C  C39  1  0.36784000  0.07520000  0.84832000  1.0
  C  C40  1  0.33215000  0.02926000  0.32465000  1.0
  C  C41  1  0.83214000  0.97074000  0.17535000  1.0
  C  C42  1  0.66786000  0.97074000  0.67535000  1.0
  C  C43  1  0.16785000  0.02926000  0.82465000  1.0
  C  C44  1  0.37195000  0.89392000  0.35132000  1.0
  C  C45  1  0.87195000  0.10608000  0.14868000  1.0
  C  C46  1  0.62805000  0.10608000  0.64868000  1.0
  C  C47  1  0.12805000  0.89392000  0.85132000  1.0
  C  C48  1  0.87019000  0.74593000  0.47796000  1.0
  C  C49  1  0.37020000  0.25407000  0.02204000  1.0
  C  C50  1  0.12981000  0.25408000  0.52203000  1.0
  C  C51  1  0.62981000  0.74593000  0.97796000  1.0
  C  C52  1  0.07537000  0.22076000  0.31584000  1.0
  C  C53  1  0.57536000  0.77924000  0.18416000  1.0
  C  C54  1  0.92464000  0.77925000  0.68416000  1.0
  C  C55  1  0.42463000  0.22076000  0.81583000  1.0
  N  N56  1  0.22378000  0.80533000  0.39798000  1.0
  N  N57  1  0.72378000  0.19466000  0.10202000  1.0
  N  N58  1  0.77622000  0.19467000  0.60202000  1.0
  N  N59  1  0.27623000  0.80534000  0.89798000  1.0
  O  O60  1  0.59942000  0.42407000  0.19817000  1.0
  O  O61  1  0.09941000  0.57593000  0.30183000  1.0
  O  O62  1  0.40058000  0.57593000  0.80183000  1.0
  O  O63  1  0.90058000  0.42407000  0.69817000  1.0
  O  O64  1  0.54933000  0.43894000  0.42691000  1.0
  O  O65  1  0.04934000  0.56106000  0.07309000  1.0
  O  O66  1  0.45066000  0.56107000  0.57309000  1.0
  O  O67  1  0.95067000  0.43893000  0.92691000  1.0
  O  O68  1  0.92570000  0.62467000  0.49165000  1.0
  O  O69  1  0.42570000  0.37533000  0.00835000  1.0
  O  O70  1  0.07429000  0.37534000  0.50835000  1.0
  O  O71  1  0.57431000  0.62467000  0.99165000  1.0
  O  O72  1  0.69575000  0.78489000  0.50532000  1.0
  O  O73  1  0.19575000  0.21510000  0.99468000  1.0
  O  O74  1  0.30425000  0.21511000  0.49468000  1.0
  O  O75  1  0.80426000  0.78489000  0.00532000  1.0
  O  O76  1  0.90571000  0.25416000  0.35196000  1.0
  O  O77  1  0.40572000  0.74583000  0.14805000  1.0
  O  O78  1  0.09430000  0.74584000  0.64805000  1.0
  O  O79  1  0.59427000  0.25418000  0.85194000  1.0
  O  O80  1  0.19624000  0.29487000  0.25388000  1.0
  O  O81  1  0.69624000  0.70513000  0.24613000  1.0
  O  O82  1  0.80377000  0.70514000  0.74613000  1.0
  O  O83  1  0.30374000  0.29487000  0.75386000  1.0
