# generated using pymatgen
data_CdH9C12Br(NO2)2
_symmetry_space_group_name_H-M   'P 1'
_cell_length_a   7.89746000
_cell_length_b   8.04828000
_cell_length_c   10.70940000
_cell_angle_alpha   71.10750000
_cell_angle_beta   80.38020000
_cell_angle_gamma   85.13430000
_symmetry_Int_Tables_number   1
_chemical_formula_structural   CdH9C12Br(NO2)2
_chemical_formula_sum   'Cd2 H18 C24 Br2 N4 O8'
_cell_volume   634.62867439
_cell_formula_units_Z   2
loop_
 _symmetry_equiv_pos_site_id
 _symmetry_equiv_pos_as_xyz
  1  'x, y, z'
loop_
 _atom_site_type_symbol
 _atom_site_label
 _atom_site_symmetry_multiplicity
 _atom_site_fract_x
 _atom_site_fract_y
 _atom_site_fract_z
 _atom_site_occupancy
  Cd  Cd0  1  0.73398000  0.95415000  0.90496000  1.0
  Cd  Cd1  1  0.26601000  0.04586000  0.09503000  1.0
  H  H2  1  0.60138000  0.49192000  0.75371000  1.0
  H  H3  1  0.39863000  0.50808000  0.24629000  1.0
  H  H4  1  0.79709000  0.59194000  0.15682000  1.0
  H  H5  1  0.20290000  0.40807000  0.84318000  1.0
  H  H6  1  0.60587000  0.32224000  0.59856000  1.0
  H  H7  1  0.39414000  0.67775000  0.40144000  1.0
  H  H8  1  0.93438000  0.86915000  0.45654000  1.0
  H  H9  1  0.06562000  0.13085000  0.54346000  1.0
  H  H10  1  0.73669000  0.46699000  0.97909000  1.0
  H  H11  1  0.26330000  0.53301000  0.02091000  1.0
  H  H12  1  0.62953000  0.26397000  0.04074000  1.0
  H  H13  1  0.37047000  0.73602000  0.95926000  1.0
  H  H14  1  0.94562000  0.69721000  0.30115000  1.0
  H  H15  1  0.05438000  0.30279000  0.69885000  1.0
  H  H16  1  0.70555000  0.04721000  0.27689000  1.0
  H  H17  1  0.29445000  0.95279000  0.72311000  1.0
  H  H18  1  0.74502000  0.13576000  0.50145000  1.0
  H  H19  1  0.25499000  0.86423000  0.49854000  1.0
  C  C20  1  0.67560000  0.53705000  0.65444000  1.0
  C  C21  1  0.32441000  0.46294000  0.34556000  1.0
  C  C22  1  0.75244000  0.79467000  0.71194000  1.0
  C  C23  1  0.24757000  0.20532000  0.28806000  1.0
  C  C24  1  0.90883000  0.24180000  0.98857000  1.0
  C  C25  1  0.09117000  0.75820000  0.01144000  1.0
  C  C26  1  0.77701000  0.45759000  0.22055000  1.0
  C  C27  1  0.22298000  0.54241000  0.77945000  1.0
  C  C28  1  0.67967000  0.44068000  0.56762000  1.0
  C  C29  1  0.32034000  0.55932000  0.43239000  1.0
  C  C30  1  0.86113000  0.74995000  0.48734000  1.0
  C  C31  1  0.13887000  0.25005000  0.51266000  1.0
  C  C32  1  0.74501000  0.32901000  0.04273000  1.0
  C  C33  1  0.25498000  0.67099000  0.95727000  1.0
  C  C34  1  0.76441000  0.69349000  0.61518000  1.0
  C  C35  1  0.23560000  0.30650000  0.38482000  1.0
  C  C36  1  0.86761000  0.65307000  0.39938000  1.0
  C  C37  1  0.13239000  0.34693000  0.60062000  1.0
  C  C38  1  0.77541000  0.49913000  0.44047000  1.0
  C  C39  1  0.22460000  0.50087000  0.55953000  1.0
  C  C40  1  0.72805000  0.17202000  0.28856000  1.0
  C  C41  1  0.27196000  0.82798000  0.71144000  1.0
  C  C42  1  0.74334000  0.21671000  0.39833000  1.0
  C  C43  1  0.25666000  0.78329000  0.60167000  1.0
  Br  Br44  1  0.56696000  0.86087000  0.16187000  1.0
  Br  Br45  1  0.43304000  0.13914000  0.83812000  1.0
  N  N46  1  0.74775000  0.32338000  0.17980000  1.0
  N  N47  1  0.25224000  0.67662000  0.82020000  1.0
  N  N48  1  0.77279000  0.39619000  0.35433000  1.0
  N  N49  1  0.22721000  0.60381000  0.64567000  1.0
  O  O50  1  0.89991000  0.17368000  0.89813000  1.0
  O  O51  1  0.10009000  0.82633000  0.10187000  1.0
  O  O52  1  0.66764000  0.72788000  0.82843000  1.0
  O  O53  1  0.33237000  0.27212000  0.17157000  1.0
  O  O54  1  0.82453000  0.94229000  0.67702000  1.0
  O  O55  1  0.17548000  0.05771000  0.32298000  1.0
  O  O56  1  0.04371000  0.25333000  0.03378000  1.0
  O  O57  1  0.95628000  0.74667000  0.96622000  1.0
