# generated using pymatgen
data_Gd2H22C18S9N6O17
_symmetry_space_group_name_H-M   'P 1'
_cell_length_a   9.53338000
_cell_length_b   13.30280000
_cell_length_c   14.95190000
_cell_angle_alpha   65.53570000
_cell_angle_beta   82.03140000
_cell_angle_gamma   80.01230000
_symmetry_Int_Tables_number   1
_chemical_formula_structural   Gd2H22C18S9N6O17
_chemical_formula_sum   'Gd4 H44 C36 S18 N12 O34'
_cell_volume   1695.08307439
_cell_formula_units_Z   2
loop_
 _symmetry_equiv_pos_site_id
 _symmetry_equiv_pos_as_xyz
  1  'x, y, z'
loop_
 _atom_site_type_symbol
 _atom_site_label
 _atom_site_symmetry_multiplicity
 _atom_site_fract_x
 _atom_site_fract_y
 _atom_site_fract_z
 _atom_site_occupancy
  Gd  Gd0  1  0.65894000  0.05573000  0.04314000  1.0
  Gd  Gd1  1  0.34106000  0.94427000  0.95685000  1.0
  Gd  Gd2  1  0.78884000  0.53627000  0.94947000  1.0
  Gd  Gd3  1  0.21117000  0.46374000  0.05053000  1.0
  H  H4  1  0.66453000  0.96109000  0.27309000  1.0
  H  H5  1  0.33548000  0.03891000  0.72691000  1.0
  H  H6  1  0.55765000  0.07573000  0.23365000  1.0
  H  H7  1  0.44235000  0.92426000  0.76636000  1.0
  H  H8  1  0.70733000  0.65061000  0.66861000  1.0
  H  H9  1  0.29265000  0.34939000  0.33140000  1.0
  H  H10  1  0.82901000  0.74768000  0.64890000  1.0
  H  H11  1  0.17098000  0.25233000  0.35110000  1.0
  H  H12  1  0.82534000  0.85878000  0.19284000  1.0
  H  H13  1  0.17466000  0.14122000  0.80716000  1.0
  H  H14  1  0.93350000  0.91130000  0.09813000  1.0
  H  H15  1  0.06651000  0.08869000  0.90187000  1.0
  H  H16  1  0.41270000  0.21144000  0.10536000  1.0
  H  H17  1  0.58730000  0.78855000  0.89464000  1.0
  H  H18  1  0.35941000  0.11335000  0.08857000  1.0
  H  H19  1  0.64059000  0.88665000  0.91142000  1.0
  H  H20  1  0.82644000  0.24498000  0.00332000  1.0
  H  H21  1  0.17356000  0.75502000  0.99668000  1.0
  H  H22  1  0.74459000  0.22861000  0.10356000  1.0
  H  H23  1  0.25540000  0.77139000  0.89644000  1.0
  H  H24  1  0.91270000  0.70433000  0.18587000  1.0
  H  H25  1  0.08730000  0.29566000  0.81413000  1.0
  H  H26  1  0.08327000  0.73812000  0.19020000  1.0
  H  H27  1  0.91673000  0.26188000  0.80980000  1.0
  H  H28  1  0.76882000  0.73335000  0.99628000  1.0
  H  H29  1  0.23118000  0.26665000  0.00373000  1.0
  H  H30  1  0.93293000  0.68257000  0.00992000  1.0
  H  H31  1  0.06707000  0.31744000  0.99008000  1.0
  H  H32  1  0.59511000  0.47298000  0.75056000  1.0
  H  H33  1  0.40489000  0.52702000  0.24944000  1.0
  H  H34  1  0.49286000  0.59648000  0.75638000  1.0
  H  H35  1  0.50714000  0.40352000  0.24361000  1.0
  H  H36  1  0.47428000  0.85040000  0.28240000  1.0
  H  H37  1  0.52571000  0.14960000  0.71760000  1.0
  H  H38  1  0.57551000  0.72758000  0.27542000  1.0
  H  H39  1  0.42449000  0.27242000  0.72458000  1.0
  H  H40  1  0.98049000  0.75899000  0.75736000  1.0
  H  H41  1  0.01951000  0.24101000  0.24265000  1.0
  H  H42  1  0.05756000  0.65541000  0.71202000  1.0
  H  H43  1  0.94244000  0.34459000  0.28798000  1.0
  H  H44  1  0.03594000  0.90271000  0.26038000  1.0
  H  H45  1  0.96406000  0.09728000  0.73962000  1.0
  H  H46  1  0.96206000  0.04159000  0.19079000  1.0
  H  H47  1  0.03794000  0.95841000  0.80922000  1.0
  C  C48  1  0.63744000  0.76309000  0.74145000  1.0
  C  C49  1  0.36256000  0.23691000  0.25855000  1.0
  C  C50  1  0.71547000  0.73676000  0.65646000  1.0
  C  C51  1  0.28453000  0.26324000  0.34354000  1.0
  C  C52  1  0.73695000  0.78690000  0.46285000  1.0
  C  C53  1  0.26305000  0.21309000  0.53715000  1.0
  C  C54  1  0.89010000  0.68820000  0.37652000  1.0
  C  C55  1  0.10990000  0.31180000  0.62348000  1.0
  C  C56  1  0.01966000  0.66894000  0.21183000  1.0
  C  C57  1  0.98034000  0.33107000  0.78817000  1.0
  C  C58  1  0.08769000  0.59322000  0.16179000  1.0
  C  C59  1  0.91231000  0.40678000  0.83821000  1.0
  C  C60  1  0.49367000  0.45615000  0.89412000  1.0
  C  C61  1  0.50633000  0.54386000  0.10588000  1.0
  C  C62  1  0.49688000  0.50579000  0.78250000  1.0
  C  C63  1  0.50312000  0.49422000  0.21750000  1.0
  C  C64  1  0.37666000  0.55490000  0.61524000  1.0
  C  C65  1  0.62333000  0.44510000  0.38476000  1.0
  C  C66  1  0.37004000  0.65030000  0.44048000  1.0
  C  C67  1  0.62996000  0.34970000  0.55952000  1.0
  C  C68  1  0.47388000  0.78271000  0.25862000  1.0
  C  C69  1  0.52612000  0.21729000  0.74138000  1.0
  C  C70  1  0.45484000  0.82932000  0.14961000  1.0
  C  C71  1  0.54516000  0.17068000  0.85039000  1.0
  C  C72  1  0.12489000  0.62817000  0.85230000  1.0
  C  C73  1  0.87511000  0.37183000  0.14771000  1.0
  C  C74  1  0.07933000  0.70476000  0.75078000  1.0
  C  C75  1  0.92067000  0.29524000  0.24922000  1.0
  C  C76  1  0.16435000  0.84435000  0.56666000  1.0
  C  C77  1  0.83565000  0.15564000  0.43334000  1.0
  C  C78  1  0.14257000  0.94499000  0.39416000  1.0
  C  C79  1  0.85744000  0.05500000  0.60584000  1.0
  C  C80  1  0.06273000  0.98534000  0.20944000  1.0
  C  C81  1  0.93727000  0.01466000  0.79056000  1.0
  C  C82  1  0.14340000  0.98058000  0.11582000  1.0
  C  C83  1  0.85660000  0.01943000  0.88418000  1.0
  S  S84  1  0.63326000  0.83387000  0.54497000  1.0
  S  S85  1  0.36674000  0.16613000  0.45503000  1.0
  S  S86  1  0.84967000  0.66165000  0.49962000  1.0
  S  S87  1  0.15034000  0.33835000  0.50038000  1.0
  S  S88  1  0.00687000  0.59221000  0.34331000  1.0
  S  S89  1  0.99314000  0.40779000  0.65669000  1.0
  S  S90  1  0.34232000  0.47965000  0.74095000  1.0
  S  S91  1  0.65767000  0.52035000  0.25905000  1.0
  S  S92  1  0.24739000  0.58019000  0.53376000  1.0
  S  S93  1  0.75261000  0.41981000  0.46624000  1.0
  S  S94  1  0.32552000  0.70437000  0.31936000  1.0
  S  S95  1  0.67448000  0.29563000  0.68064000  1.0
  S  S96  1  0.22188000  0.78732000  0.68482000  1.0
  S  S97  1  0.77812000  0.21268000  0.31518000  1.0
  S  S98  1  0.27832000  0.91985000  0.47019000  1.0
  S  S99  1  0.72169000  0.08014000  0.52981000  1.0
  S  S100  1  0.17199000  0.03294000  0.27078000  1.0
  S  S101  1  0.82801000  0.96706000  0.72922000  1.0
  N  N102  1  0.73687000  0.83995000  0.36627000  1.0
  N  N103  1  0.26313000  0.16004000  0.63373000  1.0
  N  N104  1  0.82313000  0.78320000  0.31708000  1.0
  N  N105  1  0.17687000  0.21680000  0.68293000  1.0
  N  N106  1  0.49444000  0.59853000  0.57207000  1.0
  N  N107  1  0.50556000  0.40147000  0.42792000  1.0
  N  N108  1  0.49091000  0.65305000  0.47179000  1.0
  N  N109  1  0.50909000  0.34695000  0.52820000  1.0
  N  N110  1  0.04153000  0.83802000  0.53917000  1.0
  N  N111  1  0.95848000  0.16198000  0.46083000  1.0
  N  N112  1  0.02919000  0.89620000  0.43972000  1.0
  N  N113  1  0.97081000  0.10380000  0.56028000  1.0
  O  O114  1  0.54131000  0.84502000  0.71955000  1.0
  O  O115  1  0.45868000  0.15498000  0.28045000  1.0
  O  O116  1  0.62427000  0.02135000  0.21222000  1.0
  O  O117  1  0.37573000  0.97864000  0.78778000  1.0
  O  O118  1  0.67485000  0.70200000  0.82909000  1.0
  O  O119  1  0.32515000  0.29800000  0.17091000  1.0
  O  O120  1  0.82958000  0.90473000  0.11970000  1.0
  O  O121  1  0.17042000  0.09526000  0.88030000  1.0
  O  O122  1  0.09097000  0.63674000  0.06653000  1.0
  O  O123  1  0.90903000  0.36326000  0.93347000  1.0
  O  O124  1  0.43504000  0.16329000  0.06789000  1.0
  O  O125  1  0.56496000  0.83671000  0.93211000  1.0
  O  O126  1  0.13794000  0.49380000  0.20872000  1.0
  O  O127  1  0.86206000  0.50620000  0.79127000  1.0
  O  O128  1  0.77684000  0.18894000  0.06000000  1.0
  O  O129  1  0.22316000  0.81106000  0.94000000  1.0
  O  O130  1  0.60309000  0.45917000  0.93131000  1.0
  O  O131  1  0.39693000  0.54083000  0.06869000  1.0
  O  O132  1  0.85155000  0.69711000  0.96945000  1.0
  O  O133  1  0.14845000  0.30290000  0.03055000  1.0
  O  O134  1  0.38153000  0.41661000  0.94305000  1.0
  O  O135  1  0.61848000  0.58340000  0.05695000  1.0
  O  O136  1  0.52351000  0.90891000  0.09015000  1.0
  O  O137  1  0.47649000  0.09109000  0.90985000  1.0
  O  O138  1  0.36700000  0.79173000  0.11893000  1.0
  O  O139  1  0.63301000  0.20827000  0.88107000  1.0
  O  O140  1  0.23625000  0.63833000  0.88330000  1.0
  O  O141  1  0.76374000  0.36168000  0.11670000  1.0
  O  O142  1  0.04699000  0.55217000  0.90722000  1.0
  O  O143  1  0.95301000  0.44783000  0.09278000  1.0
  O  O144  1  0.25377000  0.02961000  0.07949000  1.0
  O  O145  1  0.74623000  0.97039000  0.92051000  1.0
  O  O146  1  0.10110000  0.92558000  0.07444000  1.0
  O  O147  1  0.89890000  0.07442000  0.92556000  1.0
