# generated using pymatgen
data_ZnCd2H14(C9O8)2
_symmetry_space_group_name_H-M   'P 1'
_cell_length_a   7.00328000
_cell_length_b   10.35270000
_cell_length_c   16.30760000
_cell_angle_alpha   81.91780000
_cell_angle_beta   78.10420000
_cell_angle_gamma   70.26930000
_symmetry_Int_Tables_number   1
_chemical_formula_structural   ZnCd2H14(C9O8)2
_chemical_formula_sum   'Zn2 Cd4 H28 C36 O32'
_cell_volume   1085.78990003
_cell_formula_units_Z   2
loop_
 _symmetry_equiv_pos_site_id
 _symmetry_equiv_pos_as_xyz
  1  'x, y, z'
loop_
 _atom_site_type_symbol
 _atom_site_label
 _atom_site_symmetry_multiplicity
 _atom_site_fract_x
 _atom_site_fract_y
 _atom_site_fract_z
 _atom_site_occupancy
  Zn  Zn0  1  0.74484000  0.24993000  0.75018000  1.0
  Zn  Zn1  1  0.25516000  0.75007000  0.24982000  1.0
  Cd  Cd2  1  0.29883000  0.39320000  0.97225000  1.0
  Cd  Cd3  1  0.66269000  0.10792000  0.52853000  1.0
  Cd  Cd4  1  0.70117000  0.60680000  0.02775000  1.0
  Cd  Cd5  1  0.33731000  0.89208000  0.47147000  1.0
  H  H6  1  0.37475000  0.90653000  0.97093000  1.0
  H  H7  1  0.25154000  0.59406000  0.52970000  1.0
  H  H8  1  0.62526000  0.09346000  0.02907000  1.0
  H  H9  1  0.74846000  0.40594000  0.47030000  1.0
  H  H10  1  0.32142000  0.73456000  0.75387000  1.0
  H  H11  1  0.81118000  0.76535000  0.74530000  1.0
  H  H12  1  0.67858000  0.26544000  0.24613000  1.0
  H  H13  1  0.18882000  0.23465000  0.25470000  1.0
  H  H14  1  0.42041000  0.12658000  0.72791000  1.0
  H  H15  1  0.27422000  0.37252000  0.77258000  1.0
  H  H16  1  0.57959000  0.87343000  0.27209000  1.0
  H  H17  1  0.72578000  0.62748000  0.22742000  1.0
  H  H18  1  0.96611000  0.30080000  0.85637000  1.0
  H  H19  1  0.12204000  0.19935000  0.64483000  1.0
  H  H20  1  0.03389000  0.69920000  0.14363000  1.0
  H  H21  1  0.87796000  0.80065000  0.35517000  1.0
  H  H22  1  0.79650000  0.24552000  0.90612000  1.0
  H  H23  1  0.94746000  0.25437000  0.59396000  1.0
  H  H24  1  0.20350000  0.75448000  0.09388000  1.0
  H  H25  1  0.05254000  0.74562000  0.40604000  1.0
  H  H26  1  0.63000000  0.52419000  0.70333000  1.0
  H  H27  1  0.85756000  0.97632000  0.79714000  1.0
  H  H28  1  0.37000000  0.47581000  0.29667000  1.0
  H  H29  1  0.14244000  0.02368000  0.20286000  1.0
  H  H30  1  0.52925000  0.51188000  0.79958000  1.0
  H  H31  1  0.84139000  0.98798000  0.70039000  1.0
  H  H32  1  0.47075000  0.48812000  0.20042000  1.0
  H  H33  1  0.15861000  0.01202000  0.29961000  1.0
  C  C34  1  0.39887000  0.02861000  0.85352000  1.0
  C  C35  1  0.27990000  0.47120000  0.64706000  1.0
  C  C36  1  0.60113000  0.97139000  0.14648000  1.0
  C  C37  1  0.72010000  0.52880000  0.35294000  1.0
  C  C38  1  0.37343000  0.91294000  0.90403000  1.0
  C  C39  1  0.18991000  0.58733000  0.59638000  1.0
  C  C40  1  0.62657000  0.08707000  0.09597000  1.0
  C  C41  1  0.81009000  0.41267000  0.40362000  1.0
  C  C42  1  0.35322000  0.80406000  0.86821000  1.0
  C  C43  1  0.02589000  0.69613000  0.63174000  1.0
  C  C44  1  0.64678000  0.19593000  0.13179000  1.0
  C  C45  1  0.97411000  0.30387000  0.36826000  1.0
  C  C46  1  0.34620000  0.81538000  0.78225000  1.0
  C  C47  1  0.94445000  0.68443000  0.71735000  1.0
  C  C48  1  0.65381000  0.18462000  0.21775000  1.0
  C  C49  1  0.05555000  0.31557000  0.28265000  1.0
  C  C50  1  0.36761000  0.93237000  0.73204000  1.0
  C  C51  1  0.03208000  0.56704000  0.76777000  1.0
  C  C52  1  0.63239000  0.06763000  0.26796000  1.0
  C  C53  1  0.96792000  0.43295000  0.23223000  1.0
  C  C54  1  0.39848000  0.03721000  0.76749000  1.0
  C  C55  1  0.20253000  0.46212000  0.73284000  1.0
  C  C56  1  0.60151000  0.96279000  0.23251000  1.0
  C  C57  1  0.79747000  0.53788000  0.26716000  1.0
  C  C58  1  0.40781000  0.14837000  0.89188000  1.0
  C  C59  1  0.44604000  0.35202000  0.60851000  1.0
  C  C60  1  0.59219000  0.85163000  0.10812000  1.0
  C  C61  1  0.55396000  0.64798000  0.39149000  1.0
  C  C62  1  0.34998000  0.67484000  0.92136000  1.0
  C  C63  1  0.94711000  0.82553000  0.57836000  1.0
  C  C64  1  0.65002000  0.32516000  0.07864000  1.0
  C  C65  1  0.05289000  0.17447000  0.42164000  1.0
  C  C66  1  0.35886000  0.94676000  0.64059000  1.0
  C  C67  1  0.94631000  0.55253000  0.85892000  1.0
  C  C68  1  0.64114000  0.05324000  0.35941000  1.0
  C  C69  1  0.05369000  0.44747000  0.14108000  1.0
  O  O70  1  0.49325000  0.23467000  0.84818000  1.0
  O  O71  1  0.57465000  0.26474000  0.65235000  1.0
  O  O72  1  0.50675000  0.76533000  0.15182000  1.0
  O  O73  1  0.42534000  0.73526000  0.34765000  1.0
  O  O74  1  0.31771000  0.16703000  0.96697000  1.0
  O  O75  1  0.44906000  0.33457000  0.53300000  1.0
  O  O76  1  0.68229000  0.83297000  0.03303000  1.0
  O  O77  1  0.55093000  0.66543000  0.46700000  1.0
  O  O78  1  0.35528000  0.06182000  0.59837000  1.0
  O  O79  1  0.01587000  0.43732000  0.90129000  1.0
  O  O80  1  0.64472000  0.93817000  0.40163000  1.0
  O  O81  1  0.98413000  0.56268000  0.09871000  1.0
  O  O82  1  0.35350000  0.84353000  0.60842000  1.0
  O  O83  1  0.80577000  0.65542000  0.89080000  1.0
  O  O84  1  0.64649000  0.15647000  0.39158000  1.0
  O  O85  1  0.19423000  0.34458000  0.10920000  1.0
  O  O86  1  0.34846000  0.57279000  0.88454000  1.0
  O  O87  1  0.80702000  0.92735000  0.61498000  1.0
  O  O88  1  0.65154000  0.42721000  0.11546000  1.0
  O  O89  1  0.19297000  0.07265000  0.38502000  1.0
  O  O90  1  0.35513000  0.66640000  0.99939000  1.0
  O  O91  1  0.02112000  0.83412000  0.50066000  1.0
  O  O92  1  0.64487000  0.33359000  0.00061000  1.0
  O  O93  1  0.97887000  0.16588000  0.49934000  1.0
  O  O94  1  0.89677000  0.23296000  0.85306000  1.0
  O  O95  1  0.98180000  0.26676000  0.64760000  1.0
  O  O96  1  0.10323000  0.76704000  0.14694000  1.0
  O  O97  1  0.01820000  0.73324000  0.35240000  1.0
  O  O98  1  0.64806000  0.46770000  0.75588000  1.0
  O  O99  1  0.87179000  0.03249000  0.74460000  1.0
  O  O100  1  0.35194000  0.53230000  0.24412000  1.0
  O  O101  1  0.12821000  0.96751000  0.25540000  1.0
