# generated using pymatgen
data_Nd2MnH20C32(NO7)4
_symmetry_space_group_name_H-M   'P 1'
_cell_length_a   9.83968000
_cell_length_b   11.19650000
_cell_length_c   11.43800319
_cell_angle_alpha   117.95786464
_cell_angle_beta   102.11243069
_cell_angle_gamma   97.44780000
_symmetry_Int_Tables_number   1
_chemical_formula_structural   Nd2MnH20C32(NO7)4
_chemical_formula_sum   'Nd2 Mn1 H20 C32 N4 O28'
_cell_volume   1049.67086361
_cell_formula_units_Z   1
loop_
 _symmetry_equiv_pos_site_id
 _symmetry_equiv_pos_as_xyz
  1  'x, y, z'
loop_
 _atom_site_type_symbol
 _atom_site_label
 _atom_site_symmetry_multiplicity
 _atom_site_fract_x
 _atom_site_fract_y
 _atom_site_fract_z
 _atom_site_occupancy
  Nd  Nd0  1  0.89274000  0.40512000  0.13324000  1.0
  Nd  Nd1  1  0.10727000  0.59488000  0.86676000  1.0
  Mn  Mn2  1  0.00000000  0.50001000  0.50000000  1.0
  H  H3  1  0.74186000  0.45910000  0.90228000  1.0
  H  H4  1  0.25813000  0.54089000  0.09772000  1.0
  H  H5  1  0.61653000  0.18542000  0.06379000  1.0
  H  H6  1  0.38347000  0.81458000  0.93621000  1.0
  H  H7  1  0.64083000  0.32870000  0.88986000  1.0
  H  H8  1  0.35917000  0.67129000  0.11014000  1.0
  H  H9  1  0.69207000  0.10048000  0.95637000  1.0
  H  H10  1  0.30794000  0.89952000  0.04363000  1.0
  H  H11  1  0.30323000  0.70775000  0.59545000  1.0
  H  H12  1  0.69677000  0.29225000  0.40455000  1.0
  H  H13  1  0.16204000  0.79106000  0.55439000  1.0
  H  H14  1  0.83796000  0.20894000  0.44561000  1.0
  H  H15  1  0.14811000  0.20893000  0.65225000  1.0
  H  H16  1  0.85190000  0.79107000  0.34775000  1.0
  H  H17  1  0.99102000  0.03788000  0.88183000  1.0
  H  H18  1  0.00899000  0.96213000  0.11818000  1.0
  H  H19  1  0.44502000  0.48539000  0.23628000  1.0
  H  H20  1  0.55499000  0.51460000  0.76372000  1.0
  H  H21  1  0.75530000  0.75086000  0.64282000  1.0
  H  H22  1  0.24470000  0.24914000  0.35718000  1.0
  C  C23  1  0.61148000  0.60903000  0.43375000  1.0
  C  C24  1  0.38852000  0.39097000  0.56625000  1.0
  C  C25  1  0.46844000  0.55654000  0.34770000  1.0
  C  C26  1  0.53156000  0.44346000  0.65230000  1.0
  C  C27  1  0.35615000  0.59210000  0.40406000  1.0
  C  C28  1  0.64385000  0.40789000  0.59594000  1.0
  C  C29  1  0.38755000  0.68276000  0.54698000  1.0
  C  C30  1  0.61245000  0.31723000  0.45302000  1.0
  C  C31  1  0.53153000  0.74213000  0.62868000  1.0
  C  C32  1  0.46847000  0.25787000  0.37132000  1.0
  C  C33  1  0.64423000  0.70528000  0.57569000  1.0
  C  C34  1  0.35577000  0.29472000  0.42431000  1.0
  C  C35  1  0.73158000  0.56285000  0.37665000  1.0
  C  C36  1  0.26843000  0.43715000  0.62334000  1.0
  C  C37  1  0.20347000  0.53368000  0.31234000  1.0
  C  C38  1  0.79653000  0.46633000  0.68767000  1.0
  C  C39  1  0.06079000  0.13472000  0.77179000  1.0
  C  C40  1  0.93922000  0.86528000  0.22821000  1.0
  C  C41  1  0.03925000  0.02618000  0.80076000  1.0
  C  C42  1  0.96075000  0.97381000  0.19924000  1.0
  C  C43  1  0.07996000  0.90349000  0.72582000  1.0
  C  C44  1  0.92005000  0.09651000  0.27418000  1.0
  C  C45  1  0.13918000  0.88857000  0.62039000  1.0
  C  C46  1  0.86081000  0.11142000  0.37960000  1.0
  C  C47  1  0.16608000  0.99980000  0.59821000  1.0
  C  C48  1  0.83392000  0.00021000  0.40179000  1.0
  C  C49  1  0.12837000  0.12357000  0.67248000  1.0
  C  C50  1  0.87163000  0.87643000  0.32752000  1.0
  C  C51  1  0.01088000  0.26406000  0.84615000  1.0
  C  C52  1  0.98911000  0.73594000  0.15385000  1.0
  C  C53  1  0.06615000  0.78915000  0.75867000  1.0
  C  C54  1  0.93384000  0.21085000  0.24133000  1.0
  N  N55  1  0.56462000  0.84987000  0.77411000  1.0
  N  N56  1  0.43538000  0.15013000  0.22589000  1.0
  N  N57  1  0.23569000  0.98441000  0.49191000  1.0
  N  N58  1  0.76430000  0.01559000  0.50809000  1.0
  O  O59  1  0.85609000  0.60716000  0.46672000  1.0
  O  O60  1  0.14391000  0.39285000  0.53328000  1.0
  O  O61  1  0.70424000  0.48426000  0.24664000  1.0
  O  O62  1  0.29576000  0.51575000  0.75336000  1.0
  O  O63  1  0.17447000  0.47316000  0.18106000  1.0
  O  O64  1  0.82553000  0.52683000  0.81894000  1.0
  O  O65  1  0.10145000  0.54637000  0.36816000  1.0
  O  O66  1  0.89855000  0.45363000  0.63184000  1.0
  O  O67  1  0.46344000  0.87156000  0.82442000  1.0
  O  O68  1  0.53657000  0.12844000  0.17559000  1.0
  O  O69  1  0.69252000  0.91929000  0.84074000  1.0
  O  O70  1  0.30749000  0.08070000  0.15926000  1.0
  O  O71  1  0.05101000  0.36621000  0.83000000  1.0
  O  O72  1  0.94898000  0.63379000  0.17001000  1.0
  O  O73  1  0.93094000  0.26192000  0.91905000  1.0
  O  O74  1  0.06906000  0.73808000  0.08095000  1.0
  O  O75  1  0.01187000  0.79512000  0.85099000  1.0
  O  O76  1  0.98813000  0.20488000  0.14901000  1.0
  O  O77  1  0.11919000  0.68460000  0.69271000  1.0
  O  O78  1  0.88081000  0.31541000  0.30730000  1.0
  O  O79  1  0.26949000  0.87352000  0.42845000  1.0
  O  O80  1  0.73050000  0.12648000  0.57154000  1.0
  O  O81  1  0.25727000  0.08392000  0.47182000  1.0
  O  O82  1  0.74272000  0.91609000  0.52818000  1.0
  O  O83  1  0.70480000  0.42174000  0.95652000  1.0
  O  O84  1  0.29520000  0.57824000  0.04347000  1.0
  O  O85  1  0.67616000  0.19426000  0.00814000  1.0
  O  O86  1  0.32384000  0.80574000  0.99186000  1.0
