# generated using pymatgen
data_ZnH4C16N3(O2F)2
_symmetry_space_group_name_H-M   'P 1'
_cell_length_a   9.64931000
_cell_length_b   11.05180000
_cell_length_c   17.67200000
_cell_angle_alpha   89.15760000
_cell_angle_beta   89.84500000
_cell_angle_gamma   89.64030000
_symmetry_Int_Tables_number   1
_chemical_formula_structural   ZnH4C16N3(O2F)2
_chemical_formula_sum   'Zn2 H8 C32 N6 O8 F4'
_cell_volume   1884.33448263
_cell_formula_units_Z   2
loop_
 _symmetry_equiv_pos_site_id
 _symmetry_equiv_pos_as_xyz
  1  'x, y, z'
loop_
 _atom_site_type_symbol
 _atom_site_label
 _atom_site_symmetry_multiplicity
 _atom_site_fract_x
 _atom_site_fract_y
 _atom_site_fract_z
 _atom_site_occupancy
  Zn  Zn0  1  0.64782000  0.50834000  0.50329000  1.0
  Zn  Zn1  1  0.35666000  0.51276000  0.49730000  1.0
  H  H2  1  0.72053000  0.48090000  0.11759000  1.0
  H  H3  1  0.27755000  0.47617000  0.88150000  1.0
  H  H4  1  0.70618000  0.35543000  0.87114000  1.0
  H  H5  1  0.28698000  0.38079000  0.13433000  1.0
  H  H6  1  0.13085000  0.54270000  0.38287000  1.0
  H  H7  1  0.87392000  0.47361000  0.61791000  1.0
  H  H8  1  0.13990000  0.47687000  0.61504000  1.0
  H  H9  1  0.86501000  0.53951000  0.38564000  1.0
  C  C10  1  0.49776000  0.27423000  0.49541000  1.0
  C  C11  1  0.50434000  0.74516000  0.50368000  1.0
  C  C12  1  0.49950000  0.41217000  0.03604000  1.0
  C  C13  1  0.49568000  0.40758000  0.96714000  1.0
  C  C14  1  0.43596000  0.07466000  0.55740000  1.0
  C  C15  1  0.56280000  0.94474000  0.44005000  1.0
  C  C16  1  0.43878000  0.94642000  0.55996000  1.0
  C  C17  1  0.55850000  0.07300000  0.43723000  1.0
  C  C18  1  0.49735000  0.48406000  0.64468000  1.0
  C  C19  1  0.50683000  0.50560000  0.35554000  1.0
  C  C20  1  0.50263000  0.88160000  0.50139000  1.0
  C  C21  1  0.49654000  0.13771000  0.49631000  1.0
  C  C22  1  0.62587000  0.46751000  0.15013000  1.0
  C  C23  1  0.37177000  0.45626000  0.84998000  1.0
  C  C24  1  0.61224000  0.38990000  0.84434000  1.0
  C  C25  1  0.38276000  0.41262000  0.15932000  1.0
  C  C26  1  0.62461000  0.49160000  0.22677000  1.0
  C  C27  1  0.37488000  0.47509000  0.77238000  1.0
  C  C28  1  0.60995000  0.41096000  0.76698000  1.0
  C  C29  1  0.38691000  0.43864000  0.23564000  1.0
  C  C30  1  0.50600000  0.48013000  0.27284000  1.0
  C  C31  1  0.49377000  0.45650000  0.72759000  1.0
  C  C32  1  0.07193000  0.52810000  0.43493000  1.0
  C  C33  1  0.93271000  0.48904000  0.56588000  1.0
  C  C34  1  0.07691000  0.49103000  0.56445000  1.0
  C  C35  1  0.92773000  0.52628000  0.43640000  1.0
  C  C36  1  0.50319000  0.42874000  0.11525000  1.0
  C  C37  1  0.49259000  0.41552000  0.88717000  1.0
  C  C38  1  0.37169000  0.13995000  0.61722000  1.0
  C  C39  1  0.62677000  0.88120000  0.37935000  1.0
  C  C40  1  0.38004000  0.88496000  0.62390000  1.0
  C  C41  1  0.61552000  0.13720000  0.37390000  1.0
  N  N42  1  0.85996000  0.50693000  0.50195000  1.0
  N  N43  1  0.14463000  0.51084000  0.49891000  1.0
  N  N44  1  0.31862000  0.19347000  0.66599000  1.0
  N  N45  1  0.67864000  0.83269000  0.32820000  1.0
  N  N46  1  0.33416000  0.83896000  0.67826000  1.0
  N  N47  1  0.65970000  0.19072000  0.32181000  1.0
  O  O48  1  0.61187000  0.32054000  0.51414000  1.0
  O  O49  1  0.38826000  0.69580000  0.51587000  1.0
  O  O50  1  0.62078000  0.69515000  0.49276000  1.0
  O  O51  1  0.38559000  0.32608000  0.47697000  1.0
  O  O52  1  0.61258000  0.51790000  0.61635000  1.0
  O  O53  1  0.39401000  0.54216000  0.38544000  1.0
  O  O54  1  0.61994000  0.48682000  0.39069000  1.0
  O  O55  1  0.38517000  0.47154000  0.60813000  1.0
  F  F56  1  0.74446000  0.53150000  0.25721000  1.0
  F  F57  1  0.25709000  0.51785000  0.73965000  1.0
  F  F58  1  0.72749000  0.38367000  0.72794000  1.0
  F  F59  1  0.26840000  0.41988000  0.27581000  1.0
