# generated using pymatgen
data_Zn2H28C31(NO5)2
_symmetry_space_group_name_H-M   'P 1'
_cell_length_a   9.73552000
_cell_length_b   11.04040000
_cell_length_c   13.80530000
_cell_angle_alpha   86.01470000
_cell_angle_beta   78.82580000
_cell_angle_gamma   88.50920000
_symmetry_Int_Tables_number   1
_chemical_formula_structural   Zn2H28C31(NO5)2
_chemical_formula_sum   'Zn2 H28 C31 N2 O10'
_cell_volume   1452.07988447
_cell_formula_units_Z   1
loop_
 _symmetry_equiv_pos_site_id
 _symmetry_equiv_pos_as_xyz
  1  'x, y, z'
loop_
 _atom_site_type_symbol
 _atom_site_label
 _atom_site_symmetry_multiplicity
 _atom_site_fract_x
 _atom_site_fract_y
 _atom_site_fract_z
 _atom_site_occupancy
  Zn  Zn0  1  0.36062000  0.49335000  0.50199000  1.0
  Zn  Zn1  1  0.64653000  0.49106000  0.49438000  1.0
  H  H2  1  0.17451000  0.51671000  0.34627000  1.0
  H  H3  1  0.17275000  0.90203000  0.47233000  1.0
  H  H4  1  0.91397000  0.52048000  0.34692000  1.0
  H  H5  1  0.02700000  0.43633000  0.13938000  1.0
  H  H6  1  0.04842000  0.59378000  0.15085000  1.0
  H  H7  1  0.94681000  0.54575000  0.06739000  1.0
  H  H8  1  0.18662000  0.61502000  0.97646000  1.0
  H  H9  1  0.16131000  0.46101000  0.96110000  1.0
  H  H10  1  0.29419000  0.39802000  0.09366000  1.0
  H  H11  1  0.31353000  0.54966000  0.11836000  1.0
  H  H12  1  0.77282000  0.68906000  0.65095000  1.0
  H  H13  1  0.08125000  0.37414000  0.71867000  1.0
  H  H14  1  0.92715000  0.69300000  0.70370000  1.0
  H  H15  1  0.77969000  0.73582000  0.86777000  1.0
  H  H16  1  0.74627000  0.84636000  0.77453000  1.0
  H  H17  1  0.62511000  0.72716000  0.81736000  1.0
  H  H18  1  0.75183000  0.20566000  0.33182000  1.0
  H  H19  1  0.81132000  0.05345000  0.30799000  1.0
  H  H20  1  0.03594000  0.09538000  0.36221000  1.0
  H  H21  1  0.00957000  0.20197000  0.26426000  1.0
  H  H22  1  0.97572000  0.24549000  0.38877000  1.0
  H  H23  1  0.07739000  0.53419000  0.72765000  1.0
  H  H24  1  0.82346000  0.37377000  0.71956000  1.0
  H  H25  1  0.66204000  0.51817000  0.95326000  1.0
  H  H26  1  0.72163000  0.86743000  0.47747000  1.0
  H  H27  1  0.18574000  0.12508000  0.59353000  1.0
  H  H28  1  0.18978000  0.12994000  0.46385000  1.0
  H  H29  1  0.16523000  0.89736000  0.60271000  1.0
  C  C30  1  0.49087000  0.72608000  0.50880000  1.0
  C  C31  1  0.21834000  0.93863000  0.53089000  1.0
  C  C32  1  0.90921000  0.48342000  0.58261000  1.0
  C  C33  1  0.45703000  0.46755000  0.69034000  1.0
  C  C34  1  0.95408000  0.50866000  0.41551000  1.0
  C  C35  1  0.09767000  0.50615000  0.41510000  1.0
  C  C36  1  0.05272000  0.47917000  0.58180000  1.0
  C  C37  1  0.03773000  0.46009000  0.69219000  1.0
  C  C38  1  0.87217000  0.46247000  0.69671000  1.0
  C  C39  1  0.51345000  0.25947000  0.48624000  1.0
  C  C40  1  0.55810000  0.52382000  0.30424000  1.0
  C  C41  1  0.44253000  0.47184000  0.79591000  1.0
  C  C42  1  0.57619000  0.52964000  0.19792000  1.0
  C  C43  1  0.56734000  0.51473000  0.01067000  1.0
  C  C44  1  0.44082000  0.49720000  0.98394000  1.0
  C  C45  1  0.43985000  0.48341000  0.88349000  1.0
  C  C46  1  0.57736000  0.52534000  0.10954000  1.0
  C  C47  1  0.30451000  0.49120000  0.05846000  1.0
  C  C48  1  0.17307000  0.52502000  0.01657000  1.0
  C  C49  1  0.04174000  0.52526000  0.09774000  1.0
  C  C50  1  0.81404000  0.67257000  0.71985000  1.0
  C  C51  1  0.73670000  0.74988000  0.79984000  1.0
  C  C52  1  0.37714000  0.93598000  0.51301000  1.0
  C  C53  1  0.81889000  0.13073000  0.35338000  1.0
  C  C54  1  0.96897000  0.17060000  0.34160000  1.0
  C  C55  1  0.49576000  0.86114000  0.50418000  1.0
  C  C56  1  0.62486000  0.92092000  0.48605000  1.0
  C  C57  1  0.63565000  0.04760000  0.47606000  1.0
  C  C58  1  0.51418000  0.12416000  0.48806000  1.0
  C  C59  1  0.38736000  0.06218000  0.50675000  1.0
  C  C60  1  0.22994000  0.08157000  0.52498000  1.0
  N  N61  1  0.85642000  0.49658000  0.50037000  1.0
  N  N62  1  0.14978000  0.48986000  0.49948000  1.0
  O  O63  1  0.37772000  0.67897000  0.49696000  1.0
  O  O64  1  0.76996000  0.09230000  0.45627000  1.0
  O  O65  1  0.60114000  0.66781000  0.52292000  1.0
  O  O66  1  0.34838000  0.49315000  0.65371000  1.0
  O  O67  1  0.57841000  0.44049000  0.64305000  1.0
  O  O68  1  0.39292000  0.30993000  0.50889000  1.0
  O  O69  1  0.62916000  0.31567000  0.46375000  1.0
  O  O70  1  0.43320000  0.50204000  0.35023000  1.0
  O  O71  1  0.66457000  0.53883000  0.34302000  1.0
  O  O72  1  0.79226000  0.54713000  0.75495000  1.0
