# generated using pymatgen
data_Zr3H18C26N5(O8F)2
_symmetry_space_group_name_H-M   'P 1'
_cell_length_a   14.76130000
_cell_length_b   14.75950000
_cell_length_c   14.77490000
_cell_angle_alpha   60.09290000
_cell_angle_beta   60.23140000
_cell_angle_gamma   60.34240000
_symmetry_Int_Tables_number   1
_chemical_formula_structural   Zr3H18C26N5(O8F)2
_chemical_formula_sum   'Zr6 H36 C52 N10 O32 F4'
_cell_volume   2287.60671777
_cell_formula_units_Z   2
loop_
 _symmetry_equiv_pos_site_id
 _symmetry_equiv_pos_as_xyz
  1  'x, y, z'
loop_
 _atom_site_type_symbol
 _atom_site_label
 _atom_site_symmetry_multiplicity
 _atom_site_fract_x
 _atom_site_fract_y
 _atom_site_fract_z
 _atom_site_occupancy
  Zr  Zr0  1  0.88500000  0.61809000  0.87938000  1.0
  Zr  Zr1  1  0.11795000  0.38643000  0.12162000  1.0
  Zr  Zr2  1  0.88061000  0.62428000  0.11801000  1.0
  Zr  Zr3  1  0.12240000  0.38117000  0.88248000  1.0
  Zr  Zr4  1  0.88246000  0.38305000  0.11969000  1.0
  Zr  Zr5  1  0.12072000  0.62210000  0.88094000  1.0
  H  H6  1  0.71962000  0.59198000  0.09351000  1.0
  H  H7  1  0.09130000  0.22049000  0.09984000  1.0
  H  H8  1  0.09428000  0.60156000  0.09232000  1.0
  H  H9  1  0.09779000  0.59370000  0.71866000  1.0
  H  H10  1  0.59667000  0.35801000  0.13591000  1.0
  H  H11  1  0.44256000  0.60540000  0.83104000  1.0
  H  H12  1  0.13960000  0.91171000  0.59244000  1.0
  H  H13  1  0.86000000  0.09456000  0.40996000  1.0
  H  H14  1  0.10453000  0.12835000  0.83031000  1.0
  H  H15  1  0.85443000  0.91755000  0.13219000  1.0
  H  H16  1  0.41056000  0.36148000  0.59298000  1.0
  H  H17  1  0.59464000  0.64080000  0.41062000  1.0
  H  H18  1  0.57307000  0.73860000  0.99104000  1.0
  H  H19  1  0.23471000  0.07336000  0.99815000  1.0
  H  H20  1  0.85924000  0.63486000  0.59905000  1.0
  H  H21  1  0.13786000  0.36372000  0.40780000  1.0
  H  H22  1  0.36159000  0.31513000  0.16671000  1.0
  H  H23  1  0.46868000  0.26612000  0.21415000  1.0
  H  H24  1  0.68338000  0.64072000  0.79754000  1.0
  H  H25  1  0.57813000  0.69079000  0.74804000  1.0
  H  H26  1  0.16357000  0.16408000  0.36371000  1.0
  H  H27  1  0.20777000  0.06105000  0.47416000  1.0
  H  H28  1  0.81802000  0.86021000  0.65830000  1.0
  H  H29  1  0.76425000  0.97095000  0.55751000  1.0
  H  H30  1  0.13952000  0.88598000  0.79692000  1.0
  H  H31  1  0.18875000  0.99182000  0.74646000  1.0
  H  H32  1  0.81602000  0.16155000  0.16629000  1.0
  H  H33  1  0.76594000  0.05517000  0.21448000  1.0
  H  H34  1  0.65828000  0.32026000  0.35910000  1.0
  H  H35  1  0.55505000  0.26764000  0.46841000  1.0
  H  H36  1  0.36357000  0.66441000  0.66156000  1.0
  H  H37  1  0.47460000  0.70904000  0.56079000  1.0
  H  H38  1  0.81121000  0.66590000  0.36679000  1.0
  H  H39  1  0.75931000  0.70512000  0.48055000  1.0
  H  H40  1  0.16755000  0.31550000  0.65842000  1.0
  H  H41  1  0.21052000  0.26385000  0.55570000  1.0
  C  C42  1  0.70716000  0.49294000  0.98750000  1.0
  C  C43  1  0.99897000  0.20206000  0.30970000  1.0
  C  C44  1  0.31308000  0.49308000  0.99574000  1.0
  C  C45  1  0.99803000  0.80745000  0.69607000  1.0
  C  C46  1  0.70168000  0.80854000  0.99359000  1.0
  C  C47  1  0.00308000  0.49286000  0.69940000  1.0
  C  C48  1  0.30716000  0.20158000  0.00097000  1.0
  C  C49  1  0.99301000  0.50524000  0.30808000  1.0
  C  C50  1  0.69783000  0.49900000  0.30649000  1.0
  C  C51  1  0.99150000  0.81984000  0.98524000  1.0
  C  C52  1  0.31038000  0.50034000  0.69981000  1.0
  C  C53  1  0.99199000  0.20392000  0.99606000  1.0
  C  C54  1  0.42125000  0.48081000  0.99040000  1.0
  C  C55  1  0.61601000  0.48517000  0.97812000  1.0
  C  C56  1  0.46684000  0.40436000  0.07752000  1.0
  C  C57  1  0.57557000  0.55494000  0.88695000  1.0
  C  C58  1  0.56293000  0.41047000  0.06819000  1.0
  C  C59  1  0.47839000  0.55049000  0.89716000  1.0
  C  C60  1  0.00251000  0.10040000  0.40793000  1.0
  C  C61  1  0.99562000  0.90753000  0.59608000  1.0
  C  C62  1  0.08505000  0.04897000  0.45849000  1.0
  C  C63  1  0.91359000  0.95827000  0.54496000  1.0
  C  C64  1  0.07818000  0.95345000  0.55148000  1.0
  C  C65  1  0.92055000  0.05361000  0.45187000  1.0
  C  C66  1  0.98342000  0.92827000  0.97601000  1.0
  C  C67  1  0.97923000  0.11458000  0.98912000  1.0
  C  C68  1  0.05354000  0.99024000  0.88539000  1.0
  C  C69  1  0.90230000  0.05836000  0.07531000  1.0
  C  C70  1  0.04920000  0.08142000  0.89590000  1.0
  C  C71  1  0.90801000  0.96589000  0.06552000  1.0
  C  C72  1  0.59789000  0.49679000  0.40650000  1.0
  C  C73  1  0.40898000  0.50390000  0.59840000  1.0
  C  C74  1  0.54590000  0.41526000  0.45708000  1.0
  C  C75  1  0.46001000  0.58639000  0.54698000  1.0
  C  C76  1  0.45262000  0.42210000  0.55209000  1.0
  C  C77  1  0.55346000  0.57930000  0.45228000  1.0
  C  C78  1  0.59922000  0.90812000  0.99456000  1.0
  C  C79  1  0.50273000  0.90741000  0.99457000  1.0
  C  C80  1  0.59610000  0.00044000  0.99965000  1.0
  C  C81  1  0.49998000  0.81183000  0.99599000  1.0
  C  C82  1  0.40444000  0.81167000  0.00197000  1.0
  C  C83  1  0.40631000  0.09857000  0.00042000  1.0
  C  C84  1  0.50040000  0.09471000  0.00273000  1.0
  C  C85  1  0.40521000  0.00377000  0.99721000  1.0
  C  C86  1  0.30882000  0.00094000  0.00035000  1.0
  C  C87  1  0.30897000  0.90623000  0.00402000  1.0
  C  C88  1  0.99182000  0.50510000  0.40879000  1.0
  C  C89  1  0.00372000  0.49206000  0.59950000  1.0
  C  C90  1  0.90995000  0.58492000  0.46204000  1.0
  C  C91  1  0.08555000  0.41204000  0.54642000  1.0
  C  C92  1  0.91950000  0.57517000  0.55631000  1.0
  C  C93  1  0.07632000  0.42204000  0.45191000  1.0
  N  N94  1  0.41801000  0.33096000  0.17192000  1.0
  N  N95  1  0.62819000  0.62464000  0.79037000  1.0
  N  N96  1  0.17161000  0.08609000  0.41893000  1.0
  N  N97  1  0.83159000  0.91621000  0.58061000  1.0
  N  N98  1  0.12299000  0.96464000  0.78906000  1.0
  N  N99  1  0.82902000  0.08616000  0.16911000  1.0
  N  N100  1  0.58085000  0.33385000  0.41507000  1.0
  N  N101  1  0.41972000  0.67305000  0.58405000  1.0
  N  N102  1  0.82561000  0.67161000  0.42384000  1.0
  N  N103  1  0.17348000  0.32970000  0.58135000  1.0
  O  O104  1  0.74361000  0.57471000  0.91509000  1.0
  O  O105  1  0.07461000  0.24525000  0.26854000  1.0
  O  O106  1  0.26561000  0.42207000  0.07676000  1.0
  O  O107  1  0.92186000  0.76461000  0.73826000  1.0
  O  O108  1  0.73811000  0.76986000  0.07213000  1.0
  O  O109  1  0.07975000  0.41709000  0.74110000  1.0
  O  O110  1  0.26877000  0.24091000  0.92331000  1.0
  O  O111  1  0.91733000  0.58218000  0.26539000  1.0
  O  O112  1  0.73974000  0.42242000  0.26457000  1.0
  O  O113  1  0.07300000  0.77418000  0.91354000  1.0
  O  O114  1  0.26838000  0.57709000  0.74137000  1.0
  O  O115  1  0.92067000  0.24164000  0.07636000  1.0
  O  O116  1  0.91981000  0.77480000  0.06606000  1.0
  O  O117  1  0.27087000  0.42273000  0.74062000  1.0
  O  O118  1  0.07452000  0.23785000  0.92432000  1.0
  O  O119  1  0.73725000  0.57671000  0.26566000  1.0
  O  O120  1  0.74117000  0.76975000  0.91659000  1.0
  O  O121  1  0.07001000  0.42945000  0.26722000  1.0
  O  O122  1  0.26885000  0.23922000  0.07816000  1.0
  O  O123  1  0.92709000  0.56966000  0.73920000  1.0
  O  O124  1  0.07527000  0.76762000  0.73544000  1.0
  O  O125  1  0.74240000  0.42176000  0.06866000  1.0
  O  O126  1  0.92249000  0.24179000  0.26914000  1.0
  O  O127  1  0.27058000  0.57391000  0.92214000  1.0
  O  O128  1  0.07081000  0.56701000  0.79892000  1.0
  O  O129  1  0.06725000  0.57361000  0.06669000  1.0
  O  O130  1  0.06872000  0.30060000  0.06976000  1.0
  O  O131  1  0.79962000  0.56948000  0.06538000  1.0
  O  O132  1  0.95031000  0.45548000  0.14857000  1.0
  O  O133  1  0.95355000  0.45024000  0.95080000  1.0
  O  O134  1  0.14941000  0.45309000  0.95254000  1.0
  O  O135  1  0.95192000  0.65062000  0.94963000  1.0
  F  F136  1  0.50556000  0.18268000  0.00474000  1.0
  F  F137  1  0.68559000  0.00509000  0.99907000  1.0
  F  F138  1  0.39931000  0.72098000  0.00531000  1.0
  F  F139  1  0.21758000  0.90086000  0.00914000  1.0
