# generated using pymatgen
data_AlH9C24(NO2)6
_symmetry_space_group_name_H-M   'P 1'
_cell_length_a   4.02623000
_cell_length_b   15.66230000
_cell_length_c   15.79254146
_cell_angle_alpha   60.47794396
_cell_angle_beta   88.39413094
_cell_angle_gamma   83.73850000
_symmetry_Int_Tables_number   1
_chemical_formula_structural   AlH9C24(NO2)6
_chemical_formula_sum   'Al1 H9 C24 N6 O12'
_cell_volume   861.02877245
_cell_formula_units_Z   1
loop_
 _symmetry_equiv_pos_site_id
 _symmetry_equiv_pos_as_xyz
  1  'x, y, z'
loop_
 _atom_site_type_symbol
 _atom_site_label
 _atom_site_symmetry_multiplicity
 _atom_site_fract_x
 _atom_site_fract_y
 _atom_site_fract_z
 _atom_site_occupancy
  Al  Al0  1  0.01256000  0.99947000  0.49838000  1.0
  H  H1  1  0.37741000  0.09700000  0.03715000  1.0
  H  H2  1  0.50745000  0.37188000  0.58770000  1.0
  H  H3  1  0.56785000  0.54143000  0.87427000  1.0
  H  H4  1  0.67582000  0.73077000  0.51487000  1.0
  H  H5  1  0.70656000  0.54696000  0.60009000  1.0
  H  H6  1  0.53109000  0.00616000  0.75182000  1.0
  H  H7  1  0.58343000  0.08940000  0.85061000  1.0
  H  H8  1  0.69184000  0.23646000  0.24281000  1.0
  H  H9  1  0.71950000  0.33522000  0.06220000  1.0
  C  C10  1  0.50448000  0.05720000  0.35115000  1.0
  C  C11  1  0.56378000  0.85028000  0.58850000  1.0
  C  C12  1  0.47441000  0.08821000  0.55912000  1.0
  C  C13  1  0.51893000  0.11152000  0.24183000  1.0
  C  C14  1  0.48544000  0.14198000  0.61524000  1.0
  C  C15  1  0.60114000  0.73960000  0.64589000  1.0
  C  C16  1  0.42857000  0.07482000  0.18184000  1.0
  C  C17  1  0.44799000  0.12830000  0.08119000  1.0
  C  C18  1  0.48116000  0.24468000  0.57095000  1.0
  C  C19  1  0.51581000  0.29187000  0.62443000  1.0
  C  C20  1  0.57877000  0.68424000  0.74718000  1.0
  C  C21  1  0.59685000  0.58187000  0.79585000  1.0
  C  C22  1  0.65448000  0.68859000  0.59367000  1.0
  C  C23  1  0.67216000  0.58623000  0.64111000  1.0
  C  C24  1  0.52404000  0.08624000  0.71676000  1.0
  C  C25  1  0.55525000  0.13252000  0.77162000  1.0
  C  C26  1  0.62312000  0.20640000  0.19731000  1.0
  C  C27  1  0.63998000  0.26139000  0.09656000  1.0
  C  C28  1  0.55622000  0.22225000  0.03776000  1.0
  C  C29  1  0.57678000  0.27923000  0.93078000  1.0
  C  C30  1  0.55069000  0.23558000  0.72599000  1.0
  C  C31  1  0.57402000  0.28524000  0.78407000  1.0
  C  C32  1  0.63722000  0.53211000  0.74243000  1.0
  C  C33  1  0.62385000  0.42429000  0.79210000  1.0
  N  N34  1  0.55106000  0.23085000  0.88108000  1.0
  N  N35  1  0.61114000  0.38215000  0.73608000  1.0
  N  N36  1  0.61488000  0.37567000  0.88992000  1.0
  N  N37  1  0.30051000  0.97764000  0.22473000  1.0
  N  N38  1  0.51394000  0.73414000  0.80556000  1.0
  N  N39  1  0.41896000  0.30668000  0.46483000  1.0
  O  O40  1  0.25072000  0.03016000  0.58162000  1.0
  O  O41  1  0.24878000  0.08248000  0.38596000  1.0
  O  O42  1  0.31969000  0.88737000  0.52725000  1.0
  O  O43  1  0.70382000  0.09980000  0.49855000  1.0
  O  O44  1  0.78187000  0.89678000  0.59953000  1.0
  O  O45  1  0.75761000  0.99870000  0.39892000  1.0
  O  O46  1  0.32205000  0.92545000  0.31451000  1.0
  O  O47  1  0.17533000  0.95506000  0.16867000  1.0
  O  O48  1  0.36205000  0.81840000  0.76407000  1.0
  O  O49  1  0.61193000  0.68807000  0.89176000  1.0
  O  O50  1  0.25240000  0.27345000  0.42497000  1.0
  O  O51  1  0.53091000  0.38760000  0.42380000  1.0
