# generated using pymatgen
data_CuNiH16C19(N5O)2
_symmetry_space_group_name_H-M   'P 1'
_cell_length_a   9.38580000
_cell_length_b   9.86091000
_cell_length_c   11.97610000
_cell_angle_alpha   74.10730000
_cell_angle_beta   76.19280000
_cell_angle_gamma   83.60370000
_symmetry_Int_Tables_number   1
_chemical_formula_structural   CuNiH16C19(N5O)2
_chemical_formula_sum   'Cu2 Ni2 H32 C38 N20 O4'
_cell_volume   1033.98690668
_cell_formula_units_Z   2
loop_
 _symmetry_equiv_pos_site_id
 _symmetry_equiv_pos_as_xyz
  1  'x, y, z'
loop_
 _atom_site_type_symbol
 _atom_site_label
 _atom_site_symmetry_multiplicity
 _atom_site_fract_x
 _atom_site_fract_y
 _atom_site_fract_z
 _atom_site_occupancy
  Cu  Cu0  1  0.95994000  0.65836000  0.98901000  1.0
  Cu  Cu1  1  0.04007000  0.34164000  0.01099000  1.0
  Ni  Ni2  1  0.15924000  0.86353000  0.28316000  1.0
  Ni  Ni3  1  0.84076000  0.13647000  0.71684000  1.0
  H  H4  1  0.23349000  0.95057000  0.87178000  1.0
  H  H5  1  0.76651000  0.04942000  0.12822000  1.0
  H  H6  1  0.39073000  0.12558000  0.72602000  1.0
  H  H7  1  0.60927000  0.87441000  0.27398000  1.0
  H  H8  1  0.51709000  0.29577000  0.79006000  1.0
  H  H9  1  0.48291000  0.70422000  0.20994000  1.0
  H  H10  1  0.47669000  0.28161000  0.00389000  1.0
  H  H11  1  0.52331000  0.71839000  0.99611000  1.0
  H  H12  1  0.36650000  0.20117000  0.19406000  1.0
  H  H13  1  0.63350000  0.79883000  0.80594000  1.0
  H  H14  1  0.14595000  0.04204000  0.44120000  1.0
  H  H15  1  0.85405000  0.95796000  0.55880000  1.0
  H  H16  1  0.29874000  0.14983000  0.37744000  1.0
  H  H17  1  0.70126000  0.85017000  0.62256000  1.0
  H  H18  1  0.47009000  0.95210000  0.43048000  1.0
  H  H19  1  0.52992000  0.04791000  0.56952000  1.0
  H  H20  1  0.32121000  0.94314000  0.55637000  1.0
  H  H21  1  0.67880000  0.05686000  0.44363000  1.0
  H  H22  1  0.40750000  0.75081000  0.39076000  1.0
  H  H23  1  0.59251000  0.24920000  0.60924000  1.0
  H  H24  1  0.33573000  0.70771000  0.54661000  1.0
  H  H25  1  0.66427000  0.29229000  0.45339000  1.0
  H  H26  1  0.11830000  0.64855000  0.60799000  1.0
  H  H27  1  0.88170000  0.35145000  0.39201000  1.0
  H  H28  1  0.87929000  0.58953000  0.70247000  1.0
  H  H29  1  0.12071000  0.41048000  0.29753000  1.0
  H  H30  1  0.63258000  0.52532000  0.69905000  1.0
  H  H31  1  0.36743000  0.47467000  0.30095000  1.0
  H  H32  1  0.56355000  0.56639000  0.50138000  1.0
  H  H33  1  0.43645000  0.43361000  0.49862000  1.0
  H  H34  1  0.74328000  0.65196000  0.31469000  1.0
  H  H35  1  0.25672000  0.34803000  0.68532000  1.0
  C  C36  1  0.00628000  0.72296000  0.19003000  1.0
  C  C37  1  0.99372000  0.27704000  0.80997000  1.0
  C  C38  1  0.09827000  0.82093000  0.08584000  1.0
  C  C39  1  0.90173000  0.17907000  0.91416000  1.0
  C  C40  1  0.26416000  0.00906000  0.02592000  1.0
  C  C41  1  0.73584000  0.99095000  0.97408000  1.0
  C  C42  1  0.28707000  0.02068000  0.90266000  1.0
  C  C43  1  0.71293000  0.97932000  0.09734000  1.0
  C  C44  1  0.37703000  0.12165000  0.81982000  1.0
  C  C45  1  0.62297000  0.87835000  0.18018000  1.0
  C  C46  1  0.44666000  0.21631000  0.85449000  1.0
  C  C47  1  0.55334000  0.78368000  0.14551000  1.0
  C  C48  1  0.42441000  0.20791000  0.97477000  1.0
  C  C49  1  0.57559000  0.79209000  0.02523000  1.0
  C  C50  1  0.33581000  0.10555000  0.06096000  1.0
  C  C51  1  0.66419000  0.89445000  0.93904000  1.0
  C  C52  1  0.32219000  0.10886000  0.18228000  1.0
  C  C53  1  0.67781000  0.89114000  0.81772000  1.0
  C  C54  1  0.26094000  0.04365000  0.39196000  1.0
  C  C55  1  0.73905000  0.95635000  0.60804000  1.0
  C  C56  1  0.35273000  0.93305000  0.46452000  1.0
  C  C57  1  0.64727000  0.06696000  0.53548000  1.0
  C  C58  1  0.32586000  0.78375000  0.46211000  1.0
  C  C59  1  0.67414000  0.21625000  0.53789000  1.0
  C  C60  1  0.08799000  0.69645000  0.52221000  1.0
  C  C61  1  0.91201000  0.30355000  0.47779000  1.0
  C  C62  1  0.94692000  0.66384000  0.51218000  1.0
  C  C63  1  0.05308000  0.33617000  0.48782000  1.0
  C  C64  1  0.84714000  0.60385000  0.61810000  1.0
  C  C65  1  0.15286000  0.39615000  0.38190000  1.0
  C  C66  1  0.70891000  0.56886000  0.61577000  1.0
  C  C67  1  0.29109000  0.43114000  0.38423000  1.0
  C  C68  1  0.67224000  0.59087000  0.50541000  1.0
  C  C69  1  0.32776000  0.40913000  0.49459000  1.0
  C  C70  1  0.77199000  0.64223000  0.39923000  1.0
  C  C71  1  0.22801000  0.35777000  0.60077000  1.0
  C  C72  1  0.91146000  0.68193000  0.40001000  1.0
  C  C73  1  0.08854000  0.31807000  0.59999000  1.0
  N  N74  1  0.17472000  0.90964000  0.11310000  1.0
  N  N75  1  0.82527000  0.09036000  0.88690000  1.0
  N  N76  1  0.26497000  0.01517000  0.27725000  1.0
  N  N77  1  0.73503000  0.98483000  0.72275000  1.0
  N  N78  1  0.18122000  0.77512000  0.43855000  1.0
  N  N79  1  0.81878000  0.22488000  0.56145000  1.0
  N  N80  1  0.01210000  0.73966000  0.29590000  1.0
  N  N81  1  0.98789000  0.26034000  0.70410000  1.0
  N  N82  1  0.17325000  0.49449000  0.97675000  1.0
  N  N83  1  0.82674000  0.50552000  0.02326000  1.0
  N  N84  1  0.25082000  0.50474000  0.04074000  1.0
  N  N85  1  0.74917000  0.49526000  0.95926000  1.0
  N  N86  1  0.32837000  0.52092000  0.09882000  1.0
  N  N87  1  0.67162000  0.47908000  0.90119000  1.0
  N  N88  1  0.96183000  0.72137000  0.81929000  1.0
  N  N89  1  0.03817000  0.27863000  0.18071000  1.0
  N  N90  1  0.02688000  0.82447000  0.75956000  1.0
  N  N91  1  0.97312000  0.17553000  0.24044000  1.0
  N  N92  1  0.08507000  0.92556000  0.69642000  1.0
  N  N93  1  0.91493000  0.07444000  0.30358000  1.0
  O  O94  1  0.93131000  0.63815000  0.16823000  1.0
  O  O95  1  0.06869000  0.36185000  0.83177000  1.0
  O  O96  1  0.08932000  0.81150000  0.98394000  1.0
  O  O97  1  0.91068000  0.18849000  0.01606000  1.0
