# generated using pymatgen
data_CuPH14C9S2NO2
_symmetry_space_group_name_H-M   'P 1'
_cell_length_a   5.90414000
_cell_length_b   7.91368000
_cell_length_c   13.86280000
_cell_angle_alpha   102.88900000
_cell_angle_beta   94.81410000
_cell_angle_gamma   101.46900000
_symmetry_Int_Tables_number   1
_chemical_formula_structural   CuPH14C9S2NO2
_chemical_formula_sum   'Cu2 P2 H28 C18 S4 N2 O4'
_cell_volume   613.18726760
_cell_formula_units_Z   2
loop_
 _symmetry_equiv_pos_site_id
 _symmetry_equiv_pos_as_xyz
  1  'x, y, z'
loop_
 _atom_site_type_symbol
 _atom_site_label
 _atom_site_symmetry_multiplicity
 _atom_site_fract_x
 _atom_site_fract_y
 _atom_site_fract_z
 _atom_site_occupancy
  Cu  Cu0  1  0.09379000  0.95531000  0.68048000  1.0
  Cu  Cu1  1  0.90622000  0.04467000  0.31952000  1.0
  P  P2  1  0.59215000  0.87793000  0.77186000  1.0
  P  P3  1  0.40786000  0.12207000  0.22814000  1.0
  H  H4  1  0.34023000  0.12564000  0.54394000  1.0
  H  H5  1  0.65974000  0.87434000  0.45606000  1.0
  H  H6  1  0.31139000  0.35756000  0.45637000  1.0
  H  H7  1  0.68856000  0.64241000  0.54362000  1.0
  H  H8  1  0.72565000  0.45288000  0.61348000  1.0
  H  H9  1  0.27439000  0.54713000  0.38655000  1.0
  H  H10  1  0.77485000  0.20989000  0.69203000  1.0
  H  H11  1  0.22517000  0.79011000  0.30799000  1.0
  H  H12  1  0.16491000  0.54287000  0.80700000  1.0
  H  H13  1  0.83510000  0.45711000  0.19298000  1.0
  H  H14  1  0.35057000  0.53883000  0.71284000  1.0
  H  H15  1  0.64946000  0.46117000  0.28715000  1.0
  H  H16  1  0.41709000  0.32555000  0.81864000  1.0
  H  H17  1  0.58293000  0.67445000  0.18136000  1.0
  H  H18  1  0.67186000  0.49642000  0.83034000  1.0
  H  H19  1  0.32815000  0.50359000  0.16966000  1.0
  H  H20  1  0.48950000  0.50676000  0.92652000  1.0
  H  H21  1  0.51050000  0.49325000  0.07348000  1.0
  H  H22  1  0.74612000  0.00092000  0.96770000  1.0
  H  H23  1  0.25387000  0.99910000  0.03231000  1.0
  H  H24  1  0.62412000  0.19116000  0.98887000  1.0
  H  H25  1  0.37587000  0.80886000  0.01113000  1.0
  H  H26  1  0.05857000  0.27671000  0.02922000  1.0
  H  H27  1  0.94144000  0.72330000  0.97077000  1.0
  H  H28  1  0.96856000  0.36041000  0.92635000  1.0
  H  H29  1  0.03145000  0.63959000  0.07364000  1.0
  H  H30  1  0.08783000  0.16675000  0.90531000  1.0
  H  H31  1  0.91216000  0.83324000  0.09469000  1.0
  C  C32  1  0.20549000  0.20110000  0.55731000  1.0
  C  C33  1  0.79451000  0.79888000  0.44269000  1.0
  C  C34  1  0.18754000  0.33369000  0.50832000  1.0
  C  C35  1  0.81244000  0.66628000  0.49169000  1.0
  C  C36  1  0.01299000  0.43008000  0.52580000  1.0
  C  C37  1  0.98700000  0.56992000  0.47420000  1.0
  C  C38  1  0.86381000  0.38393000  0.59433000  1.0
  C  C39  1  0.13617000  0.61608000  0.40567000  1.0
  C  C40  1  0.89127000  0.24863000  0.63993000  1.0
  C  C41  1  0.10873000  0.75139000  0.36009000  1.0
  C  C42  1  0.34814000  0.57088000  0.79411000  1.0
  C  C43  1  0.65187000  0.42912000  0.20589000  1.0
  C  C44  1  0.49039000  0.46914000  0.84542000  1.0
  C  C45  1  0.50962000  0.53086000  0.15457000  1.0
  C  C46  1  0.73731000  0.12260000  0.94336000  1.0
  C  C47  1  0.26269000  0.87741000  0.05664000  1.0
  C  C48  1  0.97751000  0.23893000  0.95088000  1.0
  C  C49  1  0.02248000  0.76108000  0.04910000  1.0
  S  S50  1  0.89755000  0.80146000  0.77081000  1.0
  S  S51  1  0.10245000  0.19854000  0.22920000  1.0
  S  S52  1  0.42784000  0.87067000  0.63906000  1.0
  S  S53  1  0.57216000  0.12932000  0.36094000  1.0
  N  N54  1  0.05952000  0.15602000  0.62207000  1.0
  N  N55  1  0.94046000  0.84399000  0.37794000  1.0
  O  O56  1  0.43097000  0.76228000  0.83356000  1.0
  O  O57  1  0.56902000  0.23773000  0.16644000  1.0
  O  O58  1  0.61731000  0.07444000  0.84065000  1.0
  O  O59  1  0.38268000  0.92554000  0.15934000  1.0
