# generated using pymatgen
data_Zr3H14C39N9O16
_symmetry_space_group_name_H-M   'P 1'
_cell_length_a   17.86790000
_cell_length_b   22.21950000
_cell_length_c   22.22170000
_cell_angle_alpha   65.32880000
_cell_angle_beta   88.74860000
_cell_angle_gamma   88.73870000
_symmetry_Int_Tables_number   1
_chemical_formula_structural   Zr3H14C39N9O16
_chemical_formula_sum   'Zr6 H28 C78 N18 O32'
_cell_volume   8014.32413994
_cell_formula_units_Z   2
loop_
 _symmetry_equiv_pos_site_id
 _symmetry_equiv_pos_as_xyz
  1  'x, y, z'
loop_
 _atom_site_type_symbol
 _atom_site_label
 _atom_site_symmetry_multiplicity
 _atom_site_fract_x
 _atom_site_fract_y
 _atom_site_fract_z
 _atom_site_occupancy
  Zr  Zr0  1  0.20537000  0.97382000  0.04689000  1.0
  Zr  Zr1  1  0.93709000  0.95086000  0.02588000  1.0
  Zr  Zr2  1  0.07296000  0.85340000  0.14231000  1.0
  Zr  Zr3  1  0.06942000  0.07200000  0.93098000  1.0
  Zr  Zr4  1  0.09920000  0.89951000  0.96453000  1.0
  Zr  Zr5  1  0.04192000  0.02615000  0.10500000  1.0
  H  H6  1  0.62210000  0.07195000  0.49230000  1.0
  H  H7  1  0.51355000  0.84687000  0.58646000  1.0
  H  H8  1  0.64820000  0.40583000  0.48306000  1.0
  H  H9  1  0.49083000  0.51710000  0.59529000  1.0
  H  H10  1  0.52256000  0.50771000  0.92765000  1.0
  H  H11  1  0.63030000  0.41253000  0.15301000  1.0
  H  H12  1  0.19928000  0.00953000  0.90783000  1.0
  H  H13  1  0.98606000  0.81807000  0.04799000  1.0
  H  H14  1  0.93978000  0.08933000  0.99723000  1.0
  H  H15  1  0.15414000  0.94029000  0.18222000  1.0
  H  H16  1  0.17039000  0.77363000  0.01444000  1.0
  H  H17  1  0.08949000  0.82226000  0.27407000  1.0
  H  H18  1  0.97236000  0.96980000  0.23092000  1.0
  H  H19  1  0.08032000  0.94135000  0.83414000  1.0
  H  H20  1  0.05732000  0.10802000  0.80245000  1.0
  H  H21  1  0.07707000  0.19911000  0.90659000  1.0
  H  H22  1  0.03536000  0.15550000  0.00189000  1.0
  H  H23  1  0.02825000  0.81302000  0.93225000  1.0
  H  H24  1  0.84133000  0.92708000  0.93796000  1.0
  H  H25  1  0.28326000  0.02011000  0.13515000  1.0
  H  H26  1  0.11723000  0.05143000  0.19483000  1.0
  H  H27  1  0.10433000  0.01131000  0.83785000  1.0
  H  H28  1  0.83324000  0.86722000  0.00826000  1.0
  H  H29  1  0.13488000  0.73512000  0.17430000  1.0
  H  H30  1  0.11377000  0.76974000  0.07442000  1.0
  H  H31  1  0.06830000  0.15402000  0.07171000  1.0
  H  H32  1  0.03545000  0.91465000  0.23287000  1.0
  H  H33  1  0.19886000  0.05239000  0.12363000  1.0
  C  C34  1  0.73650000  0.12502000  0.74013000  1.0
  C  C35  1  0.66396000  0.09915000  0.67260000  1.0
  C  C36  1  0.66337000  0.20390000  0.66544000  1.0
  C  C37  1  0.45089000  0.81447000  0.89597000  1.0
  C  C38  1  0.51738000  0.72485000  0.90040000  1.0
  C  C39  1  0.51531000  0.81892000  0.80542000  1.0
  C  C40  1  0.69203000  0.10261000  0.18520000  1.0
  C  C41  1  0.62888000  0.19397000  0.18012000  1.0
  C  C42  1  0.62624000  0.09940000  0.27461000  1.0
  C  C43  1  0.59044000  0.98840000  0.58175000  1.0
  C  C44  1  0.55951000  0.92363000  0.60931000  1.0
  C  C45  1  0.53753000  0.89614000  0.56606000  1.0
  C  C46  1  0.54468000  0.93062000  0.49695000  1.0
  C  C47  1  0.57632000  0.99512000  0.46951000  1.0
  C  C48  1  0.59795000  0.02274000  0.51269000  1.0
  C  C49  1  0.40641000  0.79770000  0.33026000  1.0
  C  C50  1  0.47243000  0.82334000  0.40179000  1.0
  C  C51  1  0.47561000  0.71858000  0.40881000  1.0
  C  C52  1  0.40471000  0.25853000  0.87713000  1.0
  C  C53  1  0.47841000  0.32652000  0.90133000  1.0
  C  C54  1  0.47685000  0.33294000  0.79698000  1.0
  C  C55  1  0.73855000  0.66666667  0.20446000  1.0
  C  C56  1  0.66601000  0.59053000  0.28264000  1.0
  C  C57  1  0.67061000  0.59643000  0.17834000  1.0
  C  C58  1  0.59184000  0.39456000  0.57379000  1.0
  C  C59  1  0.54688000  0.42639000  0.60601000  1.0
  C  C60  1  0.52544000  0.49282000  0.57081000  1.0
  C  C61  1  0.54703000  0.52833000  0.50449000  1.0
  C  C62  1  0.59224000  0.49656000  0.47236000  1.0
  C  C63  1  0.61363000  0.43014000  0.50753000  1.0
  C  C64  1  0.56794000  0.53004000  0.00493000  1.0
  C  C65  1  0.59931000  0.50234000  0.06956000  1.0
  C  C66  1  0.60656000  0.43319000  0.10364000  1.0
  C  C67  1  0.58493000  0.39020000  0.07573000  1.0
  C  C68  1  0.55397000  0.41799000  0.01095000  1.0
  C  C69  1  0.54653000  0.48709000  0.97694000  1.0
  C  C70  1  0.28155000  0.89109000  0.96936000  1.0
  C  C71  1  0.24611000  0.11512000  0.93423000  1.0
  C  C72  1  0.25394000  0.85192000  0.18178000  1.0
  C  C73  1  0.89324000  0.81332000  0.14808000  1.0
  C  C74  1  0.85972000  0.02415000  0.11208000  1.0
  C  C75  1  0.89347000  0.06876000  0.88495000  1.0
  C  C76  1  0.79193000  0.71816000  0.18671000  1.0
  C  C77  1  0.83832000  0.76132000  0.17285000  1.0
  C  C78  1  0.64685000  0.57046000  0.13319000  1.0
  C  C79  1  0.62387000  0.54182000  0.10111000  1.0
  C  C80  1  0.61630000  0.53123000  0.40598000  1.0
  C  C81  1  0.63864000  0.55969000  0.34907000  1.0
  C  C82  1  0.34956000  0.20847000  0.89659000  1.0
  C  C83  1  0.30162000  0.16648000  0.91226000  1.0
  C  C84  1  0.50546000  0.35152000  0.94616000  1.0
  C  C85  1  0.52920000  0.37889000  0.97912000  1.0
  C  C86  1  0.50201000  0.36350000  0.72980000  1.0
  C  C87  1  0.52336000  0.39179000  0.67256000  1.0
  C  C88  1  0.30908000  0.82900000  0.23364000  1.0
  C  C89  1  0.35455000  0.81573000  0.27745000  1.0
  C  C90  1  0.52318000  0.59476000  0.46989000  1.0
  C  C91  1  0.50141000  0.65179000  0.44080000  1.0
  C  C92  1  0.51972000  0.89970000  0.45708000  1.0
  C  C93  1  0.49640000  0.86832000  0.42783000  1.0
  C  C94  1  0.79448000  0.04815000  0.13548000  1.0
  C  C95  1  0.74436000  0.07214000  0.15673000  1.0
  C  C96  1  0.58881000  0.03088000  0.40056000  1.0
  C  C97  1  0.60347000  0.06333000  0.34213000  1.0
  C  C98  1  0.59619000  0.32104000  0.11146000  1.0
  C  C99  1  0.60895000  0.26217000  0.14368000  1.0
  C  C100  1  0.34739000  0.86626000  0.94740000  1.0
  C  C101  1  0.39796000  0.84356000  0.92527000  1.0
  C  C102  1  0.55529000  0.59902000  0.96935000  1.0
  C  C103  1  0.54042000  0.65746000  0.93696000  1.0
  C  C104  1  0.53576000  0.85518000  0.73728000  1.0
  C  C105  1  0.54841000  0.88760000  0.67844000  1.0
  C  C106  1  0.79145000  0.10644000  0.79041000  1.0
  C  C107  1  0.83880000  0.09121000  0.83287000  1.0
  C  C108  1  0.63801000  0.05369000  0.64803000  1.0
  C  C109  1  0.61486000  0.02025000  0.62094000  1.0
  C  C110  1  0.63689000  0.27064000  0.63508000  1.0
  C  C111  1  0.61524000  0.32789000  0.60773000  1.0
  N  N112  1  0.71328000  0.07736000  0.72252000  1.0
  N  N113  1  0.63732000  0.16178000  0.64167000  1.0
  N  N114  1  0.71330000  0.18876000  0.71441000  1.0
  N  N115  1  0.47333000  0.75169000  0.93314000  1.0
  N  N116  1  0.53936000  0.75543000  0.83629000  1.0
  N  N117  1  0.47146000  0.85142000  0.83262000  1.0
  N  N118  1  0.67225000  0.16607000  0.14791000  1.0
  N  N119  1  0.60484000  0.16361000  0.24367000  1.0
  N  N120  1  0.66958000  0.06596000  0.24806000  1.0
  N  N121  1  0.42641000  0.84526000  0.34936000  1.0
  N  N122  1  0.49808000  0.76055000  0.43415000  1.0
  N  N123  1  0.42983000  0.73401000  0.35686000  1.0
  N  N124  1  0.42899000  0.27678000  0.92405000  1.0
  N  N125  1  0.50413000  0.35709000  0.83838000  1.0
  N  N126  1  0.42707000  0.28383000  0.81308000  1.0
  N  N127  1  0.71362000  0.64111000  0.26772000  1.0
  N  N128  1  0.64312000  0.56534000  0.24065000  1.0
  N  N129  1  0.71837000  0.64755000  0.15689000  1.0
  O  O130  1  0.24373000  0.03744000  0.10281000  1.0
  O  O131  1  0.29041000  0.92566000  0.00174000  1.0
  O  O132  1  0.27266000  0.90365000  0.13057000  1.0
  O  O133  1  0.18104000  0.13068000  0.91084000  1.0
  O  O134  1  0.19265000  0.82128000  0.19267000  1.0
  O  O135  1  0.26960000  0.05855000  0.97580000  1.0
  O  O136  1  0.21993000  0.87485000  0.95253000  1.0
  O  O137  1  0.14025000  0.89641000  0.05643000  1.0
  O  O138  1  0.16275000  0.99525000  0.94392000  1.0
  O  O139  1  0.13154000  0.94588000  0.14090000  1.0
  O  O140  1  0.11603000  0.03883000  0.02803000  1.0
  O  O141  1  0.04153000  0.16455000  0.93103000  1.0
  O  O142  1  0.11948000  0.78413000  0.02364000  1.0
  O  O143  1  0.02275000  0.97544000  0.95834000  1.0
  O  O144  1  0.00908000  0.85844000  0.04499000  1.0
  O  O145  1  0.00105000  0.93789000  0.10427000  1.0
  O  O146  1  0.97616000  0.05319000  0.00949000  1.0
  O  O147  1  0.09507000  0.76003000  0.14465000  1.0
  O  O148  1  0.95651000  0.80245000  0.17445000  1.0
  O  O149  1  0.87089000  0.86555000  0.09839000  1.0
  O  O150  1  0.12039000  0.06856000  0.14683000  1.0
  O  O151  1  0.85049000  0.99478000  0.07473000  1.0
  O  O152  1  0.05546000  0.84746000  0.23864000  1.0
  O  O153  1  0.02458000  0.96551000  0.21969000  1.0
  O  O154  1  0.02776000  0.13845000  0.05334000  1.0
  O  O155  1  0.92182000  0.03656000  0.13196000  1.0
  O  O156  1  0.86933000  0.89350000  0.97417000  1.0
  O  O157  1  0.09458000  0.08279000  0.83495000  1.0
  O  O158  1  0.87161000  0.02056000  0.93855000  1.0
  O  O159  1  0.95578000  0.09709000  0.87334000  1.0
  O  O160  1  0.11623000  0.96176000  0.85220000  1.0
  O  O161  1  0.04111000  0.85951000  0.91327000  1.0
