# generated using pymatgen
data_V2CuP2H14C12(NO5)2
_symmetry_space_group_name_H-M   'P 1'
_cell_length_a   9.41654000
_cell_length_b   9.74422000
_cell_length_c   12.05510000
_cell_angle_alpha   106.22400000
_cell_angle_beta   105.15200000
_cell_angle_gamma   108.63300000
_symmetry_Int_Tables_number   1
_chemical_formula_structural   V2CuP2H14C12(NO5)2
_chemical_formula_sum   'V4 Cu2 P4 H28 C24 N4 O20'
_cell_volume   928.67526158
_cell_formula_units_Z   2
loop_
 _symmetry_equiv_pos_site_id
 _symmetry_equiv_pos_as_xyz
  1  'x, y, z'
loop_
 _atom_site_type_symbol
 _atom_site_label
 _atom_site_symmetry_multiplicity
 _atom_site_fract_x
 _atom_site_fract_y
 _atom_site_fract_z
 _atom_site_occupancy
  V  V0  1  0.21312000  0.14340000  0.88555000  1.0
  V  V1  1  0.82775000  0.25815000  0.11463000  1.0
  V  V2  1  0.01393000  0.05042000  0.04959000  1.0
  V  V3  1  0.46454000  0.00120000  0.95071000  1.0
  Cu  Cu4  1  0.90592000  0.22283000  0.70608000  1.0
  Cu  Cu5  1  0.69966000  0.51672000  0.29393000  1.0
  P  P6  1  0.70227000  0.99764000  0.80512000  1.0
  P  P7  1  0.39726000  0.19286000  0.19507000  1.0
  P  P8  1  0.08446000  0.41085000  0.00462000  1.0
  P  P9  1  0.57979000  0.40628000  0.99536000  1.0
  H  H10  1  0.22190000  0.52416000  0.82062000  1.0
  H  H11  1  0.90076000  0.70277000  0.17913000  1.0
  H  H12  1  0.41740000  0.66131000  0.73908000  1.0
  H  H13  1  0.17769000  0.92147000  0.26036000  1.0
  H  H14  1  0.36040000  0.53908000  0.50780000  1.0
  H  H15  1  0.35208000  0.03104000  0.49162000  1.0
  H  H16  1  0.11323000  0.28918000  0.37118000  1.0
  H  H17  1  0.24184000  0.91804000  0.62851000  1.0
  H  H18  1  0.91388000  0.06529000  0.27585000  1.0
  H  H19  1  0.13771000  0.78968000  0.72422000  1.0
  H  H20  1  0.67587000  0.80430000  0.18025000  1.0
  H  H21  1  0.99531000  0.62413000  0.81981000  1.0
  H  H22  1  0.52524000  0.72247000  0.31167000  1.0
  H  H23  1  0.71358000  0.41047000  0.68822000  1.0
  H  H24  1  0.61362000  0.91618000  0.53267000  1.0
  H  H25  1  0.58099000  0.38330000  0.46728000  1.0
  H  H26  1  0.21315000  0.69287000  0.06887000  1.0
  H  H27  1  0.64430000  0.62420000  0.93132000  1.0
  H  H28  1  0.35174000  0.60433000  0.05882000  1.0
  H  H29  1  0.79293000  0.54576000  0.94124000  1.0
  H  H30  1  0.28825000  0.62841000  0.18810000  1.0
  H  H31  1  0.60023000  0.44070000  0.81194000  1.0
  H  H32  1  0.83707000  0.85808000  0.71354000  1.0
  H  H33  1  0.62391000  0.14519000  0.28642000  1.0
  H  H34  1  0.62053000  0.75112000  0.63593000  1.0
  H  H35  1  0.48518000  0.11561000  0.36416000  1.0
  H  H36  1  0.72371000  0.75449000  0.78485000  1.0
  H  H37  1  0.43946000  0.97011000  0.21522000  1.0
  C  C38  1  0.20460000  0.47573000  0.72268000  1.0
  C  C39  1  0.98146000  0.75256000  0.27708000  1.0
  C  C40  1  0.31314000  0.55024000  0.67599000  1.0
  C  C41  1  0.13667000  0.87376000  0.32360000  1.0
  C  C42  1  0.28008000  0.48316000  0.54852000  1.0
  C  C43  1  0.23108000  0.93442000  0.45107000  1.0
  C  C44  1  0.14207000  0.34281000  0.47143000  1.0
  C  C45  1  0.17032000  0.87133000  0.52831000  1.0
  C  C46  1  0.03950000  0.27402000  0.52510000  1.0
  C  C47  1  0.01417000  0.74883000  0.47481000  1.0
  C  C48  1  0.89405000  0.12346000  0.45617000  1.0
  C  C49  1  0.93773000  0.66730000  0.54386000  1.0
  C  C50  1  0.84696000  0.02706000  0.33094000  1.0
  C  C51  1  0.01581000  0.69626000  0.66914000  1.0
  C  C52  1  0.71272000  0.88193000  0.27714000  1.0
  C  C53  1  0.93539000  0.60482000  0.72290000  1.0
  C  C54  1  0.62857000  0.83658000  0.34970000  1.0
  C  C55  1  0.77882000  0.48664000  0.65026000  1.0
  C  C56  1  0.67771000  0.94078000  0.47239000  1.0
  C  C57  1  0.70532000  0.46821000  0.52758000  1.0
  C  C58  1  0.25059000  0.60351000  0.08796000  1.0
  C  C59  1  0.66265000  0.51575000  0.91211000  1.0
  C  C60  1  0.72209000  0.82324000  0.72682000  1.0
  C  C61  1  0.49568000  0.09684000  0.27321000  1.0
  N  N62  1  0.80770000  0.08018000  0.52448000  1.0
  N  N63  1  0.78310000  0.55564000  0.47551000  1.0
  N  N64  1  0.07080000  0.34258000  0.64853000  1.0
  N  N65  1  0.92195000  0.69376000  0.35136000  1.0
  O  O66  1  0.07793000  0.11702000  0.75627000  1.0
  O  O67  1  0.82204000  0.36119000  0.24395000  1.0
  O  O68  1  0.71067000  0.10157000  0.73029000  1.0
  O  O69  1  0.48027000  0.37159000  0.26994000  1.0
  O  O70  1  0.00410000  0.39453000  0.87034000  1.0
  O  O71  1  0.63341000  0.52411000  0.12965000  1.0
  O  O72  1  0.96822000  0.41347000  0.07610000  1.0
  O  O73  1  0.39207000  0.33726000  0.92375000  1.0
  O  O74  1  0.83770000  0.08387000  0.93805000  1.0
  O  O75  1  0.39980000  0.14642000  0.06213000  1.0
  O  O76  1  0.53439000  0.93784000  0.81590000  1.0
  O  O77  1  0.21866000  0.12209000  0.18437000  1.0
  O  O78  1  0.30743000  0.02821000  0.83033000  1.0
  O  O79  1  0.97730000  0.19816000  0.16982000  1.0
  O  O80  1  0.15352000  0.28778000  0.01387000  1.0
  O  O81  1  0.63980000  0.27408000  0.98626000  1.0
  O  O82  1  0.91011000  0.88677000  0.05445000  1.0
  O  O83  1  0.35596000  0.83289000  0.94620000  1.0
  O  O84  1  0.07989000  0.99296000  0.92857000  1.0
  O  O85  1  0.65151000  0.06486000  0.07178000  1.0
