# generated using pymatgen
data_HgH8C12(BrN)2
_symmetry_space_group_name_H-M   'P 1'
_cell_length_a   4.65003500
_cell_length_b   8.41743584
_cell_length_c   8.73933000
_cell_angle_alpha   111.60043626
_cell_angle_beta   96.33570000
_cell_angle_gamma   93.19944708
_symmetry_Int_Tables_number   1
_chemical_formula_structural   HgH8C12(BrN)2
_chemical_formula_sum   'Hg1 H8 C12 Br2 N2'
_cell_volume   314.37859229
_cell_formula_units_Z   1
loop_
 _symmetry_equiv_pos_site_id
 _symmetry_equiv_pos_as_xyz
  1  'x, y, z'
loop_
 _atom_site_type_symbol
 _atom_site_label
 _atom_site_symmetry_multiplicity
 _atom_site_fract_x
 _atom_site_fract_y
 _atom_site_fract_z
 _atom_site_occupancy
  Br  Br0  1  0.16886500  0.21530500  0.86901000  1.0
  Br  Br1  1  0.83111000  0.78470000  0.13097000  1.0
  C  C2  1  0.66897000  0.24047000  0.23028000  1.0
  C  C3  1  0.33103000  0.75953000  0.76972500  1.0
  C  C4  1  0.20097000  0.60173000  0.46633000  1.0
  C  C5  1  0.79901500  0.39827500  0.53367500  1.0
  C  C6  1  0.84249000  0.37459000  0.36499500  1.0
  C  C7  1  0.15750500  0.62540500  0.63501000  1.0
  C  C8  1  0.41965000  0.71152000  0.44151500  1.0
  C  C9  1  0.58034500  0.28847500  0.55849000  1.0
  C  C10  1  0.46033500  0.13746500  0.25964000  1.0
  C  C11  1  0.53968000  0.86254000  0.74036500  1.0
  C  C12  1  0.58522000  0.83795000  0.57513000  1.0
  C  C13  1  0.41479000  0.16204000  0.42487000  1.0
  H  H14  1  0.70564500  0.22297500  0.10441500  1.0
  H  H15  1  0.29435500  0.77703500  0.89558500  1.0
  H  H16  1  0.45499500  0.69168500  0.31487000  1.0
  H  H17  1  0.54500000  0.30831000  0.68513500  1.0
  H  H18  1  0.32397500  0.03678500  0.15616500  1.0
  H  H19  1  0.67603500  0.96321500  0.84383500  1.0
  H  H20  1  0.75336500  0.92119500  0.55537000  1.0
  H  H21  1  0.24664500  0.07879500  0.44463000  1.0
  Hg  Hg22  1  0.99999000  0.50000000  0.00000000  1.0
  N  N23  1  0.04189000  0.47724000  0.33462500  1.0
  N  N24  1  0.95810000  0.52276000  0.66537500  1.0
