# generated using pymatgen
data_CuH17C8SIN3
_symmetry_space_group_name_H-M   'P 1'
_cell_length_a   7.11583000
_cell_length_b   12.60860000
_cell_length_c   14.06590000
_cell_angle_alpha   98.84060000
_cell_angle_beta   90.00000000
_cell_angle_gamma   90.00000000
_symmetry_Int_Tables_number   1
_chemical_formula_structural   CuH17C8SIN3
_chemical_formula_sum   'Cu4 H68 C32 S4 I4 N12'
_cell_volume   1247.00882377
_cell_formula_units_Z   4
loop_
 _symmetry_equiv_pos_site_id
 _symmetry_equiv_pos_as_xyz
  1  'x, y, z'
loop_
 _atom_site_type_symbol
 _atom_site_label
 _atom_site_symmetry_multiplicity
 _atom_site_fract_x
 _atom_site_fract_y
 _atom_site_fract_z
 _atom_site_occupancy
  Cu  Cu0  1  0.43295000  0.83457000  0.21719000  1.0
  Cu  Cu1  1  0.93295000  0.66543000  0.28281000  1.0
  Cu  Cu2  1  0.56705000  0.16543000  0.78281000  1.0
  Cu  Cu3  1  0.06705000  0.33457000  0.71719000  1.0
  H  H4  1  0.76990000  0.96645000  0.22768000  1.0
  H  H5  1  0.26992000  0.53356000  0.27232000  1.0
  H  H6  1  0.23009000  0.03355000  0.77232000  1.0
  H  H7  1  0.73009000  0.46644000  0.72768000  1.0
  H  H8  1  0.98596000  0.89231000  0.22508000  1.0
  H  H9  1  0.48597000  0.60770000  0.27492000  1.0
  H  H10  1  0.01403000  0.10769000  0.77492000  1.0
  H  H11  1  0.51403000  0.39231000  0.72508000  1.0
  H  H12  1  0.91497000  0.91477000  0.41336000  1.0
  H  H13  1  0.41498000  0.58523000  0.08664000  1.0
  H  H14  1  0.08503000  0.08523000  0.58663000  1.0
  H  H15  1  0.58503000  0.41477000  0.91336000  1.0
  H  H16  1  0.73654000  0.84034000  0.46464000  1.0
  H  H17  1  0.23654000  0.65966000  0.03537000  1.0
  H  H18  1  0.26347000  0.15966000  0.53536000  1.0
  H  H19  1  0.76346000  0.34034000  0.96464000  1.0
  H  H20  1  0.67061000  0.95693000  0.41412000  1.0
  H  H21  1  0.17062000  0.54307000  0.08588000  1.0
  H  H22  1  0.32939000  0.04307000  0.58588000  1.0
  H  H23  1  0.82939000  0.45693000  0.91412000  1.0
  H  H24  1  0.86363000  0.87262000  0.05901000  1.0
  H  H25  1  0.36363000  0.62738000  0.44099000  1.0
  H  H26  1  0.13637000  0.12738000  0.94099000  1.0
  H  H27  1  0.63636000  0.37262000  0.55901000  1.0
  H  H28  1  0.84151000  0.74858000  0.10328000  1.0
  H  H29  1  0.34152000  0.75142000  0.39672000  1.0
  H  H30  1  0.15848000  0.25142000  0.89672000  1.0
  H  H31  1  0.65847000  0.24858000  0.60328000  1.0
  H  H32  1  0.90485000  0.71956000  0.94295000  1.0
  H  H33  1  0.40485000  0.78044000  0.55705000  1.0
  H  H34  1  0.09515000  0.28044000  0.05705000  1.0
  H  H35  1  0.59514000  0.21956000  0.44295000  1.0
  H  H36  1  0.76995000  0.64547000  0.85072000  1.0
  H  H37  1  0.26996000  0.85453000  0.64928000  1.0
  H  H38  1  0.23005000  0.35453000  0.14928000  1.0
  H  H39  1  0.73004000  0.14547000  0.35072000  1.0
  H  H40  1  0.72011000  0.63458000  0.97263000  1.0
  H  H41  1  0.22012000  0.86542000  0.52737000  1.0
  H  H42  1  0.27989000  0.36543000  0.02737000  1.0
  H  H43  1  0.77988000  0.13458000  0.47263000  1.0
  H  H44  1  0.45605000  0.69001000  0.81580000  1.0
  H  H45  1  0.95605000  0.80999000  0.68420000  1.0
  H  H46  1  0.54396000  0.30999000  0.18420000  1.0
  H  H47  1  0.04394000  0.19001000  0.31580000  1.0
  H  H48  1  0.58345000  0.80096000  0.77883000  1.0
  H  H49  1  0.08346000  0.69903000  0.72116000  1.0
  H  H50  1  0.41656000  0.19904000  0.22117000  1.0
  H  H51  1  0.91655000  0.30096000  0.27884000  1.0
  H  H52  1  0.37507000  0.93042000  0.85903000  1.0
  H  H53  1  0.87508000  0.56958000  0.64096000  1.0
  H  H54  1  0.62493000  0.06958000  0.14097000  1.0
  H  H55  1  0.12494000  0.43041000  0.35904000  1.0
  H  H56  1  0.20975000  0.82154000  0.84273000  1.0
  H  H57  1  0.70976000  0.67845000  0.65727000  1.0
  H  H58  1  0.79026000  0.17846000  0.15727000  1.0
  H  H59  1  0.29025000  0.32153000  0.34273000  1.0
  H  H60  1  0.24131000  0.91986000  0.11199000  1.0
  H  H61  1  0.74132000  0.58014000  0.38800000  1.0
  H  H62  1  0.75869000  0.08015000  0.88800000  1.0
  H  H63  1  0.25868000  0.41985000  0.61200000  1.0
  H  H64  1  0.09625000  0.92784000  0.00964000  1.0
  H  H65  1  0.59626000  0.57217000  0.49036000  1.0
  H  H66  1  0.90375000  0.07217000  0.99036000  1.0
  H  H67  1  0.40374000  0.42782000  0.50965000  1.0
  H  H68  1  0.29840000  0.01179000  0.03221000  1.0
  H  H69  1  0.79841000  0.48821000  0.46779000  1.0
  H  H70  1  0.70161000  0.98821000  0.96778000  1.0
  H  H71  1  0.20160000  0.51178000  0.53222000  1.0
  C  C72  1  0.83384000  0.88630000  0.21208000  1.0
  C  C73  1  0.33386000  0.61370000  0.28792000  1.0
  C  C74  1  0.16615000  0.11369000  0.78792000  1.0
  C  C75  1  0.66614000  0.38630000  0.71208000  1.0
  C  C76  1  0.76770000  0.88869000  0.40819000  1.0
  C  C77  1  0.26770000  0.61132000  0.09181000  1.0
  C  C78  1  0.23230000  0.11131000  0.59181000  1.0
  C  C79  1  0.73230000  0.38869000  0.90819000  1.0
  C  C80  1  0.52630000  0.81986000  0.00495000  1.0
  C  C81  1  0.02630000  0.68014000  0.49505000  1.0
  C  C82  1  0.47370000  0.18014000  0.99505000  1.0
  C  C83  1  0.97369000  0.31985000  0.50496000  1.0
  C  C84  1  0.78764000  0.83167000  0.11109000  1.0
  C  C85  1  0.28764000  0.66834000  0.38891000  1.0
  C  C86  1  0.21236000  0.16833000  0.88890000  1.0
  C  C87  1  0.71235000  0.33167000  0.61109000  1.0
  C  C88  1  0.76254000  0.69046000  0.92370000  1.0
  C  C89  1  0.26256000  0.80954000  0.57630000  1.0
  C  C90  1  0.23746000  0.30954000  0.07630000  1.0
  C  C91  1  0.73744000  0.19046000  0.42370000  1.0
  C  C92  1  0.50673000  0.77289000  0.83813000  1.0
  C  C93  1  0.00674000  0.72711000  0.66187000  1.0
  C  C94  1  0.49327000  0.22711000  0.16187000  1.0
  C  C95  1  0.99326000  0.27289000  0.33813000  1.0
  C  C96  1  0.34618000  0.84839000  0.87403000  1.0
  C  C97  1  0.84619000  0.65161000  0.62596000  1.0
  C  C98  1  0.65383000  0.15161000  0.12596000  1.0
  C  C99  1  0.15383000  0.34838000  0.37404000  1.0
  C  C100  1  0.24143000  0.93123000  0.03611000  1.0
  C  C101  1  0.74143000  0.56877000  0.46388000  1.0
  C  C102  1  0.75857000  0.06878000  0.96388000  1.0
  C  C103  1  0.25857000  0.43122000  0.53612000  1.0
  S  S104  1  0.73070000  0.80417000  0.29407000  1.0
  S  S105  1  0.23071000  0.69584000  0.20593000  1.0
  S  S106  1  0.26930000  0.19583000  0.70593000  1.0
  S  S107  1  0.76929000  0.30417000  0.79407000  1.0
  I  I108  1  0.30951000  0.00568000  0.32475000  1.0
  I  I109  1  0.80952000  0.49432000  0.17525000  1.0
  I  I110  1  0.69048000  0.99433000  0.67525000  1.0
  I  I111  1  0.19049000  0.50568000  0.82475000  1.0
  N  N112  1  0.58515000  0.83660000  0.09433000  1.0
  N  N113  1  0.08516000  0.66341000  0.40567000  1.0
  N  N114  1  0.41484000  0.16341000  0.90567000  1.0
  N  N115  1  0.91484000  0.33659000  0.59433000  1.0
  N  N116  1  0.62677000  0.77763000  0.92385000  1.0
  N  N117  1  0.12678000  0.72237000  0.57615000  1.0
  N  N118  1  0.37323000  0.22237000  0.07615000  1.0
  N  N119  1  0.87322000  0.27763000  0.42385000  1.0
  N  N120  1  0.34770000  0.84719000  0.97800000  1.0
  N  N121  1  0.84771000  0.65281000  0.52200000  1.0
  N  N122  1  0.65229000  0.15281000  0.02200000  1.0
  N  N123  1  0.15229000  0.34718000  0.47800000  1.0
