# generated using pymatgen
data_UH8C12(NO3)2
_symmetry_space_group_name_H-M   'P 1'
_cell_length_a   7.68262000
_cell_length_b   7.68261000
_cell_length_c   11.87610000
_cell_angle_alpha   93.74370000
_cell_angle_beta   93.74430000
_cell_angle_gamma   113.03600000
_symmetry_Int_Tables_number   1
_chemical_formula_structural   UH8C12(NO3)2
_chemical_formula_sum   'U2 H16 C24 N4 O12'
_cell_volume   640.52836829
_cell_formula_units_Z   2
loop_
 _symmetry_equiv_pos_site_id
 _symmetry_equiv_pos_as_xyz
  1  'x, y, z'
loop_
 _atom_site_type_symbol
 _atom_site_label
 _atom_site_symmetry_multiplicity
 _atom_site_fract_x
 _atom_site_fract_y
 _atom_site_fract_z
 _atom_site_occupancy
  U  U0  1  0.19609000  0.36269000  0.21056000  1.0
  U  U1  1  0.36269000  0.19609000  0.71056000  1.0
  H  H2  1  0.64451000  0.66429000  0.13902000  1.0
  H  H3  1  0.66429000  0.64451000  0.63902000  1.0
  H  H4  1  0.98322000  0.84379000  0.22008000  1.0
  H  H5  1  0.84378000  0.98321000  0.72009000  1.0
  H  H6  1  0.08331000  0.78105000  0.41366000  1.0
  H  H7  1  0.78101000  0.08329000  0.91367000  1.0
  H  H8  1  0.83702000  0.54942000  0.51999000  1.0
  H  H9  1  0.54939000  0.83701000  0.01999000  1.0
  H  H10  1  0.00842000  0.19738000  0.46810000  1.0
  H  H11  1  0.19735000  0.00840000  0.96809000  1.0
  H  H12  1  0.69984000  0.00017000  0.53993000  1.0
  H  H13  1  0.00013000  0.69981000  0.03992000  1.0
  H  H14  1  0.40167000  0.88380000  0.40870000  1.0
  H  H15  1  0.88377000  0.40165000  0.90868000  1.0
  H  H16  1  0.41933000  0.99836000  0.21214000  1.0
  H  H17  1  0.99835000  0.41932000  0.71212000  1.0
  C  C18  1  0.45546000  0.36773000  0.44737000  1.0
  C  C19  1  0.36773000  0.45544000  0.94737000  1.0
  C  C20  1  0.61353000  0.49691000  0.38700000  1.0
  C  C21  1  0.49690000  0.61352000  0.88700000  1.0
  C  C22  1  0.69310000  0.64615000  0.22381000  1.0
  C  C23  1  0.64615000  0.69310000  0.72381000  1.0
  C  C24  1  0.88144000  0.74386000  0.26906000  1.0
  C  C25  1  0.74384000  0.88143000  0.76906000  1.0
  C  C26  1  0.93654000  0.71101000  0.37695000  1.0
  C  C27  1  0.71098000  0.93653000  0.87695000  1.0
  C  C28  1  0.80022000  0.58422000  0.43684000  1.0
  C  C29  1  0.58419000  0.80021000  0.93684000  1.0
  C  C30  1  0.87509000  0.14910000  0.41403000  1.0
  C  C31  1  0.14908000  0.87508000  0.91402000  1.0
  C  C32  1  0.70268000  0.03777000  0.45307000  1.0
  C  C33  1  0.03775000  0.70266000  0.95306000  1.0
  C  C34  1  0.53595000  0.97562000  0.38027000  1.0
  C  C35  1  0.97560000  0.53593000  0.88026000  1.0
  C  C36  1  0.54529000  0.03550000  0.27159000  1.0
  C  C37  1  0.03548000  0.54528000  0.77158000  1.0
  C  C38  1  0.72190000  0.14953000  0.23916000  1.0
  C  C39  1  0.14952000  0.72189000  0.73915000  1.0
  C  C40  1  0.74295000  0.22530000  0.12480000  1.0
  C  C41  1  0.22531000  0.74295000  0.62480000  1.0
  N  N42  1  0.56069000  0.52430000  0.28112000  1.0
  N  N43  1  0.52430000  0.56068000  0.78112000  1.0
  N  N44  1  0.88543000  0.20113000  0.30777000  1.0
  N  N45  1  0.20111000  0.88543000  0.80776000  1.0
  O  O46  1  0.20827000  0.59357000  0.26303000  1.0
  O  O47  1  0.59357000  0.20826000  0.76304000  1.0
  O  O48  1  0.18250000  0.12889000  0.16103000  1.0
  O  O49  1  0.12889000  0.18249000  0.66103000  1.0
  O  O50  1  0.29184000  0.29486000  0.39284000  1.0
  O  O51  1  0.29485000  0.29182000  0.89284000  1.0
  O  O52  1  0.49513000  0.33934000  0.54840000  1.0
  O  O53  1  0.33934000  0.49511000  0.04839000  1.0
  O  O54  1  0.92123000  0.30828000  0.10379000  1.0
  O  O55  1  0.30828000  0.92122000  0.60379000  1.0
  O  O56  1  0.60473000  0.20927000  0.05948000  1.0
  O  O57  1  0.20928000  0.60473000  0.55947000  1.0
