# generated using pymatgen
data_Cd5H58C74(N2O11)2
_symmetry_space_group_name_H-M   'P 1'
_cell_length_a   9.91537000
_cell_length_b   15.01830000
_cell_length_c   24.92300000
_cell_angle_alpha   89.99980000
_cell_angle_beta   96.30500000
_cell_angle_gamma   89.99990000
_symmetry_Int_Tables_number   1
_chemical_formula_structural   Cd5H58C74(N2O11)2
_chemical_formula_sum   'Cd10 H116 C148 N8 O44'
_cell_volume   3688.88534322
_cell_formula_units_Z   2
loop_
 _symmetry_equiv_pos_site_id
 _symmetry_equiv_pos_as_xyz
  1  'x, y, z'
loop_
 _atom_site_type_symbol
 _atom_site_label
 _atom_site_symmetry_multiplicity
 _atom_site_fract_x
 _atom_site_fract_y
 _atom_site_fract_z
 _atom_site_occupancy
  Cd  Cd0  1  0.83544000  0.59676000  0.46425000  1.0
  Cd  Cd1  1  0.75281000  0.84416000  0.01380000  1.0
  Cd  Cd2  1  0.66456000  0.09674000  0.03575000  1.0
  Cd  Cd3  1  0.74720000  0.34417000  0.48619000  1.0
  Cd  Cd4  1  0.16456000  0.40326000  0.53575000  1.0
  Cd  Cd5  1  0.24719000  0.15584000  0.98620000  1.0
  Cd  Cd6  1  0.33546000  0.90325000  0.96425000  1.0
  Cd  Cd7  1  0.25280000  0.65585000  0.51380000  1.0
  Cd  Cd8  1  0.00001000  0.99999000  1.00000000  1.0
  Cd  Cd9  1  0.50000000  0.50000000  0.50000000  1.0
  H  H10  1  0.74332000  0.62380000  0.59840000  1.0
  H  H11  1  0.74360000  0.78737000  0.88471000  1.0
  H  H12  1  0.15990000  0.53544000  0.65393000  1.0
  H  H13  1  0.29813000  0.52749000  0.74233000  1.0
  H  H14  1  0.32532000  0.55525000  0.84107000  1.0
  H  H15  1  0.13533000  0.62502000  0.88465000  1.0
  H  H16  1  0.92204000  0.66510000  0.83111000  1.0
  H  H17  1  0.66248000  0.69391000  0.71259000  1.0
  H  H18  1  0.71940000  0.66058000  0.77935000  1.0
  H  H19  1  0.91648000  0.02412000  0.81254000  1.0
  H  H20  1  0.94648000  0.06905000  0.71867000  1.0
  H  H21  1  0.91152000  0.03988000  0.62009000  1.0
  H  H22  1  0.81462000  0.89379000  0.58642000  1.0
  H  H23  1  0.75712000  0.77868000  0.64963000  1.0
  H  H24  1  0.02505000  0.63285000  0.37018000  1.0
  H  H25  1  0.01435000  0.67685000  0.27382000  1.0
  H  H26  1  0.57670000  0.68683000  0.27070000  1.0
  H  H27  1  0.60710000  0.64385000  0.36756000  1.0
  H  H28  1  0.97384000  0.78904000  0.21646000  1.0
  H  H29  1  0.95535000  0.83933000  0.12091000  1.0
  H  H30  1  0.57839000  0.71894000  0.08786000  1.0
  H  H31  1  0.58616000  0.65818000  0.18064000  1.0
  H  H32  1  0.09897000  0.63630000  0.99672000  1.0
  H  H33  1  0.97232000  0.67522000  0.03759000  1.0
  H  H34  1  0.93463000  0.66884000  0.96674000  1.0
  H  H35  1  0.95611000  0.89664000  0.45254000  1.0
  H  H36  1  0.83899000  0.80402000  0.44988000  1.0
  H  H37  1  0.94203000  0.82213000  0.39692000  1.0
  H  H38  1  0.14170000  0.02102000  0.92077000  1.0
  H  H39  1  0.75668000  0.12380000  0.90160000  1.0
  H  H40  1  0.75638000  0.28738000  0.61529000  1.0
  H  H41  1  0.34010000  0.03544000  0.84607000  1.0
  H  H42  1  0.20188000  0.02749000  0.75767000  1.0
  H  H43  1  0.17470000  0.05525000  0.65893000  1.0
  H  H44  1  0.36468000  0.12501000  0.61535000  1.0
  H  H45  1  0.57797000  0.16509000  0.66889000  1.0
  H  H46  1  0.83752000  0.19393000  0.78741000  1.0
  H  H47  1  0.78060000  0.16059000  0.72065000  1.0
  H  H48  1  0.58350000  0.52413000  0.68746000  1.0
  H  H49  1  0.55350000  0.56906000  0.78133000  1.0
  H  H50  1  0.58846000  0.53988000  0.87991000  1.0
  H  H51  1  0.68536000  0.39379000  0.91359000  1.0
  H  H52  1  0.74286000  0.27869000  0.85037000  1.0
  H  H53  1  0.47496000  0.13284000  0.12983000  1.0
  H  H54  1  0.48566000  0.17684000  0.22618000  1.0
  H  H55  1  0.92332000  0.18682000  0.22930000  1.0
  H  H56  1  0.89292000  0.14384000  0.13244000  1.0
  H  H57  1  0.52619000  0.28904000  0.28354000  1.0
  H  H58  1  0.54471000  0.33934000  0.37909000  1.0
  H  H59  1  0.92164000  0.21893000  0.41215000  1.0
  H  H60  1  0.91385000  0.15816000  0.31936000  1.0
  H  H61  1  0.40103000  0.13631000  0.50326000  1.0
  H  H62  1  0.52768000  0.17523000  0.46239000  1.0
  H  H63  1  0.56538000  0.16884000  0.53324000  1.0
  H  H64  1  0.54388000  0.39662000  0.04745000  1.0
  H  H65  1  0.66099000  0.30401000  0.05012000  1.0
  H  H66  1  0.55796000  0.32213000  0.10307000  1.0
  H  H67  1  0.35831000  0.52102000  0.57923000  1.0
  H  H68  1  0.25668000  0.37620000  0.40160000  1.0
  H  H69  1  0.25641000  0.21262000  0.11530000  1.0
  H  H70  1  0.84010000  0.46457000  0.34607000  1.0
  H  H71  1  0.70187000  0.47251000  0.25767000  1.0
  H  H72  1  0.67470000  0.44475000  0.15893000  1.0
  H  H73  1  0.86468000  0.37497000  0.11535000  1.0
  H  H74  1  0.07797000  0.33489000  0.16889000  1.0
  H  H75  1  0.33752000  0.30607000  0.28741000  1.0
  H  H76  1  0.28061000  0.33941000  0.22066000  1.0
  H  H77  1  0.08350000  0.97587000  0.18746000  1.0
  H  H78  1  0.05350000  0.93094000  0.28132000  1.0
  H  H79  1  0.08845000  0.96011000  0.37991000  1.0
  H  H80  1  0.18535000  0.10620000  0.41359000  1.0
  H  H81  1  0.24285000  0.22131000  0.35037000  1.0
  H  H82  1  0.97493000  0.36717000  0.62982000  1.0
  H  H83  1  0.98564000  0.32315000  0.72618000  1.0
  H  H84  1  0.42329000  0.31315000  0.72929000  1.0
  H  H85  1  0.39288000  0.35613000  0.63243000  1.0
  H  H86  1  0.02617000  0.21093000  0.78353000  1.0
  H  H87  1  0.04467000  0.16065000  0.87910000  1.0
  H  H88  1  0.42161000  0.28107000  0.91214000  1.0
  H  H89  1  0.41382000  0.34181000  0.81936000  1.0
  H  H90  1  0.90104000  0.36370000  0.00328000  1.0
  H  H91  1  0.02769000  0.32478000  0.96241000  1.0
  H  H92  1  0.06538000  0.33116000  0.03326000  1.0
  H  H93  1  0.04388000  0.10338000  0.54745000  1.0
  H  H94  1  0.16099000  0.19599000  0.55011000  1.0
  H  H95  1  0.05797000  0.17787000  0.60307000  1.0
  H  H96  1  0.85831000  0.97898000  0.07923000  1.0
  H  H97  1  0.24332000  0.87621000  0.09840000  1.0
  H  H98  1  0.24359000  0.71264000  0.38470000  1.0
  H  H99  1  0.65991000  0.96457000  0.15393000  1.0
  H  H100  1  0.79813000  0.97251000  0.24233000  1.0
  H  H101  1  0.82530000  0.94475000  0.34107000  1.0
  H  H102  1  0.63532000  0.87498000  0.38465000  1.0
  H  H103  1  0.42203000  0.83491000  0.33111000  1.0
  H  H104  1  0.16248000  0.80608000  0.21258000  1.0
  H  H105  1  0.21940000  0.83942000  0.27935000  1.0
  H  H106  1  0.41648000  0.47588000  0.31254000  1.0
  H  H107  1  0.44648000  0.43094000  0.21868000  1.0
  H  H108  1  0.41154000  0.46012000  0.12009000  1.0
  H  H109  1  0.31465000  0.60621000  0.08641000  1.0
  H  H110  1  0.25716000  0.72132000  0.14963000  1.0
  H  H111  1  0.52505000  0.86717000  0.87017000  1.0
  H  H112  1  0.51434000  0.82317000  0.77381000  1.0
  H  H113  1  0.07669000  0.81316000  0.77070000  1.0
  H  H114  1  0.10709000  0.85615000  0.86756000  1.0
  H  H115  1  0.47383000  0.71097000  0.71646000  1.0
  H  H116  1  0.45533000  0.66067000  0.62091000  1.0
  H  H117  1  0.07838000  0.78107000  0.58785000  1.0
  H  H118  1  0.08615000  0.84183000  0.68063000  1.0
  H  H119  1  0.59896000  0.86371000  0.49673000  1.0
  H  H120  1  0.47232000  0.82478000  0.53761000  1.0
  H  H121  1  0.43462000  0.83117000  0.46676000  1.0
  H  H122  1  0.45612000  0.60337000  0.95255000  1.0
  H  H123  1  0.33901000  0.69599000  0.94989000  1.0
  H  H124  1  0.44203000  0.67787000  0.89693000  1.0
  H  H125  1  0.64170000  0.47899000  0.42077000  1.0
  C  C126  1  0.94290000  0.56458000  0.58307000  1.0
  C  C127  1  0.95640000  0.58277000  0.64222000  1.0
  C  C128  1  0.07704000  0.56409000  0.67353000  1.0
  C  C129  1  0.09440000  0.58124000  0.72948000  1.0
  C  C130  1  0.21655000  0.55848000  0.76183000  1.0
  C  C131  1  0.23152000  0.57390000  0.81668000  1.0
  C  C132  1  0.12356000  0.61273000  0.84124000  1.0
  C  C133  1  0.00380000  0.63621000  0.81099000  1.0
  C  C134  1  0.98502000  0.62203000  0.75415000  1.0
  C  C135  1  0.86343000  0.64590000  0.72149000  1.0
  C  C136  1  0.84800000  0.62341000  0.66690000  1.0
  C  C137  1  0.74924000  0.69534000  0.74386000  1.0
  C  C138  1  0.78393000  0.79041000  0.76001000  1.0
  C  C139  1  0.78468000  0.81412000  0.81414000  1.0
  C  C140  1  0.83412000  0.89933000  0.83320000  1.0
  C  C141  1  0.87765000  0.96008000  0.79709000  1.0
  C  C142  1  0.86773000  0.94162000  0.74122000  1.0
  C  C143  1  0.90501000  0.00552000  0.70344000  1.0
  C  C144  1  0.88706000  0.98904000  0.64870000  1.0
  C  C145  1  0.83222000  0.90641000  0.62978000  1.0
  C  C146  1  0.79982000  0.84139000  0.66540000  1.0
  C  C147  1  0.81712000  0.85610000  0.72219000  1.0
  C  C148  1  0.84348000  0.92083000  0.89203000  1.0
  C  C149  1  0.92788000  0.64629000  0.34665000  1.0
  C  C150  1  0.92079000  0.67138000  0.29278000  1.0
  C  C151  1  0.79360000  0.68716000  0.26363000  1.0
  C  C152  1  0.67828000  0.67489000  0.29070000  1.0
  C  C153  1  0.69448000  0.65103000  0.34495000  1.0
  C  C154  1  0.78261000  0.71807000  0.20705000  1.0
  C  C155  1  0.88578000  0.77026000  0.18892000  1.0
  C  C156  1  0.87466000  0.80006000  0.13592000  1.0
  C  C157  1  0.66545000  0.73213000  0.11749000  1.0
  C  C158  1  0.67001000  0.69882000  0.16976000  1.0
  C  C159  1  0.06399000  0.77839000  0.99274000  1.0
  C  C160  1  0.01579000  0.68360000  0.99930000  1.0
  C  C161  1  0.05157000  0.76964000  0.46783000  1.0
  C  C162  1  0.93906000  0.82685000  0.44084000  1.0
  C  C163  1  0.55712000  0.06458000  0.91694000  1.0
  C  C164  1  0.54362000  0.08278000  0.85778000  1.0
  C  C165  1  0.42296000  0.06409000  0.82647000  1.0
  C  C166  1  0.40561000  0.08124000  0.77051000  1.0
  C  C167  1  0.28346000  0.05848000  0.73817000  1.0
  C  C168  1  0.26849000  0.07390000  0.68332000  1.0
  C  C169  1  0.37645000  0.11272000  0.65876000  1.0
  C  C170  1  0.49621000  0.13621000  0.68901000  1.0
  C  C171  1  0.51499000  0.12203000  0.74585000  1.0
  C  C172  1  0.63658000  0.14591000  0.77851000  1.0
  C  C173  1  0.65202000  0.12341000  0.83311000  1.0
  C  C174  1  0.75075000  0.19535000  0.75614000  1.0
  C  C175  1  0.71606000  0.29041000  0.73999000  1.0
  C  C176  1  0.71530000  0.31412000  0.68586000  1.0
  C  C177  1  0.66585000  0.39934000  0.66680000  1.0
  C  C178  1  0.62232000  0.46009000  0.70291000  1.0
  C  C179  1  0.63226000  0.44162000  0.75878000  1.0
  C  C180  1  0.59497000  0.50553000  0.79656000  1.0
  C  C181  1  0.61292000  0.48904000  0.85130000  1.0
  C  C182  1  0.66776000  0.40641000  0.87022000  1.0
  C  C183  1  0.70017000  0.34139000  0.83460000  1.0
  C  C184  1  0.68286000  0.35610000  0.77781000  1.0
  C  C185  1  0.65651000  0.42084000  0.60797000  1.0
  C  C186  1  0.57213000  0.14629000  0.15335000  1.0
  C  C187  1  0.57922000  0.17137000  0.20722000  1.0
  C  C188  1  0.70640000  0.18715000  0.23637000  1.0
  C  C189  1  0.82172000  0.17488000  0.20931000  1.0
  C  C190  1  0.80553000  0.15102000  0.15505000  1.0
  C  C191  1  0.71739000  0.21806000  0.29295000  1.0
  C  C192  1  0.61424000  0.27026000  0.31108000  1.0
  C  C193  1  0.62537000  0.30007000  0.36407000  1.0
  C  C194  1  0.83458000  0.23212000  0.38251000  1.0
  C  C195  1  0.83000000  0.19880000  0.33024000  1.0
  C  C196  1  0.43601000  0.27840000  0.50725000  1.0
  C  C197  1  0.48421000  0.18361000  0.50068000  1.0
  C  C198  1  0.44843000  0.26962000  0.03218000  1.0
  C  C199  1  0.56093000  0.32684000  0.05916000  1.0
  C  C200  1  0.05710000  0.43543000  0.41693000  1.0
  C  C201  1  0.04360000  0.41723000  0.35777000  1.0
  C  C202  1  0.92295000  0.43591000  0.32647000  1.0
  C  C203  1  0.90560000  0.41875000  0.27051000  1.0
  C  C204  1  0.78346000  0.44151000  0.23817000  1.0
  C  C205  1  0.76848000  0.42609000  0.18332000  1.0
  C  C206  1  0.87644000  0.38726000  0.15876000  1.0
  C  C207  1  0.99621000  0.36378000  0.18901000  1.0
  C  C208  1  0.01499000  0.37797000  0.24585000  1.0
  C  C209  1  0.13658000  0.35409000  0.27851000  1.0
  C  C210  1  0.15201000  0.37659000  0.33311000  1.0
  C  C211  1  0.25075000  0.30464000  0.25615000  1.0
  C  C212  1  0.21607000  0.20959000  0.23999000  1.0
  C  C213  1  0.21531000  0.18588000  0.18586000  1.0
  C  C214  1  0.16587000  0.10066000  0.16680000  1.0
  C  C215  1  0.12233000  0.03991000  0.20291000  1.0
  C  C216  1  0.13225000  0.05838000  0.25878000  1.0
  C  C217  1  0.09497000  0.99447000  0.29656000  1.0
  C  C218  1  0.11291000  0.01096000  0.35130000  1.0
  C  C219  1  0.16775000  0.09359000  0.37022000  1.0
  C  C220  1  0.20016000  0.15860000  0.33460000  1.0
  C  C221  1  0.18286000  0.14389000  0.27781000  1.0
  C  C222  1  0.15653000  0.07916000  0.10797000  1.0
  C  C223  1  0.07211000  0.35371000  0.65335000  1.0
  C  C224  1  0.07920000  0.32861000  0.70722000  1.0
  C  C225  1  0.20639000  0.31282000  0.73637000  1.0
  C  C226  1  0.32171000  0.32509000  0.70930000  1.0
  C  C227  1  0.30551000  0.34895000  0.65505000  1.0
  C  C228  1  0.21739000  0.28192000  0.79295000  1.0
  C  C229  1  0.11423000  0.22972000  0.81108000  1.0
  C  C230  1  0.12534000  0.19992000  0.86407000  1.0
  C  C231  1  0.33455000  0.26788000  0.88250000  1.0
  C  C232  1  0.32998000  0.30117000  0.83023000  1.0
  C  C233  1  0.93602000  0.22161000  0.00726000  1.0
  C  C234  1  0.98422000  0.31640000  0.00070000  1.0
  C  C235  1  0.94843000  0.23037000  0.53218000  1.0
  C  C236  1  0.06093000  0.17316000  0.55916000  1.0
  C  C237  1  0.44290000  0.93543000  0.08307000  1.0
  C  C238  1  0.45639000  0.91723000  0.14222000  1.0
  C  C239  1  0.57704000  0.93591000  0.17353000  1.0
  C  C240  1  0.59439000  0.91876000  0.22949000  1.0
  C  C241  1  0.71653000  0.94151000  0.26183000  1.0
  C  C242  1  0.73152000  0.92610000  0.31668000  1.0
  C  C243  1  0.62355000  0.88727000  0.34124000  1.0
  C  C244  1  0.50379000  0.86378000  0.31099000  1.0
  C  C245  1  0.48501000  0.87798000  0.25415000  1.0
  C  C246  1  0.36343000  0.85410000  0.22149000  1.0
  C  C247  1  0.34799000  0.87660000  0.16689000  1.0
  C  C248  1  0.24925000  0.80466000  0.24385000  1.0
  C  C249  1  0.28393000  0.70960000  0.26001000  1.0
  C  C250  1  0.28468000  0.68588000  0.31414000  1.0
  C  C251  1  0.33413000  0.60067000  0.33321000  1.0
  C  C252  1  0.37766000  0.53992000  0.29709000  1.0
  C  C253  1  0.36774000  0.55838000  0.24122000  1.0
  C  C254  1  0.40502000  0.49447000  0.20345000  1.0
  C  C255  1  0.38708000  0.51096000  0.14870000  1.0
  C  C256  1  0.33225000  0.59359000  0.12978000  1.0
  C  C257  1  0.29985000  0.65861000  0.16540000  1.0
  C  C258  1  0.31714000  0.64390000  0.22219000  1.0
  C  C259  1  0.34347000  0.57918000  0.39203000  1.0
  C  C260  1  0.42788000  0.85372000  0.84664000  1.0
  C  C261  1  0.42079000  0.82864000  0.79277000  1.0
  C  C262  1  0.29360000  0.81285000  0.76362000  1.0
  C  C263  1  0.17828000  0.82511000  0.79069000  1.0
  C  C264  1  0.19448000  0.84897000  0.84495000  1.0
  C  C265  1  0.28261000  0.78194000  0.70705000  1.0
  C  C266  1  0.38577000  0.72974000  0.68892000  1.0
  C  C267  1  0.37465000  0.69994000  0.63592000  1.0
  C  C268  1  0.16544000  0.76788000  0.61749000  1.0
  C  C269  1  0.17001000  0.80119000  0.66976000  1.0
  C  C270  1  0.56399000  0.72162000  0.49275000  1.0
  C  C271  1  0.51578000  0.81641000  0.49931000  1.0
  C  C272  1  0.55159000  0.73037000  0.96782000  1.0
  C  C273  1  0.43907000  0.67316000  0.94084000  1.0
  N  N274  1  0.81674000  0.63728000  0.37271000  1.0
  N  N275  1  0.76565000  0.78160000  0.10050000  1.0
  N  N276  1  0.68326000  0.13727000  0.12729000  1.0
  N  N277  1  0.73438000  0.28160000  0.39950000  1.0
  N  N278  1  0.18325000  0.36272000  0.62729000  1.0
  N  N279  1  0.23435000  0.21840000  0.89950000  1.0
  N  N280  1  0.31674000  0.86273000  0.87271000  1.0
  N  N281  1  0.26565000  0.71841000  0.60050000  1.0
  O  O282  1  0.83148000  0.59127000  0.55549000  1.0
  O  O283  1  0.03759000  0.52793000  0.56173000  1.0
  O  O284  1  0.72894000  0.64193000  0.63691000  1.0
  O  O285  1  0.92172000  0.98289000  0.90984000  1.0
  O  O286  1  0.77074000  0.87281000  0.92089000  1.0
  O  O287  1  0.74170000  0.75395000  0.84920000  1.0
  O  O288  1  0.16611000  0.79114000  0.96760000  1.0
  O  O289  1  0.99539000  0.84077000  0.01275000  1.0
  O  O290  1  0.02549000  0.68799000  0.48057000  1.0
  O  O291  1  0.17052000  0.79985000  0.47731000  1.0
  O  O292  1  0.18640000  0.01859000  0.95761000  1.0
  O  O293  1  0.66853000  0.09128000  0.94452000  1.0
  O  O294  1  0.46242000  0.02792000  0.93827000  1.0
  O  O295  1  0.77107000  0.14193000  0.86309000  1.0
  O  O296  1  0.57828000  0.48291000  0.59016000  1.0
  O  O297  1  0.72922000  0.37282000  0.57911000  1.0
  O  O298  1  0.75828000  0.25396000  0.65081000  1.0
  O  O299  1  0.33389000  0.29114000  0.53240000  1.0
  O  O300  1  0.50462000  0.34078000  0.48724000  1.0
  O  O301  1  0.47449000  0.18798000  0.01944000  1.0
  O  O302  1  0.32947000  0.29983000  0.02269000  1.0
  O  O303  1  0.31360000  0.51860000  0.54239000  1.0
  O  O304  1  0.16851000  0.40873000  0.44452000  1.0
  O  O305  1  0.96241000  0.47209000  0.43827000  1.0
  O  O306  1  0.27107000  0.35807000  0.36309000  1.0
  O  O307  1  0.07830000  0.01710000  0.09015000  1.0
  O  O308  1  0.22927000  0.12718000  0.07912000  1.0
  O  O309  1  0.25829000  0.24604000  0.15081000  1.0
  O  O310  1  0.83390000  0.20886000  0.03241000  1.0
  O  O311  1  0.00462000  0.15922000  0.98726000  1.0
  O  O312  1  0.97448000  0.31202000  0.51943000  1.0
  O  O313  1  0.82947000  0.20018000  0.52268000  1.0
  O  O314  1  0.81362000  0.98141000  0.04239000  1.0
  O  O315  1  0.33150000  0.90874000  0.05548000  1.0
  O  O316  1  0.53760000  0.97208000  0.06173000  1.0
  O  O317  1  0.22893000  0.85808000  0.13691000  1.0
  O  O318  1  0.42171000  0.51712000  0.40985000  1.0
  O  O319  1  0.27072000  0.62720000  0.42089000  1.0
  O  O320  1  0.24171000  0.74605000  0.34919000  1.0
  O  O321  1  0.66611000  0.70888000  0.46761000  1.0
  O  O322  1  0.49539000  0.65923000  0.51275000  1.0
  O  O323  1  0.52552000  0.81201000  0.98057000  1.0
  O  O324  1  0.67054000  0.70016000  0.97731000  1.0
  O  O325  1  0.68640000  0.48142000  0.45761000  1.0
