# generated using pymatgen
data_Cu2Mo4H20C28N4O17
_symmetry_space_group_name_H-M   'P 1'
_cell_length_a   7.43362000
_cell_length_b   9.94331000
_cell_length_c   12.02160000
_cell_angle_alpha   68.95520000
_cell_angle_beta   76.69240000
_cell_angle_gamma   76.52110000
_symmetry_Int_Tables_number   1
_chemical_formula_structural   Cu2Mo4H20C28N4O17
_chemical_formula_sum   'Cu2 Mo4 H20 C28 N4 O17'
_cell_volume   795.89116454
_cell_formula_units_Z   1
loop_
 _symmetry_equiv_pos_site_id
 _symmetry_equiv_pos_as_xyz
  1  'x, y, z'
loop_
 _atom_site_type_symbol
 _atom_site_label
 _atom_site_symmetry_multiplicity
 _atom_site_fract_x
 _atom_site_fract_y
 _atom_site_fract_z
 _atom_site_occupancy
  Cu  Cu0  1  0.39678000  0.70208000  0.29956000  1.0
  Cu  Cu1  1  0.60322000  0.29792000  0.70044000  1.0
  Mo  Mo2  1  0.02355000  0.95926000  0.14275000  1.0
  Mo  Mo3  1  0.97645000  0.04075000  0.85725000  1.0
  Mo  Mo4  1  0.41598000  0.98465000  0.86753000  1.0
  Mo  Mo5  1  0.58402000  0.01534000  0.13247000  1.0
  H  H6  1  0.26423000  0.92501000  0.43101000  1.0
  H  H7  1  0.73578000  0.07499000  0.56899000  1.0
  H  H8  1  0.33737000  0.52091000  0.96424000  1.0
  H  H9  1  0.66265000  0.47909000  0.03577000  1.0
  H  H10  1  0.16221000  0.28870000  0.64941000  1.0
  H  H11  1  0.83779000  0.71130000  0.35058000  1.0
  H  H12  1  0.90163000  0.31918000  0.93721000  1.0
  H  H13  1  0.09839000  0.68082000  0.06280000  1.0
  H  H14  1  0.03402000  0.47437000  0.70538000  1.0
  H  H15  1  0.96597000  0.52563000  0.29462000  1.0
  H  H16  1  0.45561000  0.16325000  0.33786000  1.0
  H  H17  1  0.54437000  0.83675000  0.66213000  1.0
  H  H18  1  0.49967000  0.42269000  0.23167000  1.0
  H  H19  1  0.50032000  0.57731000  0.76832000  1.0
  H  H20  1  0.28798000  0.09504000  0.55682000  1.0
  H  H21  1  0.71201000  0.90496000  0.44318000  1.0
  H  H22  1  0.06449000  0.92593000  0.63351000  1.0
  H  H23  1  0.93551000  0.07406000  0.36649000  1.0
  H  H24  1  0.94542000  0.69890000  0.76976000  1.0
  H  H25  1  0.05457000  0.30110000  0.23024000  1.0
  C  C26  1  0.13460000  0.41048000  0.94386000  1.0
  C  C27  1  0.86542000  0.58952000  0.05615000  1.0
  C  C28  1  0.21105000  0.82845000  0.49656000  1.0
  C  C29  1  0.78895000  0.17154000  0.50344000  1.0
  C  C30  1  0.20075000  0.58230000  0.53757000  1.0
  C  C31  1  0.79926000  0.41770000  0.46243000  1.0
  C  C32  1  0.27460000  0.31576000  0.88116000  1.0
  C  C33  1  0.72542000  0.68424000  0.11885000  1.0
  C  C34  1  0.18961000  0.51243000  0.97944000  1.0
  C  C35  1  0.81040000  0.48757000  0.02057000  1.0
  C  C36  1  0.23747000  0.31567000  0.55719000  1.0
  C  C37  1  0.76252000  0.68433000  0.44280000  1.0
  C  C38  1  0.26613000  0.45847000  0.49084000  1.0
  C  C39  1  0.73387000  0.54152000  0.50915000  1.0
  C  C40  1  0.94426000  0.39844000  0.96483000  1.0
  C  C41  1  0.05576000  0.60156000  0.03517000  1.0
  C  C42  1  0.08531000  0.57536000  0.64848000  1.0
  C  C43  1  0.91469000  0.42463000  0.35152000  1.0
  C  C44  1  0.40104000  0.24307000  0.38508000  1.0
  C  C45  1  0.59895000  0.75693000  0.61491000  1.0
  C  C46  1  0.42595000  0.38771000  0.32400000  1.0
  C  C47  1  0.57404000  0.61230000  0.67600000  1.0
  C  C48  1  0.30719000  0.20678000  0.50362000  1.0
  C  C49  1  0.69280000  0.79322000  0.49637000  1.0
  C  C50  1  0.09976000  0.82807000  0.60700000  1.0
  C  C51  1  0.90023000  0.17193000  0.39300000  1.0
  C  C52  1  0.03492000  0.69984000  0.68388000  1.0
  C  C53  1  0.96507000  0.30016000  0.31612000  1.0
  N  N54  1  0.26049000  0.70820000  0.46345000  1.0
  N  N55  1  0.73951000  0.29180000  0.53655000  1.0
  N  N56  1  0.36175000  0.49198000  0.37624000  1.0
  N  N57  1  0.63825000  0.50803000  0.62375000  1.0
  O  O58  1  0.16198000  0.93931000  0.98855000  1.0
  O  O59  1  0.83802000  0.06069000  0.01145000  1.0
  O  O60  1  0.77825000  0.98731000  0.23041000  1.0
  O  O61  1  0.22175000  0.01270000  0.76959000  1.0
  O  O62  1  0.43829000  0.35106000  0.83768000  1.0
  O  O63  1  0.56172000  0.64894000  0.16232000  1.0
  O  O64  1  0.55506000  0.10003000  0.74597000  1.0
  O  O65  1  0.44494000  0.89997000  0.25403000  1.0
  O  O66  1  0.51603000  0.81110000  0.86960000  1.0
  O  O67  1  0.48397000  0.18889000  0.13041000  1.0
  O  O68  1  0.22219000  0.20878000  0.87130000  1.0
  O  O69  1  0.77781000  0.79122000  0.12871000  1.0
  O  O70  1  0.12056000  0.08637000  0.16299000  1.0
  O  O71  1  0.87944000  0.91363000  0.83701000  1.0
  O  O72  1  0.11842000  0.78707000  0.23387000  1.0
  O  O73  1  0.88159000  0.21293000  0.76613000  1.0
  O  O74  1  0.50000000  0.00000000  0.00000000  1.0
