# generated using pymatgen
data_Mn2H21C27NO10
_symmetry_space_group_name_H-M   'P 1'
_cell_length_a   12.54420000
_cell_length_b   14.49040000
_cell_length_c   16.03580000
_cell_angle_alpha   89.99980000
_cell_angle_beta   82.61270000
_cell_angle_gamma   89.99930000
_symmetry_Int_Tables_number   1
_chemical_formula_structural   Mn2H21C27NO10
_chemical_formula_sum   'Mn8 H84 C108 N4 O40'
_cell_volume   2890.64094927
_cell_formula_units_Z   4
loop_
 _symmetry_equiv_pos_site_id
 _symmetry_equiv_pos_as_xyz
  1  'x, y, z'
loop_
 _atom_site_type_symbol
 _atom_site_label
 _atom_site_symmetry_multiplicity
 _atom_site_fract_x
 _atom_site_fract_y
 _atom_site_fract_z
 _atom_site_occupancy
  Mn  Mn0  1  0.02271000  0.76098000  0.96663000  1.0
  Mn  Mn1  1  0.47729000  0.26098000  0.53337000  1.0
  Mn  Mn2  1  0.97729000  0.23901000  0.03337000  1.0
  Mn  Mn3  1  0.52270000  0.73902000  0.46663000  1.0
  Mn  Mn4  1  0.50000000  0.50000000  0.50000000  1.0
  Mn  Mn5  1  0.00000000  0.00000000  0.00000000  1.0
  Mn  Mn6  1  0.00000000  0.50000000  1.00000000  1.0
  Mn  Mn7  1  0.50001000  0.00001000  0.50000000  1.0
  H  H8  1  0.37520000  0.50589000  0.96674000  1.0
  H  H9  1  0.12481000  0.00590000  0.53325000  1.0
  H  H10  1  0.62479000  0.49410000  0.03326000  1.0
  H  H11  1  0.87520000  0.99411000  0.46674000  1.0
  H  H12  1  0.56524000  0.51276000  0.90046000  1.0
  H  H13  1  0.93477000  0.01277000  0.59953000  1.0
  H  H14  1  0.43475000  0.48723000  0.09955000  1.0
  H  H15  1  0.06524000  0.98724000  0.40045000  1.0
  H  H16  1  0.47842000  0.71650000  0.72514000  1.0
  H  H17  1  0.02158000  0.21649000  0.77486000  1.0
  H  H18  1  0.52158000  0.28349000  0.27486000  1.0
  H  H19  1  0.97841000  0.78350000  0.22515000  1.0
  H  H20  1  0.28942000  0.70964000  0.79307000  1.0
  H  H21  1  0.21058000  0.20964000  0.70693000  1.0
  H  H22  1  0.71058000  0.29035000  0.20692000  1.0
  H  H23  1  0.78942000  0.79035000  0.29308000  1.0
  H  H24  1  0.71076000  0.60992000  0.89031000  1.0
  H  H25  1  0.78924000  0.10991000  0.60969000  1.0
  H  H26  1  0.28925000  0.39007000  0.10969000  1.0
  H  H27  1  0.21076000  0.89009000  0.39031000  1.0
  H  H28  1  0.81185000  0.65734000  0.58555000  1.0
  H  H29  1  0.68816000  0.15734000  0.91445000  1.0
  H  H30  1  0.18815000  0.34267000  0.41445000  1.0
  H  H31  1  0.31184000  0.84266000  0.08555000  1.0
  H  H32  1  0.04540000  0.56061000  0.75538000  1.0
  H  H33  1  0.45460000  0.06062000  0.74462000  1.0
  H  H34  1  0.95459000  0.43939000  0.24462000  1.0
  H  H35  1  0.54541000  0.93939000  0.25538000  1.0
  H  H36  1  0.23419000  0.56829000  0.68764000  1.0
  H  H37  1  0.26581000  0.06830000  0.81235000  1.0
  H  H38  1  0.76581000  0.43171000  0.31236000  1.0
  H  H39  1  0.73419000  0.93171000  0.18764000  1.0
  H  H40  1  0.14373000  0.75706000  0.50280000  1.0
  H  H41  1  0.35628000  0.25706000  0.99721000  1.0
  H  H42  1  0.85628000  0.24294000  0.49721000  1.0
  H  H43  1  0.64372000  0.74294000  0.00279000  1.0
  H  H44  1  0.95472000  0.75069000  0.56955000  1.0
  H  H45  1  0.54529000  0.25068000  0.93045000  1.0
  H  H46  1  0.04529000  0.24932000  0.43044000  1.0
  H  H47  1  0.45471000  0.74932000  0.06956000  1.0
  H  H48  1  0.35541000  0.84387000  0.73967000  1.0
  H  H49  1  0.14459000  0.34386000  0.76034000  1.0
  H  H50  1  0.64459000  0.15613000  0.26034000  1.0
  H  H51  1  0.85540000  0.65613000  0.23966000  1.0
  H  H52  1  0.32425000  0.96202000  0.73222000  1.0
  H  H53  1  0.17575000  0.46202000  0.76778000  1.0
  H  H54  1  0.67575000  0.03798000  0.26779000  1.0
  H  H55  1  0.82424000  0.53798000  0.23222000  1.0
  H  H56  1  0.19559000  0.79668000  0.68584000  1.0
  H  H57  1  0.30441000  0.29668000  0.81416000  1.0
  H  H58  1  0.80441000  0.20332000  0.31416000  1.0
  H  H59  1  0.69558000  0.70333000  0.18584000  1.0
  H  H60  1  0.20343000  0.90754000  0.63929000  1.0
  H  H61  1  0.29656000  0.40754000  0.86071000  1.0
  H  H62  1  0.79656000  0.09246000  0.36072000  1.0
  H  H63  1  0.70343000  0.59246000  0.13928000  1.0
  H  H64  1  0.06416000  0.96554000  0.74895000  1.0
  H  H65  1  0.43585000  0.46554000  0.75105000  1.0
  H  H66  1  0.93585000  0.03446000  0.25106000  1.0
  H  H67  1  0.56415000  0.53446000  0.24895000  1.0
  H  H68  1  0.02730000  0.84748000  0.75716000  1.0
  H  H69  1  0.47270000  0.34747000  0.74284000  1.0
  H  H70  1  0.97270000  0.15252000  0.24285000  1.0
  H  H71  1  0.52729000  0.65253000  0.25716000  1.0
  H  H72  1  0.26878000  0.94426000  0.95341000  1.0
  H  H73  1  0.23122000  0.44426000  0.54659000  1.0
  H  H74  1  0.73122000  0.05573000  0.04659000  1.0
  H  H75  1  0.76878000  0.55574000  0.45341000  1.0
  H  H76  1  0.38426000  0.90412000  0.88622000  1.0
  H  H77  1  0.11574000  0.40412000  0.61379000  1.0
  H  H78  1  0.61574000  0.09588000  0.11379000  1.0
  H  H79  1  0.88426000  0.59588000  0.38621000  1.0
  H  H80  1  0.29079000  0.82249000  0.93825000  1.0
  H  H81  1  0.20920000  0.32249000  0.56175000  1.0
  H  H82  1  0.70921000  0.17751000  0.06175000  1.0
  H  H83  1  0.79079000  0.67751000  0.43825000  1.0
  H  H84  1  0.03114000  0.66325000  0.10476000  1.0
  H  H85  1  0.46887000  0.16325000  0.39524000  1.0
  H  H86  1  0.96886000  0.33675000  0.89524000  1.0
  H  H87  1  0.53113000  0.83675000  0.60476000  1.0
  H  H88  1  0.91368000  0.66003000  0.08272000  1.0
  H  H89  1  0.58633000  0.16004000  0.41728000  1.0
  H  H90  1  0.08632000  0.33997000  0.91728000  1.0
  H  H91  1  0.41367000  0.83997000  0.58272000  1.0
  C  C92  1  0.20636000  0.61002000  0.92589000  1.0
  C  C93  1  0.29365000  0.11002000  0.57411000  1.0
  C  C94  1  0.79364000  0.38997000  0.07410000  1.0
  C  C95  1  0.70636000  0.88998000  0.42590000  1.0
  C  C96  1  0.32046000  0.60829000  0.88453000  1.0
  C  C97  1  0.17954000  0.10829000  0.61546000  1.0
  C  C98  1  0.67954000  0.39169000  0.11546000  1.0
  C  C99  1  0.82046000  0.89170000  0.38453000  1.0
  C  C100  1  0.39875000  0.55263000  0.91426000  1.0
  C  C101  1  0.10126000  0.05263000  0.58573000  1.0
  C  C102  1  0.60125000  0.44735000  0.08574000  1.0
  C  C103  1  0.89874000  0.94737000  0.41426000  1.0
  C  C104  1  0.50537000  0.55713000  0.87714000  1.0
  C  C105  1  0.99463000  0.05714000  0.62285000  1.0
  C  C106  1  0.49463000  0.44286000  0.12286000  1.0
  C  C107  1  0.00537000  0.94286000  0.37714000  1.0
  C  C108  1  0.53658000  0.61590000  0.80825000  1.0
  C  C109  1  0.96342000  0.11590000  0.69174000  1.0
  C  C110  1  0.46342000  0.38409000  0.19175000  1.0
  C  C111  1  0.03658000  0.88410000  0.30825000  1.0
  C  C112  1  0.45658000  0.66988000  0.77789000  1.0
  C  C113  1  0.04343000  0.16988000  0.72211000  1.0
  C  C114  1  0.54342000  0.33011000  0.22211000  1.0
  C  C115  1  0.95658000  0.83012000  0.27790000  1.0
  C  C116  1  0.35068000  0.66654000  0.81586000  1.0
  C  C117  1  0.14932000  0.16654000  0.68414000  1.0
  C  C118  1  0.64931000  0.33345000  0.18414000  1.0
  C  C119  1  0.85068000  0.83346000  0.31586000  1.0
  C  C120  1  0.65017000  0.62322000  0.77069000  1.0
  C  C121  1  0.84984000  0.12321000  0.72931000  1.0
  C  C122  1  0.34984000  0.37678000  0.22931000  1.0
  C  C123  1  0.15016000  0.87679000  0.27069000  1.0
  C  C124  1  0.73189000  0.61921000  0.82269000  1.0
  C  C125  1  0.76812000  0.11920000  0.67732000  1.0
  C  C126  1  0.26811000  0.38079000  0.17731000  1.0
  C  C127  1  0.23189000  0.88080000  0.32268000  1.0
  C  C128  1  0.84012000  0.63190000  0.79209000  1.0
  C  C129  1  0.65989000  0.13189000  0.70791000  1.0
  C  C130  1  0.15989000  0.36810000  0.20791000  1.0
  C  C131  1  0.34012000  0.86811000  0.29209000  1.0
  C  C132  1  0.91600000  0.63982000  0.85706000  1.0
  C  C133  1  0.58400000  0.13982000  0.64295000  1.0
  C  C134  1  0.08400000  0.36017000  0.14294000  1.0
  C  C135  1  0.41600000  0.86020000  0.35705000  1.0
  C  C136  1  0.87149000  0.64680000  0.70522000  1.0
  C  C137  1  0.62851000  0.14679000  0.79478000  1.0
  C  C138  1  0.12851000  0.35321000  0.29477000  1.0
  C  C139  1  0.37149000  0.85322000  0.20522000  1.0
  C  C140  1  0.78990000  0.64957000  0.65321000  1.0
  C  C141  1  0.71010000  0.14956000  0.84679000  1.0
  C  C142  1  0.21010000  0.35045000  0.34679000  1.0
  C  C143  1  0.28990000  0.85044000  0.15321000  1.0
  C  C144  1  0.68144000  0.63832000  0.68402000  1.0
  C  C145  1  0.81856000  0.13831000  0.81598000  1.0
  C  C146  1  0.31856000  0.36169000  0.31598000  1.0
  C  C147  1  0.18144000  0.86168000  0.18402000  1.0
  C  C148  1  0.60534000  0.63386000  0.61876000  1.0
  C  C149  1  0.89467000  0.13385000  0.88124000  1.0
  C  C150  1  0.39466000  0.36615000  0.38124000  1.0
  C  C151  1  0.10533000  0.86614000  0.11876000  1.0
  C  C152  1  0.98505000  0.65449000  0.66733000  1.0
  C  C153  1  0.51495000  0.15449000  0.83267000  1.0
  C  C154  1  0.01495000  0.34551000  0.33267000  1.0
  C  C155  1  0.48505000  0.84552000  0.16733000  1.0
  C  C156  1  0.06612000  0.60429000  0.70024000  1.0
  C  C157  1  0.43389000  0.10430000  0.79975000  1.0
  C  C158  1  0.93388000  0.39571000  0.29975000  1.0
  C  C159  1  0.56612000  0.89571000  0.20024000  1.0
  C  C160  1  0.17190000  0.60753000  0.66209000  1.0
  C  C161  1  0.32811000  0.10754000  0.83791000  1.0
  C  C162  1  0.82810000  0.39247000  0.33791000  1.0
  C  C163  1  0.67190000  0.89246000  0.16209000  1.0
  C  C164  1  0.20113000  0.66146000  0.59030000  1.0
  C  C165  1  0.29887000  0.16147000  0.90970000  1.0
  C  C166  1  0.79887000  0.33854000  0.40970000  1.0
  C  C167  1  0.70113000  0.83854000  0.09030000  1.0
  C  C168  1  0.12173000  0.71348000  0.55779000  1.0
  C  C169  1  0.37827000  0.21348000  0.94221000  1.0
  C  C170  1  0.87827000  0.28652000  0.44221000  1.0
  C  C171  1  0.62173000  0.78652000  0.05779000  1.0
  C  C172  1  0.01531000  0.70939000  0.59556000  1.0
  C  C173  1  0.48469000  0.20939000  0.90444000  1.0
  C  C174  1  0.98469000  0.29062000  0.40444000  1.0
  C  C175  1  0.51531000  0.79062000  0.09556000  1.0
  C  C176  1  0.31585000  0.66039000  0.55065000  1.0
  C  C177  1  0.18416000  0.16039000  0.94935000  1.0
  C  C178  1  0.68415000  0.33962000  0.44935000  1.0
  C  C179  1  0.81585000  0.83961000  0.05065000  1.0
  C  C180  1  0.28940000  0.89384000  0.74868000  1.0
  C  C181  1  0.21060000  0.39384000  0.75132000  1.0
  C  C182  1  0.71060000  0.10615000  0.25133000  1.0
  C  C183  1  0.78939000  0.60616000  0.24867000  1.0
  C  C184  1  0.19597000  0.87067000  0.69923000  1.0
  C  C185  1  0.30403000  0.37067000  0.80078000  1.0
  C  C186  1  0.80403000  0.12933000  0.30078000  1.0
  C  C187  1  0.69596000  0.62933000  0.19922000  1.0
  C  C188  1  0.09443000  0.89563000  0.75901000  1.0
  C  C189  1  0.40557000  0.39563000  0.74099000  1.0
  C  C190  1  0.90557000  0.10437000  0.24100000  1.0
  C  C191  1  0.59442000  0.60438000  0.25901000  1.0
  C  C192  1  0.13252000  0.89282000  0.84378000  1.0
  C  C193  1  0.36748000  0.39282000  0.65622000  1.0
  C  C194  1  0.86748000  0.10718000  0.15622000  1.0
  C  C195  1  0.63251000  0.60718000  0.34378000  1.0
  C  C196  1  0.29953000  0.89072000  0.90825000  1.0
  C  C197  1  0.20047000  0.39072000  0.59175000  1.0
  C  C198  1  0.70047000  0.10927000  0.09175000  1.0
  C  C199  1  0.79952000  0.60928000  0.40825000  1.0
  N  N200  1  0.23931000  0.89239000  0.83651000  1.0
  N  N201  1  0.26069000  0.39239000  0.66349000  1.0
  N  N202  1  0.76070000  0.10761000  0.16350000  1.0
  N  N203  1  0.73930000  0.60761000  0.33650000  1.0
  O  O204  1  0.16111000  0.53427000  0.94861000  1.0
  O  O205  1  0.33889000  0.03428000  0.55138000  1.0
  O  O206  1  0.83889000  0.46572000  0.05140000  1.0
  O  O207  1  0.66112000  0.96573000  0.44861000  1.0
  O  O208  1  0.16462000  0.69026000  0.93485000  1.0
  O  O209  1  0.33539000  0.19026000  0.56516000  1.0
  O  O210  1  0.83538000  0.30973000  0.06513000  1.0
  O  O211  1  0.66461000  0.80975000  0.43486000  1.0
  O  O212  1  0.92192000  0.57321000  0.90730000  1.0
  O  O213  1  0.57806000  0.07320000  0.59272000  1.0
  O  O214  1  0.07808000  0.42679000  0.09270000  1.0
  O  O215  1  0.42195000  0.92682000  0.40727000  1.0
  O  O216  1  0.96473000  0.71708000  0.85845000  1.0
  O  O217  1  0.53529000  0.21709000  0.64154000  1.0
  O  O218  1  0.03528000  0.28291000  0.14154000  1.0
  O  O219  1  0.46471000  0.78293000  0.35846000  1.0
  O  O220  1  0.57515000  0.55414000  0.59996000  1.0
  O  O221  1  0.92486000  0.05414000  0.90005000  1.0
  O  O222  1  0.42485000  0.44586000  0.40005000  1.0
  O  O223  1  0.07515000  0.94586000  0.09995000  1.0
  O  O224  1  0.58189000  0.70971000  0.58451000  1.0
  O  O225  1  0.91811000  0.20971000  0.91548000  1.0
  O  O226  1  0.41811000  0.29029000  0.41548000  1.0
  O  O227  1  0.08189000  0.79029000  0.08451000  1.0
  O  O228  1  0.36089000  0.58223000  0.54129000  1.0
  O  O229  1  0.13912000  0.08223000  0.95871000  1.0
  O  O230  1  0.63911000  0.41777000  0.45871000  1.0
  O  O231  1  0.86088000  0.91777000  0.04129000  1.0
  O  O232  1  0.36117000  0.73781000  0.52915000  1.0
  O  O233  1  0.13882000  0.23781000  0.97086000  1.0
  O  O234  1  0.63882000  0.26220000  0.47086000  1.0
  O  O235  1  0.86118000  0.76219000  0.02914000  1.0
  O  O236  1  0.07318000  0.89043000  0.91488000  1.0
  O  O237  1  0.42683000  0.39043000  0.58513000  1.0
  O  O238  1  0.92683000  0.10957000  0.08513000  1.0
  O  O239  1  0.57317000  0.60957000  0.41487000  1.0
  O  O240  1  0.97436000  0.62010000  0.09307000  1.0
  O  O241  1  0.52565000  0.12011000  0.40692000  1.0
  O  O242  1  0.02564000  0.37990000  0.90691000  1.0
  O  O243  1  0.47435000  0.87990000  0.59307000  1.0
