# generated using pymatgen
data_AlH6C13(BrO3)2
_symmetry_space_group_name_H-M   'P 1'
_cell_length_a   6.65104000
_cell_length_b   11.06864623
_cell_length_c   15.26180000
_cell_angle_alpha   88.29816635
_cell_angle_beta   77.87250000
_cell_angle_gamma   73.40215644
_symmetry_Int_Tables_number   1
_chemical_formula_structural   AlH6C13(BrO3)2
_chemical_formula_sum   'Al2 H12 C26 Br4 O12'
_cell_volume   1052.14801624
_cell_formula_units_Z   2
loop_
 _symmetry_equiv_pos_site_id
 _symmetry_equiv_pos_as_xyz
  1  'x, y, z'
loop_
 _atom_site_type_symbol
 _atom_site_label
 _atom_site_symmetry_multiplicity
 _atom_site_fract_x
 _atom_site_fract_y
 _atom_site_fract_z
 _atom_site_occupancy
  Al  Al0  1  0.99841000  0.49911000  0.49992000  1.0
  Al  Al1  1  0.50070000  0.49248000  0.49940000  1.0
  H  H2  1  0.33950000  0.34722000  0.44332000  1.0
  H  H3  1  0.64039000  0.64432000  0.55448000  1.0
  H  H4  1  0.65237000  0.49209000  0.05697000  1.0
  H  H5  1  0.36859000  0.44633000  0.94023000  1.0
  H  H6  1  0.78738000  0.57509000  0.76943000  1.0
  H  H7  1  0.69313000  0.58654000  0.93466000  1.0
  H  H8  1  0.18207000  0.52692000  0.23262000  1.0
  H  H9  1  0.27140000  0.53734000  0.06887000  1.0
  H  H10  1  0.56332000  0.22618000  0.62776000  1.0
  H  H11  1  0.81208000  0.75786000  0.61814000  1.0
  H  H12  1  0.50784000  0.49737000  0.29277000  1.0
  H  H13  1  0.51068000  0.44726000  0.70585000  1.0
  C  C14  1  0.86614000  0.27079000  0.50894000  1.0
  C  C15  1  0.82094000  0.50026000  0.33691000  1.0
  C  C16  1  0.14103000  0.72145000  0.49199000  1.0
  C  C17  1  0.17700000  0.50227000  0.66284000  1.0
  C  C18  1  0.86625000  0.50901000  0.23909000  1.0
  C  C19  1  0.12805000  0.50978000  0.76093000  1.0
  C  C20  1  0.71448000  0.50220000  0.18791000  1.0
  C  C21  1  0.76915000  0.50319000  0.09422000  1.0
  C  C22  1  0.29308000  0.47650000  0.81085000  1.0
  C  C23  1  0.23789000  0.47832000  0.90464000  1.0
  C  C24  1  0.91293000  0.54859000  0.80794000  1.0
  C  C25  1  0.86082000  0.55278000  0.90052000  1.0
  C  C26  1  0.06618000  0.52072000  0.19370000  1.0
  C  C27  1  0.11693000  0.52475000  0.10132000  1.0
  C  C28  1  0.96899000  0.51471000  0.04966000  1.0
  C  C29  1  0.02350000  0.51555000  0.95064000  1.0
  C  C30  1  0.93995000  0.12928000  0.50614000  1.0
  C  C31  1  0.81280000  0.06163000  0.56308000  1.0
  C  C32  1  0.12562000  0.06466000  0.44641000  1.0
  C  C33  1  0.61901000  0.12377000  0.62335000  1.0
  C  C34  1  0.49433000  0.05689000  0.67534000  1.0
  C  C35  1  0.07413000  0.86284000  0.49687000  1.0
  C  C36  1  0.19252000  0.93057000  0.44111000  1.0
  C  C37  1  0.88235000  0.92662000  0.55902000  1.0
  C  C38  1  0.75720000  0.86022000  0.61691000  1.0
  C  C39  1  0.56495000  0.92298000  0.67208000  1.0
  Br  Br40  1  0.43507000  0.84457000  0.35343000  1.0
  Br  Br41  1  0.28302000  0.15391000  0.36404000  1.0
  Br  Br42  1  0.23162000  0.14758000  0.74954000  1.0
  Br  Br43  1  0.39949000  0.82583000  0.74103000  1.0
  O  O44  1  0.99353000  0.32870000  0.52577000  1.0
  O  O45  1  0.62392000  0.50871000  0.37618000  1.0
  O  O46  1  0.32392000  0.66472000  0.50790000  1.0
  O  O47  1  0.02400000  0.52691000  0.62090000  1.0
  O  O48  1  0.00537000  0.66926000  0.47552000  1.0
  O  O49  1  0.37837000  0.47138000  0.62288000  1.0
  O  O50  1  0.67984000  0.32177000  0.49388000  1.0
  O  O51  1  0.97324000  0.48254000  0.37835000  1.0
  O  O52  1  0.29490000  0.43614000  0.46149000  1.0
  O  O53  1  0.70076000  0.55518000  0.53821000  1.0
  O  O54  1  0.51851000  0.49153000  0.22648000  1.0
  O  O55  1  0.50399000  0.44087000  0.77181000  1.0
