# generated using pymatgen
data_Tb2H12C16N2O17
_symmetry_space_group_name_H-M   'P 1'
_cell_length_a   7.87122000
_cell_length_b   10.06720000
_cell_length_c   15.34480000
_cell_angle_alpha   87.77030000
_cell_angle_beta   87.65590000
_cell_angle_gamma   78.33830000
_symmetry_Int_Tables_number   1
_chemical_formula_structural   Tb2H12C16N2O17
_chemical_formula_sum   'Tb4 H24 C32 N4 O34'
_cell_volume   1189.26044136
_cell_formula_units_Z   2
loop_
 _symmetry_equiv_pos_site_id
 _symmetry_equiv_pos_as_xyz
  1  'x, y, z'
loop_
 _atom_site_type_symbol
 _atom_site_label
 _atom_site_symmetry_multiplicity
 _atom_site_fract_x
 _atom_site_fract_y
 _atom_site_fract_z
 _atom_site_occupancy
  Tb  Tb0  1  0.35321000  0.33425000  0.06309000  1.0
  Tb  Tb1  1  0.64680000  0.66575000  0.93691000  1.0
  Tb  Tb2  1  0.62522000  0.86496000  0.32548000  1.0
  Tb  Tb3  1  0.37478000  0.13504000  0.67453000  1.0
  H  H4  1  0.56192000  0.41661000  0.19960000  1.0
  H  H5  1  0.43809000  0.58339000  0.80040000  1.0
  H  H6  1  0.68147000  0.41698000  0.11408000  1.0
  H  H7  1  0.31854000  0.58302000  0.88592000  1.0
  H  H8  1  0.31717000  0.14059000  0.91624000  1.0
  H  H9  1  0.68283000  0.85942000  0.08376000  1.0
  H  H10  1  0.20728000  0.27973000  0.89626000  1.0
  H  H11  1  0.79272000  0.72027000  0.10374000  1.0
  H  H12  1  0.72339000  0.69665000  0.47543000  1.0
  H  H13  1  0.27662000  0.30334000  0.52456000  1.0
  H  H14  1  0.84033000  0.80507000  0.46598000  1.0
  H  H15  1  0.15966000  0.19492000  0.53402000  1.0
  H  H16  1  0.17341000  0.53050000  0.69392000  1.0
  H  H17  1  0.82658000  0.46950000  0.30608000  1.0
  H  H18  1  0.90862000  0.66285000  0.61838000  1.0
  H  H19  1  0.09137000  0.33716000  0.38163000  1.0
  H  H20  1  0.64481000  0.55288000  0.61238000  1.0
  H  H21  1  0.35518000  0.44713000  0.38763000  1.0
  H  H22  1  0.10688000  0.87774000  0.79980000  1.0
  H  H23  1  0.89312000  0.12226000  0.20020000  1.0
  H  H24  1  0.92901000  0.87297000  0.94038000  1.0
  H  H25  1  0.07100000  0.12703000  0.05962000  1.0
  H  H26  1  0.73134000  0.08971000  0.98774000  1.0
  H  H27  1  0.26866000  0.91029000  0.01226000  1.0
  C  C28  1  0.05081000  0.49699000  0.69226000  1.0
  C  C29  1  0.94919000  0.50301000  0.30775000  1.0
  C  C30  1  0.90567000  0.56451000  0.64966000  1.0
  C  C31  1  0.09433000  0.43550000  0.35034000  1.0
  C  C32  1  0.76071000  0.50512000  0.64703000  1.0
  C  C33  1  0.23929000  0.49489000  0.35297000  1.0
  C  C34  1  0.76053000  0.38200000  0.69168000  1.0
  C  C35  1  0.23946000  0.61801000  0.30832000  1.0
  C  C36  1  0.90517000  0.32086000  0.73949000  1.0
  C  C37  1  0.09482000  0.67914000  0.26050000  1.0
  C  C38  1  0.60677000  0.31450000  0.68920000  1.0
  C  C39  1  0.39322000  0.68550000  0.31079000  1.0
  C  C40  1  0.02059000  0.96665000  0.82583000  1.0
  C  C41  1  0.97941000  0.03335000  0.17417000  1.0
  C  C42  1  0.92172000  0.96719000  0.90211000  1.0
  C  C43  1  0.07829000  0.03281000  0.09789000  1.0
  C  C44  1  0.81410000  0.08746000  0.92894000  1.0
  C  C45  1  0.18590000  0.91254000  0.07107000  1.0
  C  C46  1  0.80997000  0.20625000  0.87865000  1.0
  C  C47  1  0.19004000  0.79374000  0.12135000  1.0
  C  C48  1  0.90990000  0.20212000  0.80045000  1.0
  C  C49  1  0.09010000  0.79788000  0.19955000  1.0
  C  C50  1  0.69692000  0.33724000  0.90771000  1.0
  C  C51  1  0.30309000  0.66276000  0.09229000  1.0
  C  C52  1  0.95496000  0.46364000  0.03749000  1.0
  C  C53  1  0.04505000  0.53635000  0.96251000  1.0
  C  C54  1  0.42663000  0.95863000  0.50401000  1.0
  C  C55  1  0.57337000  0.04136000  0.49599000  1.0
  C  C56  1  0.51184000  0.05793000  0.15609000  1.0
  C  C57  1  0.48817000  0.94208000  0.84392000  1.0
  C  C58  1  0.40937000  0.13898000  0.23157000  1.0
  C  C59  1  0.59063000  0.86102000  0.76843000  1.0
  N  N60  1  0.04982000  0.37634000  0.73506000  1.0
  N  N61  1  0.95018000  0.62366000  0.26494000  1.0
  N  N62  1  0.01277000  0.08268000  0.77594000  1.0
  N  N63  1  0.98723000  0.91733000  0.22406000  1.0
  O  O64  1  0.19270000  0.31037000  0.77306000  1.0
  O  O65  1  0.80729000  0.68962000  0.22694000  1.0
  O  O66  1  0.10231000  0.07742000  0.70152000  1.0
  O  O67  1  0.89768000  0.92258000  0.29848000  1.0
  O  O68  1  0.47140000  0.37269000  0.65061000  1.0
  O  O69  1  0.52860000  0.62731000  0.34938000  1.0
  O  O70  1  0.62191000  0.19661000  0.72606000  1.0
  O  O71  1  0.37808000  0.80339000  0.27393000  1.0
  O  O72  1  0.73000000  0.44765000  0.87556000  1.0
  O  O73  1  0.27000000  0.55236000  0.12444000  1.0
  O  O74  1  0.57751000  0.33052000  0.96468000  1.0
  O  O75  1  0.42249000  0.66949000  0.03532000  1.0
  O  O76  1  0.79152000  0.50408000  0.04691000  1.0
  O  O77  1  0.20848000  0.49592000  0.95308000  1.0
  O  O78  1  0.04710000  0.37211000  0.08281000  1.0
  O  O79  1  0.95290000  0.62789000  0.91718000  1.0
  O  O80  1  0.31016000  0.99291000  0.56293000  1.0
  O  O81  1  0.68985000  0.00707000  0.43708000  1.0
  O  O82  1  0.43604000  0.86412000  0.45099000  1.0
  O  O83  1  0.56396000  0.13587000  0.54901000  1.0
  O  O84  1  0.43205000  0.08667000  0.30732000  1.0
  O  O85  1  0.56795000  0.91333000  0.69268000  1.0
  O  O86  1  0.61253000  0.94702000  0.17628000  1.0
  O  O87  1  0.38746000  0.05298000  0.82372000  1.0
  O  O88  1  0.31395000  0.25153000  0.20906000  1.0
  O  O89  1  0.68605000  0.74848000  0.79095000  1.0
  O  O90  1  0.49131000  0.10713000  0.07935000  1.0
  O  O91  1  0.50869000  0.89287000  0.92065000  1.0
  O  O92  1  0.60170000  0.36537000  0.14756000  1.0
  O  O93  1  0.39831000  0.63463000  0.85244000  1.0
  O  O94  1  0.24962000  0.22072000  0.94703000  1.0
  O  O95  1  0.75038000  0.77928000  0.05296000  1.0
  O  O96  1  0.81219000  0.72681000  0.43783000  1.0
  O  O97  1  0.18782000  0.27318000  0.56217000  1.0
