# generated using pymatgen
data_Ag2H11C14(NO2)3
_symmetry_space_group_name_H-M   'P 1'
_cell_length_a   7.22567000
_cell_length_b   7.93205000
_cell_length_c   25.60800000
_cell_angle_alpha   90.00000000
_cell_angle_beta   90.52390000
_cell_angle_gamma   90.00000000
_symmetry_Int_Tables_number   1
_chemical_formula_structural   Ag2H11C14(NO2)3
_chemical_formula_sum   'Ag8 H44 C56 N12 O24'
_cell_volume   1467.64517743
_cell_formula_units_Z   4
loop_
 _symmetry_equiv_pos_site_id
 _symmetry_equiv_pos_as_xyz
  1  'x, y, z'
loop_
 _atom_site_type_symbol
 _atom_site_label
 _atom_site_symmetry_multiplicity
 _atom_site_fract_x
 _atom_site_fract_y
 _atom_site_fract_z
 _atom_site_occupancy
  Ag  Ag0  1  0.17990000  0.28791000  0.07968000  1.0
  Ag  Ag1  1  0.82011000  0.78790000  0.42032000  1.0
  Ag  Ag2  1  0.82011000  0.71210000  0.92032000  1.0
  Ag  Ag3  1  0.17989000  0.21210000  0.57968000  1.0
  Ag  Ag4  1  0.28533000  0.97788000  0.02329000  1.0
  Ag  Ag5  1  0.71467000  0.47788000  0.47671000  1.0
  Ag  Ag6  1  0.71467000  0.02212000  0.97671000  1.0
  Ag  Ag7  1  0.28534000  0.52212000  0.52329000  1.0
  H  H8  1  0.52636000  0.17073000  0.20552000  1.0
  H  H9  1  0.47364000  0.67073000  0.29448000  1.0
  H  H10  1  0.47365000  0.82926000  0.79448000  1.0
  H  H11  1  0.52636000  0.32926000  0.70552000  1.0
  H  H12  1  0.33237000  0.14252000  0.16264000  1.0
  H  H13  1  0.66763000  0.64252000  0.33736000  1.0
  H  H14  1  0.66763000  0.85748000  0.83736000  1.0
  H  H15  1  0.33237000  0.35747000  0.66265000  1.0
  H  H16  1  0.50098000  0.98025000  0.16978000  1.0
  H  H17  1  0.49902000  0.48025000  0.33022000  1.0
  H  H18  1  0.49903000  0.01975000  0.83022000  1.0
  H  H19  1  0.50098000  0.51974000  0.66979000  1.0
  H  H20  1  0.53688000  0.51613000  0.20761000  1.0
  H  H21  1  0.46312000  0.01614000  0.29239000  1.0
  H  H22  1  0.46311000  0.48386000  0.79239000  1.0
  H  H23  1  0.53688000  0.98385000  0.70761000  1.0
  H  H24  1  0.50415000  0.36804000  0.00949000  1.0
  H  H25  1  0.49586000  0.86803000  0.49051000  1.0
  H  H26  1  0.49585000  0.63197000  0.99051000  1.0
  H  H27  1  0.50414000  0.13197000  0.50949000  1.0
  H  H28  1  0.85270000  0.47164000  0.24565000  1.0
  H  H29  1  0.14730000  0.97165000  0.25435000  1.0
  H  H30  1  0.14729000  0.52835000  0.75435000  1.0
  H  H31  1  0.85270000  0.02835000  0.74565000  1.0
  H  H32  1  0.01440000  0.04781000  0.14774000  1.0
  H  H33  1  0.98560000  0.54782000  0.35226000  1.0
  H  H34  1  0.98559000  0.95219000  0.85226000  1.0
  H  H35  1  0.01441000  0.45218000  0.64774000  1.0
  H  H36  1  0.94556000  0.20787000  0.19247000  1.0
  H  H37  1  0.05444000  0.70788000  0.30753000  1.0
  H  H38  1  0.05444000  0.79212000  0.80753000  1.0
  H  H39  1  0.94556000  0.29212000  0.69247000  1.0
  H  H40  1  0.81473000  0.01805000  0.18720000  1.0
  H  H41  1  0.18527000  0.51805000  0.31280000  1.0
  H  H42  1  0.18527000  0.98195000  0.81280000  1.0
  H  H43  1  0.81473000  0.48195000  0.68720000  1.0
  H  H44  1  0.50077000  0.65948000  0.12138000  1.0
  H  H45  1  0.49922000  0.15949000  0.37862000  1.0
  H  H46  1  0.49921000  0.34051000  0.87862000  1.0
  H  H47  1  0.50079000  0.84050000  0.62138000  1.0
  H  H48  1  0.85205000  0.37910000  0.01018000  1.0
  H  H49  1  0.14796000  0.87910000  0.48982000  1.0
  H  H50  1  0.14795000  0.62091000  0.98982000  1.0
  H  H51  1  0.85204000  0.12090000  0.51018000  1.0
  C  C52  1  0.58563000  0.19128000  0.12357000  1.0
  C  C53  1  0.41438000  0.69129000  0.37643000  1.0
  C  C54  1  0.41438000  0.80872000  0.87643000  1.0
  C  C55  1  0.58562000  0.30872000  0.62357000  1.0
  C  C56  1  0.48072000  0.11766000  0.16795000  1.0
  C  C57  1  0.51928000  0.61766000  0.33205000  1.0
  C  C58  1  0.51929000  0.88234000  0.83205000  1.0
  C  C59  1  0.48072000  0.38234000  0.66795000  1.0
  C  C60  1  0.13900000  0.71491000  0.09924000  1.0
  C  C61  1  0.86099000  0.21491000  0.40076000  1.0
  C  C62  1  0.86099000  0.28510000  0.90076000  1.0
  C  C63  1  0.13902000  0.78509000  0.59924000  1.0
  C  C64  1  0.97173000  0.66751000  0.13105000  1.0
  C  C65  1  0.02826000  0.16751000  0.36895000  1.0
  C  C66  1  0.02826000  0.33249000  0.86895000  1.0
  C  C67  1  0.97175000  0.83248000  0.63105000  1.0
  C  C68  1  0.79293000  0.69256000  0.11037000  1.0
  C  C69  1  0.20706000  0.19257000  0.38963000  1.0
  C  C70  1  0.20706000  0.30744000  0.88963000  1.0
  C  C71  1  0.79295000  0.80743000  0.61037000  1.0
  C  C72  1  0.65828000  0.55819000  0.18645000  1.0
  C  C73  1  0.34172000  0.05820000  0.31355000  1.0
  C  C74  1  0.34171000  0.44180000  0.81355000  1.0
  C  C75  1  0.65828000  0.94179000  0.68645000  1.0
  C  C76  1  0.77167000  0.76491000  0.05609000  1.0
  C  C77  1  0.22832000  0.26492000  0.44390000  1.0
  C  C78  1  0.22832000  0.23510000  0.94391000  1.0
  C  C79  1  0.77169000  0.73508000  0.55609000  1.0
  C  C80  1  0.58406000  0.32031000  0.04250000  1.0
  C  C81  1  0.41595000  0.82031000  0.45750000  1.0
  C  C82  1  0.41595000  0.67970000  0.95750000  1.0
  C  C83  1  0.58405000  0.17969000  0.54250000  1.0
  C  C84  1  0.83346000  0.53218000  0.20780000  1.0
  C  C85  1  0.16653000  0.03219000  0.29220000  1.0
  C  C86  1  0.16653000  0.46781000  0.79220000  1.0
  C  C87  1  0.83347000  0.96780000  0.70780000  1.0
  C  C88  1  0.78211000  0.19013000  0.12281000  1.0
  C  C89  1  0.21790000  0.69013000  0.37719000  1.0
  C  C90  1  0.21790000  0.80988000  0.87719000  1.0
  C  C91  1  0.78210000  0.30987000  0.62281000  1.0
  C  C92  1  0.89444000  0.11086000  0.16518000  1.0
  C  C93  1  0.10556000  0.61087000  0.33482000  1.0
  C  C94  1  0.10556000  0.88913000  0.83482000  1.0
  C  C95  1  0.89444000  0.38913000  0.66518000  1.0
  C  C96  1  0.63797000  0.64044000  0.13844000  1.0
  C  C97  1  0.36202000  0.14046000  0.36156000  1.0
  C  C98  1  0.36201000  0.35955000  0.86156000  1.0
  C  C99  1  0.63799000  0.85954000  0.63844000  1.0
  C  C100  1  0.77603000  0.32369000  0.04233000  1.0
  C  C101  1  0.22398000  0.82369000  0.45767000  1.0
  C  C102  1  0.22397000  0.67632000  0.95767000  1.0
  C  C103  1  0.77602000  0.17631000  0.54233000  1.0
  C  C104  1  0.98581000  0.59003000  0.17998000  1.0
  C  C105  1  0.01419000  0.09003000  0.32002000  1.0
  C  C106  1  0.01418000  0.40997000  0.82002000  1.0
  C  C107  1  0.98582000  0.90996000  0.67998000  1.0
  N  N108  1  0.87423000  0.26059000  0.08290000  1.0
  N  N109  1  0.12577000  0.76060000  0.41710000  1.0
  N  N110  1  0.12577000  0.73941000  0.91710000  1.0
  N  N111  1  0.87423000  0.23940000  0.58290000  1.0
  N  N112  1  0.48940000  0.25782000  0.08326000  1.0
  N  N113  1  0.51060000  0.75782000  0.41674000  1.0
  N  N114  1  0.51060000  0.74218000  0.91674000  1.0
  N  N115  1  0.48940000  0.24218000  0.58326000  1.0
  N  N116  1  0.16695000  0.57318000  0.20482000  1.0
  N  N117  1  0.83305000  0.07319000  0.29518000  1.0
  N  N118  1  0.83304000  0.42682000  0.79519000  1.0
  N  N119  1  0.16696000  0.92682000  0.70482000  1.0
  O  O120  1  0.24527000  0.60020000  0.08377000  1.0
  O  O121  1  0.75473000  0.10020000  0.41622000  1.0
  O  O122  1  0.75472000  0.39981000  0.91623000  1.0
  O  O123  1  0.24528000  0.89980000  0.58377000  1.0
  O  O124  1  0.15391000  0.87289000  0.09034000  1.0
  O  O125  1  0.84608000  0.37289000  0.40966000  1.0
  O  O126  1  0.84609000  0.12712000  0.90967000  1.0
  O  O127  1  0.15392000  0.62711000  0.59034000  1.0
  O  O128  1  0.66602000  0.89434000  0.05103000  1.0
  O  O129  1  0.33397000  0.39435000  0.44897000  1.0
  O  O130  1  0.33396000  0.10566000  0.94897000  1.0
  O  O131  1  0.66604000  0.60565000  0.55103000  1.0
  O  O132  1  0.85867000  0.69226000  0.02026000  1.0
  O  O133  1  0.14133000  0.19226000  0.47974000  1.0
  O  O134  1  0.14135000  0.30777000  0.97974000  1.0
  O  O135  1  0.85868000  0.80775000  0.52026000  1.0
  O  O136  1  0.26743000  0.70045000  0.20630000  1.0
  O  O137  1  0.73256000  0.20045000  0.29370000  1.0
  O  O138  1  0.73256000  0.29955000  0.79371000  1.0
  O  O139  1  0.26745000  0.79955000  0.70630000  1.0
  O  O140  1  0.20902000  0.43457000  0.22439000  1.0
  O  O141  1  0.79098000  0.93458000  0.27561000  1.0
  O  O142  1  0.79097000  0.56543000  0.77561000  1.0
  O  O143  1  0.20902000  0.06543000  0.72439000  1.0
