# generated using pymatgen
data_Cu3H22C30S2(N5O3)4
_symmetry_space_group_name_H-M   'P 1'
_cell_length_a   8.03123000
_cell_length_b   11.81870000
_cell_length_c   14.01380000
_cell_angle_alpha   104.06600000
_cell_angle_beta   104.53500000
_cell_angle_gamma   107.68500000
_symmetry_Int_Tables_number   1
_chemical_formula_structural   Cu3H22C30S2(N5O3)4
_chemical_formula_sum   'Cu3 H22 C30 S2 N20 O12'
_cell_volume   1150.88797779
_cell_formula_units_Z   1
loop_
 _symmetry_equiv_pos_site_id
 _symmetry_equiv_pos_as_xyz
  1  'x, y, z'
loop_
 _atom_site_type_symbol
 _atom_site_label
 _atom_site_symmetry_multiplicity
 _atom_site_fract_x
 _atom_site_fract_y
 _atom_site_fract_z
 _atom_site_occupancy
  Cu  Cu0  1  0.99997000  0.50024000  0.99992000  1.0
  Cu  Cu1  1  0.49632000  0.68115000  0.50488000  1.0
  Cu  Cu2  1  0.50387000  0.31872000  0.49500000  1.0
  H  H3  1  0.95707000  0.23307000  0.00541000  1.0
  H  H4  1  0.04296000  0.76684000  0.99457000  1.0
  H  H5  1  0.09849000  0.32100000  0.11943000  1.0
  H  H6  1  0.90143000  0.67894000  0.88053000  1.0
  H  H7  1  0.30022000  0.54418000  0.88689000  1.0
  H  H8  1  0.69980000  0.45585000  0.11308000  1.0
  H  H9  1  0.65210000  0.66666667  0.95559000  1.0
  H  H10  1  0.34790000  0.33329000  0.04441000  1.0
  H  H11  1  0.65371000  0.77589000  0.26058000  1.0
  H  H12  1  0.34630000  0.22382000  0.73945000  1.0
  H  H13  1  0.27903000  0.72208000  0.66152000  1.0
  H  H14  1  0.72096000  0.27793000  0.33848000  1.0
  H  H15  1  0.95655000  0.70958000  0.65850000  1.0
  H  H16  1  0.04345000  0.29046000  0.34151000  1.0
  H  H17  1  0.77825000  0.61741000  0.33427000  1.0
  H  H18  1  0.22170000  0.38257000  0.66572000  1.0
  H  H19  1  0.85605000  0.09660000  0.48993000  1.0
  H  H20  1  0.14398000  0.90338000  0.51007000  1.0
  H  H21  1  0.06200000  0.07740000  0.78636000  1.0
  H  H22  1  0.93804000  0.92267000  0.21367000  1.0
  H  H23  1  0.80759000  0.85498000  0.72555000  1.0
  H  H24  1  0.19251000  0.14506000  0.27447000  1.0
  C  C25  1  0.37975000  0.59759000  0.97023000  1.0
  C  C26  1  0.62021000  0.40254000  0.02974000  1.0
  C  C27  1  0.57320000  0.66555000  0.00867000  1.0
  C  C28  1  0.42680000  0.33441000  0.99134000  1.0
  C  C29  1  0.57390000  0.72567000  0.17718000  1.0
  C  C30  1  0.42607000  0.27425000  0.82283000  1.0
  C  C31  1  0.37996000  0.65946000  0.14035000  1.0
  C  C32  1  0.61998000  0.34058000  0.85963000  1.0
  C  C33  1  0.25780000  0.64897000  0.20091000  1.0
  C  C34  1  0.74218000  0.35078000  0.79910000  1.0
  C  C35  1  0.11330000  0.64081000  0.31430000  1.0
  C  C36  1  0.88665000  0.35934000  0.68570000  1.0
  C  C37  1  0.07263000  0.65694000  0.41106000  1.0
  C  C38  1  0.92734000  0.34322000  0.58896000  1.0
  C  C39  1  0.16764000  0.70290000  0.58919000  1.0
  C  C40  1  0.83233000  0.29708000  0.41080000  1.0
  C  C41  1  0.98965000  0.69475000  0.58664000  1.0
  C  C42  1  0.01034000  0.30525000  0.41337000  1.0
  C  C43  1  0.89125000  0.64462000  0.40818000  1.0
  C  C44  1  0.10870000  0.35541000  0.59184000  1.0
  C  C45  1  0.54981000  0.87232000  0.40736000  1.0
  C  C46  1  0.45022000  0.12782000  0.59268000  1.0
  C  C47  1  0.70272000  0.92781000  0.51255000  1.0
  C  C48  1  0.29734000  0.07224000  0.48750000  1.0
  C  C49  1  0.84727000  0.04561000  0.54494000  1.0
  C  C50  1  0.15279000  0.95442000  0.45509000  1.0
  C  C51  1  0.95922000  0.03209000  0.70657000  1.0
  C  C52  1  0.04084000  0.96795000  0.29345000  1.0
  C  C53  1  0.81845000  0.91180000  0.67475000  1.0
  C  C54  1  0.18163000  0.08823000  0.32526000  1.0
  S  S55  1  0.62315000  0.58056000  0.68664000  1.0
  S  S56  1  0.37682000  0.41940000  0.31334000  1.0
  N  N57  1  0.66918000  0.72868000  0.11146000  1.0
  N  N58  1  0.33079000  0.27129000  0.88855000  1.0
  N  N59  1  0.28502000  0.59502000  0.03611000  1.0
  N  N60  1  0.71485000  0.40543000  0.96381000  1.0
  N  N61  1  0.07400000  0.58492000  0.15019000  1.0
  N  N62  1  0.92608000  0.41433000  0.84983000  1.0
  N  N63  1  0.98414000  0.57882000  0.21888000  1.0
  N  N64  1  0.01587000  0.42087000  0.78114000  1.0
  N  N65  1  0.28736000  0.68757000  0.30576000  1.0
  N  N66  1  0.71256000  0.31265000  0.69424000  1.0
  N  N67  1  0.20988000  0.68595000  0.50175000  1.0
  N  N68  1  0.79007000  0.31411000  0.49823000  1.0
  N  N69  1  0.85142000  0.66560000  0.49603000  1.0
  N  N70  1  0.14853000  0.33438000  0.50399000  1.0
  N  N71  1  0.45273000  0.74815000  0.38895000  1.0
  N  N72  1  0.54715000  0.25205000  0.61111000  1.0
  N  N73  1  0.69254000  0.86015000  0.57710000  1.0
  N  N74  1  0.30752000  0.13988000  0.42292000  1.0
  N  N75  1  0.97680000  0.09800000  0.64155000  1.0
  N  N76  1  0.02324000  0.90203000  0.35846000  1.0
  O  O77  1  0.52122000  0.93499000  0.35011000  1.0
  O  O78  1  0.47891000  0.06522000  0.64998000  1.0
  O  O79  1  0.04869000  0.31852000  0.04535000  1.0
  O  O80  1  0.95133000  0.68139000  0.95461000  1.0
  O  O81  1  0.50766000  0.64412000  0.63494000  1.0
  O  O82  1  0.49239000  0.35585000  0.36502000  1.0
  O  O83  1  0.65917000  0.49612000  0.60199000  1.0
  O  O84  1  0.34075000  0.50383000  0.39798000  1.0
  O  O85  1  0.52326000  0.51210000  0.74272000  1.0
  O  O86  1  0.47673000  0.48789000  0.25729000  1.0
  O  O87  1  0.80786000  0.68015000  0.76018000  1.0
  O  O88  1  0.19213000  0.31979000  0.23984000  1.0
