# generated using pymatgen
data_ZnH12C15N4O5
_symmetry_space_group_name_H-M   'P 1'
_cell_length_a   8.94179000
_cell_length_b   9.94804000
_cell_length_c   11.46310000
_cell_angle_alpha   80.32380000
_cell_angle_beta   73.63590000
_cell_angle_gamma   65.24120000
_symmetry_Int_Tables_number   1
_chemical_formula_structural   ZnH12C15N4O5
_chemical_formula_sum   'Zn2 H24 C30 N8 O10'
_cell_volume   886.97140238
_cell_formula_units_Z   2
loop_
 _symmetry_equiv_pos_site_id
 _symmetry_equiv_pos_as_xyz
  1  'x, y, z'
loop_
 _atom_site_type_symbol
 _atom_site_label
 _atom_site_symmetry_multiplicity
 _atom_site_fract_x
 _atom_site_fract_y
 _atom_site_fract_z
 _atom_site_occupancy
  Zn  Zn0  1  0.07338000  0.09041000  0.31578000  1.0
  Zn  Zn1  1  0.92661000  0.90959000  0.68422000  1.0
  H  H2  1  0.80971000  0.70993000  0.63907000  1.0
  H  H3  1  0.19028000  0.29007000  0.36094000  1.0
  H  H4  1  0.42428000  0.88874000  0.55495000  1.0
  H  H5  1  0.57572000  0.11127000  0.44505000  1.0
  H  H6  1  0.53803000  0.09824000  0.14925000  1.0
  H  H7  1  0.46196000  0.90176000  0.85075000  1.0
  H  H8  1  0.51861000  0.93280000  0.22418000  1.0
  H  H9  1  0.48139000  0.06720000  0.77581000  1.0
  H  H10  1  0.76108000  0.17107000  0.18988000  1.0
  H  H11  1  0.23892000  0.82893000  0.81011000  1.0
  H  H12  1  0.55852000  0.56568000  0.29671000  1.0
  H  H13  1  0.44148000  0.43432000  0.70330000  1.0
  H  H14  1  0.71158000  0.08541000  0.92387000  1.0
  H  H15  1  0.28841000  0.91459000  0.07613000  1.0
  H  H16  1  0.87679000  0.48831000  0.54214000  1.0
  H  H17  1  0.12321000  0.51169000  0.45786000  1.0
  H  H18  1  0.02190000  0.78638000  0.38725000  1.0
  H  H19  1  0.97810000  0.21362000  0.61275000  1.0
  H  H20  1  0.69122000  0.68474000  0.11270000  1.0
  H  H21  1  0.30878000  0.31526000  0.88731000  1.0
  H  H22  1  0.85098000  0.63664000  0.86760000  1.0
  H  H23  1  0.14903000  0.36336000  0.13240000  1.0
  H  H24  1  0.78814000  0.73395000  0.30364000  1.0
  H  H25  1  0.21186000  0.26605000  0.69636000  1.0
  C  C26  1  0.33011000  0.83581000  0.36571000  1.0
  C  C27  1  0.66989000  0.16419000  0.63429000  1.0
  C  C28  1  0.84746000  0.37237000  0.35033000  1.0
  C  C29  1  0.15254000  0.62762000  0.64969000  1.0
  C  C30  1  0.50743000  0.78108000  0.51844000  1.0
  C  C31  1  0.49258000  0.21893000  0.48155000  1.0
  C  C32  1  0.60756000  0.97934000  0.16637000  1.0
  C  C33  1  0.39244000  0.02066000  0.83363000  1.0
  C  C34  1  0.80394000  0.05835000  0.22931000  1.0
  C  C35  1  0.19606000  0.94164000  0.77069000  1.0
  C  C36  1  0.58447000  0.60089000  0.37108000  1.0
  C  C37  1  0.41553000  0.39911000  0.62892000  1.0
  C  C38  1  0.73108000  0.96936000  0.94178000  1.0
  C  C39  1  0.26892000  0.03065000  0.05822000  1.0
  C  C40  1  0.73001000  0.51215000  0.41311000  1.0
  C  C41  1  0.26999000  0.48785000  0.58689000  1.0
  C  C42  1  0.47343000  0.73520000  0.42346000  1.0
  C  C43  1  0.52658000  0.26480000  0.57654000  1.0
  C  C44  1  0.76359000  0.55726000  0.50904000  1.0
  C  C45  1  0.23640000  0.44274000  0.49096000  1.0
  C  C46  1  0.65341000  0.69268000  0.56068000  1.0
  C  C47  1  0.34660000  0.30733000  0.43932000  1.0
  C  C48  1  0.93556000  0.85652000  0.33125000  1.0
  C  C49  1  0.06444000  0.14348000  0.66875000  1.0
  C  C50  1  0.72146000  0.75825000  0.03729000  1.0
  C  C51  1  0.27855000  0.24175000  0.96271000  1.0
  C  C52  1  0.79843000  0.73686000  0.91625000  1.0
  C  C53  1  0.20157000  0.26314000  0.08376000  1.0
  C  C54  1  0.82056000  0.82952000  0.29161000  1.0
  C  C55  1  0.17944000  0.17047000  0.70839000  1.0
  N  N56  1  0.92352000  0.99910000  0.29181000  1.0
  N  N57  1  0.07648000  0.00089000  0.70818000  1.0
  N  N58  1  0.80248000  0.86930000  0.85792000  1.0
  N  N59  1  0.19752000  0.13070000  0.14208000  1.0
  N  N60  1  0.73765000  0.95834000  0.22775000  1.0
  N  N61  1  0.26235000  0.04166000  0.77225000  1.0
  N  N62  1  0.67964000  0.90644000  0.05181000  1.0
  N  N63  1  0.32037000  0.09356000  0.94819000  1.0
  O  O64  1  0.97977000  0.28596000  0.39435000  1.0
  O  O65  1  0.02022000  0.71403000  0.60564000  1.0
  O  O66  1  0.32805000  0.80629000  0.26388000  1.0
  O  O67  1  0.67196000  0.19370000  0.73611000  1.0
  O  O68  1  0.22159000  0.95354000  0.42224000  1.0
  O  O69  1  0.77841000  0.04646000  0.57775000  1.0
  O  O70  1  0.81749000  0.34147000  0.26052000  1.0
  O  O71  1  0.18249000  0.65853000  0.73948000  1.0
  O  O72  1  0.68542000  0.74331000  0.65105000  1.0
  O  O73  1  0.31458000  0.25669000  0.34895000  1.0
