# generated using pymatgen
data_AgH7C11N4(OF)4
_symmetry_space_group_name_H-M   'P 1'
_cell_length_a   6.43804000
_cell_length_b   11.32820000
_cell_length_c   18.41700000
_cell_angle_alpha   95.75610000
_cell_angle_beta   90.00000000
_cell_angle_gamma   90.00000000
_symmetry_Int_Tables_number   1
_chemical_formula_structural   AgH7C11N4(OF)4
_chemical_formula_sum   'Ag4 H28 C44 N16 O16 F16'
_cell_volume   1336.40517227
_cell_formula_units_Z   4
loop_
 _symmetry_equiv_pos_site_id
 _symmetry_equiv_pos_as_xyz
  1  'x, y, z'
loop_
 _atom_site_type_symbol
 _atom_site_label
 _atom_site_symmetry_multiplicity
 _atom_site_fract_x
 _atom_site_fract_y
 _atom_site_fract_z
 _atom_site_occupancy
  Ag  Ag0  1  0.32406000  0.42264000  0.39045000  1.0
  Ag  Ag1  1  0.82407000  0.07736000  0.60955000  1.0
  Ag  Ag2  1  0.67594000  0.57736000  0.60955000  1.0
  Ag  Ag3  1  0.17594000  0.92264000  0.39045000  1.0
  H  H4  1  0.95601000  0.57604000  0.41138000  1.0
  H  H5  1  0.45601000  0.92396000  0.58862000  1.0
  H  H6  1  0.04399000  0.42396000  0.58862000  1.0
  H  H7  1  0.54399000  0.07604000  0.41138000  1.0
  H  H8  1  0.69267000  0.55293000  0.43196000  1.0
  H  H9  1  0.19268000  0.94707000  0.56804000  1.0
  H  H10  1  0.30733000  0.44707000  0.56804000  1.0
  H  H11  1  0.80732000  0.05293000  0.43196000  1.0
  H  H12  1  0.50852000  0.21404000  0.29622000  1.0
  H  H13  1  0.00854000  0.28596000  0.70378000  1.0
  H  H14  1  0.49147000  0.78597000  0.70378000  1.0
  H  H15  1  0.99147000  0.71403000  0.29622000  1.0
  H  H16  1  0.15603000  0.27301000  0.25152000  1.0
  H  H17  1  0.65605000  0.22698000  0.74848000  1.0
  H  H18  1  0.84396000  0.72699000  0.74848000  1.0
  H  H19  1  0.34396000  0.77301000  0.25152000  1.0
  H  H20  1  0.74499000  0.88849000  0.96551000  1.0
  H  H21  1  0.24499000  0.61151000  0.03449000  1.0
  H  H22  1  0.25501000  0.11151000  0.03449000  1.0
  H  H23  1  0.75501000  0.38849000  0.96551000  1.0
  H  H24  1  0.86552000  0.74570000  0.95082000  1.0
  H  H25  1  0.36551000  0.75430000  0.04918000  1.0
  H  H26  1  0.13448000  0.25430000  0.04918000  1.0
  H  H27  1  0.63448000  0.24570000  0.95082000  1.0
  H  H28  1  0.02395000  0.87456000  0.97170000  1.0
  H  H29  1  0.52394000  0.62544000  0.02830000  1.0
  H  H30  1  0.97605000  0.12544000  0.02830000  1.0
  H  H31  1  0.47606000  0.37456000  0.97170000  1.0
  C  C32  1  0.82534000  0.42745000  0.35810000  1.0
  C  C33  1  0.32535000  0.07255000  0.64190000  1.0
  C  C34  1  0.17465000  0.57255000  0.64190000  1.0
  C  C35  1  0.67465000  0.92745000  0.35810000  1.0
  C  C36  1  0.65193000  0.26519000  0.30100000  1.0
  C  C37  1  0.15194000  0.23481000  0.69901000  1.0
  C  C38  1  0.34806000  0.73481000  0.69901000  1.0
  C  C39  1  0.84806000  0.76519000  0.30099000  1.0
  C  C40  1  0.83121000  0.22571000  0.26274000  1.0
  C  C41  1  0.33123000  0.27428000  0.73727000  1.0
  C  C42  1  0.16878000  0.77429000  0.73727000  1.0
  C  C43  1  0.66878000  0.72572000  0.26273000  1.0
  C  C44  1  0.00871000  0.29573000  0.27840000  1.0
  C  C45  1  0.50872000  0.20427000  0.72160000  1.0
  C  C46  1  0.99129000  0.70427000  0.72160000  1.0
  C  C47  1  0.49128000  0.79573000  0.27840000  1.0
  C  C48  1  0.83442000  0.11822000  0.21085000  1.0
  C  C49  1  0.33444000  0.38178000  0.78916000  1.0
  C  C50  1  0.16557000  0.88178000  0.78915000  1.0
  C  C51  1  0.66556000  0.61823000  0.21084000  1.0
  C  C52  1  0.66853000  0.08565000  0.16343000  1.0
  C  C53  1  0.16855000  0.41435000  0.83657000  1.0
  C  C54  1  0.33146000  0.91435000  0.83657000  1.0
  C  C55  1  0.83146000  0.58565000  0.16343000  1.0
  C  C56  1  0.67509000  0.98601000  0.11279000  1.0
  C  C57  1  0.17509000  0.51399000  0.88722000  1.0
  C  C58  1  0.32491000  0.01399000  0.88722000  1.0
  C  C59  1  0.82491000  0.48602000  0.11278000  1.0
  C  C60  1  0.84953000  0.91160000  0.10572000  1.0
  C  C61  1  0.34953000  0.58840000  0.89428000  1.0
  C  C62  1  0.15047000  0.08841000  0.89428000  1.0
  C  C63  1  0.65047000  0.41160000  0.10572000  1.0
  C  C64  1  0.01429000  0.94150000  0.15368000  1.0
  C  C65  1  0.51431000  0.55849000  0.84632000  1.0
  C  C66  1  0.98570000  0.05850000  0.84632000  1.0
  C  C67  1  0.48569000  0.44151000  0.15368000  1.0
  C  C68  1  0.00561000  0.04101000  0.20444000  1.0
  C  C69  1  0.50562000  0.45899000  0.79556000  1.0
  C  C70  1  0.99439000  0.95899000  0.79556000  1.0
  C  C71  1  0.49438000  0.54101000  0.20444000  1.0
  C  C72  1  0.87351000  0.83313000  0.98156000  1.0
  C  C73  1  0.37350000  0.66687000  0.01844000  1.0
  C  C74  1  0.12649000  0.16687000  0.01844000  1.0
  C  C75  1  0.62650000  0.33313000  0.98156000  1.0
  N  N76  1  0.00991000  0.39200000  0.32634000  1.0
  N  N77  1  0.50992000  0.10800000  0.67366000  1.0
  N  N78  1  0.99009000  0.60800000  0.67366000  1.0
  N  N79  1  0.49009000  0.89200000  0.32634000  1.0
  N  N80  1  0.82273000  0.52767000  0.40258000  1.0
  N  N81  1  0.32273000  0.97233000  0.59742000  1.0
  N  N82  1  0.17727000  0.47233000  0.59742000  1.0
  N  N83  1  0.67727000  0.02767000  0.40258000  1.0
  N  N84  1  0.64503000  0.36510000  0.34593000  1.0
  N  N85  1  0.14504000  0.13490000  0.65407000  1.0
  N  N86  1  0.35496000  0.63490000  0.65407000  1.0
  N  N87  1  0.85496000  0.86510000  0.34593000  1.0
  N  N88  1  0.16118000  0.19126000  0.44609000  1.0
  N  N89  1  0.66118000  0.30874000  0.55391000  1.0
  N  N90  1  0.83882000  0.80874000  0.55391000  1.0
  N  N91  1  0.33882000  0.69126000  0.44609000  1.0
  O  O92  1  0.85749000  0.81193000  0.05789000  1.0
  O  O93  1  0.35750000  0.68807000  0.94211000  1.0
  O  O94  1  0.14250000  0.18807000  0.94212000  1.0
  O  O95  1  0.64250000  0.31193000  0.05788000  1.0
  O  O96  1  0.10755000  0.29450000  0.47065000  1.0
  O  O97  1  0.60755000  0.20550000  0.52935000  1.0
  O  O98  1  0.89245000  0.70550000  0.52935000  1.0
  O  O99  1  0.39246000  0.79450000  0.47064000  1.0
  O  O100  1  0.29623000  0.17460000  0.39601000  1.0
  O  O101  1  0.79623000  0.32540000  0.60399000  1.0
  O  O102  1  0.70377000  0.82540000  0.60399000  1.0
  O  O103  1  0.20377000  0.67460000  0.39601000  1.0
  O  O104  1  0.07696000  0.10128000  0.47118000  1.0
  O  O105  1  0.57696000  0.39872000  0.52881000  1.0
  O  O106  1  0.92304000  0.89872000  0.52881000  1.0
  O  O107  1  0.42304000  0.60128000  0.47119000  1.0
  F  F108  1  0.49470000  0.15321000  0.16507000  1.0
  F  F109  1  0.99472000  0.34679000  0.83494000  1.0
  F  F110  1  0.50529000  0.84679000  0.83494000  1.0
  F  F111  1  0.00529000  0.65321000  0.16506000  1.0
  F  F112  1  0.50890000  0.96043000  0.06888000  1.0
  F  F113  1  0.00891000  0.53957000  0.93112000  1.0
  F  F114  1  0.49110000  0.03957000  0.93113000  1.0
  F  F115  1  0.99109000  0.46043000  0.06887000  1.0
  F  F116  1  0.18614000  0.87252000  0.15124000  1.0
  F  F117  1  0.68615000  0.62748000  0.84876000  1.0
  F  F118  1  0.81385000  0.12749000  0.84876000  1.0
  F  F119  1  0.31385000  0.37252000  0.15124000  1.0
  F  F120  1  0.17049000  0.06100000  0.24961000  1.0
  F  F121  1  0.67051000  0.43900000  0.75039000  1.0
  F  F122  1  0.82951000  0.93900000  0.75039000  1.0
  F  F123  1  0.32951000  0.56100000  0.24961000  1.0
