# generated using pymatgen
data_CuH22C26N2(O4F)2
_symmetry_space_group_name_H-M   'P 1'
_cell_length_a   6.62322000
_cell_length_b   8.01868000
_cell_length_c   11.44010000
_cell_angle_alpha   83.70380000
_cell_angle_beta   83.04780000
_cell_angle_gamma   85.27440000
_symmetry_Int_Tables_number   1
_chemical_formula_structural   CuH22C26N2(O4F)2
_chemical_formula_sum   'Cu1 H22 C26 N2 O8 F2'
_cell_volume   598.00037544
_cell_formula_units_Z   1
loop_
 _symmetry_equiv_pos_site_id
 _symmetry_equiv_pos_as_xyz
  1  'x, y, z'
loop_
 _atom_site_type_symbol
 _atom_site_label
 _atom_site_symmetry_multiplicity
 _atom_site_fract_x
 _atom_site_fract_y
 _atom_site_fract_z
 _atom_site_occupancy
  Cu  Cu0  1  0.50000000  0.50000000  0.50000000  1.0
  H  H1  1  0.38107000  0.25006000  0.39515000  1.0
  H  H2  1  0.61893000  0.74994000  0.60485000  1.0
  H  H3  1  0.62845000  0.15191000  0.16696000  1.0
  H  H4  1  0.37155000  0.84809000  0.83305000  1.0
  H  H5  1  0.06547000  0.13301000  0.95110000  1.0
  H  H6  1  0.93452000  0.86700000  0.04890000  1.0
  H  H7  1  0.35885000  0.30580000  0.96402000  1.0
  H  H8  1  0.64115000  0.69420000  0.03598000  1.0
  H  H9  1  0.03015000  0.52241000  0.26447000  1.0
  H  H10  1  0.96985000  0.47759000  0.73553000  1.0
  H  H11  1  0.45207000  0.27832000  0.72716000  1.0
  H  H12  1  0.54794000  0.72168000  0.27284000  1.0
  H  H13  1  0.67161000  0.05991000  0.83861000  1.0
  H  H14  1  0.32840000  0.94009000  0.16140000  1.0
  H  H15  1  0.03196000  0.99613000  0.75276000  1.0
  H  H16  1  0.96805000  0.00387000  0.24724000  1.0
  H  H17  1  0.92736000  0.37080000  0.46353000  1.0
  H  H18  1  0.07263000  0.62919000  0.53647000  1.0
  H  H19  1  0.32510000  0.10697000  0.60830000  1.0
  H  H20  1  0.67490000  0.89302000  0.39170000  1.0
  H  H21  1  0.22157000  0.03063000  0.49099000  1.0
  H  H22  1  0.77843000  0.96937000  0.50901000  1.0
  C  C23  1  0.69264000  0.34812000  0.28172000  1.0
  C  C24  1  0.30736000  0.65188000  0.71828000  1.0
  C  C25  1  0.87229000  0.33996000  0.19091000  1.0
  C  C26  1  0.12770000  0.66005000  0.80909000  1.0
  C  C27  1  0.88204000  0.23008000  0.10100000  1.0
  C  C28  1  0.11796000  0.76993000  0.89899000  1.0
  C  C29  1  0.05691000  0.21925000  0.01891000  1.0
  C  C30  1  0.94308000  0.78076000  0.98109000  1.0
  C  C31  1  0.22068000  0.31423000  0.02579000  1.0
  C  C32  1  0.77931000  0.68577000  0.97421000  1.0
  C  C33  1  0.20715000  0.42227000  0.11430000  1.0
  C  C34  1  0.79284000  0.57774000  0.88570000  1.0
  C  C35  1  0.03731000  0.43729000  0.19604000  1.0
  C  C36  1  0.96269000  0.56271000  0.80395000  1.0
  C  C37  1  0.60902000  0.24419000  0.69336000  1.0
  C  C38  1  0.39099000  0.75580000  0.30664000  1.0
  C  C39  1  0.73201000  0.12382000  0.75419000  1.0
  C  C40  1  0.26799000  0.87618000  0.24582000  1.0
  C  C41  1  0.93300000  0.08969000  0.70675000  1.0
  C  C42  1  0.06701000  0.91031000  0.29326000  1.0
  C  C43  1  0.00704000  0.17687000  0.59959000  1.0
  C  C44  1  0.99296000  0.82313000  0.40041000  1.0
  C  C45  1  0.87505000  0.29755000  0.54551000  1.0
  C  C46  1  0.12495000  0.70245000  0.45449000  1.0
  C  C47  1  0.21985000  0.14181000  0.54032000  1.0
  C  C48  1  0.78016000  0.85819000  0.45968000  1.0
  N  N49  1  0.67998000  0.32931000  0.59048000  1.0
  N  N50  1  0.32002000  0.67069000  0.40953000  1.0
  O  O51  1  0.67995000  0.46662000  0.34912000  1.0
  O  O52  1  0.32004000  0.53338000  0.65088000  1.0
  O  O53  1  0.56419000  0.23510000  0.28845000  1.0
  O  O54  1  0.43581000  0.76489000  0.71155000  1.0
  O  O55  1  0.27937000  0.28376000  0.46258000  1.0
  O  O56  1  0.72062000  0.71624000  0.53742000  1.0
  O  O57  1  0.72756000  0.13124000  0.09438000  1.0
  O  O58  1  0.27244000  0.86876000  0.90563000  1.0
  F  F59  1  0.36809000  0.51705000  0.11980000  1.0
  F  F60  1  0.63191000  0.48295000  0.88020000  1.0
