# generated using pymatgen
data_KH24C12I(ClO3)2
_symmetry_space_group_name_H-M   'P 1'
_cell_length_a   8.02436000
_cell_length_b   8.85861000
_cell_length_c   13.88660000
_cell_angle_alpha   101.88500000
_cell_angle_beta   90.00000000
_cell_angle_gamma   89.99990000
_symmetry_Int_Tables_number   1
_chemical_formula_structural   KH24C12I(ClO3)2
_chemical_formula_sum   'K2 H48 C24 I2 Cl4 O12'
_cell_volume   965.96340764
_cell_formula_units_Z   2
loop_
 _symmetry_equiv_pos_site_id
 _symmetry_equiv_pos_as_xyz
  1  'x, y, z'
loop_
 _atom_site_type_symbol
 _atom_site_label
 _atom_site_symmetry_multiplicity
 _atom_site_fract_x
 _atom_site_fract_y
 _atom_site_fract_z
 _atom_site_occupancy
  K  K0  1  0.50000000  0.00000000  0.00000000  1.0
  K  K1  1  0.99999000  0.50000000  0.50000000  1.0
  H  H2  1  0.71495000  0.49562000  0.01809000  1.0
  H  H3  1  0.21495000  0.00438000  0.48191000  1.0
  H  H4  1  0.28505000  0.50438000  0.98191000  1.0
  H  H5  1  0.78505000  0.99562000  0.51809000  1.0
  H  H6  1  0.83281000  0.32989000  0.03317000  1.0
  H  H7  1  0.33281000  0.17011000  0.46683000  1.0
  H  H8  1  0.16719000  0.67011000  0.96683000  1.0
  H  H9  1  0.66719000  0.82989000  0.53317000  1.0
  H  H10  1  0.68714000  0.46702000  0.18774000  1.0
  H  H11  1  0.18715000  0.03299000  0.31226000  1.0
  H  H12  1  0.31285000  0.53298000  0.81226000  1.0
  H  H13  1  0.81286000  0.96702000  0.68774000  1.0
  H  H14  1  0.49067000  0.42251000  0.12657000  1.0
  H  H15  1  0.99067000  0.07749000  0.37343000  1.0
  H  H16  1  0.50933000  0.57749000  0.87343000  1.0
  H  H17  1  0.00933000  0.92251000  0.62657000  1.0
  H  H18  1  0.43193000  0.27908000  0.25602000  1.0
  H  H19  1  0.93193000  0.22092000  0.24398000  1.0
  H  H20  1  0.56807000  0.72092000  0.74398000  1.0
  H  H21  1  0.06807000  0.77908000  0.75602000  1.0
  H  H22  1  0.63745000  0.30660000  0.30528000  1.0
  H  H23  1  0.13746000  0.19340000  0.19472000  1.0
  H  H24  1  0.36254000  0.69340000  0.69472000  1.0
  H  H25  1  0.86255000  0.80660000  0.80528000  1.0
  H  H26  1  0.68803000  0.01933000  0.24601000  1.0
  H  H27  1  0.18803000  0.48067000  0.25399000  1.0
  H  H28  1  0.31197000  0.98067000  0.75399000  1.0
  H  H29  1  0.81197000  0.51934000  0.74601000  1.0
  H  H30  1  0.53661000  0.06976000  0.34217000  1.0
  H  H31  1  0.03661000  0.43024000  0.15783000  1.0
  H  H32  1  0.46339000  0.93024000  0.65783000  1.0
  H  H33  1  0.96339000  0.56976000  0.84217000  1.0
  H  H34  1  0.39876000  0.81582000  0.28759000  1.0
  H  H35  1  0.89876000  0.68418000  0.21241000  1.0
  H  H36  1  0.60125000  0.18418000  0.71241000  1.0
  H  H37  1  0.10124000  0.31582000  0.78759000  1.0
  H  H38  1  0.56480000  0.77253000  0.19979000  1.0
  H  H39  1  0.06480000  0.72747000  0.30021000  1.0
  H  H40  1  0.43520000  0.22747000  0.80021000  1.0
  H  H41  1  0.93520000  0.27253000  0.69979000  1.0
  H  H42  1  0.30065000  0.61751000  0.15475000  1.0
  H  H43  1  0.80064000  0.88249000  0.34525000  1.0
  H  H44  1  0.69936000  0.38249000  0.84526000  1.0
  H  H45  1  0.19936000  0.11751000  0.65475000  1.0
  H  H46  1  0.19775000  0.79104000  0.14092000  1.0
  H  H47  1  0.69775000  0.70896000  0.35908000  1.0
  H  H48  1  0.80225000  0.20896000  0.85908000  1.0
  H  H49  1  0.30225000  0.29104000  0.64092000  1.0
  C  C50  1  0.70565000  0.37764000  0.03237000  1.0
  C  C51  1  0.20565000  0.12237000  0.46763000  1.0
  C  C52  1  0.29435000  0.62236000  0.96763000  1.0
  C  C53  1  0.79436000  0.87763000  0.53237000  1.0
  C  C54  1  0.62128000  0.38397000  0.13003000  1.0
  C  C55  1  0.12128000  0.11603000  0.36997000  1.0
  C  C56  1  0.37871000  0.61603000  0.86997000  1.0
  C  C57  1  0.87872000  0.88397000  0.63003000  1.0
  C  C58  1  0.56032000  0.23300000  0.24839000  1.0
  C  C59  1  0.06032000  0.26701000  0.25161000  1.0
  C  C60  1  0.43968000  0.76701000  0.75161000  1.0
  C  C61  1  0.93968000  0.73299000  0.74839000  1.0
  C  C62  1  0.56290000  0.06973000  0.26405000  1.0
  C  C63  1  0.06290000  0.43027000  0.23595000  1.0
  C  C64  1  0.43710000  0.93027000  0.73595000  1.0
  C  C65  1  0.93710000  0.56973000  0.76405000  1.0
  C  C66  1  0.43865000  0.82296000  0.21241000  1.0
  C  C67  1  0.93865000  0.67704000  0.28759000  1.0
  C  C68  1  0.56135000  0.17704000  0.78759000  1.0
  C  C69  1  0.06135000  0.32296000  0.71241000  1.0
  C  C70  1  0.32026000  0.73282000  0.13784000  1.0
  C  C71  1  0.82026000  0.76718000  0.36216000  1.0
  C  C72  1  0.67974000  0.26718000  0.86217000  1.0
  C  C73  1  0.17974000  0.23282000  0.63784000  1.0
  I  I74  1  0.00000000  0.00000000  0.00000000  1.0
  I  I75  1  0.50000000  0.50000000  0.50000000  1.0
  Cl  Cl76  1  0.18500000  0.22082000  0.96936000  1.0
  Cl  Cl77  1  0.68500000  0.27918000  0.53064000  1.0
  Cl  Cl78  1  0.81500000  0.77918000  0.03064000  1.0
  Cl  Cl79  1  0.31500000  0.72082000  0.46936000  1.0
  O  O80  1  0.60822000  0.28193000  0.95752000  1.0
  O  O81  1  0.10822000  0.21807000  0.54248000  1.0
  O  O82  1  0.39178000  0.71807000  0.04248000  1.0
  O  O83  1  0.89178000  0.78193000  0.45752000  1.0
  O  O84  1  0.62489000  0.23371000  0.15259000  1.0
  O  O85  1  0.12489000  0.26630000  0.34741000  1.0
  O  O86  1  0.37511000  0.76629000  0.84741000  1.0
  O  O87  1  0.87511000  0.73370000  0.65259000  1.0
  O  O88  1  0.44173000  0.98008000  0.20134000  1.0
  O  O89  1  0.94173000  0.51992000  0.29866000  1.0
  O  O90  1  0.55827000  0.01992000  0.79866000  1.0
  O  O91  1  0.05827000  0.48008000  0.70134000  1.0
