# generated using pymatgen
data_Zn4H9C21IO14
_symmetry_space_group_name_H-M   'P 1'
_cell_length_a   13.13890000
_cell_length_b   13.21940000
_cell_length_c   16.04550000
_cell_angle_alpha   100.71680000
_cell_angle_beta   98.88190000
_cell_angle_gamma   90.46100000
_symmetry_Int_Tables_number   1
_chemical_formula_structural   Zn4H9C21IO14
_chemical_formula_sum   'Zn4 H9 C21 I1 O14'
_cell_volume   2703.53234738
_cell_formula_units_Z   1
loop_
 _symmetry_equiv_pos_site_id
 _symmetry_equiv_pos_as_xyz
  1  'x, y, z'
loop_
 _atom_site_type_symbol
 _atom_site_label
 _atom_site_symmetry_multiplicity
 _atom_site_fract_x
 _atom_site_fract_y
 _atom_site_fract_z
 _atom_site_occupancy
  Zn  Zn0  1  0.57228000  0.59491000  0.44921000  1.0
  Zn  Zn1  1  0.40604000  0.58506000  0.57062000  1.0
  Zn  Zn2  1  0.59750000  0.43041000  0.57283000  1.0
  Zn  Zn3  1  0.41878000  0.39737000  0.41142000  1.0
  H  H4  1  0.43602000  0.41683000  0.97634000  1.0
  H  H5  1  0.55415000  0.08009000  0.39522000  1.0
  H  H6  1  0.08592000  0.57159000  0.53628000  1.0
  H  H7  1  0.91691000  0.39352000  0.50079000  1.0
  H  H8  1  0.09431000  0.34198000  0.45389000  1.0
  H  H9  1  0.91145000  0.63102000  0.54223000  1.0
  H  H10  1  0.50908000  0.09886000  0.58071000  1.0
  H  H11  1  0.43510000  0.93138000  0.59897000  1.0
  H  H12  1  0.66022000  0.85432000  0.46692000  1.0
  C  C13  1  0.22861000  0.44907000  0.47989000  1.0
  C  C14  1  0.52773000  0.05975000  0.51889000  1.0
  C  C15  1  0.47854000  0.89306000  0.55018000  1.0
  C  C16  1  0.77132000  0.53598000  0.52824000  1.0
  C  C17  1  0.52939000  0.94774000  0.50469000  1.0
  C  C18  1  0.47454000  0.77964000  0.53328000  1.0
  C  C19  1  0.53086000  0.22928000  0.47455000  1.0
  C  C20  1  0.51658000  0.52596000  0.72867000  1.0
  C  C21  1  0.48894000  0.48881000  0.27560000  1.0
  C  C22  1  0.52387000  0.53558000  0.82043000  1.0
  C  C23  1  0.53285000  0.54754000  0.98608000  1.0
  C  C24  1  0.48472000  0.48326000  0.10883000  1.0
  C  C25  1  0.48217000  0.47915000  0.02102000  1.0
  C  C26  1  0.59298000  0.89513000  0.43944000  1.0
  C  C27  1  0.52831000  0.54129000  0.89774000  1.0
  C  C28  1  0.48526000  0.48464000  0.18521000  1.0
  C  C29  1  0.88345000  0.55099000  0.53194000  1.0
  C  C30  1  0.94769000  0.47306000  0.51518000  1.0
  C  C31  1  0.11980000  0.42157000  0.48139000  1.0
  C  C32  1  0.05501000  0.49263000  0.51256000  1.0
  C  C33  1  0.54227000  0.11637000  0.45963000  1.0
  I  I34  1  0.62309000  0.67231000  0.06305000  1.0
  O  O35  1  0.49775000  0.50208000  0.50240000  1.0
  O  O36  1  0.43664000  0.56218000  0.69064000  1.0
  O  O37  1  0.42273000  0.43199000  0.29789000  1.0
  O  O38  1  0.59082000  0.48169000  0.69564000  1.0
  O  O39  1  0.55878000  0.54955000  0.32492000  1.0
  O  O40  1  0.57853000  0.90349000  0.36407000  1.0
  O  O41  1  0.51894000  0.73458000  0.47138000  1.0
  O  O42  1  0.48935000  0.26532000  0.40934000  1.0
  O  O43  1  0.26415000  0.53783000  0.52117000  1.0
  O  O44  1  0.73699000  0.45318000  0.54628000  1.0
  O  O45  1  0.27852000  0.38075000  0.43660000  1.0
  O  O46  1  0.71708000  0.60962000  0.50597000  1.0
  O  O47  1  0.42666000  0.73492000  0.58074000  1.0
  O  O48  1  0.56270000  0.28139000  0.54982000  1.0
