# generated using pymatgen
data_CoH18C26(NO3)2
_symmetry_space_group_name_H-M   'P 1'
_cell_length_a   7.63139000
_cell_length_b   11.32300000
_cell_length_c   13.29440000
_cell_angle_alpha   82.79080000
_cell_angle_beta   81.90220000
_cell_angle_gamma   72.47600000
_symmetry_Int_Tables_number   1
_chemical_formula_structural   CoH18C26(NO3)2
_chemical_formula_sum   'Co2 H36 C52 N4 O12'
_cell_volume   1080.32858796
_cell_formula_units_Z   2
loop_
 _symmetry_equiv_pos_site_id
 _symmetry_equiv_pos_as_xyz
  1  'x, y, z'
loop_
 _atom_site_type_symbol
 _atom_site_label
 _atom_site_symmetry_multiplicity
 _atom_site_fract_x
 _atom_site_fract_y
 _atom_site_fract_z
 _atom_site_occupancy
  Co  Co0  1  0.68040000  0.38740000  0.99057000  1.0
  Co  Co1  1  0.30009000  0.63092000  0.00981000  1.0
  H  H2  1  0.95328000  0.35213000  0.85333000  1.0
  H  H3  1  0.03628000  0.64812000  0.14379000  1.0
  H  H4  1  0.05328000  0.35375000  0.95502000  1.0
  H  H5  1  0.93522000  0.65227000  0.04127000  1.0
  H  H6  1  0.73914000  0.56046000  0.13818000  1.0
  H  H7  1  0.27335000  0.43959000  0.87604000  1.0
  H  H8  1  0.87130000  0.53033000  0.30612000  1.0
  H  H9  1  0.14247000  0.46203000  0.70936000  1.0
  H  H10  1  0.97738000  0.31472000  0.39188000  1.0
  H  H11  1  0.03308000  0.67282000  0.61671000  1.0
  H  H12  1  0.01813000  0.08211000  0.38648000  1.0
  H  H13  1  0.99037000  0.91048000  0.61599000  1.0
  H  H14  1  0.97740000  0.91393000  0.29764000  1.0
  H  H15  1  0.02607000  0.08237000  0.70208000  1.0
  H  H16  1  0.86724000  0.84903000  0.14787000  1.0
  H  H17  1  0.13287000  0.15223000  0.85421000  1.0
  H  H18  1  0.72255000  0.91194000  0.98548000  1.0
  H  H19  1  0.27305000  0.08909000  0.01792000  1.0
  H  H20  1  0.63726000  0.13881000  0.91820000  1.0
  H  H21  1  0.34805000  0.86538000  0.08967000  1.0
  H  H22  1  0.39849000  0.26559000  0.80003000  1.0
  H  H23  1  0.60090000  0.73607000  0.19277000  1.0
  H  H24  1  0.23330000  0.20921000  0.67156000  1.0
  H  H25  1  0.76306000  0.79176000  0.32277000  1.0
  H  H26  1  0.70740000  0.18950000  0.44974000  1.0
  H  H27  1  0.29487000  0.79658000  0.54595000  1.0
  H  H28  1  0.86920000  0.25005000  0.57808000  1.0
  H  H29  1  0.13630000  0.73615000  0.41643000  1.0
  H  H30  1  0.33511000  0.11328000  0.15918000  1.0
  H  H31  1  0.66519000  0.89727000  0.83120000  1.0
  H  H32  1  0.36993000  0.03118000  0.34070000  1.0
  H  H33  1  0.63116000  0.97077000  0.64788000  1.0
  H  H34  1  0.39999000  0.38664000  0.40823000  1.0
  H  H35  1  0.60029000  0.61062000  0.59325000  1.0
  H  H36  1  0.38498000  0.46242000  0.22441000  1.0
  H  H37  1  0.61712000  0.54269000  0.77824000  1.0
  C  C38  1  0.78872000  0.46880000  0.17783000  1.0
  C  C39  1  0.22234000  0.52980000  0.83460000  1.0
  C  C40  1  0.85986000  0.45048000  0.27243000  1.0
  C  C41  1  0.15160000  0.54432000  0.74021000  1.0
  C  C42  1  0.91827000  0.33150000  0.31953000  1.0
  C  C43  1  0.09114000  0.66084000  0.68899000  1.0
  C  C44  1  0.90382000  0.23036000  0.27226000  1.0
  C  C45  1  0.10189000  0.76526000  0.73305000  1.0
  C  C46  1  0.95749000  0.10346000  0.31442000  1.0
  C  C47  1  0.04841000  0.89139000  0.68878000  1.0
  C  C48  1  0.93546000  0.01037000  0.26562000  1.0
  C  C49  1  0.06735000  0.98681000  0.73618000  1.0
  C  C50  1  0.85789000  0.03674000  0.17039000  1.0
  C  C51  1  0.13972000  0.96432000  0.83283000  1.0
  C  C52  1  0.82652000  0.94599000  0.11735000  1.0
  C  C53  1  0.17019000  0.05562000  0.88560000  1.0
  C  C54  1  0.74694000  0.98170000  0.02688000  1.0
  C  C55  1  0.24673000  0.01956000  0.97710000  1.0
  C  C56  1  0.70097000  0.10732000  0.98890000  1.0
  C  C57  1  0.28764000  0.89507000  0.01804000  1.0
  C  C58  1  0.80770000  0.16094000  0.12590000  1.0
  C  C59  1  0.18661000  0.84127000  0.87877000  1.0
  C  C60  1  0.83147000  0.25778000  0.17695000  1.0
  C  C61  1  0.17044000  0.74291000  0.82887000  1.0
  C  C62  1  0.73592000  0.30466000  0.77208000  1.0
  C  C63  1  0.26369000  0.69289000  0.22070000  1.0
  C  C64  1  0.64298000  0.26314000  0.69664000  1.0
  C  C65  1  0.35958000  0.73023000  0.29688000  1.0
  C  C66  1  0.46512000  0.24923000  0.72293000  1.0
  C  C67  1  0.53504000  0.74823000  0.27050000  1.0
  C  C68  1  0.37337000  0.21677000  0.65211000  1.0
  C  C69  1  0.62502000  0.78064000  0.34212000  1.0
  C  C70  1  0.46203000  0.19681000  0.55374000  1.0
  C  C71  1  0.53778000  0.79695000  0.44128000  1.0
  C  C72  1  0.64096000  0.20718000  0.52650000  1.0
  C  C73  1  0.36129000  0.78195000  0.46874000  1.0
  C  C74  1  0.73021000  0.24044000  0.59792000  1.0
  C  C75  1  0.27372000  0.74852000  0.39655000  1.0
  C  C76  1  0.32646000  0.34605000  0.07302000  1.0
  C  C77  1  0.67266000  0.66762000  0.92475000  1.0
  C  C78  1  0.35421000  0.29454000  0.18053000  1.0
  C  C79  1  0.64531000  0.71443000  0.81620000  1.0
  C  C80  1  0.35197000  0.17241000  0.21343000  1.0
  C  C81  1  0.64764000  0.83545000  0.77938000  1.0
  C  C82  1  0.36990000  0.12624000  0.31453000  1.0
  C  C83  1  0.63024000  0.87677000  0.67728000  1.0
  C  C84  1  0.38133000  0.20482000  0.38493000  1.0
  C  C85  1  0.61795000  0.79462000  0.61021000  1.0
  C  C86  1  0.38804000  0.32629000  0.35341000  1.0
  C  C87  1  0.61179000  0.67401000  0.64563000  1.0
  C  C88  1  0.37778000  0.36914000  0.25107000  1.0
  C  C89  1  0.62252000  0.63571000  0.74880000  1.0
  N  N90  1  0.77664000  0.37496000  0.13073000  1.0
  N  N91  1  0.23027000  0.62730000  0.87916000  1.0
  N  N92  1  0.73154000  0.19538000  0.03630000  1.0
  N  N93  1  0.25546000  0.80631000  0.97122000  1.0
  O  O94  1  0.63137000  0.34611000  0.85207000  1.0
  O  O95  1  0.36785000  0.65504000  0.13863000  1.0
  O  O96  1  0.90645000  0.29770000  0.75298000  1.0
  O  O97  1  0.09397000  0.69961000  0.24078000  1.0
  O  O98  1  0.37051000  0.15928000  0.48665000  1.0
  O  O99  1  0.62867000  0.83602000  0.50738000  1.0
  O  O100  1  0.24459000  0.29831000  0.02133000  1.0
  O  O101  1  0.75775000  0.71745000  0.97336000  1.0
  O  O102  1  0.39615000  0.43779000  0.03792000  1.0
  O  O103  1  0.60167000  0.57918000  0.96328000  1.0
  O  O104  1  0.94183000  0.39132000  0.91875000  1.0
  O  O105  1  0.04601000  0.61021000  0.07813000  1.0
