# generated using pymatgen
data_CuH14(C11N6)2
_symmetry_space_group_name_H-M   'P 1'
_cell_length_a   9.00027000
_cell_length_b   15.99380000
_cell_length_c   15.99300000
_cell_angle_alpha   116.56300000
_cell_angle_beta   100.81900000
_cell_angle_gamma   100.79800000
_symmetry_Int_Tables_number   1
_chemical_formula_structural   CuH14(C11N6)2
_chemical_formula_sum   'Cu3 H42 C66 N36'
_cell_volume   1923.71546757
_cell_formula_units_Z   3
loop_
 _symmetry_equiv_pos_site_id
 _symmetry_equiv_pos_as_xyz
  1  'x, y, z'
loop_
 _atom_site_type_symbol
 _atom_site_label
 _atom_site_symmetry_multiplicity
 _atom_site_fract_x
 _atom_site_fract_y
 _atom_site_fract_z
 _atom_site_occupancy
  Cu  Cu0  1  0.50000000  0.50000000  0.50000000  1.0
  Cu  Cu1  1  0.00000000  0.50000000  0.00000000  1.0
  Cu  Cu2  1  0.00000000  0.00000000  0.50000000  1.0
  H  H3  1  0.02135000  0.36646000  0.14210000  1.0
  H  H4  1  0.87924000  0.85791000  0.22443000  1.0
  H  H5  1  0.65486000  0.77564000  0.63358000  1.0
  H  H6  1  0.97865000  0.63354000  0.85790000  1.0
  H  H7  1  0.12077000  0.14208000  0.77556000  1.0
  H  H8  1  0.34514000  0.22436000  0.36642000  1.0
  H  H9  1  0.17292000  0.24938000  0.14889000  1.0
  H  H10  1  0.02402000  0.85111000  0.10059000  1.0
  H  H11  1  0.92347000  0.89949000  0.75059000  1.0
  H  H12  1  0.82708000  0.75062000  0.85112000  1.0
  H  H13  1  0.97598000  0.14889000  0.89941000  1.0
  H  H14  1  0.07653000  0.10051000  0.24941000  1.0
  H  H15  1  0.40561000  0.29366000  0.96377000  1.0
  H  H16  1  0.44172000  0.03637000  0.33001000  1.0
  H  H17  1  0.11201000  0.67012000  0.70633000  1.0
  H  H18  1  0.59439000  0.70634000  0.03623000  1.0
  H  H19  1  0.55829000  0.96363000  0.66999000  1.0
  H  H20  1  0.88799000  0.32989000  0.29367000  1.0
  H  H21  1  0.46869000  0.36074000  0.73297000  1.0
  H  H22  1  0.73596000  0.26689000  0.62781000  1.0
  H  H23  1  0.10828000  0.37223000  0.63918000  1.0
  H  H24  1  0.53132000  0.63926000  0.26703000  1.0
  H  H25  1  0.26405000  0.73311000  0.37219000  1.0
  H  H26  1  0.89173000  0.62777000  0.36082000  1.0
  H  H27  1  0.54166000  0.37631000  0.59542000  1.0
  H  H28  1  0.94626000  0.40451000  0.78090000  1.0
  H  H29  1  0.16549000  0.21911000  0.62376000  1.0
  H  H30  1  0.45835000  0.62369000  0.40458000  1.0
  H  H31  1  0.05374000  0.59549000  0.21910000  1.0
  H  H32  1  0.83452000  0.78089000  0.37624000  1.0
  H  H33  1  0.40265000  0.62656000  0.66817000  1.0
  H  H34  1  0.73451000  0.33187000  0.95843000  1.0
  H  H35  1  0.77613000  0.04168000  0.37358000  1.0
  H  H36  1  0.59736000  0.37344000  0.33183000  1.0
  H  H37  1  0.26549000  0.66812000  0.04157000  1.0
  H  H38  1  0.22387000  0.95832000  0.62642000  1.0
  H  H39  1  0.31917000  0.61887000  0.80593000  1.0
  H  H40  1  0.51328000  0.19414000  0.81301000  1.0
  H  H41  1  0.70043000  0.18712000  0.38122000  1.0
  H  H42  1  0.68083000  0.38113000  0.19407000  1.0
  H  H43  1  0.48671000  0.80586000  0.18699000  1.0
  H  H44  1  0.29958000  0.81288000  0.61878000  1.0
  C  C45  1  0.10733000  0.34928000  0.10191000  1.0
  C  C46  1  0.00539000  0.89815000  0.24746000  1.0
  C  C47  1  0.75804000  0.75263000  0.65078000  1.0
  C  C48  1  0.89267000  0.65072000  0.89809000  1.0
  C  C49  1  0.99462000  0.10185000  0.75254000  1.0
  C  C50  1  0.24197000  0.24737000  0.34923000  1.0
  C  C51  1  0.19136000  0.28513000  0.10566000  1.0
  C  C52  1  0.08567000  0.89438000  0.17957000  1.0
  C  C53  1  0.90620000  0.82053000  0.71487000  1.0
  C  C54  1  0.80864000  0.71486000  0.89434000  1.0
  C  C55  1  0.91433000  0.10562000  0.82043000  1.0
  C  C56  1  0.09380000  0.17948000  0.28513000  1.0
  C  C57  1  0.31868000  0.30838000  0.00346000  1.0
  C  C58  1  0.31511000  0.99667000  0.30503000  1.0
  C  C59  1  0.01034000  0.69509000  0.69165000  1.0
  C  C60  1  0.68133000  0.69161000  0.99654000  1.0
  C  C61  1  0.68490000  0.00333000  0.69497000  1.0
  C  C62  1  0.98966000  0.30491000  0.30835000  1.0
  C  C63  1  0.23402000  0.37242000  0.99842000  1.0
  C  C64  1  0.23551000  0.00173000  0.37409000  1.0
  C  C65  1  0.86166000  0.62603000  0.62770000  1.0
  C  C66  1  0.76599000  0.62757000  0.00158000  1.0
  C  C67  1  0.76449000  0.99827000  0.62590000  1.0
  C  C68  1  0.13835000  0.37397000  0.37230000  1.0
  C  C69  1  0.25411000  0.42061000  0.94096000  1.0
  C  C70  1  0.31313000  0.05916000  0.47973000  1.0
  C  C71  1  0.83365000  0.52040000  0.57951000  1.0
  C  C72  1  0.74589000  0.57939000  0.05904000  1.0
  C  C73  1  0.68687000  0.94084000  0.52027000  1.0
  C  C74  1  0.16636000  0.47960000  0.42049000  1.0
  C  C75  1  0.32005000  0.47372000  0.85027000  1.0
  C  C76  1  0.46992000  0.14969000  0.62348000  1.0
  C  C77  1  0.84664000  0.37663000  0.52629000  1.0
  C  C78  1  0.67995000  0.52628000  0.14973000  1.0
  C  C79  1  0.53008000  0.85031000  0.37651000  1.0
  C  C80  1  0.15337000  0.62338000  0.47371000  1.0
  C  C81  1  0.38383000  0.48723000  0.77865000  1.0
  C  C82  1  0.60536000  0.22127000  0.70862000  1.0
  C  C83  1  0.89688000  0.29147000  0.51276000  1.0
  C  C84  1  0.61617000  0.51277000  0.22135000  1.0
  C  C85  1  0.39464000  0.77872000  0.29137000  1.0
  C  C86  1  0.10313000  0.70853000  0.48724000  1.0
  C  C87  1  0.45275000  0.42045000  0.72045000  1.0
  C  C88  1  0.73250000  0.27942000  0.70002000  1.0
  C  C89  1  0.03259000  0.30002000  0.57952000  1.0
  C  C90  1  0.54725000  0.57955000  0.27955000  1.0
  C  C91  1  0.26750000  0.72057000  0.29997000  1.0
  C  C92  1  0.96742000  0.69998000  0.42048000  1.0
  C  C93  1  0.49355000  0.42910000  0.64457000  1.0
  C  C94  1  0.84910000  0.35534000  0.78457000  1.0
  C  C95  1  0.06462000  0.21547000  0.57093000  1.0
  C  C96  1  0.50646000  0.57090000  0.35543000  1.0
  C  C97  1  0.15090000  0.64466000  0.21543000  1.0
  C  C98  1  0.93538000  0.78453000  0.42907000  1.0
  C  C99  1  0.41475000  0.56871000  0.68491000  1.0
  C  C100  1  0.72993000  0.31507000  0.88385000  1.0
  C  C101  1  0.84615000  0.11625000  0.43139000  1.0
  C  C102  1  0.58525000  0.43129000  0.31509000  1.0
  C  C103  1  0.27007000  0.68492000  0.11615000  1.0
  C  C104  1  0.15386000  0.88375000  0.56861000  1.0
  C  C105  1  0.36872000  0.56420000  0.76102000  1.0
  C  C106  1  0.60782000  0.23896000  0.80322000  1.0
  C  C107  1  0.80469000  0.19688000  0.43585000  1.0
  C  C108  1  0.63129000  0.43579000  0.23898000  1.0
  C  C109  1  0.39218000  0.76104000  0.19677000  1.0
  C  C110  1  0.19531000  0.80312000  0.56415000  1.0
  N  N111  1  0.12780000  0.39246000  0.04836000  1.0
  N  N112  1  0.07936000  0.95175000  0.34419000  1.0
  N  N113  1  0.73535000  0.65592000  0.60766000  1.0
  N  N114  1  0.87219000  0.60753000  0.95164000  1.0
  N  N115  1  0.92064000  0.04825000  0.65581000  1.0
  N  N116  1  0.26465000  0.34408000  0.39235000  1.0
  N  N117  1  0.29728000  0.26454000  0.05634000  1.0
  N  N118  1  0.24086000  0.94375000  0.20831000  1.0
  N  N119  1  0.03275000  0.79181000  0.73545000  1.0
  N  N120  1  0.70273000  0.73545000  0.94366000  1.0
  N  N121  1  0.75914000  0.05625000  0.79169000  1.0
  N  N122  1  0.96726000  0.20820000  0.26455000  1.0
  N  N123  1  0.17249000  0.48426000  0.94191000  1.0
  N  N124  1  0.23065000  0.05817000  0.54245000  1.0
  N  N125  1  0.68842000  0.45772000  0.51585000  1.0
  N  N126  1  0.82751000  0.51574000  0.05809000  1.0
  N  N127  1  0.76935000  0.94183000  0.45755000  1.0
  N  N128  1  0.31159000  0.54228000  0.48415000  1.0
  N  N129  1  0.21384000  0.51920000  0.88477000  1.0
  N  N130  1  0.32925000  0.11522000  0.63450000  1.0
  N  N131  1  0.69494000  0.36567000  0.48084000  1.0
  N  N132  1  0.78616000  0.48080000  0.11523000  1.0
  N  N133  1  0.67075000  0.88478000  0.36549000  1.0
  N  N134  1  0.30506000  0.63434000  0.51916000  1.0
  N  N135  1  0.34808000  0.41135000  0.88313000  1.0
  N  N136  1  0.46494000  0.11691000  0.52826000  1.0
  N  N137  1  0.93694000  0.47183000  0.58872000  1.0
  N  N138  1  0.65193000  0.58864000  0.11687000  1.0
  N  N139  1  0.53505000  0.88309000  0.47174000  1.0
  N  N140  1  0.06306000  0.52817000  0.41129000  1.0
  N  N141  1  0.47276000  0.50108000  0.62591000  1.0
  N  N142  1  0.84694000  0.37403000  0.87519000  1.0
  N  N143  1  0.97178000  0.12486000  0.49902000  1.0
  N  N144  1  0.52725000  0.49892000  0.37410000  1.0
  N  N145  1  0.15307000  0.62596000  0.12481000  1.0
  N  N146  1  0.02822000  0.87514000  0.50098000  1.0
