# generated using pymatgen
data_Lu2H18(C3O8)3
_symmetry_space_group_name_H-M   'P 1'
_cell_length_a   8.69685000
_cell_length_b   8.69683000
_cell_length_c   8.69677000
_cell_angle_alpha   66.39160000
_cell_angle_beta   66.39140000
_cell_angle_gamma   66.39160000
_symmetry_Int_Tables_number   1
_chemical_formula_structural   Lu2H18(C3O8)3
_chemical_formula_sum   'Lu2 H18 C9 O24'
_cell_volume   529.21787982
_cell_formula_units_Z   1
loop_
 _symmetry_equiv_pos_site_id
 _symmetry_equiv_pos_as_xyz
  1  'x, y, z'
loop_
 _atom_site_type_symbol
 _atom_site_label
 _atom_site_symmetry_multiplicity
 _atom_site_fract_x
 _atom_site_fract_y
 _atom_site_fract_z
 _atom_site_occupancy
  Lu  Lu0  1  0.26631000  0.26631000  0.26631000  1.0
  Lu  Lu1  1  0.73369000  0.73369000  0.73369000  1.0
  H  H2  1  0.17655000  0.30690000  0.94847000  1.0
  H  H3  1  0.30691000  0.94846000  0.17655000  1.0
  H  H4  1  0.94847000  0.17655000  0.30691000  1.0
  H  H5  1  0.82345000  0.05153000  0.69310000  1.0
  H  H6  1  0.69310000  0.82345000  0.05153000  1.0
  H  H7  1  0.05153000  0.69309000  0.82345000  1.0
  H  H8  1  0.21675000  0.26625000  0.63401000  1.0
  H  H9  1  0.26625000  0.63401000  0.21675000  1.0
  H  H10  1  0.63401000  0.21676000  0.26625000  1.0
  H  H11  1  0.78325000  0.36599000  0.73375000  1.0
  H  H12  1  0.73376000  0.78325000  0.36598000  1.0
  H  H13  1  0.36599000  0.73375000  0.78325000  1.0
  H  H14  1  0.12615000  0.45198000  0.52108000  1.0
  H  H15  1  0.45197000  0.52108000  0.12615000  1.0
  H  H16  1  0.52107000  0.12616000  0.45198000  1.0
  H  H17  1  0.87384000  0.47892000  0.54802000  1.0
  H  H18  1  0.54803000  0.87385000  0.47892000  1.0
  H  H19  1  0.47893000  0.54802000  0.87384000  1.0
  C  C20  1  0.96510000  0.49999000  0.03490000  1.0
  C  C21  1  0.50000000  0.03490000  0.96510000  1.0
  C  C22  1  0.03490000  0.96509000  0.50000000  1.0
  C  C23  1  0.91740000  0.58122000  0.18459000  1.0
  C  C24  1  0.58122000  0.18459000  0.91740000  1.0
  C  C25  1  0.18459000  0.91740000  0.58122000  1.0
  C  C26  1  0.08260000  0.81540000  0.41879000  1.0
  C  C27  1  0.41878000  0.08260000  0.81541000  1.0
  C  C28  1  0.81540000  0.41878000  0.08261000  1.0
  O  O29  1  0.12906000  0.37623000  0.03729000  1.0
  O  O30  1  0.37623000  0.03730000  0.12906000  1.0
  O  O31  1  0.03730000  0.12906000  0.37623000  1.0
  O  O32  1  0.87094000  0.96270000  0.62377000  1.0
  O  O33  1  0.62377000  0.87094000  0.96271000  1.0
  O  O34  1  0.96270000  0.62377000  0.87094000  1.0
  O  O35  1  0.18035000  0.32789000  0.52406000  1.0
  O  O36  1  0.32788000  0.52406000  0.18035000  1.0
  O  O37  1  0.52406000  0.18035000  0.32788000  1.0
  O  O38  1  0.81965000  0.47594000  0.67212000  1.0
  O  O39  1  0.67212000  0.81965000  0.47593000  1.0
  O  O40  1  0.47594000  0.67212000  0.81965000  1.0
  O  O41  1  0.99277000  0.48865000  0.30333000  1.0
  O  O42  1  0.48866000  0.30332000  0.99277000  1.0
  O  O43  1  0.30332000  0.99278000  0.48867000  1.0
  O  O44  1  0.00723000  0.69668000  0.51134000  1.0
  O  O45  1  0.51135000  0.00723000  0.69667000  1.0
  O  O46  1  0.69668000  0.51134000  0.00723000  1.0
  O  O47  1  0.80252000  0.72789000  0.18287000  1.0
  O  O48  1  0.72789000  0.18287000  0.80251000  1.0
  O  O49  1  0.18287000  0.80250000  0.72790000  1.0
  O  O50  1  0.19750000  0.81712000  0.27211000  1.0
  O  O51  1  0.27211000  0.19748000  0.81713000  1.0
  O  O52  1  0.81712000  0.27211000  0.19750000  1.0
