# generated using pymatgen
data_AlH6C24(BrO)6
_symmetry_space_group_name_H-M   'P 1'
_cell_length_a   4.06316000
_cell_length_b   29.18870000
_cell_length_c   29.19225610
_cell_angle_alpha   119.99791078
_cell_angle_beta   90.00239982
_cell_angle_gamma   89.99880000
_symmetry_Int_Tables_number   1
_chemical_formula_structural   AlH6C24(BrO)6
_chemical_formula_sum   'Al2 H12 C48 Br12 O12'
_cell_volume   2998.37612837
_cell_formula_units_Z   2
loop_
 _symmetry_equiv_pos_site_id
 _symmetry_equiv_pos_as_xyz
  1  'x, y, z'
loop_
 _atom_site_type_symbol
 _atom_site_label
 _atom_site_symmetry_multiplicity
 _atom_site_fract_x
 _atom_site_fract_y
 _atom_site_fract_z
 _atom_site_occupancy
  Al  Al0  1  0.99986000  0.00001000  0.50002000  1.0
  Al  Al1  1  0.99999000  0.33333000  0.16667000  1.0
  H  H2  1  0.34324000  0.57969000  0.36055000  1.0
  H  H3  1  0.65750000  0.57971000  0.21913000  1.0
  H  H4  1  0.65874000  0.75380000  0.44758000  1.0
  H  H5  1  0.34159000  0.75378000  0.30626000  1.0
  H  H6  1  0.34306000  0.13937000  0.21903000  1.0
  H  H7  1  0.65726000  0.28076000  0.36050000  1.0
  H  H8  1  0.65862000  0.05239000  0.30622000  1.0
  H  H9  1  0.34144000  0.19374000  0.44750000  1.0
  H  H10  1  0.34376000  0.28091000  0.92033000  1.0
  H  H11  1  0.65795000  0.13946000  0.92030000  1.0
  H  H12  1  0.65901000  0.19381000  0.74620000  1.0
  H  H13  1  0.34185000  0.05253000  0.74627000  1.0
  C  C14  1  0.49986000  0.04067000  0.58132000  1.0
  C  C15  1  0.49985000  0.91873000  0.45939000  1.0
  C  C16  1  0.49985000  0.04065000  0.45937000  1.0
  C  C17  1  0.50003000  0.41470000  0.20733000  1.0
  C  C18  1  0.50000000  0.29264000  0.20735000  1.0
  C  C19  1  0.50000000  0.29263000  0.08530000  1.0
  C  C20  1  0.50013000  0.47447000  0.23721000  1.0
  C  C21  1  0.41136000  0.50348000  0.29086000  1.0
  C  C22  1  0.41242000  0.55848000  0.31899000  1.0
  C  C23  1  0.50048000  0.58666000  0.29333000  1.0
  C  C24  1  0.58832000  0.55849000  0.23948000  1.0
  C  C25  1  0.58900000  0.50349000  0.21258000  1.0
  C  C26  1  0.50052000  0.64264000  0.32133000  1.0
  C  C27  1  0.50035000  0.69088000  0.34546000  1.0
  C  C28  1  0.50013000  0.74686000  0.37346000  1.0
  C  C29  1  0.58874000  0.77502000  0.42727000  1.0
  C  C30  1  0.58922000  0.83001000  0.45416000  1.0
  C  C31  1  0.49991000  0.85900000  0.42952000  1.0
  C  C32  1  0.41068000  0.83000000  0.37590000  1.0
  C  C33  1  0.41144000  0.77500000  0.34779000  1.0
  C  C34  1  0.50000000  0.26274000  0.23721000  1.0
  C  C35  1  0.41121000  0.20907000  0.21254000  1.0
  C  C36  1  0.41225000  0.18093000  0.23940000  1.0
  C  C37  1  0.50023000  0.20658000  0.29325000  1.0
  C  C38  1  0.58811000  0.26044000  0.31895000  1.0
  C  C39  1  0.58883000  0.28735000  0.29086000  1.0
  C  C40  1  0.50022000  0.17856000  0.32122000  1.0
  C  C41  1  0.50012000  0.15449000  0.34538000  1.0
  C  C42  1  0.50004000  0.12652000  0.37339000  1.0
  C  C43  1  0.58868000  0.07271000  0.34775000  1.0
  C  C44  1  0.58922000  0.04585000  0.37588000  1.0
  C  C45  1  0.49991000  0.07049000  0.42950000  1.0
  C  C46  1  0.41070000  0.12411000  0.45410000  1.0
  C  C47  1  0.41138000  0.15221000  0.42720000  1.0
  C  C48  1  0.50018000  0.26276000  0.02555000  1.0
  C  C49  1  0.41153000  0.28741000  0.99654000  1.0
  C  C50  1  0.41283000  0.26056000  0.94154000  1.0
  C  C51  1  0.50106000  0.20671000  0.91335000  1.0
  C  C52  1  0.58875000  0.18102000  0.94152000  1.0
  C  C53  1  0.58919000  0.20911000  0.99652000  1.0
  C  C54  1  0.50122000  0.17874000  0.85736000  1.0
  C  C55  1  0.50087000  0.15464000  0.80915000  1.0
  C  C56  1  0.50046000  0.12663000  0.75316000  1.0
  C  C57  1  0.58896000  0.15228000  0.72499000  1.0
  C  C58  1  0.58938000  0.12417000  0.67000000  1.0
  C  C59  1  0.50000000  0.07053000  0.64102000  1.0
  C  C60  1  0.41081000  0.04592000  0.67003000  1.0
  C  C61  1  0.41166000  0.07282000  0.72503000  1.0
  Br  Br62  1  0.27828000  0.46750000  0.32685000  1.0
  Br  Br63  1  0.72179000  0.46751000  0.14059000  1.0
  Br  Br64  1  0.72199000  0.86601000  0.52614000  1.0
  Br  Br65  1  0.27792000  0.86598000  0.33991000  1.0
  Br  Br66  1  0.27820000  0.17310000  0.14057000  1.0
  Br  Br67  1  0.72156000  0.35933000  0.32690000  1.0
  Br  Br68  1  0.72193000  0.97387000  0.33991000  1.0
  Br  Br69  1  0.27790000  0.16012000  0.52608000  1.0
  Br  Br70  1  0.27825000  0.35937000  0.03251000  1.0
  Br  Br71  1  0.72174000  0.17309000  0.03248000  1.0
  Br  Br72  1  0.72201000  0.16013000  0.63399000  1.0
  Br  Br73  1  0.27801000  0.97395000  0.63407000  1.0
  O  O74  1  0.26275000  0.00898000  0.45052000  1.0
  O  O75  1  0.26279000  0.04953000  0.55850000  1.0
  O  O76  1  0.26277000  0.94154000  0.49106000  1.0
  O  O77  1  0.73687000  0.04952000  0.49105000  1.0
  O  O78  1  0.73690000  0.94154000  0.45052000  1.0
  O  O79  1  0.73691000  0.00898000  0.55849000  1.0
  O  O80  1  0.26286000  0.28380000  0.10813000  1.0
  O  O81  1  0.26287000  0.39187000  0.17568000  1.0
  O  O82  1  0.26290000  0.32431000  0.21618000  1.0
  O  O83  1  0.73712000  0.32429000  0.10814000  1.0
  O  O84  1  0.73717000  0.28382000  0.17570000  1.0
  O  O85  1  0.73716000  0.39186000  0.21616000  1.0
