# generated using pymatgen
data_HoPH11C9SNO9
_symmetry_space_group_name_H-M   'P 1'
_cell_length_a   6.70127000
_cell_length_b   13.32530000
_cell_length_c   14.94370000
_cell_angle_alpha   90.53330000
_cell_angle_beta   89.99990000
_cell_angle_gamma   89.99980000
_symmetry_Int_Tables_number   1
_chemical_formula_structural   HoPH11C9SNO9
_chemical_formula_sum   'Ho4 P4 H44 C36 S4 N4 O36'
_cell_volume   1334.36130389
_cell_formula_units_Z   4
loop_
 _symmetry_equiv_pos_site_id
 _symmetry_equiv_pos_as_xyz
  1  'x, y, z'
loop_
 _atom_site_type_symbol
 _atom_site_label
 _atom_site_symmetry_multiplicity
 _atom_site_fract_x
 _atom_site_fract_y
 _atom_site_fract_z
 _atom_site_occupancy
  Ho  Ho0  1  0.87536000  0.54725000  0.61906000  1.0
  Ho  Ho1  1  0.37536000  0.45275000  0.88094000  1.0
  Ho  Ho2  1  0.12464000  0.45275000  0.38094000  1.0
  Ho  Ho3  1  0.62464000  0.54725000  0.11906000  1.0
  P  P4  1  0.87022000  0.37814000  0.80336000  1.0
  P  P5  1  0.37023000  0.62186000  0.69663000  1.0
  P  P6  1  0.12977000  0.62186000  0.19664000  1.0
  P  P7  1  0.62977000  0.37814000  0.30337000  1.0
  H  H8  1  0.85850000  0.22531000  0.94458000  1.0
  H  H9  1  0.35850000  0.77469000  0.55542000  1.0
  H  H10  1  0.14150000  0.77468000  0.05542000  1.0
  H  H11  1  0.64150000  0.22532000  0.44458000  1.0
  H  H12  1  0.86032000  0.03784000  0.93866000  1.0
  H  H13  1  0.36032000  0.96217000  0.56134000  1.0
  H  H14  1  0.13968000  0.96216000  0.06134000  1.0
  H  H15  1  0.63968000  0.03784000  0.43866000  1.0
  H  H16  1  0.85701000  0.87790000  0.84568000  1.0
  H  H17  1  0.35702000  0.12210000  0.65432000  1.0
  H  H18  1  0.14299000  0.12210000  0.15432000  1.0
  H  H19  1  0.64299000  0.87790000  0.34568000  1.0
  H  H20  1  0.86168000  0.79772000  0.69538000  1.0
  H  H21  1  0.36168000  0.20228000  0.80462000  1.0
  H  H22  1  0.13832000  0.20228000  0.30462000  1.0
  H  H23  1  0.63832000  0.79772000  0.19538000  1.0
  H  H24  1  0.86469000  0.89979000  0.55944000  1.0
  H  H25  1  0.36468000  0.10021000  0.94056000  1.0
  H  H26  1  0.13531000  0.10021000  0.44056000  1.0
  H  H27  1  0.63531000  0.89979000  0.05944000  1.0
  H  H28  1  0.86698000  0.08894000  0.57020000  1.0
  H  H29  1  0.36698000  0.91106000  0.92980000  1.0
  H  H30  1  0.13302000  0.91106000  0.42980000  1.0
  H  H31  1  0.63302000  0.08894000  0.07020000  1.0
  H  H32  1  0.86651000  0.23143000  0.66224000  1.0
  H  H33  1  0.36651000  0.76857000  0.83776000  1.0
  H  H34  1  0.13349000  0.76857000  0.33776000  1.0
  H  H35  1  0.63349000  0.23143000  0.16224000  1.0
  H  H36  1  0.05593000  0.60960000  0.79096000  1.0
  H  H37  1  0.55593000  0.39040000  0.70904000  1.0
  H  H38  1  0.94407000  0.39040000  0.20904000  1.0
  H  H39  1  0.44407000  0.60960000  0.29097000  1.0
  H  H40  1  0.83652000  0.65046000  0.80951000  1.0
  H  H41  1  0.33653000  0.34954000  0.69049000  1.0
  H  H42  1  0.16348000  0.34954000  0.19049000  1.0
  H  H43  1  0.66347000  0.65046000  0.30951000  1.0
  H  H44  1  0.71009000  0.36790000  0.55109000  1.0
  H  H45  1  0.21009000  0.63210000  0.94891000  1.0
  H  H46  1  0.28991000  0.63210000  0.44891000  1.0
  H  H47  1  0.78992000  0.36790000  0.05109000  1.0
  H  H48  1  0.66586000  0.44349000  0.47634000  1.0
  H  H49  1  0.16586000  0.55651000  0.02366000  1.0
  H  H50  1  0.33415000  0.55651000  0.52366000  1.0
  H  H51  1  0.83414000  0.44350000  0.97634000  1.0
  C  C52  1  0.86213000  0.24019000  0.80115000  1.0
  C  C53  1  0.36214000  0.75981000  0.69885000  1.0
  C  C54  1  0.13786000  0.75981000  0.19885000  1.0
  C  C55  1  0.63787000  0.24019000  0.30115000  1.0
  C  C56  1  0.86204000  0.18494000  0.88109000  1.0
  C  C57  1  0.36205000  0.81506000  0.61891000  1.0
  C  C58  1  0.13795000  0.81506000  0.11891000  1.0
  C  C59  1  0.63796000  0.18494000  0.38109000  1.0
  C  C60  1  0.86165000  0.08156000  0.87727000  1.0
  C  C61  1  0.36165000  0.91844000  0.62273000  1.0
  C  C62  1  0.13835000  0.91844000  0.12273000  1.0
  C  C63  1  0.63835000  0.08156000  0.37727000  1.0
  C  C64  1  0.86226000  0.02998000  0.79408000  1.0
  C  C65  1  0.36226000  0.97002000  0.70592000  1.0
  C  C66  1  0.13774000  0.97001000  0.20592000  1.0
  C  C67  1  0.63775000  0.02998000  0.29408000  1.0
  C  C68  1  0.86148000  0.92394000  0.78570000  1.0
  C  C69  1  0.36148000  0.07606000  0.71430000  1.0
  C  C70  1  0.13852000  0.07606000  0.21430000  1.0
  C  C71  1  0.63853000  0.92394000  0.28570000  1.0
  C  C72  1  0.86218000  0.87907000  0.70219000  1.0
  C  C73  1  0.36218000  0.12093000  0.79781000  1.0
  C  C74  1  0.13782000  0.12093000  0.29781000  1.0
  C  C75  1  0.63782000  0.87907000  0.20219000  1.0
  C  C76  1  0.86405000  0.93828000  0.62412000  1.0
  C  C77  1  0.36404000  0.06172000  0.87588000  1.0
  C  C78  1  0.13595000  0.06172000  0.37588000  1.0
  C  C79  1  0.63595000  0.93828000  0.12412000  1.0
  C  C80  1  0.86436000  0.04180000  0.62939000  1.0
  C  C81  1  0.36436000  0.95820000  0.87061000  1.0
  C  C82  1  0.13564000  0.95820000  0.37061000  1.0
  C  C83  1  0.63564000  0.04180000  0.12939000  1.0
  C  C84  1  0.86292000  0.08840000  0.71465000  1.0
  C  C85  1  0.36291000  0.91160000  0.78535000  1.0
  C  C86  1  0.13708000  0.91160000  0.28535000  1.0
  C  C87  1  0.63709000  0.08840000  0.21465000  1.0
  S  S88  1  0.91069000  0.69211000  0.46203000  1.0
  S  S89  1  0.41069000  0.30789000  0.03797000  1.0
  S  S90  1  0.08931000  0.30789000  0.53797000  1.0
  S  S91  1  0.58931000  0.69211000  0.96203000  1.0
  N  N92  1  0.86203000  0.19107000  0.72273000  1.0
  N  N93  1  0.36203000  0.80893000  0.77727000  1.0
  N  N94  1  0.13797000  0.80893000  0.27727000  1.0
  N  N95  1  0.63797000  0.19107000  0.22273000  1.0
  O  O96  1  0.82817000  0.40979000  0.70683000  1.0
  O  O97  1  0.32818000  0.59021000  0.79317000  1.0
  O  O98  1  0.17181000  0.59021000  0.29317000  1.0
  O  O99  1  0.67182000  0.40979000  0.20683000  1.0
  O  O100  1  0.70701000  0.41014000  0.86904000  1.0
  O  O101  1  0.20702000  0.58987000  0.63096000  1.0
  O  O102  1  0.29298000  0.58986000  0.13096000  1.0
  O  O103  1  0.79298000  0.41013000  0.36904000  1.0
  O  O104  1  0.07817000  0.40189000  0.83600000  1.0
  O  O105  1  0.57817000  0.59811000  0.66400000  1.0
  O  O106  1  0.92183000  0.59811000  0.16401000  1.0
  O  O107  1  0.42183000  0.40189000  0.33600000  1.0
  O  O108  1  0.84470000  0.71415000  0.55527000  1.0
  O  O109  1  0.34471000  0.28585000  0.94472000  1.0
  O  O110  1  0.15530000  0.28585000  0.44472000  1.0
  O  O111  1  0.65530000  0.71415000  0.05528000  1.0
  O  O112  1  0.92678000  0.57839000  0.45976000  1.0
  O  O113  1  0.42679000  0.42161000  0.04024000  1.0
  O  O114  1  0.07322000  0.42161000  0.54024000  1.0
  O  O115  1  0.57322000  0.57839000  0.95976000  1.0
  O  O116  1  0.11288000  0.73619000  0.44555000  1.0
  O  O117  1  0.61289000  0.26382000  0.05445000  1.0
  O  O118  1  0.88712000  0.26381000  0.55445000  1.0
  O  O119  1  0.38712000  0.73619000  0.94555000  1.0
  O  O120  1  0.76903000  0.72736000  0.39435000  1.0
  O  O121  1  0.26904000  0.27265000  0.10565000  1.0
  O  O122  1  0.23097000  0.27265000  0.60564000  1.0
  O  O123  1  0.73097000  0.72735000  0.89436000  1.0
  O  O124  1  0.92608000  0.62343000  0.76239000  1.0
  O  O125  1  0.42608000  0.37657000  0.73761000  1.0
  O  O126  1  0.07392000  0.37657000  0.23761000  1.0
  O  O127  1  0.57392000  0.62343000  0.26239000  1.0
  O  O128  1  0.65047000  0.43490000  0.54165000  1.0
  O  O129  1  0.15047000  0.56511000  0.95835000  1.0
  O  O130  1  0.34953000  0.56510000  0.45835000  1.0
  O  O131  1  0.84953000  0.43490000  0.04165000  1.0
