# generated using pymatgen
data_Zn2H17C28(NO3)3
_symmetry_space_group_name_H-M   'P 1'
_cell_length_a   10.74310000
_cell_length_b   11.45800000
_cell_length_c   11.65910000
_cell_angle_alpha   114.24800000
_cell_angle_beta   103.95800000
_cell_angle_gamma   91.35170000
_symmetry_Int_Tables_number   1
_chemical_formula_structural   Zn2H17C28(NO3)3
_chemical_formula_sum   'Zn4 H34 C56 N6 O18'
_cell_volume   1257.65769432
_cell_formula_units_Z   2
loop_
 _symmetry_equiv_pos_site_id
 _symmetry_equiv_pos_as_xyz
  1  'x, y, z'
loop_
 _atom_site_type_symbol
 _atom_site_label
 _atom_site_symmetry_multiplicity
 _atom_site_fract_x
 _atom_site_fract_y
 _atom_site_fract_z
 _atom_site_occupancy
  Zn  Zn0  1  0.20566000  0.54228000  0.40243000  1.0
  Zn  Zn1  1  0.79434000  0.45772000  0.59757000  1.0
  Zn  Zn2  1  0.15195000  0.75109000  0.76579000  1.0
  Zn  Zn3  1  0.84805000  0.24891000  0.23421000  1.0
  H  H4  1  0.03073000  0.13583000  0.69051000  1.0
  H  H5  1  0.96927000  0.86418000  0.30949000  1.0
  H  H6  1  0.21040000  0.99966000  0.67012000  1.0
  H  H7  1  0.78961000  0.00034000  0.32988000  1.0
  H  H8  1  0.33711000  0.99025000  0.51546000  1.0
  H  H9  1  0.66289000  0.00975000  0.48454000  1.0
  H  H10  1  0.17259000  0.95831000  0.20376000  1.0
  H  H11  1  0.82740000  0.04169000  0.79624000  1.0
  H  H12  1  0.53632000  0.01633000  0.12661000  1.0
  H  H13  1  0.46368000  0.98366000  0.87339000  1.0
  H  H14  1  0.47243000  0.26315000  0.49573000  1.0
  H  H15  1  0.52756000  0.73685000  0.50427000  1.0
  H  H16  1  0.42975000  0.41874000  0.33011000  1.0
  H  H17  1  0.57026000  0.58126000  0.66989000  1.0
  H  H18  1  0.20116000  0.66321000  0.22000000  1.0
  H  H19  1  0.79884000  0.33678000  0.77999000  1.0
  H  H20  1  0.35929000  0.71308000  0.11757000  1.0
  H  H21  1  0.64070000  0.28692000  0.88243000  1.0
  H  H22  1  0.59892000  0.46109000  0.23156000  1.0
  H  H23  1  0.40109000  0.53892000  0.76844000  1.0
  H  H24  1  0.96478000  0.55841000  0.10061000  1.0
  H  H25  1  0.03521000  0.44158000  0.89939000  1.0
  H  H26  1  0.05734000  0.69018000  0.00613000  1.0
  H  H27  1  0.94266000  0.30982000  0.99387000  1.0
  H  H28  1  0.93207000  0.84062000  0.94083000  1.0
  H  H29  1  0.06794000  0.15938000  0.05917000  1.0
  H  H30  1  0.70692000  0.86310000  0.95971000  1.0
  H  H31  1  0.29308000  0.13690000  0.04029000  1.0
  H  H32  1  0.51529000  0.75706000  0.04178000  1.0
  H  H33  1  0.48471000  0.24294000  0.95822000  1.0
  H  H34  1  0.09562000  0.50095000  0.65132000  1.0
  H  H35  1  0.90438000  0.49905000  0.34868000  1.0
  H  H36  1  0.23066000  0.54316000  0.63793000  1.0
  H  H37  1  0.76933000  0.45684000  0.36208000  1.0
  C  C38  1  0.12912000  0.29707000  0.40652000  1.0
  C  C39  1  0.87088000  0.70293000  0.59348000  1.0
  C  C40  1  0.14494000  0.21174000  0.47739000  1.0
  C  C41  1  0.85506000  0.78826000  0.52261000  1.0
  C  C42  1  0.06844000  0.21173000  0.56017000  1.0
  C  C43  1  0.93156000  0.78827000  0.43983000  1.0
  C  C44  1  0.96019000  0.28947000  0.58114000  1.0
  C  C45  1  0.03981000  0.71052000  0.41886000  1.0
  C  C46  1  0.09162000  0.13392000  0.62760000  1.0
  C  C47  1  0.90838000  0.86608000  0.37240000  1.0
  C  C48  1  0.19084000  0.05829000  0.61598000  1.0
  C  C49  1  0.80916000  0.94171000  0.38402000  1.0
  C  C50  1  0.26307000  0.05424000  0.53031000  1.0
  C  C51  1  0.73693000  0.94576000  0.46969000  1.0
  C  C52  1  0.24044000  0.12881000  0.45949000  1.0
  C  C53  1  0.75955000  0.87119000  0.54051000  1.0
  C  C54  1  0.31622000  0.10984000  0.36296000  1.0
  C  C55  1  0.68377000  0.89016000  0.63704000  1.0
  C  C56  1  0.26975000  0.01097000  0.23571000  1.0
  C  C57  1  0.73025000  0.98903000  0.76429000  1.0
  C  C58  1  0.34868000  0.97698000  0.15041000  1.0
  C  C59  1  0.65132000  0.02302000  0.84960000  1.0
  C  C60  1  0.30250000  0.87362000  0.01318000  1.0
  C  C61  1  0.69750000  0.12638000  0.98682000  1.0
  C  C62  1  0.47393000  0.04280000  0.19174000  1.0
  C  C63  1  0.52606000  0.95720000  0.80827000  1.0
  C  C64  1  0.51653000  0.14850000  0.31407000  1.0
  C  C65  1  0.48347000  0.85150000  0.68593000  1.0
  C  C66  1  0.64389000  0.22745000  0.34957000  1.0
  C  C67  1  0.35611000  0.77255000  0.65042000  1.0
  C  C68  1  0.43782000  0.18183000  0.39960000  1.0
  C  C69  1  0.56218000  0.81817000  0.60040000  1.0
  C  C70  1  0.41783000  0.48334000  0.28202000  1.0
  C  C71  1  0.58218000  0.51665000  0.71798000  1.0
  C  C72  1  0.28972000  0.61933000  0.21934000  1.0
  C  C73  1  0.71028000  0.38066000  0.78066000  1.0
  C  C74  1  0.38014000  0.64880000  0.16502000  1.0
  C  C75  1  0.61986000  0.35120000  0.83498000  1.0
  C  C76  1  0.51228000  0.50804000  0.22940000  1.0
  C  C77  1  0.48772000  0.49196000  0.77061000  1.0
  C  C78  1  0.59979000  0.62873000  0.12556000  1.0
  C  C79  1  0.40021000  0.37127000  0.87444000  1.0
  C  C80  1  0.71108000  0.72367000  0.04292000  1.0
  C  C81  1  0.28892000  0.27633000  0.95709000  1.0
  C  C82  1  0.78335000  0.63784000  0.08381000  1.0
  C  C83  1  0.21665000  0.36216000  0.91619000  1.0
  C  C84  1  0.90922000  0.62413000  0.07008000  1.0
  C  C85  1  0.09077000  0.37587000  0.92992000  1.0
  C  C86  1  0.95972000  0.69768000  0.01787000  1.0
  C  C87  1  0.04028000  0.30232000  0.98213000  1.0
  C  C88  1  0.88760000  0.78369000  0.97944000  1.0
  C  C89  1  0.11240000  0.21631000  0.02056000  1.0
  C  C90  1  0.76202000  0.79743000  0.99035000  1.0
  C  C91  1  0.23799000  0.20258000  0.00965000  1.0
  C  C92  1  0.49655000  0.59568000  0.17236000  1.0
  C  C93  1  0.50345000  0.40432000  0.82764000  1.0
  N  N94  1  0.30856000  0.54015000  0.27993000  1.0
  N  N95  1  0.69144000  0.45984000  0.72007000  1.0
  N  N96  1  0.71171000  0.58066000  0.13469000  1.0
  N  N97  1  0.28829000  0.41935000  0.86531000  1.0
  N  N98  1  0.59473000  0.71545000  0.07060000  1.0
  N  N99  1  0.40527000  0.28455000  0.92940000  1.0
  O  O100  1  0.21821000  0.39333000  0.45207000  1.0
  O  O101  1  0.78179000  0.60668000  0.54793000  1.0
  O  O102  1  0.03752000  0.26954000  0.30421000  1.0
  O  O103  1  0.96248000  0.73046000  0.69579000  1.0
  O  O104  1  0.96672000  0.40168000  0.57436000  1.0
  O  O105  1  0.03328000  0.59832000  0.42564000  1.0
  O  O106  1  0.86497000  0.24985000  0.60517000  1.0
  O  O107  1  0.13503000  0.75014000  0.39482000  1.0
  O  O108  1  0.18195000  0.86385000  0.95265000  1.0
  O  O109  1  0.81805000  0.13615000  0.04735000  1.0
  O  O110  1  0.38108000  0.80455000  0.96159000  1.0
  O  O111  1  0.61892000  0.19545000  0.03841000  1.0
  O  O112  1  0.72970000  0.17027000  0.29650000  1.0
  O  O113  1  0.27030000  0.82973000  0.70349000  1.0
  O  O114  1  0.65663000  0.34720000  0.42662000  1.0
  O  O115  1  0.34337000  0.65280000  0.57338000  1.0
  O  O116  1  0.17620000  0.56686000  0.69823000  1.0
  O  O117  1  0.82380000  0.43314000  0.30177000  1.0
