# generated using pymatgen
data_AlH3C8S2O7
_symmetry_space_group_name_H-M   'P 1'
_cell_length_a   6.63299000
_cell_length_b   16.84940000
_cell_length_c   17.90800000
_cell_angle_alpha   89.92700000
_cell_angle_beta   89.69980000
_cell_angle_gamma   90.75950000
_symmetry_Int_Tables_number   1
_chemical_formula_structural   AlH3C8S2O7
_chemical_formula_sum   'Al4 H12 C32 S8 O28'
_cell_volume   2001.22702102
_cell_formula_units_Z   4
loop_
 _symmetry_equiv_pos_site_id
 _symmetry_equiv_pos_as_xyz
  1  'x, y, z'
loop_
 _atom_site_type_symbol
 _atom_site_label
 _atom_site_symmetry_multiplicity
 _atom_site_fract_x
 _atom_site_fract_y
 _atom_site_fract_z
 _atom_site_occupancy
  Al  Al0  1  0.06212000  0.99554000  0.50086000  1.0
  Al  Al1  1  0.56335000  0.00456000  0.50252000  1.0
  Al  Al2  1  0.93665000  0.49544000  0.99748000  1.0
  Al  Al3  1  0.43788000  0.50446000  0.99914000  1.0
  H  H4  1  0.83219000  0.09925000  0.47159000  1.0
  H  H5  1  0.32838000  0.90285000  0.46834000  1.0
  H  H6  1  0.66781000  0.40075000  0.02842000  1.0
  H  H7  1  0.17162000  0.59715000  0.03165000  1.0
  H  H8  1  0.82468000  0.21527000  0.66332000  1.0
  H  H9  1  0.67532000  0.28473000  0.83668000  1.0
  H  H10  1  0.32767000  0.78036000  0.33656000  1.0
  H  H11  1  0.17232000  0.71964000  0.16343000  1.0
  H  H12  1  0.17305000  0.73332000  0.66478000  1.0
  H  H13  1  0.32697000  0.76667000  0.83522000  1.0
  H  H14  1  0.83310000  0.21801000  0.33926000  1.0
  H  H15  1  0.66690000  0.28199000  0.16074000  1.0
  C  C16  1  0.31774000  0.09984000  0.40348000  1.0
  C  C17  1  0.29792000  0.09411000  0.60070000  1.0
  C  C18  1  0.79461000  0.90426000  0.59929000  1.0
  C  C19  1  0.81240000  0.90250000  0.40196000  1.0
  C  C20  1  0.18227000  0.40016000  0.09652000  1.0
  C  C21  1  0.20208000  0.40589000  0.89931000  1.0
  C  C22  1  0.70538000  0.59573000  0.90071000  1.0
  C  C23  1  0.68758000  0.59750000  0.09804000  1.0
  C  C24  1  0.11218000  0.19886000  0.67658000  1.0
  C  C25  1  0.38782000  0.30114000  0.82341000  1.0
  C  C26  1  0.28339000  0.15581000  0.65821000  1.0
  C  C27  1  0.21661000  0.34419000  0.84178000  1.0
  C  C28  1  0.34907000  0.24823000  0.76304000  1.0
  C  C29  1  0.15093000  0.25178000  0.73695000  1.0
  C  C30  1  0.61558000  0.79903000  0.32519000  1.0
  C  C31  1  0.88440000  0.70097000  0.17481000  1.0
  C  C32  1  0.78922000  0.84240000  0.34343000  1.0
  C  C33  1  0.71077000  0.65761000  0.15656000  1.0
  C  C34  1  0.84880000  0.75253000  0.23631000  1.0
  C  C35  1  0.65120000  0.74747000  0.26368000  1.0
  C  C36  1  0.92109000  0.78647000  0.67822000  1.0
  C  C37  1  0.57893000  0.71353000  0.82178000  1.0
  C  C38  1  0.78227000  0.84386000  0.65773000  1.0
  C  C39  1  0.71775000  0.65614000  0.84226000  1.0
  C  C40  1  0.65336000  0.76096000  0.76170000  1.0
  C  C41  1  0.84667000  0.73903000  0.73829000  1.0
  C  C42  1  0.11934000  0.20064000  0.32674000  1.0
  C  C43  1  0.38066000  0.29936000  0.17326000  1.0
  C  C44  1  0.29429000  0.15960000  0.34471000  1.0
  C  C45  1  0.20572000  0.34040000  0.15529000  1.0
  C  C46  1  0.34822000  0.24847000  0.23580000  1.0
  C  C47  1  0.15178000  0.25153000  0.26419000  1.0
  S  S48  1  0.48998000  0.18021000  0.71419000  1.0
  S  S49  1  0.01002000  0.31980000  0.78580000  1.0
  S  S50  1  0.99313000  0.82078000  0.28495000  1.0
  S  S51  1  0.50686000  0.67922000  0.21504000  1.0
  S  S52  1  0.56011000  0.83891000  0.71044000  1.0
  S  S53  1  0.93992000  0.66108000  0.78956000  1.0
  S  S54  1  0.49522000  0.18276000  0.28470000  1.0
  S  S55  1  0.00477000  0.31723000  0.21530000  1.0
  O  O56  1  0.15542000  0.08043000  0.43720000  1.0
  O  O57  1  0.46976000  0.08435000  0.56954000  1.0
  O  O58  1  0.63367000  0.94337000  0.58834000  1.0
  O  O59  1  0.98939000  0.93095000  0.41345000  1.0
  O  O60  1  0.96024000  0.91312000  0.56362000  1.0
  O  O61  1  0.65180000  0.92045000  0.43673000  1.0
  O  O62  1  0.49372000  0.07302000  0.41638000  1.0
  O  O63  1  0.13664000  0.05586000  0.58651000  1.0
  O  O64  1  0.81784000  0.04929000  0.49830000  1.0
  O  O65  1  0.31563000  0.95104000  0.49762000  1.0
  O  O66  1  0.00628000  0.42698000  0.08362000  1.0
  O  O67  1  0.36335000  0.44413000  0.91350000  1.0
  O  O68  1  0.53976000  0.58687000  0.93637000  1.0
  O  O69  1  0.84819000  0.57956000  0.06327000  1.0
  O  O70  1  0.86632000  0.55661000  0.91165000  1.0
  O  O71  1  0.51061000  0.56905000  0.08654000  1.0
  O  O72  1  0.34457000  0.41957000  0.06281000  1.0
  O  O73  1  0.03024000  0.41564000  0.93047000  1.0
  O  O74  1  0.68216000  0.45071000  0.00170000  1.0
  O  O75  1  0.18437000  0.54896000  0.00237000  1.0
  O  O76  1  0.93953000  0.19135000  0.63763000  1.0
  O  O77  1  0.56047000  0.30865000  0.86237000  1.0
  O  O78  1  0.43991000  0.80581000  0.36315000  1.0
  O  O79  1  0.06009000  0.69420000  0.13685000  1.0
  O  O80  1  0.10171000  0.77816000  0.64354000  1.0
  O  O81  1  0.39831000  0.72184000  0.85646000  1.0
  O  O82  1  0.94474000  0.19276000  0.36545000  1.0
  O  O83  1  0.55526000  0.30724000  0.13455000  1.0
