# generated using pymatgen
data_ZnH15C18SN5O4
_symmetry_space_group_name_H-M   'P 1'
_cell_length_a   9.68445000
_cell_length_b   13.26360000
_cell_length_c   16.14880000
_cell_angle_alpha   90.00000000
_cell_angle_beta   95.90220000
_cell_angle_gamma   89.99980000
_symmetry_Int_Tables_number   1
_chemical_formula_structural   ZnH15C18SN5O4
_chemical_formula_sum   'Zn4 H60 C72 S4 N20 O16'
_cell_volume   2063.32793275
_cell_formula_units_Z   4
loop_
 _symmetry_equiv_pos_site_id
 _symmetry_equiv_pos_as_xyz
  1  'x, y, z'
loop_
 _atom_site_type_symbol
 _atom_site_label
 _atom_site_symmetry_multiplicity
 _atom_site_fract_x
 _atom_site_fract_y
 _atom_site_fract_z
 _atom_site_occupancy
  Zn  Zn0  1  0.88665000  0.34696000  0.06427000  1.0
  Zn  Zn1  1  0.11335000  0.84696000  0.43573000  1.0
  Zn  Zn2  1  0.11335000  0.65304000  0.93573000  1.0
  Zn  Zn3  1  0.88665000  0.15304000  0.56427000  1.0
  H  H4  1  0.40152000  0.29000000  0.60355000  1.0
  H  H5  1  0.59848000  0.79000000  0.89645000  1.0
  H  H6  1  0.59848000  0.70999000  0.39645000  1.0
  H  H7  1  0.40151000  0.21000000  0.10355000  1.0
  H  H8  1  0.38588000  0.41718000  0.61468000  1.0
  H  H9  1  0.61412000  0.91718000  0.88531000  1.0
  H  H10  1  0.61412000  0.58282000  0.38532000  1.0
  H  H11  1  0.38588000  0.08282000  0.11468000  1.0
  H  H12  1  0.92690000  0.10324000  0.80510000  1.0
  H  H13  1  0.07310000  0.60324000  0.69490000  1.0
  H  H14  1  0.07310000  0.89676000  0.19490000  1.0
  H  H15  1  0.92690000  0.39676000  0.30510000  1.0
  H  H16  1  0.16768000  0.16293000  0.78494000  1.0
  H  H17  1  0.83232000  0.66293000  0.71506000  1.0
  H  H18  1  0.83232000  0.83708000  0.21506000  1.0
  H  H19  1  0.16768000  0.33707000  0.28494000  1.0
  H  H20  1  0.49913000  0.48352000  0.90031000  1.0
  H  H21  1  0.50087000  0.98352000  0.59969000  1.0
  H  H22  1  0.50087000  0.51648000  0.09969000  1.0
  H  H23  1  0.49913000  0.01648000  0.40031000  1.0
  H  H24  1  0.25777000  0.41861000  0.00095000  1.0
  H  H25  1  0.74223000  0.91860000  0.49905000  1.0
  H  H26  1  0.74223000  0.58139000  0.99905000  1.0
  H  H27  1  0.25777000  0.08139000  0.50095000  1.0
  H  H28  1  0.54729000  0.16297000  0.86840000  1.0
  H  H29  1  0.45272000  0.66297000  0.63160000  1.0
  H  H30  1  0.45271000  0.83703000  0.13160000  1.0
  H  H31  1  0.54728000  0.33703000  0.36840000  1.0
  H  H32  1  0.27419000  0.29967000  0.87800000  1.0
  H  H33  1  0.72582000  0.79967000  0.62200000  1.0
  H  H34  1  0.72582000  0.70033000  0.12200000  1.0
  H  H35  1  0.27419000  0.20033000  0.37800000  1.0
  H  H36  1  0.46009000  0.17909000  0.71791000  1.0
  H  H37  1  0.53991000  0.67909000  0.78209000  1.0
  H  H38  1  0.53992000  0.82091000  0.28209000  1.0
  H  H39  1  0.46008000  0.32091000  0.21791000  1.0
  H  H40  1  0.41252000  0.49974000  0.75204000  1.0
  H  H41  1  0.58748000  0.99974000  0.74796000  1.0
  H  H42  1  0.58748000  0.50026000  0.24796000  1.0
  H  H43  1  0.41251000  0.00026000  0.25204000  1.0
  H  H44  1  0.80797000  0.17760000  0.92323000  1.0
  H  H45  1  0.19203000  0.67760000  0.57676000  1.0
  H  H46  1  0.19203000  0.82240000  0.07677000  1.0
  H  H47  1  0.80797000  0.32240000  0.42323000  1.0
  H  H48  1  0.89676000  0.69871000  0.38787000  1.0
  H  H49  1  0.10324000  0.19870000  0.11213000  1.0
  H  H50  1  0.10324000  0.30129000  0.61213000  1.0
  H  H51  1  0.89676000  0.80130000  0.88787000  1.0
  H  H52  1  0.84755000  0.56451000  0.28102000  1.0
  H  H53  1  0.15245000  0.06451000  0.21898000  1.0
  H  H54  1  0.15245000  0.43549000  0.71898000  1.0
  H  H55  1  0.84755000  0.93549000  0.78102000  1.0
  H  H56  1  0.29138000  0.74646000  0.31548000  1.0
  H  H57  1  0.70862000  0.24646000  0.18452000  1.0
  H  H58  1  0.70862000  0.25354000  0.68452000  1.0
  H  H59  1  0.29138000  0.75354000  0.81548000  1.0
  H  H60  1  0.25672000  0.61260000  0.20557000  1.0
  H  H61  1  0.74328000  0.11260000  0.29443000  1.0
  H  H62  1  0.74328000  0.38740000  0.79443000  1.0
  H  H63  1  0.25672000  0.88740000  0.70557000  1.0
  C  C64  1  0.01686000  0.50081000  0.16950000  1.0
  C  C65  1  0.98314000  0.00081000  0.33050000  1.0
  C  C66  1  0.98314000  0.49919000  0.83050000  1.0
  C  C67  1  0.01686000  0.99919000  0.66950000  1.0
  C  C68  1  0.52984000  0.32152000  0.89359000  1.0
  C  C69  1  0.47016000  0.82152000  0.60641000  1.0
  C  C70  1  0.47016000  0.67848000  0.10641000  1.0
  C  C71  1  0.52984000  0.17848000  0.39359000  1.0
  C  C72  1  0.97886000  0.15971000  0.84608000  1.0
  C  C73  1  0.02114000  0.65970000  0.65391000  1.0
  C  C74  1  0.02114000  0.84030000  0.15391000  1.0
  C  C75  1  0.97886000  0.34030000  0.34609000  1.0
  C  C76  1  0.43073000  0.34060000  0.72387000  1.0
  C  C77  1  0.56927000  0.84060000  0.77613000  1.0
  C  C78  1  0.56927000  0.65940000  0.27613000  1.0
  C  C79  1  0.43073000  0.15940000  0.22387000  1.0
  C  C80  1  0.04942000  0.57737000  0.23588000  1.0
  C  C81  1  0.95058000  0.07737000  0.26413000  1.0
  C  C82  1  0.95058000  0.42263000  0.76413000  1.0
  C  C83  1  0.04942000  0.92263000  0.73587000  1.0
  C  C84  1  0.11164000  0.19395000  0.83439000  1.0
  C  C85  1  0.88836000  0.69395000  0.66561000  1.0
  C  C86  1  0.88836000  0.80606000  0.16561000  1.0
  C  C87  1  0.11165000  0.30605000  0.33439000  1.0
  C  C88  1  0.49140000  0.41660000  0.86080000  1.0
  C  C89  1  0.50860000  0.91659000  0.63920000  1.0
  C  C90  1  0.50860000  0.58340000  0.13920000  1.0
  C  C91  1  0.49140000  0.08340000  0.36080000  1.0
  C  C92  1  0.15436000  0.38753000  0.00518000  1.0
  C  C93  1  0.84564000  0.88753000  0.49482000  1.0
  C  C94  1  0.84564000  0.61247000  0.99482000  1.0
  C  C95  1  0.15436000  0.11247000  0.50518000  1.0
  C  C96  1  0.51831000  0.23644000  0.84182000  1.0
  C  C97  1  0.48169000  0.73644000  0.65818000  1.0
  C  C98  1  0.48169000  0.76356000  0.15818000  1.0
  C  C99  1  0.51831000  0.26356000  0.34182000  1.0
  C  C100  1  0.17183000  0.26971000  0.88588000  1.0
  C  C101  1  0.82817000  0.76971000  0.61412000  1.0
  C  C102  1  0.82817000  0.73029000  0.11412000  1.0
  C  C103  1  0.17183000  0.23029000  0.38588000  1.0
  C  C104  1  0.46899000  0.24534000  0.75823000  1.0
  C  C105  1  0.53101000  0.74533000  0.74177000  1.0
  C  C106  1  0.53101000  0.75466000  0.24177000  1.0
  C  C107  1  0.46899000  0.25466000  0.25823000  1.0
  C  C108  1  0.09762000  0.30887000  0.94845000  1.0
  C  C109  1  0.90238000  0.80887000  0.55155000  1.0
  C  C110  1  0.90238000  0.69113000  0.05155000  1.0
  C  C111  1  0.09762000  0.19113000  0.44845000  1.0
  C  C112  1  0.44273000  0.42559000  0.77707000  1.0
  C  C113  1  0.55727000  0.92558000  0.72293000  1.0
  C  C114  1  0.55727000  0.57441000  0.22293000  1.0
  C  C115  1  0.44273000  0.07442000  0.27707000  1.0
  C  C116  1  0.91138000  0.20170000  0.91027000  1.0
  C  C117  1  0.08863000  0.70170000  0.58973000  1.0
  C  C118  1  0.08862000  0.79830000  0.08973000  1.0
  C  C119  1  0.91137000  0.29830000  0.41027000  1.0
  C  C120  1  0.97523000  0.67678000  0.34747000  1.0
  C  C121  1  0.02477000  0.17678000  0.15253000  1.0
  C  C122  1  0.02477000  0.32323000  0.65253000  1.0
  C  C123  1  0.97523000  0.82322000  0.84747000  1.0
  C  C124  1  0.94814000  0.60172000  0.28847000  1.0
  C  C125  1  0.05186000  0.10172000  0.21154000  1.0
  C  C126  1  0.05186000  0.39828000  0.71154000  1.0
  C  C127  1  0.94814000  0.89828000  0.78846000  1.0
  C  C128  1  0.19519000  0.70357000  0.30646000  1.0
  C  C129  1  0.80481000  0.20357000  0.19354000  1.0
  C  C130  1  0.80481000  0.29643000  0.69354000  1.0
  C  C131  1  0.19519000  0.79643000  0.80646000  1.0
  C  C132  1  0.17604000  0.62921000  0.24581000  1.0
  C  C133  1  0.82396000  0.12921000  0.25419000  1.0
  C  C134  1  0.82396000  0.37079000  0.75419000  1.0
  C  C135  1  0.17604000  0.87079000  0.74581000  1.0
  S  S136  1  0.58254000  0.30570000  0.00107000  1.0
  S  S137  1  0.41746000  0.80570000  0.49893000  1.0
  S  S138  1  0.41746000  0.69430000  0.99893000  1.0
  S  S139  1  0.58254000  0.19430000  0.50107000  1.0
  N  N140  1  0.07640000  0.41587000  0.06162000  1.0
  N  N141  1  0.92360000  0.91587000  0.43838000  1.0
  N  N142  1  0.92360000  0.58413000  0.93838000  1.0
  N  N143  1  0.07640000  0.08413000  0.56162000  1.0
  N  N144  1  0.11851000  0.48562000  0.11938000  1.0
  N  N145  1  0.88149000  0.98562000  0.38062000  1.0
  N  N146  1  0.88149000  0.51438000  0.88062000  1.0
  N  N147  1  0.11851000  0.01438000  0.61938000  1.0
  N  N148  1  0.37865000  0.34846000  0.64145000  1.0
  N  N149  1  0.62135000  0.84846000  0.85855000  1.0
  N  N150  1  0.62136000  0.65154000  0.35856000  1.0
  N  N151  1  0.37864000  0.15154000  0.14144000  1.0
  N  N152  1  0.96880000  0.27412000  0.95992000  1.0
  N  N153  1  0.03120000  0.77412000  0.54008000  1.0
  N  N154  1  0.03120000  0.72588000  0.04008000  1.0
  N  N155  1  0.96880000  0.22588000  0.45992000  1.0
  N  N156  1  0.09650000  0.72735000  0.35612000  1.0
  N  N157  1  0.90350000  0.22735000  0.14388000  1.0
  N  N158  1  0.90350000  0.27265000  0.64388000  1.0
  N  N159  1  0.09650000  0.77265000  0.85612000  1.0
  O  O160  1  0.89829000  0.45769000  0.16439000  1.0
  O  O161  1  0.10171000  0.95769000  0.33561000  1.0
  O  O162  1  0.10171000  0.54232000  0.83561000  1.0
  O  O163  1  0.89829000  0.04231000  0.66439000  1.0
  O  O164  1  0.46247000  0.32874000  0.04648000  1.0
  O  O165  1  0.53753000  0.82874000  0.45352000  1.0
  O  O166  1  0.53753000  0.67126000  0.95352000  1.0
  O  O167  1  0.46247000  0.17126000  0.54647000  1.0
  O  O168  1  0.69366000  0.38378000  0.02196000  1.0
  O  O169  1  0.30634000  0.88378000  0.47804000  1.0
  O  O170  1  0.30634000  0.61622000  0.97804000  1.0
  O  O171  1  0.69366000  0.11622000  0.52196000  1.0
  O  O172  1  0.63504000  0.20282000  0.01218000  1.0
  O  O173  1  0.36496000  0.70281000  0.48782000  1.0
  O  O174  1  0.36496000  0.79719000  0.98782000  1.0
  O  O175  1  0.63504000  0.29719000  0.51218000  1.0
