# generated using pymatgen
data_ZnH15C14(NO)3
_symmetry_space_group_name_H-M   'P 1'
_cell_length_a   10.12810000
_cell_length_b   15.97620000
_cell_length_c   15.97620000
_cell_angle_alpha   115.65400000
_cell_angle_beta   102.20200000
_cell_angle_gamma   102.20200000
_symmetry_Int_Tables_number   1
_chemical_formula_structural   ZnH15C14(NO)3
_chemical_formula_sum   'Zn6 H90 C84 N18 O18'
_cell_volume   2138.82216896
_cell_formula_units_Z   6
loop_
 _symmetry_equiv_pos_site_id
 _symmetry_equiv_pos_as_xyz
  1  'x, y, z'
loop_
 _atom_site_type_symbol
 _atom_site_label
 _atom_site_symmetry_multiplicity
 _atom_site_fract_x
 _atom_site_fract_y
 _atom_site_fract_z
 _atom_site_occupancy
  Zn  Zn0  1  0.10348000  0.70180000  0.32335000  1.0
  Zn  Zn1  1  0.78007000  0.67660000  0.37830000  1.0
  Zn  Zn2  1  0.40148000  0.62156000  0.29827000  1.0
  Zn  Zn3  1  0.90148000  0.29827000  0.62156000  1.0
  Zn  Zn4  1  0.60348000  0.32335000  0.70180000  1.0
  Zn  Zn5  1  0.28007000  0.37830000  0.67661000  1.0
  H  H6  1  0.37694000  0.68811000  0.03208000  1.0
  H  H7  1  0.34473000  0.96777000  0.65606000  1.0
  H  H8  1  0.68846000  0.34394000  0.31188000  1.0
  H  H9  1  0.18847000  0.31188000  0.34394000  1.0
  H  H10  1  0.87694000  0.03208000  0.68811000  1.0
  H  H11  1  0.84473000  0.65606000  0.96778000  1.0
  H  H12  1  0.36129000  0.57415000  0.87769000  1.0
  H  H13  1  0.48357000  0.12212000  0.69637000  1.0
  H  H14  1  0.78687000  0.30385000  0.42589000  1.0
  H  H15  1  0.28687000  0.42589000  0.30385000  1.0
  H  H16  1  0.86129000  0.87768000  0.57415000  1.0
  H  H17  1  0.98357000  0.69638000  0.12212000  1.0
  H  H18  1  0.22980000  0.81397000  0.14801000  1.0
  H  H19  1  0.08156000  0.85177000  0.66585000  1.0
  H  H20  1  0.41562000  0.33407000  0.18590000  1.0
  H  H21  1  0.91562000  0.18590000  0.33407000  1.0
  H  H22  1  0.72980000  0.14801000  0.81397000  1.0
  H  H23  1  0.58156000  0.66584000  0.85177000  1.0
  H  H24  1  0.41752000  0.83426000  0.17974000  1.0
  H  H25  1  0.23766000  0.82013000  0.65452000  1.0
  H  H26  1  0.58317000  0.34549000  0.16574000  1.0
  H  H27  1  0.08317000  0.16574000  0.34549000  1.0
  H  H28  1  0.91752000  0.17974000  0.83426000  1.0
  H  H29  1  0.73766000  0.65452000  0.82013000  1.0
  H  H30  1  0.90105000  0.48203000  0.81807000  1.0
  H  H31  1  0.08291000  0.18171000  0.66370000  1.0
  H  H32  1  0.41870000  0.33609000  0.51801000  1.0
  H  H33  1  0.91870000  0.51802000  0.33609000  1.0
  H  H34  1  0.40105000  0.81806000  0.48203000  1.0
  H  H35  1  0.58291000  0.66370000  0.18171000  1.0
  H  H36  1  0.75548000  0.48376000  0.08692000  1.0
  H  H37  1  0.66846000  0.91315000  0.39706000  1.0
  H  H38  1  0.27156000  0.60318000  0.51638000  1.0
  H  H39  1  0.77156000  0.51638000  0.60318000  1.0
  H  H40  1  0.25548000  0.08692000  0.48376000  1.0
  H  H41  1  0.16846000  0.39706000  0.91316000  1.0
  H  H42  1  0.69577000  0.42524000  0.95709000  1.0
  H  H43  1  0.73882000  0.04298000  0.46834000  1.0
  H  H44  1  0.27061000  0.53189000  0.57491000  1.0
  H  H45  1  0.77061000  0.57491000  0.53189000  1.0
  H  H46  1  0.19577000  0.95709000  0.42524000  1.0
  H  H47  1  0.23882000  0.46834000  0.04298000  1.0
  H  H48  1  0.87504000  0.36216000  0.14551000  1.0
  H  H49  1  0.72972000  0.85458000  0.21689000  1.0
  H  H50  1  0.51292000  0.78332000  0.63782000  1.0
  H  H51  1  0.01291000  0.63782000  0.78332000  1.0
  H  H52  1  0.37505000  0.14551000  0.36216000  1.0
  H  H53  1  0.22972000  0.21689000  0.85458000  1.0
  H  H54  1  0.77741000  0.20070000  0.13503000  1.0
  H  H55  1  0.64251000  0.86498000  0.06588000  1.0
  H  H56  1  0.57705000  0.93431000  0.79929000  1.0
  H  H57  1  0.07704000  0.79928000  0.93431000  1.0
  H  H58  1  0.27741000  0.13503000  0.20070000  1.0
  H  H59  1  0.14251000  0.06588000  0.86498000  1.0
  H  H60  1  0.55549000  0.07182000  0.99581000  1.0
  H  H61  1  0.55939000  0.00402000  0.07609000  1.0
  H  H62  1  0.48408000  0.92408000  0.92825000  1.0
  H  H63  1  0.98408000  0.92825000  0.92408000  1.0
  H  H64  1  0.05549000  0.99581000  0.07182000  1.0
  H  H65  1  0.05940000  0.07609000  0.00403000  1.0
  H  H66  1  0.43261000  0.10497000  0.86761000  1.0
  H  H67  1  0.56481000  0.13228000  0.23742000  1.0
  H  H68  1  0.32788000  0.76279000  0.89515000  1.0
  H  H69  1  0.82788000  0.89515000  0.76279000  1.0
  H  H70  1  0.93261000  0.86761000  0.10498000  1.0
  H  H71  1  0.06481000  0.23742000  0.13228000  1.0
  H  H72  1  0.53011000  0.26794000  0.88007000  1.0
  H  H73  1  0.65007000  0.11997000  0.38798000  1.0
  H  H74  1  0.26239000  0.61223000  0.73224000  1.0
  H  H75  1  0.76239000  0.73224000  0.61223000  1.0
  H  H76  1  0.03011000  0.88007000  0.26794000  1.0
  H  H77  1  0.15007000  0.38798000  0.11997000  1.0
  H  H78  1  0.95212000  0.52176000  0.02007000  1.0
  H  H79  1  0.93205000  0.97982000  0.50173000  1.0
  H  H80  1  0.43021000  0.49834000  0.47819000  1.0
  H  H81  1  0.93021000  0.47819000  0.49834000  1.0
  H  H82  1  0.45212000  0.02007000  0.52176000  1.0
  H  H83  1  0.43205000  0.50173000  0.97982000  1.0
  H  H84  1  0.93558000  0.39505000  0.96257000  1.0
  H  H85  1  0.97293000  0.03732000  0.43248000  1.0
  H  H86  1  0.54052000  0.56754000  0.60489000  1.0
  H  H87  1  0.04052000  0.60489000  0.56754000  1.0
  H  H88  1  0.43558000  0.96257000  0.39505000  1.0
  H  H89  1  0.47294000  0.43248000  0.03732000  1.0
  H  H90  1  0.99555000  0.46722000  0.09337000  1.0
  H  H91  1  0.90197000  0.90651000  0.37385000  1.0
  H  H92  1  0.52816000  0.62619000  0.53273000  1.0
  H  H93  1  0.02816000  0.53273000  0.62619000  1.0
  H  H94  1  0.49555000  0.09337000  0.46722000  1.0
  H  H95  1  0.40197000  0.37385000  0.90651000  1.0
  C  C96  1  0.30159000  0.72981000  0.21176000  1.0
  C  C97  1  0.08975000  0.78808000  0.51796000  1.0
  C  C98  1  0.57165000  0.48196000  0.27015000  1.0
  C  C99  1  0.07165000  0.27015000  0.48197000  1.0
  C  C100  1  0.80159000  0.21176000  0.72981000  1.0
  C  C101  1  0.58975000  0.51796000  0.78808000  1.0
  C  C102  1  0.15450000  0.64764000  0.98125000  1.0
  C  C103  1  0.17300000  0.01849000  0.66607000  1.0
  C  C104  1  0.50654000  0.33385000  0.35242000  1.0
  C  C105  1  0.00654000  0.35242000  0.33385000  1.0
  C  C106  1  0.65450000  0.98125000  0.64764000  1.0
  C  C107  1  0.67300000  0.66607000  0.01849000  1.0
  C  C108  1  0.24530000  0.53728000  0.84745000  1.0
  C  C109  1  0.39777000  0.15232000  0.68967000  1.0
  C  C110  1  0.70776000  0.31049000  0.46277000  1.0
  C  C111  1  0.20776000  0.46277000  0.31049000  1.0
  C  C112  1  0.74530000  0.84745000  0.53728000  1.0
  C  C113  1  0.89778000  0.68967000  0.15232000  1.0
  C  C114  1  0.31007000  0.77744000  0.14695000  1.0
  C  C115  1  0.16295000  0.85286000  0.63043000  1.0
  C  C116  1  0.53242000  0.36952000  0.22249000  1.0
  C  C117  1  0.03242000  0.22249000  0.36952000  1.0
  C  C118  1  0.81007000  0.14695000  0.77743000  1.0
  C  C119  1  0.66295000  0.63043000  0.85286000  1.0
  C  C120  1  0.13970000  0.56452000  0.88663000  1.0
  C  C121  1  0.25293000  0.11309000  0.67758000  1.0
  C  C122  1  0.57492000  0.32246000  0.43560000  1.0
  C  C123  1  0.07492000  0.43560000  0.32246000  1.0
  C  C124  1  0.63969000  0.88663000  0.56452000  1.0
  C  C125  1  0.75293000  0.67758000  0.11309000  1.0
  C  C126  1  0.00943000  0.48968000  0.81639000  1.0
  C  C127  1  0.19296000  0.18336000  0.67304000  1.0
  C  C128  1  0.51950000  0.32690000  0.51041000  1.0
  C  C129  1  0.01950000  0.51041000  0.32690000  1.0
  C  C130  1  0.50943000  0.81639000  0.48968000  1.0
  C  C131  1  0.69296000  0.67304000  0.18336000  1.0
  C  C132  1  0.76492000  0.42591000  0.02066000  1.0
  C  C133  1  0.74426000  0.97937000  0.40542000  1.0
  C  C134  1  0.33898000  0.59478000  0.57419000  1.0
  C  C135  1  0.83898000  0.57419000  0.59478000  1.0
  C  C136  1  0.26492000  0.02066000  0.42591000  1.0
  C  C137  1  0.24426000  0.40542000  0.97937000  1.0
  C  C138  1  0.70839000  0.32694000  0.01373000  1.0
  C  C139  1  0.69469000  0.98631000  0.31339000  1.0
  C  C140  1  0.38163000  0.68682000  0.67316000  1.0
  C  C141  1  0.88163000  0.67316000  0.68682000  1.0
  C  C142  1  0.20839000  0.01373000  0.32694000  1.0
  C  C143  1  0.19469000  0.31339000  0.98631000  1.0
  C  C144  1  0.77761000  0.30623000  0.08460000  1.0
  C  C145  1  0.69316000  0.91546000  0.22184000  1.0
  C  C146  1  0.47156000  0.77837000  0.69382000  1.0
  C  C147  1  0.97156000  0.69382000  0.77837000  1.0
  C  C148  1  0.27761000  0.08460000  0.30623000  1.0
  C  C149  1  0.19316000  0.22184000  0.91546000  1.0
  C  C150  1  0.72337000  0.21506000  0.07854000  1.0
  C  C151  1  0.64488000  0.92146000  0.13671000  1.0
  C  C152  1  0.50864000  0.86349000  0.78500000  1.0
  C  C153  1  0.00863000  0.78500000  0.86349000  1.0
  C  C154  1  0.22337000  0.07854000  0.21506000  1.0
  C  C155  1  0.14488000  0.13671000  0.92146000  1.0
  C  C156  1  0.59884000  0.14271000  0.00060000  1.0
  C  C157  1  0.59809000  0.99930000  0.14222000  1.0
  C  C158  1  0.45652000  0.85795000  0.85739000  1.0
  C  C159  1  0.95652000  0.85739000  0.85795000  1.0
  C  C160  1  0.09884000  0.00060000  0.14271000  1.0
  C  C161  1  0.09810000  0.14222000  0.99930000  1.0
  C  C162  1  0.52947000  0.16148000  0.92882000  1.0
  C  C163  1  0.60051000  0.07110000  0.23277000  1.0
  C  C164  1  0.36831000  0.76742000  0.83864000  1.0
  C  C165  1  0.86831000  0.83864000  0.76742000  1.0
  C  C166  1  0.02947000  0.92882000  0.16149000  1.0
  C  C167  1  0.10051000  0.23277000  0.07110000  1.0
  C  C168  1  0.58431000  0.25301000  0.93586000  1.0
  C  C169  1  0.64843000  0.06414000  0.31728000  1.0
  C  C170  1  0.33158000  0.68291000  0.74713000  1.0
  C  C171  1  0.83158000  0.74713000  0.68291000  1.0
  C  C172  1  0.08431000  0.93586000  0.25301000  1.0
  C  C173  1  0.14843000  0.31728000  0.06414000  1.0
  C  C174  1  0.92105000  0.45416000  0.02453000  1.0
  C  C175  1  0.89646000  0.97537000  0.42968000  1.0
  C  C176  1  0.46677000  0.57039000  0.54580000  1.0
  C  C177  1  0.96677000  0.54580000  0.57039000  1.0
  C  C178  1  0.42106000  0.02453000  0.45416000  1.0
  C  C179  1  0.39646000  0.42968000  0.97537000  1.0
  N  N180  1  0.18203000  0.45270000  0.76056000  1.0
  N  N181  1  0.42148000  0.23929000  0.69212000  1.0
  N  N182  1  0.72910000  0.30801000  0.54728000  1.0
  N  N183  1  0.22910000  0.54728000  0.30801000  1.0
  N  N184  1  0.68203000  0.76055000  0.45270000  1.0
  N  N185  1  0.92148000  0.69212000  0.23929000  1.0
  N  N186  1  0.03629000  0.42292000  0.74116000  1.0
  N  N187  1  0.29513000  0.25868000  0.68167000  1.0
  N  N188  1  0.61315000  0.31832000  0.57709000  1.0
  N  N189  1  0.11315000  0.57709000  0.31832000  1.0
  N  N190  1  0.53629000  0.74115000  0.42292000  1.0
  N  N191  1  0.79514000  0.68167000  0.25868000  1.0
  N  N192  1  0.28962000  0.70597000  0.04645000  1.0
  N  N193  1  0.24297000  0.95337000  0.65944000  1.0
  N  N194  1  0.58331000  0.34052000  0.29401000  1.0
  N  N195  1  0.08332000  0.29401000  0.34052000  1.0
  N  N196  1  0.78962000  0.04645000  0.70597000  1.0
  N  N197  1  0.74298000  0.65944000  0.95337000  1.0
  O  O198  1  0.24375000  0.76225000  0.27711000  1.0
  O  O199  1  0.96657000  0.72271000  0.48496000  1.0
  O  O200  1  0.48138000  0.51494000  0.23783000  1.0
  O  O201  1  0.98138000  0.23783000  0.51495000  1.0
  O  O202  1  0.74375000  0.27710000  0.76225000  1.0
  O  O203  1  0.46657000  0.48496000  0.72271000  1.0
  O  O204  1  0.35709000  0.66230000  0.19729000  1.0
  O  O205  1  0.15986000  0.80270000  0.46504000  1.0
  O  O206  1  0.69476000  0.53492000  0.33758000  1.0
  O  O207  1  0.19476000  0.33759000  0.53492000  1.0
  O  O208  1  0.85709000  0.19729000  0.66230000  1.0
  O  O209  1  0.65986000  0.46504000  0.80270000  1.0
  O  O210  1  0.04558000  0.66309000  0.00133000  1.0
  O  O211  1  0.04390000  0.99840000  0.66123000  1.0
  O  O212  1  0.38222000  0.33856000  0.33697000  1.0
  O  O213  1  0.88222000  0.33697000  0.33856000  1.0
  O  O214  1  0.54557000  0.00133000  0.66309000  1.0
  O  O215  1  0.54390000  0.66123000  0.99840000  1.0
