# generated using pymatgen
data_AlH5C13N3O11
_symmetry_space_group_name_H-M   'P 1'
_cell_length_a   6.80874000
_cell_length_b   11.09164741
_cell_length_c   15.19624023
_cell_angle_alpha   83.90206843
_cell_angle_beta   78.74997862
_cell_angle_gamma   73.73157938
_symmetry_Int_Tables_number   1
_chemical_formula_structural   AlH5C13N3O11
_chemical_formula_sum   'Al2 H10 C26 N6 O22'
_cell_volume   1078.88046173
_cell_formula_units_Z   2
loop_
 _symmetry_equiv_pos_site_id
 _symmetry_equiv_pos_as_xyz
  1  'x, y, z'
loop_
 _atom_site_type_symbol
 _atom_site_label
 _atom_site_symmetry_multiplicity
 _atom_site_fract_x
 _atom_site_fract_y
 _atom_site_fract_z
 _atom_site_occupancy
  Al  Al0  1  0.50857000  0.50004000  0.49306000  1.0
  Al  Al1  1  0.00546000  0.50771000  0.49409000  1.0
  H  H2  1  0.26596000  0.59491000  0.39121000  1.0
  H  H3  1  0.73763000  0.44007000  0.60238000  1.0
  H  H4  1  0.27133000  0.53354000  0.06123000  1.0
  H  H5  1  0.71518000  0.55472000  0.92602000  1.0
  H  H6  1  0.44867000  0.43607000  0.77133000  1.0
  H  H7  1  0.37120000  0.42338000  0.93736000  1.0
  H  H8  1  0.61595000  0.44205000  0.22045000  1.0
  H  H9  1  0.70022000  0.43985000  0.05387000  1.0
  H  H10  1  0.84590000  0.76727000  0.61506000  1.0
  H  H11  1  0.56977000  0.23245000  0.62985000  1.0
  C  C12  1  0.64240000  0.72913000  0.49624000  1.0
  C  C13  1  0.83671000  0.48884000  0.33462000  1.0
  C  C14  1  0.35816000  0.27804000  0.50045000  1.0
  C  C15  1  0.18049000  0.50676000  0.65444000  1.0
  C  C16  1  0.89220000  0.48554000  0.23474000  1.0
  C  C17  1  0.13148000  0.49528000  0.75448000  1.0
  C  C18  1  0.07914000  0.50557000  0.18726000  1.0
  C  C19  1  0.12720000  0.51187000  0.09428000  1.0
  C  C20  1  0.92693000  0.52251000  0.80147000  1.0
  C  C21  1  0.87767000  0.52633000  0.89409000  1.0
  C  C22  1  0.28891000  0.46113000  0.80626000  1.0
  C  C23  1  0.24395000  0.45716000  0.89950000  1.0
  C  C24  1  0.75701000  0.46352000  0.18393000  1.0
  C  C25  1  0.80469000  0.46400000  0.09087000  1.0
  C  C26  1  0.98841000  0.49080000  0.04407000  1.0
  C  C27  1  0.03794000  0.49270000  0.94521000  1.0
  C  C28  1  0.56702000  0.86985000  0.50240000  1.0
  C  C29  1  0.63991000  0.93443000  0.56027000  1.0
  C  C30  1  0.41554000  0.93793000  0.45416000  1.0
  C  C31  1  0.78333000  0.86867000  0.61671000  1.0
  C  C32  1  0.84045000  0.93219000  0.67594000  1.0
  C  C33  1  0.41693000  0.13640000  0.50783000  1.0
  C  C34  1  0.33785000  0.06935000  0.45830000  1.0
  C  C35  1  0.56257000  0.06869000  0.56362000  1.0
  C  C36  1  0.62561000  0.13096000  0.62587000  1.0
  C  C37  1  0.75899000  0.06365000  0.68137000  1.0
  N  N38  1  0.24068000  0.51120000  0.23679000  1.0
  N  N39  1  0.75296000  0.53848000  0.75376000  1.0
  N  N40  1  0.17900000  0.13560000  0.40223000  1.0
  N  N41  1  0.33950000  0.87323000  0.39244000  1.0
  N  N42  1  0.97239000  0.85864000  0.73950000  1.0
  N  N43  1  0.82616000  0.13292000  0.74259000  1.0
  O  O44  1  0.49994000  0.67408000  0.50169000  1.0
  O  O45  1  0.98317000  0.48748000  0.37578000  1.0
  O  O46  1  0.16623000  0.33349000  0.50752000  1.0
  O  O47  1  0.36995000  0.48710000  0.61742000  1.0
  O  O48  1  0.50958000  0.32674000  0.48858000  1.0
  O  O49  1  0.02619000  0.53623000  0.61302000  1.0
  O  O50  1  0.83697000  0.68118000  0.48640000  1.0
  O  O51  1  0.64973000  0.49582000  0.37081000  1.0
  O  O52  1  0.25280000  0.55587000  0.45199000  1.0
  O  O53  1  0.76185000  0.45388000  0.53693000  1.0
  O  O54  1  0.35296000  0.40763000  0.25740000  1.0
  O  O55  1  0.25617000  0.61511000  0.25250000  1.0
  O  O56  1  0.74282000  0.43988000  0.72493000  1.0
  O  O57  1  0.62685000  0.64213000  0.74911000  1.0
  O  O58  1  0.24707000  0.16334000  0.32343000  1.0
  O  O59  1  0.99576000  0.15516000  0.43829000  1.0
  O  O60  1  0.15107000  0.88288000  0.40613000  1.0
  O  O61  1  0.47068000  0.81674000  0.33197000  1.0
  O  O62  1  0.11802000  0.76949000  0.71027000  1.0
  O  O63  1  0.92387000  0.89013000  0.81830000  1.0
  O  O64  1  0.68869000  0.19920000  0.79617000  1.0
  O  O65  1  0.01518000  0.12088000  0.73353000  1.0
