# generated using pymatgen
data_CdH18C28(NO)6
_symmetry_space_group_name_H-M   'P 1'
_cell_length_a   9.09730000
_cell_length_b   10.50490000
_cell_length_c   13.74790000
_cell_angle_alpha   76.34480000
_cell_angle_beta   82.59020000
_cell_angle_gamma   86.60250000
_symmetry_Int_Tables_number   1
_chemical_formula_structural   CdH18C28(NO)6
_chemical_formula_sum   'Cd2 H36 C56 N12 O12'
_cell_volume   1265.47029157
_cell_formula_units_Z   2
loop_
 _symmetry_equiv_pos_site_id
 _symmetry_equiv_pos_as_xyz
  1  'x, y, z'
loop_
 _atom_site_type_symbol
 _atom_site_label
 _atom_site_symmetry_multiplicity
 _atom_site_fract_x
 _atom_site_fract_y
 _atom_site_fract_z
 _atom_site_occupancy
  Cd  Cd0  1  0.68384000  0.01302000  0.84192000  1.0
  Cd  Cd1  1  0.31616000  0.98698000  0.15807000  1.0
  H  H2  1  0.67713000  0.09254000  0.06269000  1.0
  H  H3  1  0.32287000  0.90747000  0.93731000  1.0
  H  H4  1  0.92896000  0.78277000  0.96682000  1.0
  H  H5  1  0.07104000  0.21723000  0.03317000  1.0
  H  H6  1  0.99420000  0.79073000  0.15757000  1.0
  H  H7  1  0.00580000  0.20927000  0.84242000  1.0
  H  H8  1  0.99201000  0.13735000  0.18157000  1.0
  H  H9  1  0.00799000  0.86265000  0.81842000  1.0
  H  H10  1  0.98943000  0.18956000  0.34345000  1.0
  H  H11  1  0.01058000  0.81045000  0.65654000  1.0
  H  H12  1  0.43741000  0.75508000  0.61453000  1.0
  H  H13  1  0.56260000  0.24492000  0.38547000  1.0
  H  H14  1  0.24439000  0.59004000  0.69235000  1.0
  H  H15  1  0.75562000  0.40996000  0.30766000  1.0
  H  H16  1  0.27265000  0.46510000  0.41305000  1.0
  H  H17  1  0.72735000  0.53490000  0.58695000  1.0
  H  H18  1  0.46077000  0.62963000  0.33539000  1.0
  H  H19  1  0.53924000  0.37037000  0.66461000  1.0
  H  H20  1  0.11481000  0.35397000  0.55177000  1.0
  H  H21  1  0.88520000  0.64603000  0.44824000  1.0
  H  H22  1  0.97259000  0.24446000  0.47634000  1.0
  H  H23  1  0.02742000  0.75554000  0.52366000  1.0
  H  H24  1  0.91059000  0.24041000  0.67942000  1.0
  H  H25  1  0.08941000  0.75958000  0.32058000  1.0
  H  H26  1  0.68839000  0.93130000  0.61629000  1.0
  H  H27  1  0.31161000  0.06871000  0.38371000  1.0
  H  H28  1  0.71479000  0.51027000  0.83975000  1.0
  H  H29  1  0.28520000  0.48973000  0.16025000  1.0
  H  H30  1  0.30371000  0.73019000  0.87348000  1.0
  H  H31  1  0.69628000  0.26980000  0.12653000  1.0
  H  H32  1  0.29697000  0.31996000  0.87691000  1.0
  H  H33  1  0.70303000  0.68003000  0.12309000  1.0
  H  H34  1  0.58627000  0.80698000  0.26626000  1.0
  H  H35  1  0.41373000  0.19302000  0.73374000  1.0
  H  H36  1  0.08732000  0.45869000  0.88537000  1.0
  H  H37  1  0.91268000  0.54130000  0.11463000  1.0
  C  C38  1  0.75636000  0.01185000  0.05869000  1.0
  C  C39  1  0.24364000  0.98816000  0.94130000  1.0
  C  C40  1  0.88869000  0.85000000  0.01393000  1.0
  C  C41  1  0.11130000  0.15001000  0.98607000  1.0
  C  C42  1  0.91984000  0.85085000  0.10871000  1.0
  C  C43  1  0.08016000  0.14915000  0.89128000  1.0
  C  C44  1  0.82709000  0.98959000  0.23053000  1.0
  C  C45  1  0.17291000  0.01041000  0.76947000  1.0
  C  C46  1  0.91631000  0.08528000  0.24403000  1.0
  C  C47  1  0.08369000  0.91472000  0.75597000  1.0
  C  C48  1  0.91512000  0.11465000  0.33849000  1.0
  C  C49  1  0.08489000  0.88536000  0.66150000  1.0
  C  C50  1  0.82725000  0.04732000  0.42356000  1.0
  C  C51  1  0.17275000  0.95269000  0.57644000  1.0
  C  C52  1  0.73351000  0.95081000  0.41160000  1.0
  C  C53  1  0.26649000  0.04920000  0.58840000  1.0
  C  C54  1  0.73311000  0.92566000  0.31433000  1.0
  C  C55  1  0.26689000  0.07435000  0.68567000  1.0
  C  C56  1  0.57283000  0.80184000  0.42649000  1.0
  C  C57  1  0.42717000  0.19816000  0.57351000  1.0
  C  C58  1  0.46022000  0.70489000  0.46961000  1.0
  C  C59  1  0.53978000  0.29511000  0.53038000  1.0
  C  C60  1  0.39944000  0.69173000  0.57115000  1.0
  C  C61  1  0.60056000  0.30827000  0.42885000  1.0
  C  C62  1  0.29290000  0.60002000  0.61440000  1.0
  C  C63  1  0.70711000  0.39998000  0.38561000  1.0
  C  C64  1  0.24650000  0.51739000  0.55787000  1.0
  C  C65  1  0.75350000  0.48260000  0.44213000  1.0
  C  C66  1  0.30738000  0.52975000  0.45697000  1.0
  C  C67  1  0.69262000  0.47024000  0.54303000  1.0
  C  C68  1  0.41274000  0.62305000  0.41300000  1.0
  C  C69  1  0.58725000  0.37695000  0.58700000  1.0
  C  C70  1  0.13741000  0.41685000  0.60309000  1.0
  C  C71  1  0.86259000  0.58315000  0.39691000  1.0
  C  C72  1  0.90696000  0.17860000  0.53615000  1.0
  C  C73  1  0.09304000  0.82140000  0.46385000  1.0
  C  C74  1  0.87500000  0.17552000  0.63669000  1.0
  C  C75  1  0.12500000  0.82448000  0.36332000  1.0
  C  C76  1  0.75671000  0.01493000  0.60875000  1.0
  C  C77  1  0.24330000  0.98507000  0.39125000  1.0
  C  C78  1  0.59039000  0.27402000  0.85116000  1.0
  C  C79  1  0.40961000  0.72598000  0.14884000  1.0
  C  C80  1  0.51333000  0.40244000  0.85737000  1.0
  C  C81  1  0.48666000  0.59756000  0.14263000  1.0
  C  C82  1  0.59408000  0.51454000  0.84990000  1.0
  C  C83  1  0.40591000  0.48546000  0.15010000  1.0
  C  C84  1  0.51787000  0.63303000  0.85501000  1.0
  C  C85  1  0.48212000  0.36697000  0.14499000  1.0
  C  C86  1  0.36271000  0.63814000  0.86967000  1.0
  C  C87  1  0.63728000  0.36185000  0.13033000  1.0
  C  C88  1  0.28255000  0.52613000  0.87785000  1.0
  C  C89  1  0.71744000  0.47386000  0.12216000  1.0
  C  C90  1  0.35780000  0.40832000  0.87077000  1.0
  C  C91  1  0.64219000  0.59168000  0.12923000  1.0
  C  C92  1  0.59986000  0.75686000  0.84378000  1.0
  C  C93  1  0.40013000  0.24313000  0.15622000  1.0
  N  N94  1  0.78756000  0.95089000  0.98387000  1.0
  N  N95  1  0.21244000  0.04911000  0.01613000  1.0
  N  N96  1  0.83425000  0.95367000  0.13616000  1.0
  N  N97  1  0.16575000  0.04633000  0.86383000  1.0
  N  N98  1  0.63023000  0.83113000  0.32611000  1.0
  N  N99  1  0.36977000  0.16887000  0.67389000  1.0
  N  N100  1  0.63430000  0.87121000  0.47988000  1.0
  N  N101  1  0.36570000  0.12880000  0.52012000  1.0
  N  N102  1  0.83083000  0.07699000  0.51837000  1.0
  N  N103  1  0.16918000  0.92301000  0.48162000  1.0
  N  N104  1  0.78231000  0.07285000  0.68064000  1.0
  N  N105  1  0.21769000  0.92715000  0.31936000  1.0
  O  O106  1  0.50958000  0.18429000  0.83480000  1.0
  O  O107  1  0.49041000  0.81571000  0.16520000  1.0
  O  O108  1  0.72577000  0.25458000  0.86137000  1.0
  O  O109  1  0.27423000  0.74542000  0.13862000  1.0
  O  O110  1  0.13076000  0.53908000  0.89077000  1.0
  O  O111  1  0.86923000  0.46091000  0.10924000  1.0
  O  O112  1  0.73908000  0.75886000  0.82609000  1.0
  O  O113  1  0.26092000  0.24113000  0.17392000  1.0
  O  O114  1  0.51735000  0.85959000  0.85244000  1.0
  O  O115  1  0.48265000  0.14041000  0.14756000  1.0
  O  O116  1  0.07322000  0.39794000  0.68965000  1.0
  O  O117  1  0.92678000  0.60207000  0.31036000  1.0
