# generated using pymatgen
data_AlH12C15(NO2)3
_symmetry_space_group_name_H-M   'P 1'
_cell_length_a   3.92038000
_cell_length_b   17.21830000
_cell_length_c   17.21835000
_cell_angle_alpha   119.99971182
_cell_angle_beta   90.00020000
_cell_angle_gamma   90.00010000
_symmetry_Int_Tables_number   1
_chemical_formula_structural   AlH12C15(NO2)3
_chemical_formula_sum   'Al2 H24 C30 N6 O12'
_cell_volume   1006.56508012
_cell_formula_units_Z   2
loop_
 _symmetry_equiv_pos_site_id
 _symmetry_equiv_pos_as_xyz
  1  'x, y, z'
loop_
 _atom_site_type_symbol
 _atom_site_label
 _atom_site_symmetry_multiplicity
 _atom_site_fract_x
 _atom_site_fract_y
 _atom_site_fract_z
 _atom_site_occupancy
  Al  Al0  1  0.01632000  0.00000000  0.50000000  1.0
  Al  Al1  1  0.98395000  0.33334000  0.16667000  1.0
  H  H2  1  0.72998000  0.58301000  0.47025000  1.0
  H  H3  1  0.27459000  0.58225000  0.47027000  1.0
  H  H4  1  0.27004000  0.75024000  0.55393000  1.0
  H  H5  1  0.72544000  0.75101000  0.55466000  1.0
  H  H6  1  0.72998000  0.02975000  0.11276000  1.0
  H  H7  1  0.27459000  0.02973000  0.11198000  1.0
  H  H8  1  0.27004000  0.94607000  0.19631000  1.0
  H  H9  1  0.72544000  0.94534000  0.19635000  1.0
  H  H10  1  0.72998000  0.38724000  0.91699000  1.0
  H  H11  1  0.27459000  0.38802000  0.91775000  1.0
  H  H12  1  0.27004000  0.30369000  0.74976000  1.0
  H  H13  1  0.72545000  0.30365000  0.74899000  1.0
  H  H14  1  0.55764000  0.82417000  0.26798000  1.0
  H  H15  1  0.37168000  0.73417000  0.18111000  1.0
  H  H16  1  0.44245000  0.50912000  0.11042000  1.0
  H  H17  1  0.62839000  0.59915000  0.11358000  1.0
  H  H18  1  0.55764000  0.23202000  0.55619000  1.0
  H  H19  1  0.37167000  0.31890000  0.55306000  1.0
  H  H20  1  0.44245000  0.38958000  0.39870000  1.0
  H  H21  1  0.62839000  0.38641000  0.48557000  1.0
  H  H22  1  0.55764000  0.94381000  0.67583000  1.0
  H  H23  1  0.37168000  0.94695000  0.76584000  1.0
  H  H24  1  0.44245000  0.10130000  0.99088000  1.0
  H  H25  1  0.62839000  0.01442000  0.90084000  1.0
  C  C26  1  0.51518000  0.06708000  0.63835000  1.0
  C  C27  1  0.51517000  0.86165000  0.42873000  1.0
  C  C28  1  0.51517000  0.07127000  0.43292000  1.0
  C  C29  1  0.48493000  0.47164000  0.23371000  1.0
  C  C30  1  0.48493000  0.26629000  0.23793000  1.0
  C  C31  1  0.48493000  0.26207000  0.02836000  1.0
  C  C32  1  0.48659000  0.57065000  0.28165000  1.0
  C  C33  1  0.51326000  0.76266000  0.37766000  1.0
  C  C34  1  0.50060000  0.62028000  0.37510000  1.0
  C  C35  1  0.51652000  0.71435000  0.28289000  1.0
  C  C36  1  0.49916000  0.71304000  0.42148000  1.0
  C  C37  1  0.48348000  0.61894000  0.23517000  1.0
  C  C38  1  0.50117000  0.61348000  0.45967000  1.0
  C  C39  1  0.49881000  0.71978000  0.51284000  1.0
  C  C40  1  0.48659000  0.21836000  0.28900000  1.0
  C  C41  1  0.51325000  0.12234000  0.38500000  1.0
  C  C42  1  0.50059000  0.12490000  0.24518000  1.0
  C  C43  1  0.51650000  0.21712000  0.43146000  1.0
  C  C44  1  0.49916000  0.07851000  0.29156000  1.0
  C  C45  1  0.48347000  0.26483000  0.38377000  1.0
  C  C46  1  0.50117000  0.04033000  0.15381000  1.0
  C  C47  1  0.49881000  0.98716000  0.20694000  1.0
  C  C48  1  0.48659000  0.21101000  0.92936000  1.0
  C  C49  1  0.51326000  0.11499000  0.73734000  1.0
  C  C50  1  0.50060000  0.25482000  0.87972000  1.0
  C  C51  1  0.51651000  0.06854000  0.78566000  1.0
  C  C52  1  0.49917000  0.20843000  0.78695000  1.0
  C  C53  1  0.48347000  0.11623000  0.88106000  1.0
  C  C54  1  0.50117000  0.34619000  0.88652000  1.0
  C  C55  1  0.49881000  0.29306000  0.78022000  1.0
  N  N56  1  0.54777000  0.75610000  0.23131000  1.0
  N  N57  1  0.45233000  0.57721000  0.14185000  1.0
  N  N58  1  0.54776000  0.26870000  0.52479000  1.0
  N  N59  1  0.45232000  0.35814000  0.43535000  1.0
  N  N60  1  0.54777000  0.97522000  0.74391000  1.0
  N  N61  1  0.45233000  0.06464000  0.92279000  1.0
  O  O62  1  0.28223000  0.01238000  0.41328000  1.0
  O  O63  1  0.28224000  0.08672000  0.59910000  1.0
  O  O64  1  0.28223000  0.90090000  0.48762000  1.0
  O  O65  1  0.74874000  0.08884000  0.49155000  1.0
  O  O66  1  0.74875000  0.90271000  0.41116000  1.0
  O  O67  1  0.74874000  0.00845000  0.59729000  1.0
  O  O68  1  0.25138000  0.24448000  0.06941000  1.0
  O  O69  1  0.25138000  0.43060000  0.17507000  1.0
  O  O70  1  0.25138000  0.32492000  0.25552000  1.0
  O  O71  1  0.71793000  0.32095000  0.06757000  1.0
  O  O72  1  0.71793000  0.24662000  0.17905000  1.0
  O  O73  1  0.71794000  0.43243000  0.25338000  1.0
