# generated using pymatgen
data_CdH8(CO)8
_symmetry_space_group_name_H-M   'P 1'
_cell_length_a   5.43705000
_cell_length_b   8.37866333
_cell_length_c   12.14500000
_cell_angle_alpha   109.23250306
_cell_angle_beta   90.01930000
_cell_angle_gamma   108.90582085
_symmetry_Int_Tables_number   1
_chemical_formula_structural   CdH8(CO)8
_chemical_formula_sum   'Cd2 H16 C16 O16'
_cell_volume   490.64530093
_cell_formula_units_Z   2
loop_
 _symmetry_equiv_pos_site_id
 _symmetry_equiv_pos_as_xyz
  1  'x, y, z'
loop_
 _atom_site_type_symbol
 _atom_site_label
 _atom_site_symmetry_multiplicity
 _atom_site_fract_x
 _atom_site_fract_y
 _atom_site_fract_z
 _atom_site_occupancy
  Cd  Cd0  1  0.52959000  0.00005000  0.75010000  1.0
  Cd  Cd1  1  0.47041000  0.99994000  0.24990000  1.0
  H  H2  1  0.43203000  0.46168000  0.32405000  1.0
  H  H3  1  0.97001000  0.53850000  0.17626000  1.0
  H  H4  1  0.56796000  0.53833000  0.67594000  1.0
  H  H5  1  0.02997000  0.46150000  0.82375000  1.0
  H  H6  1  0.17960000  0.77039000  0.84853000  1.0
  H  H7  1  0.40882000  0.22923000  0.65118000  1.0
  H  H8  1  0.82038000  0.22959000  0.15146000  1.0
  H  H9  1  0.59118000  0.77077000  0.34882000  1.0
  H  H10  1  0.08073000  0.94329000  0.87449000  1.0
  H  H11  1  0.13710000  0.05637000  0.62557000  1.0
  H  H12  1  0.91928000  0.05670000  0.12550000  1.0
  H  H13  1  0.86290000  0.94362000  0.37442000  1.0
  H  H14  1  0.11569000  0.78257000  0.45442000  1.0
  H  H15  1  0.33277000  0.21779000  0.04590000  1.0
  H  H16  1  0.88429000  0.21743000  0.54556000  1.0
  H  H17  1  0.66724000  0.78222000  0.95409000  1.0
  C  C18  1  0.75308000  0.76177000  0.60617000  1.0
  C  C19  1  0.99137000  0.23849000  0.89395000  1.0
  C  C20  1  0.24694000  0.23825000  0.39385000  1.0
  C  C21  1  0.00865000  0.76152000  0.10606000  1.0
  C  C22  1  0.87764000  0.62645000  0.55045000  1.0
  C  C23  1  0.25120000  0.37371000  0.94961000  1.0
  C  C24  1  0.12239000  0.37356000  0.44954000  1.0
  C  C25  1  0.74882000  0.62632000  0.05039000  1.0
  C  C26  1  0.18844000  0.53465000  0.42371000  1.0
  C  C27  1  0.65364000  0.46541000  0.07644000  1.0
  C  C28  1  0.81154000  0.46533000  0.57628000  1.0
  C  C29  1  0.34633000  0.53460000  0.92356000  1.0
  C  C30  1  0.06516000  0.65880000  0.47417000  1.0
  C  C31  1  0.40620000  0.34141000  0.02605000  1.0
  C  C32  1  0.93487000  0.34121000  0.52582000  1.0
  C  C33  1  0.59379000  0.65858000  0.97394000  1.0
  O  O34  1  0.81418000  0.91095000  0.58926000  1.0
  O  O35  1  0.90317000  0.08936000  0.91096000  1.0
  O  O36  1  0.18583000  0.08905000  0.41073000  1.0
  O  O37  1  0.09683000  0.91062000  0.08905000  1.0
  O  O38  1  0.57849000  0.72380000  0.67495000  1.0
  O  O39  1  0.85486000  0.27633000  0.82498000  1.0
  O  O40  1  0.42154000  0.27621000  0.32506000  1.0
  O  O41  1  0.14512000  0.72367000  0.17502000  1.0
  O  O42  1  0.37057000  0.57020000  0.35003000  1.0
  O  O43  1  0.80004000  0.42997000  0.15037000  1.0
  O  O44  1  0.62941000  0.42978000  0.64996000  1.0
  O  O45  1  0.19997000  0.57002000  0.84965000  1.0
  O  O46  1  0.17274000  0.86900000  0.82210000  1.0
  O  O47  1  0.30375000  0.13074000  0.67773000  1.0
  O  O48  1  0.82726000  0.13099000  0.17789000  1.0
  O  O49  1  0.69625000  0.86926000  0.32228000  1.0
