# generated using pymatgen
data_CoH20C16(NO2)4
_symmetry_space_group_name_H-M   'P 1'
_cell_length_a   7.22670000
_cell_length_b   7.47460000
_cell_length_c   9.03653048
_cell_angle_alpha   111.10675662
_cell_angle_beta   101.27519426
_cell_angle_gamma   99.52590000
_symmetry_Int_Tables_number   1
_chemical_formula_structural   CoH20C16(NO2)4
_chemical_formula_sum   'Co1 H20 C16 N4 O8'
_cell_volume   431.48624179
_cell_formula_units_Z   1
loop_
 _symmetry_equiv_pos_site_id
 _symmetry_equiv_pos_as_xyz
  1  'x, y, z'
loop_
 _atom_site_type_symbol
 _atom_site_label
 _atom_site_symmetry_multiplicity
 _atom_site_fract_x
 _atom_site_fract_y
 _atom_site_fract_z
 _atom_site_occupancy
  Co  Co0  1  0.50000000  0.00000000  0.50000000  1.0
  H  H1  1  0.64227000  0.43031000  0.66886000  1.0
  H  H2  1  0.35773000  0.56969000  0.33114000  1.0
  H  H3  1  0.81342000  0.55300000  0.18880000  1.0
  H  H4  1  0.18659000  0.44700000  0.81120000  1.0
  H  H5  1  0.68091000  0.19049000  0.10989000  1.0
  H  H6  1  0.31910000  0.80951000  0.89011000  1.0
  H  H7  1  0.55079000  0.96243000  0.81110000  1.0
  H  H8  1  0.44921000  0.03757000  0.18890000  1.0
  H  H9  1  0.79397000  0.45459000  0.38658000  1.0
  H  H10  1  0.20603000  0.54540000  0.61341000  1.0
  H  H11  1  0.98302000  0.34458000  0.32825000  1.0
  H  H12  1  0.01698000  0.65541000  0.67175000  1.0
  H  H13  1  0.95457000  0.82039000  0.21655000  1.0
  H  H14  1  0.04543000  0.17962000  0.78345000  1.0
  H  H15  1  0.00791000  0.99341000  0.13174000  1.0
  H  H16  1  0.99210000  0.00659000  0.86826000  1.0
  H  H17  1  0.72206000  0.77665000  0.63092000  1.0
  H  H18  1  0.27794000  0.22335000  0.36908000  1.0
  H  H19  1  0.81255000  0.80986000  0.49320000  1.0
  H  H20  1  0.18744000  0.19014000  0.50680000  1.0
  C  C21  1  0.65788000  0.38252000  0.76973000  1.0
  C  C22  1  0.34212000  0.61749000  0.23028000  1.0
  C  C23  1  0.74228000  0.51925000  0.93296000  1.0
  C  C24  1  0.25772000  0.48075000  0.06704000  1.0
  C  C25  1  0.74939000  0.45182000  0.05937000  1.0
  C  C26  1  0.25062000  0.54819000  0.94063000  1.0
  C  C27  1  0.67608000  0.25012000  0.01605000  1.0
  C  C28  1  0.32392000  0.74988000  0.98395000  1.0
  C  C29  1  0.60258000  0.12166000  0.85053000  1.0
  C  C30  1  0.39742000  0.87835000  0.14947000  1.0
  C  C31  1  0.83100000  0.72899000  0.96281000  1.0
  C  C32  1  0.16901000  0.27102000  0.03719000  1.0
  C  C33  1  0.85618000  0.24948000  0.49137000  1.0
  C  C34  1  0.14382000  0.75052000  0.50863000  1.0
  C  C35  1  0.92263000  0.40990000  0.43240000  1.0
  C  C36  1  0.07737000  0.59010000  0.56760000  1.0
  N  N37  1  0.59328000  0.18596000  0.72794000  1.0
  N  N38  1  0.40673000  0.81404000  0.27206000  1.0
  N  N39  1  0.92608000  0.85804000  0.11718000  1.0
  N  N40  1  0.07393000  0.14196000  0.88282000  1.0
  O  O41  1  0.81988000  0.77918000  0.84253000  1.0
  O  O42  1  0.18013000  0.22082000  0.15747000  1.0
  O  O43  1  0.67128000  0.16889000  0.43747000  1.0
  O  O44  1  0.32871000  0.83111000  0.56253000  1.0
  O  O45  1  0.97908000  0.20730000  0.58506000  1.0
  O  O46  1  0.02091000  0.79269000  0.41493000  1.0
  O  O47  1  0.69022000  0.79284000  0.52670000  1.0
  O  O48  1  0.30977000  0.20715000  0.47329000  1.0
