# generated using pymatgen
data_NdCoH14C14(N5O2)2
_symmetry_space_group_name_H-M   'P 1'
_cell_length_a   8.85884000
_cell_length_b   8.86218000
_cell_length_c   14.86020000
_cell_angle_alpha   87.62520000
_cell_angle_beta   78.83780000
_cell_angle_gamma   66.08020000
_symmetry_Int_Tables_number   1
_chemical_formula_structural   NdCoH14C14(N5O2)2
_chemical_formula_sum   'Nd2 Co2 H28 C28 N20 O8'
_cell_volume   1045.38712299
_cell_formula_units_Z   2
loop_
 _symmetry_equiv_pos_site_id
 _symmetry_equiv_pos_as_xyz
  1  'x, y, z'
loop_
 _atom_site_type_symbol
 _atom_site_label
 _atom_site_symmetry_multiplicity
 _atom_site_fract_x
 _atom_site_fract_y
 _atom_site_fract_z
 _atom_site_occupancy
  Nd  Nd0  1  0.12414000  0.45036000  0.27990000  1.0
  Nd  Nd1  1  0.87586000  0.54973000  0.72008000  1.0
  Co  Co2  1  0.00031000  0.99994000  0.49999000  1.0
  Co  Co3  1  0.50000000  0.00001000  0.99999000  1.0
  H  H4  1  0.13882000  0.08678000  0.18911000  1.0
  H  H5  1  0.86121000  0.91317000  0.81096000  1.0
  H  H6  1  0.96239000  0.95568000  0.13917000  1.0
  H  H7  1  0.03767000  0.04429000  0.86088000  1.0
  H  H8  1  0.64388000  0.12252000  0.17609000  1.0
  H  H9  1  0.35619000  0.87746000  0.82388000  1.0
  H  H10  1  0.32413000  0.88031000  0.29146000  1.0
  H  H11  1  0.67588000  0.11970000  0.70845000  1.0
  H  H12  1  0.49407000  0.03016000  0.33151000  1.0
  H  H13  1  0.50588000  0.96981000  0.66854000  1.0
  H  H14  1  0.80647000  0.86211000  0.31930000  1.0
  H  H15  1  0.19347000  0.13789000  0.68083000  1.0
  H  H16  1  0.45041000  0.30051000  0.39475000  1.0
  H  H17  1  0.54943000  0.69980000  0.60529000  1.0
  H  H18  1  0.47334000  0.37531000  0.29989000  1.0
  H  H19  1  0.52682000  0.62462000  0.70006000  1.0
  H  H20  1  0.28386000  0.65220000  0.14760000  1.0
  H  H21  1  0.71617000  0.34780000  0.85232000  1.0
  H  H22  1  0.39260000  0.59509000  0.22619000  1.0
  H  H23  1  0.60741000  0.40491000  0.77374000  1.0
  H  H24  1  0.96792000  0.61471000  0.10339000  1.0
  H  H25  1  0.03197000  0.38533000  0.89661000  1.0
  H  H26  1  0.15563000  0.47651000  0.06900000  1.0
  H  H27  1  0.84421000  0.52341000  0.93100000  1.0
  H  H28  1  0.84326000  0.59485000  0.46692000  1.0
  H  H29  1  0.15495000  0.40516000  0.53306000  1.0
  H  H30  1  0.89703000  0.40729000  0.48239000  1.0
  H  H31  1  0.10200000  0.59259000  0.51757000  1.0
  C  C32  1  0.00348000  0.15369000  0.19576000  1.0
  C  C33  1  0.99655000  0.84627000  0.80432000  1.0
  C  C34  1  0.90546000  0.08025000  0.17008000  1.0
  C  C35  1  0.09458000  0.91975000  0.82993000  1.0
  C  C36  1  0.73231000  0.17271000  0.18819000  1.0
  C  C37  1  0.26775000  0.82726000  0.81181000  1.0
  C  C38  1  0.76989000  0.39455000  0.23755000  1.0
  C  C39  1  0.23014000  0.60542000  0.76247000  1.0
  C  C40  1  0.69488000  0.57416000  0.26411000  1.0
  C  C41  1  0.30514000  0.42582000  0.73592000  1.0
  C  C42  1  0.45875000  0.81690000  0.29024000  1.0
  C  C43  1  0.54126000  0.18310000  0.70975000  1.0
  C  C44  1  0.55238000  0.89939000  0.31142000  1.0
  C  C45  1  0.44761000  0.10061000  0.68860000  1.0
  C  C46  1  0.72397000  0.80646000  0.30476000  1.0
  C  C47  1  0.27599000  0.19354000  0.69534000  1.0
  C  C48  1  0.40412000  0.13126000  0.10644000  1.0
  C  C49  1  0.59589000  0.86876000  0.89355000  1.0
  C  C50  1  0.62649000  0.12460000  0.95906000  1.0
  C  C51  1  0.37349000  0.87544000  0.04091000  1.0
  C  C52  1  0.32031000  0.14873000  0.95057000  1.0
  C  C53  1  0.67964000  0.85128000  0.04944000  1.0
  C  C54  1  0.09921000  0.10651000  0.41384000  1.0
  C  C55  1  0.90125000  0.89350000  0.58618000  1.0
  C  C56  1  0.21111000  0.89060000  0.53666000  1.0
  C  C57  1  0.78956000  0.10926000  0.46333000  1.0
  C  C58  1  0.04661000  0.82372000  0.42112000  1.0
  C  C59  1  0.95381000  0.17616000  0.57888000  1.0
  N  N60  1  0.93699000  0.31093000  0.22899000  1.0
  N  N61  1  0.06305000  0.68905000  0.77103000  1.0
  N  N62  1  0.79660000  0.64410000  0.28106000  1.0
  N  N63  1  0.20339000  0.35592000  0.71898000  1.0
  N  N64  1  0.66471000  0.32856000  0.22251000  1.0
  N  N65  1  0.33535000  0.67143000  0.77745000  1.0
  N  N66  1  0.52955000  0.65560000  0.26690000  1.0
  N  N67  1  0.47049000  0.34443000  0.73304000  1.0
  N  N68  1  0.33594000  0.21945000  0.17186000  1.0
  N  N69  1  0.66403000  0.78063000  0.82810000  1.0
  N  N70  1  0.70656000  0.20113000  0.93284000  1.0
  N  N71  1  0.29345000  0.79888000  0.06711000  1.0
  N  N72  1  0.20356000  0.24543000  0.92393000  1.0
  N  N73  1  0.79636000  0.75459000  0.07611000  1.0
  N  N74  1  0.15632000  0.18521000  0.36486000  1.0
  N  N75  1  0.84395000  0.81493000  0.63515000  1.0
  N  N76  1  0.34276000  0.82758000  0.55830000  1.0
  N  N77  1  0.65801000  0.17246000  0.44162000  1.0
  N  N78  1  0.06539000  0.70762000  0.37770000  1.0
  N  N79  1  0.93468000  0.29230000  0.62236000  1.0
  O  O80  1  0.07125000  0.52898000  0.12341000  1.0
  O  O81  1  0.92865000  0.47107000  0.87659000  1.0
  O  O82  1  0.30001000  0.58194000  0.20228000  1.0
  O  O83  1  0.70000000  0.41808000  0.79766000  1.0
  O  O84  1  0.38322000  0.36853000  0.35041000  1.0
  O  O85  1  0.61682000  0.63156000  0.64953000  1.0
  O  O86  1  0.89585000  0.48714000  0.43481000  1.0
  O  O87  1  0.10407000  0.51274000  0.56526000  1.0
