# generated using pymatgen
data_CuH7C17N3(OF3)4
_symmetry_space_group_name_H-M   'P 1'
_cell_length_a   8.36327000
_cell_length_b   14.92260000
_cell_length_c   18.30470000
_cell_angle_alpha   89.99990000
_cell_angle_beta   80.65710000
_cell_angle_gamma   89.99990000
_symmetry_Int_Tables_number   1
_chemical_formula_structural   CuH7C17N3(OF3)4
_chemical_formula_sum   'Cu4 H28 C68 N12 O16 F48'
_cell_volume   2254.15366080
_cell_formula_units_Z   4
loop_
 _symmetry_equiv_pos_site_id
 _symmetry_equiv_pos_as_xyz
  1  'x, y, z'
loop_
 _atom_site_type_symbol
 _atom_site_label
 _atom_site_symmetry_multiplicity
 _atom_site_fract_x
 _atom_site_fract_y
 _atom_site_fract_z
 _atom_site_occupancy
  Cu  Cu0  1  0.72245000  0.99928000  0.31736000  1.0
  Cu  Cu1  1  0.27756000  0.49928000  0.18264000  1.0
  Cu  Cu2  1  0.27754000  0.00072000  0.68264000  1.0
  Cu  Cu3  1  0.72245000  0.50072000  0.81736000  1.0
  H  H4  1  0.79090000  0.71079000  0.33209000  1.0
  H  H5  1  0.20909000  0.21079000  0.16791000  1.0
  H  H6  1  0.20910000  0.28921000  0.66791000  1.0
  H  H7  1  0.79090000  0.78921000  0.83209000  1.0
  H  H8  1  0.76760000  0.28913000  0.28786000  1.0
  H  H9  1  0.23239000  0.78913000  0.21214000  1.0
  H  H10  1  0.23241000  0.71086000  0.71214000  1.0
  H  H11  1  0.76759000  0.21087000  0.78786000  1.0
  H  H12  1  0.98341000  0.99764000  0.17032000  1.0
  H  H13  1  0.01659000  0.49764000  0.32968000  1.0
  H  H14  1  0.01658000  0.00236000  0.82968000  1.0
  H  H15  1  0.98341000  0.50236000  0.67032000  1.0
  H  H16  1  0.27603000  0.99722000  0.11347000  1.0
  H  H17  1  0.72397000  0.49722000  0.38653000  1.0
  H  H18  1  0.72396000  0.00278000  0.88653000  1.0
  H  H19  1  0.27603000  0.50278000  0.61347000  1.0
  H  H20  1  0.48832000  0.99315000  0.19750000  1.0
  H  H21  1  0.51168000  0.49315000  0.30250000  1.0
  H  H22  1  0.51167000  0.00685000  0.80250000  1.0
  H  H23  1  0.48832000  0.50685000  0.69750000  1.0
  H  H24  1  0.44463000  0.98126000  0.45372000  1.0
  H  H25  1  0.55537000  0.48126000  0.04628000  1.0
  H  H26  1  0.55536000  0.01874000  0.54628000  1.0
  H  H27  1  0.44464000  0.51874000  0.95372000  1.0
  H  H28  1  0.14608000  0.98484000  0.50221000  1.0
  H  H29  1  0.85392000  0.48484000  0.99779000  1.0
  H  H30  1  0.85392000  0.01516000  0.49779000  1.0
  H  H31  1  0.14608000  0.51516000  0.00221000  1.0
  C  C32  1  0.74927000  0.83373000  0.39335000  1.0
  C  C33  1  0.25073000  0.33373000  0.10665000  1.0
  C  C34  1  0.25072000  0.16627000  0.60665000  1.0
  C  C35  1  0.74928000  0.66627000  0.89335000  1.0
  C  C36  1  0.76478000  0.78720000  0.46718000  1.0
  C  C37  1  0.23522000  0.28720000  0.03282000  1.0
  C  C38  1  0.23521000  0.21280000  0.53283000  1.0
  C  C39  1  0.76479000  0.71280000  0.96717000  1.0
  C  C40  1  0.76787000  0.78220000  0.32866000  1.0
  C  C41  1  0.23212000  0.28220000  0.17134000  1.0
  C  C42  1  0.23212000  0.21780000  0.67134000  1.0
  C  C43  1  0.76788000  0.71780000  0.82866000  1.0
  C  C44  1  0.74795000  0.81940000  0.26045000  1.0
  C  C45  1  0.25205000  0.31940000  0.23955000  1.0
  C  C46  1  0.25205000  0.18060000  0.73955000  1.0
  C  C47  1  0.74795000  0.68060000  0.76045000  1.0
  C  C48  1  0.75297000  0.75477000  0.19420000  1.0
  C  C49  1  0.24703000  0.25477000  0.30580000  1.0
  C  C50  1  0.24703000  0.24524000  0.80580000  1.0
  C  C51  1  0.75297000  0.74524000  0.69420000  1.0
  C  C52  1  0.73965000  0.16322000  0.23469000  1.0
  C  C53  1  0.26036000  0.66322000  0.26531000  1.0
  C  C54  1  0.26035000  0.83678000  0.76531000  1.0
  C  C55  1  0.73965000  0.33678000  0.73469000  1.0
  C  C56  1  0.74689000  0.20614000  0.15781000  1.0
  C  C57  1  0.25311000  0.70614000  0.34219000  1.0
  C  C58  1  0.25312000  0.79386000  0.84219000  1.0
  C  C59  1  0.74688000  0.29387000  0.65781000  1.0
  C  C60  1  0.75224000  0.21727000  0.29555000  1.0
  C  C61  1  0.24776000  0.71727000  0.20445000  1.0
  C  C62  1  0.24776000  0.78272000  0.70445000  1.0
  C  C63  1  0.75224000  0.28273000  0.79555000  1.0
  C  C64  1  0.73591000  0.18184000  0.36743000  1.0
  C  C65  1  0.26409000  0.68184000  0.13257000  1.0
  C  C66  1  0.26409000  0.81816000  0.63257000  1.0
  C  C67  1  0.73591000  0.31816000  0.86743000  1.0
  C  C68  1  0.73716000  0.25067000  0.43073000  1.0
  C  C69  1  0.26283000  0.75067000  0.06927000  1.0
  C  C70  1  0.26283000  0.74933000  0.56927000  1.0
  C  C71  1  0.73717000  0.24933000  0.93073000  1.0
  C  C72  1  0.07695000  0.99640000  0.20564000  1.0
  C  C73  1  0.92305000  0.49640000  0.29436000  1.0
  C  C74  1  0.92305000  0.00360000  0.79436000  1.0
  C  C75  1  0.07695000  0.50360000  0.70564000  1.0
  C  C76  1  0.24267000  0.99620000  0.17353000  1.0
  C  C77  1  0.75732000  0.49620000  0.32647000  1.0
  C  C78  1  0.75732000  0.00380000  0.82647000  1.0
  C  C79  1  0.24268000  0.50380000  0.67353000  1.0
  C  C80  1  0.35894000  0.99390000  0.21902000  1.0
  C  C81  1  0.64106000  0.49390000  0.28097000  1.0
  C  C82  1  0.64105000  0.00610000  0.78098000  1.0
  C  C83  1  0.35895000  0.50610000  0.71902000  1.0
  C  C84  1  0.30696000  0.99201000  0.29651000  1.0
  C  C85  1  0.69304000  0.49201000  0.20349000  1.0
  C  C86  1  0.69304000  0.00799000  0.70349000  1.0
  C  C87  1  0.30696000  0.50799000  0.79651000  1.0
  C  C88  1  0.35798000  0.98530000  0.41533000  1.0
  C  C89  1  0.64202000  0.48530000  0.08467000  1.0
  C  C90  1  0.64202000  0.01470000  0.58467000  1.0
  C  C91  1  0.35799000  0.51470000  0.91533000  1.0
  C  C92  1  0.18892000  0.98666000  0.44254000  1.0
  C  C93  1  0.81108000  0.48666000  0.05746000  1.0
  C  C94  1  0.81108000  0.01334000  0.55746000  1.0
  C  C95  1  0.18892000  0.51334000  0.94254000  1.0
  C  C96  1  0.13663000  0.99281000  0.32412000  1.0
  C  C97  1  0.86337000  0.49281000  0.17588000  1.0
  C  C98  1  0.86336000  0.00719000  0.67588000  1.0
  C  C99  1  0.13664000  0.50719000  0.82412000  1.0
  N  N100  1  0.41711000  0.98879000  0.34405000  1.0
  N  N101  1  0.58289000  0.48879000  0.15595000  1.0
  N  N102  1  0.58289000  0.01121000  0.65595000  1.0
  N  N103  1  0.41711000  0.51121000  0.84405000  1.0
  N  N104  1  0.07966000  0.99108000  0.39807000  1.0
  N  N105  1  0.92034000  0.49107000  0.10193000  1.0
  N  N106  1  0.92034000  0.00892000  0.60194000  1.0
  N  N107  1  0.07966000  0.50893000  0.89807000  1.0
  N  N108  1  0.02419000  0.99499000  0.27804000  1.0
  N  N109  1  0.97581000  0.49499000  0.22196000  1.0
  N  N110  1  0.97581000  0.00501000  0.72196000  1.0
  N  N111  1  0.02419000  0.50501000  0.77804000  1.0
  O  O112  1  0.72174000  0.91710000  0.40084000  1.0
  O  O113  1  0.27827000  0.41710000  0.09916000  1.0
  O  O114  1  0.27826000  0.08290000  0.59916000  1.0
  O  O115  1  0.72174000  0.58290000  0.90084000  1.0
  O  O116  1  0.72072000  0.90019000  0.24545000  1.0
  O  O117  1  0.27928000  0.40018000  0.25455000  1.0
  O  O118  1  0.27927000  0.09981000  0.75455000  1.0
  O  O119  1  0.72072000  0.59981000  0.74545000  1.0
  O  O120  1  0.72006000  0.07881000  0.23265000  1.0
  O  O121  1  0.27995000  0.57881000  0.26735000  1.0
  O  O122  1  0.27994000  0.92119000  0.76736000  1.0
  O  O123  1  0.72006000  0.42119000  0.73264000  1.0
  O  O124  1  0.71815000  0.10091000  0.38760000  1.0
  O  O125  1  0.28186000  0.60091000  0.11240000  1.0
  O  O126  1  0.28184000  0.89909000  0.61241000  1.0
  O  O127  1  0.71816000  0.39909000  0.88760000  1.0
  F  F128  1  0.75376000  0.69639000  0.46364000  1.0
  F  F129  1  0.24624000  0.19639000  0.03636000  1.0
  F  F130  1  0.24624000  0.30361000  0.53636000  1.0
  F  F131  1  0.75377000  0.80361000  0.96364000  1.0
  F  F132  1  0.90999000  0.80771000  0.48740000  1.0
  F  F133  1  0.09001000  0.30770000  0.01260000  1.0
  F  F134  1  0.09000000  0.19230000  0.51260000  1.0
  F  F135  1  0.91000000  0.69229000  0.98740000  1.0
  F  F136  1  0.64656000  0.81643000  0.52188000  1.0
  F  F137  1  0.35344000  0.31643000  0.97812000  1.0
  F  F138  1  0.35343000  0.18357000  0.47812000  1.0
  F  F139  1  0.64657000  0.68357000  0.02188000  1.0
  F  F140  1  0.77020000  0.79924000  0.12942000  1.0
  F  F141  1  0.22980000  0.29924000  0.37058000  1.0
  F  F142  1  0.22980000  0.20077000  0.87058000  1.0
  F  F143  1  0.77021000  0.70077000  0.62942000  1.0
  F  F144  1  0.61247000  0.70624000  0.20089000  1.0
  F  F145  1  0.38753000  0.20624000  0.29911000  1.0
  F  F146  1  0.38753000  0.29376000  0.79911000  1.0
  F  F147  1  0.61247000  0.79376000  0.70089000  1.0
  F  F148  1  0.87686000  0.69461000  0.19101000  1.0
  F  F149  1  0.12313000  0.19462000  0.30900000  1.0
  F  F150  1  0.12313000  0.30539000  0.80900000  1.0
  F  F151  1  0.87686000  0.80539000  0.69101000  1.0
  F  F152  1  0.76348000  0.29680000  0.15874000  1.0
  F  F153  1  0.23653000  0.79680000  0.34126000  1.0
  F  F154  1  0.23653000  0.70320000  0.84126000  1.0
  F  F155  1  0.76347000  0.20320000  0.65874000  1.0
  F  F156  1  0.87468000  0.17256000  0.10996000  1.0
  F  F157  1  0.12532000  0.67256000  0.39004000  1.0
  F  F158  1  0.12533000  0.82744000  0.89004000  1.0
  F  F159  1  0.87467000  0.32744000  0.60996000  1.0
  F  F160  1  0.60938000  0.18717000  0.13000000  1.0
  F  F161  1  0.39062000  0.68717000  0.37001000  1.0
  F  F162  1  0.39063000  0.81283000  0.87000000  1.0
  F  F163  1  0.60938000  0.31283000  0.62999000  1.0
  F  F164  1  0.72086000  0.21027000  0.49742000  1.0
  F  F165  1  0.27914000  0.71027000  0.00258000  1.0
  F  F166  1  0.27913000  0.78973000  0.50258000  1.0
  F  F167  1  0.72086000  0.28973000  0.99742000  1.0
  F  F168  1  0.87812000  0.29849000  0.42083000  1.0
  F  F169  1  0.12188000  0.79849000  0.07917000  1.0
  F  F170  1  0.12187000  0.70151000  0.57917000  1.0
  F  F171  1  0.87812000  0.20151000  0.92083000  1.0
  F  F172  1  0.61398000  0.31115000  0.43224000  1.0
  F  F173  1  0.38601000  0.81115000  0.06776000  1.0
  F  F174  1  0.38601000  0.68885000  0.56776000  1.0
  F  F175  1  0.61398000  0.18885000  0.93223000  1.0
