# generated using pymatgen
data_ZnH13C20N8ClO
_symmetry_space_group_name_H-M   'P 1'
_cell_length_a   7.99666000
_cell_length_b   9.44599000
_cell_length_c   12.90180000
_cell_angle_alpha   95.90340000
_cell_angle_beta   99.90430000
_cell_angle_gamma   109.63900000
_symmetry_Int_Tables_number   1
_chemical_formula_structural   ZnH13C20N8ClO
_chemical_formula_sum   'Zn2 H26 C40 N16 Cl2 O2'
_cell_volume   890.52516807
_cell_formula_units_Z   2
loop_
 _symmetry_equiv_pos_site_id
 _symmetry_equiv_pos_as_xyz
  1  'x, y, z'
loop_
 _atom_site_type_symbol
 _atom_site_label
 _atom_site_symmetry_multiplicity
 _atom_site_fract_x
 _atom_site_fract_y
 _atom_site_fract_z
 _atom_site_occupancy
  Zn  Zn0  1  0.25129000  0.43915000  0.15433000  1.0
  Zn  Zn1  1  0.74870000  0.56085000  0.84567000  1.0
  H  H2  1  0.90648000  0.35761000  0.01541000  1.0
  H  H3  1  0.09352000  0.64239000  0.98459000  1.0
  H  H4  1  0.05421000  0.37553000  0.94567000  1.0
  H  H5  1  0.94579000  0.62447000  0.05433000  1.0
  H  H6  1  0.80348000  0.46471000  0.55472000  1.0
  H  H7  1  0.19652000  0.53530000  0.44528000  1.0
  H  H8  1  0.15582000  0.79776000  0.63292000  1.0
  H  H9  1  0.84417000  0.20223000  0.36709000  1.0
  H  H10  1  0.68824000  0.65583000  0.27144000  1.0
  H  H11  1  0.31176000  0.34417000  0.72856000  1.0
  H  H12  1  0.17512000  0.65627000  0.78398000  1.0
  H  H13  1  0.82488000  0.34373000  0.21603000  1.0
  H  H14  1  0.68540000  0.01167000  0.94137000  1.0
  H  H15  1  0.31460000  0.98834000  0.05863000  1.0
  H  H16  1  0.99696000  0.87122000  0.33211000  1.0
  H  H17  1  0.00304000  0.12878000  0.66789000  1.0
  H  H18  1  0.96772000  0.11586000  0.06779000  1.0
  H  H19  1  0.03228000  0.88414000  0.93221000  1.0
  H  H20  1  0.66728000  0.15192000  0.79176000  1.0
  H  H21  1  0.33272000  0.84807000  0.20823000  1.0
  H  H22  1  0.90380000  0.66454000  0.44133000  1.0
  H  H23  1  0.09620000  0.33546000  0.55867000  1.0
  H  H24  1  0.85048000  0.87727000  0.14218000  1.0
  H  H25  1  0.14951000  0.12273000  0.85782000  1.0
  H  H26  1  0.64405000  0.25666000  0.65043000  1.0
  H  H27  1  0.35595000  0.74334000  0.34957000  1.0
  C  C28  1  0.40955000  0.98297000  0.70096000  1.0
  C  C29  1  0.59045000  0.01702000  0.29904000  1.0
  C  C30  1  0.54215000  0.34599000  0.44449000  1.0
  C  C31  1  0.45785000  0.65401000  0.55551000  1.0
  C  C32  1  0.29819000  0.10421000  0.45431000  1.0
  C  C33  1  0.70181000  0.89579000  0.54569000  1.0
  C  C34  1  0.44929000  0.73958000  0.95939000  1.0
  C  C35  1  0.55071000  0.26043000  0.04061000  1.0
  C  C36  1  0.71534000  0.46281000  0.47942000  1.0
  C  C37  1  0.28465000  0.53719000  0.52058000  1.0
  C  C38  1  0.19735000  0.09724000  0.35005000  1.0
  C  C39  1  0.80266000  0.90275000  0.64995000  1.0
  C  C40  1  0.43223000  0.82471000  0.87269000  1.0
  C  C41  1  0.56777000  0.17530000  0.12732000  1.0
  C  C42  1  0.27082000  0.84382000  0.70124000  1.0
  C  C43  1  0.72918000  0.15618000  0.29876000  1.0
  C  C44  1  0.26194000  0.22393000  0.29834000  1.0
  C  C45  1  0.73807000  0.77607000  0.70165000  1.0
  C  C46  1  0.39601000  0.05699000  0.60808000  1.0
  C  C47  1  0.60400000  0.94301000  0.39192000  1.0
  C  C48  1  0.65101000  0.57044000  0.32248000  1.0
  C  C49  1  0.34899000  0.42956000  0.67752000  1.0
  C  C50  1  0.46534000  0.22358000  0.49836000  1.0
  C  C51  1  0.53466000  0.77642000  0.50164000  1.0
  C  C52  1  0.43252000  0.34852000  0.34543000  1.0
  C  C53  1  0.56749000  0.65149000  0.65457000  1.0
  C  C54  1  0.28154000  0.76577000  0.78594000  1.0
  C  C55  1  0.71846000  0.23423000  0.21406000  1.0
  C  C56  1  0.56937000  0.96502000  0.87371000  1.0
  C  C57  1  0.43063000  0.03499000  0.12629000  1.0
  C  C58  1  0.04528000  0.97028000  0.29388000  1.0
  C  C59  1  0.95472000  0.02972000  0.70611000  1.0
  C  C60  1  0.03031000  0.10588000  0.14720000  1.0
  C  C61  1  0.96969000  0.89412000  0.85280000  1.0
  C  C62  1  0.55834000  0.04359000  0.78909000  1.0
  C  C63  1  0.44166000  0.95641000  0.21091000  1.0
  C  C64  1  0.77033000  0.57362000  0.41729000  1.0
  C  C65  1  0.22967000  0.42639000  0.58271000  1.0
  C  C66  1  0.96513000  0.97313000  0.19078000  1.0
  C  C67  1  0.03487000  0.02687000  0.80922000  1.0
  N  N68  1  0.17254000  0.22821000  0.19984000  1.0
  N  N69  1  0.82747000  0.77178000  0.80015000  1.0
  N  N70  1  0.52526000  0.19068000  0.59596000  1.0
  N  N71  1  0.47474000  0.80932000  0.40403000  1.0
  N  N72  1  0.25729000  0.00195000  0.52241000  1.0
  N  N73  1  0.74271000  0.99805000  0.47759000  1.0
  N  N74  1  0.48639000  0.46188000  0.28832000  1.0
  N  N75  1  0.51361000  0.53812000  0.71168000  1.0
  N  N76  1  0.39000000  0.58998000  0.07108000  1.0
  N  N77  1  0.61000000  0.41002000  0.92892000  1.0
  N  N78  1  0.61035000  0.75003000  0.01996000  1.0
  N  N79  1  0.38965000  0.24997000  0.98004000  1.0
  N  N80  1  0.56948000  0.65562000  0.08946000  1.0
  N  N81  1  0.43051000  0.34438000  0.91054000  1.0
  N  N82  1  0.30962000  0.63970000  0.98998000  1.0
  N  N83  1  0.69037000  0.36030000  0.01002000  1.0
  Cl  Cl84  1  0.11105000  0.58109000  0.24346000  1.0
  Cl  Cl85  1  0.88895000  0.41891000  0.75654000  1.0
  O  O86  1  0.02455000  0.34227000  0.01170000  1.0
  O  O87  1  0.97544000  0.65772000  0.98830000  1.0
