# generated using pymatgen
data_CuH2(C2N)2
_symmetry_space_group_name_H-M   'P 1'
_cell_length_a   32.75890000
_cell_length_b   32.76190000
_cell_length_c   32.79720000
_cell_angle_alpha   109.51800000
_cell_angle_beta   109.39900000
_cell_angle_gamma   109.44600000
_symmetry_Int_Tables_number   1
_chemical_formula_structural   CuH2(C2N)2
_chemical_formula_sum   'Cu12 H24 C48 N24'
_cell_volume   27113.41061790
_cell_formula_units_Z   12
loop_
 _symmetry_equiv_pos_site_id
 _symmetry_equiv_pos_as_xyz
  1  'x, y, z'
loop_
 _atom_site_type_symbol
 _atom_site_label
 _atom_site_symmetry_multiplicity
 _atom_site_fract_x
 _atom_site_fract_y
 _atom_site_fract_z
 _atom_site_occupancy
  Cu  Cu0  1  0.06806000  0.28458000  0.03421000  1.0
  Cu  Cu1  1  0.96574000  0.25037000  0.03491000  1.0
  Cu  Cu2  1  0.96586000  0.21545000  0.93148000  1.0
  Cu  Cu3  1  0.24892000  0.53379000  0.46587000  1.0
  Cu  Cu4  1  0.21560000  0.43074000  0.46521000  1.0
  Cu  Cu5  1  0.28407000  0.53432000  0.56862000  1.0
  Cu  Cu6  1  0.43243000  0.96612000  0.71610000  1.0
  Cu  Cu7  1  0.53474000  0.06906000  0.78498000  1.0
  Cu  Cu8  1  0.53476000  0.96545000  0.74982000  1.0
  Cu  Cu9  1  0.24963000  0.21574000  0.78347000  1.0
  Cu  Cu10  1  0.28417000  0.24964000  0.71507000  1.0
  Cu  Cu11  1  0.21577000  0.28483000  0.75027000  1.0
  H  H12  1  0.14569000  0.34978000  0.15019000  1.0
  H  H13  1  0.00657000  0.30326000  0.15254000  1.0
  H  H14  1  0.00678000  0.20275000  0.85463000  1.0
  H  H15  1  0.14584000  0.29754000  0.99574000  1.0
  H  H16  1  0.84901000  0.19808000  0.99496000  1.0
  H  H17  1  0.84924000  0.15083000  0.85487000  1.0
  H  H18  1  0.19757000  0.49531000  0.34980000  1.0
  H  H19  1  0.15220000  0.35398000  0.34766000  1.0
  H  H20  1  0.34942000  0.65210000  0.64543000  1.0
  H  H21  1  0.29977000  0.65002000  0.50431000  1.0
  H  H22  1  0.20346000  0.35397000  0.50512000  1.0
  H  H23  1  0.29624000  0.49421000  0.64527000  1.0
  H  H24  1  0.35474000  0.00482000  0.70350000  1.0
  H  H25  1  0.49395000  0.14600000  0.79748000  1.0
  H  H26  1  0.49395000  0.84770000  0.69630000  1.0
  H  H27  1  0.35479000  0.84989000  0.65078000  1.0
  H  H28  1  0.65137000  0.14575000  0.84970000  1.0
  H  H29  1  0.65155000  0.00548000  0.80219000  1.0
  H  H30  1  0.30068000  0.15056000  0.79593000  1.0
  H  H31  1  0.34909000  0.19682000  0.70305000  1.0
  H  H32  1  0.15200000  0.29801000  0.80429000  1.0
  H  H33  1  0.19857000  0.20323000  0.84865000  1.0
  H  H34  1  0.29619000  0.30157000  0.65037000  1.0
  H  H35  1  0.20346000  0.34925000  0.69799000  1.0
  C  C36  1  0.10715000  0.33392000  0.14181000  1.0
  C  C37  1  0.08805000  0.33833000  0.17474000  1.0
  C  C38  1  0.03586000  0.31001000  0.14289000  1.0
  C  C39  1  0.03604000  0.22584000  0.89349000  1.0
  C  C40  1  0.08824000  0.25019000  0.91371000  1.0
  C  C41  1  0.10731000  0.27434000  0.96567000  1.0
  C  C42  1  0.85806000  0.19108000  0.96527000  1.0
  C  C43  1  0.82568000  0.16273000  0.91320000  1.0
  C  C44  1  0.85817000  0.16684000  0.89355000  1.0
  C  C45  1  0.19091000  0.46521000  0.35826000  1.0
  C  C46  1  0.16347000  0.41319000  0.32539000  1.0
  C  C47  1  0.16768000  0.39289000  0.35727000  1.0
  C  C48  1  0.33279000  0.64251000  0.60658000  1.0
  C  C49  1  0.33627000  0.67448000  0.58636000  1.0
  C  C50  1  0.30741000  0.64158000  0.53439000  1.0
  C  C51  1  0.22613000  0.39271000  0.53482000  1.0
  C  C52  1  0.24983000  0.41237000  0.58688000  1.0
  C  C53  1  0.27359000  0.46452000  0.60656000  1.0
  C  C54  1  0.39331000  0.03486000  0.72650000  1.0
  C  C55  1  0.41245000  0.08690000  0.75044000  1.0
  C  C56  1  0.46464000  0.10711000  0.77459000  1.0
  C  C57  1  0.46464000  0.85731000  0.68983000  1.0
  C  C58  1  0.41245000  0.82537000  0.66162000  1.0
  C  C59  1  0.39333000  0.85832000  0.66642000  1.0
  C  C60  1  0.64240000  0.10701000  0.83359000  1.0
  C  C61  1  0.67487000  0.08733000  0.83768000  1.0
  C  C62  1  0.64247000  0.03519000  0.80923000  1.0
  C  C63  1  0.30802000  0.16633000  0.77316000  1.0
  C  C64  1  0.33650000  0.16187000  0.74959000  1.0
  C  C65  1  0.33278000  0.19011000  0.72564000  1.0
  C  C66  1  0.16778000  0.27487000  0.81043000  1.0
  C  C67  1  0.16382000  0.25065000  0.83841000  1.0
  C  C68  1  0.19161000  0.22638000  0.83325000  1.0
  C  C69  1  0.27356000  0.30871000  0.66648000  1.0
  C  C70  1  0.24980000  0.33711000  0.66243000  1.0
  C  C71  1  0.22612000  0.33315000  0.69090000  1.0
  C  C72  1  0.13752000  0.38735000  0.27284000  1.0
  C  C73  1  0.11474000  0.36470000  0.22728000  1.0
  C  C74  1  0.36278000  0.13551000  0.74994000  1.0
  C  C75  1  0.38573000  0.11282000  0.75016000  1.0
  C  C76  1  0.13781000  0.25055000  0.86502000  1.0
  C  C77  1  0.11497000  0.25042000  0.88781000  1.0
  C  C78  1  0.38570000  0.77274000  0.63507000  1.0
  C  C79  1  0.36264000  0.72712000  0.61226000  1.0
  C  C80  1  0.72748000  0.11364000  0.86405000  1.0
  C  C81  1  0.77307000  0.13642000  0.88690000  1.0
  C  C82  1  0.24978000  0.38608000  0.61320000  1.0
  C  C83  1  0.24977000  0.36335000  0.63606000  1.0
  N  N84  1  0.02503000  0.29041000  0.09496000  1.0
  N  N85  1  0.06922000  0.30528000  0.09434000  1.0
  N  N86  1  0.06936000  0.26496000  0.97529000  1.0
  N  N87  1  0.02518000  0.23493000  0.93059000  1.0
  N  N88  1  0.90590000  0.19533000  0.93104000  1.0
  N  N89  1  0.90583000  0.21038000  0.97550000  1.0
  N  N90  1  0.19537000  0.43001000  0.40518000  1.0
  N  N91  1  0.20977000  0.47480000  0.40575000  1.0
  N  N92  1  0.28844000  0.59402000  0.52478000  1.0
  N  N93  1  0.30417000  0.59454000  0.56949000  1.0
  N  N94  1  0.26460000  0.47479000  0.56908000  1.0
  N  N95  1  0.23520000  0.43027000  0.52462000  1.0
  N  N96  1  0.47543000  0.06992000  0.76558000  1.0
  N  N97  1  0.43121000  0.02516000  0.73581000  1.0
  N  N98  1  0.43124000  0.90587000  0.69516000  1.0
  N  N99  1  0.47545000  0.90529000  0.70972000  1.0
  N  N100  1  0.59470000  0.02494000  0.78989000  1.0
  N  N101  1  0.59466000  0.06947000  0.80503000  1.0
  N  N102  1  0.30438000  0.20969000  0.73441000  1.0
  N  N103  1  0.28903000  0.19492000  0.76383000  1.0
  N  N104  1  0.21043000  0.23557000  0.80452000  1.0
  N  N105  1  0.19566000  0.26559000  0.79033000  1.0
  N  N106  1  0.23522000  0.30471000  0.71022000  1.0
  N  N107  1  0.26459000  0.28954000  0.69505000  1.0
