# generated using pymatgen
data_U2H20C14NO10
_symmetry_space_group_name_H-M   'P 1'
_cell_length_a   7.21514000
_cell_length_b   11.37550000
_cell_length_c   12.38830000
_cell_angle_alpha   76.37830000
_cell_angle_beta   74.31000000
_cell_angle_gamma   84.19450000
_symmetry_Int_Tables_number   1
_chemical_formula_structural   U2H20C14NO10
_chemical_formula_sum   'U4 H40 C28 N2 O20'
_cell_volume   950.59636985
_cell_formula_units_Z   2
loop_
 _symmetry_equiv_pos_site_id
 _symmetry_equiv_pos_as_xyz
  1  'x, y, z'
loop_
 _atom_site_type_symbol
 _atom_site_label
 _atom_site_symmetry_multiplicity
 _atom_site_fract_x
 _atom_site_fract_y
 _atom_site_fract_z
 _atom_site_occupancy
  U  U0  1  0.80304000  0.79931000  0.99820000  1.0
  U  U1  1  0.19696000  0.20069000  0.00180000  1.0
  U  U2  1  0.89141000  0.50712000  0.87887000  1.0
  U  U3  1  0.10858000  0.49288000  0.12113000  1.0
  H  H4  1  0.63095000  0.04415000  0.05873000  1.0
  H  H5  1  0.36905000  0.95585000  0.94127000  1.0
  H  H6  1  0.83113000  0.07013000  0.96096000  1.0
  H  H7  1  0.16887000  0.92987000  0.03904000  1.0
  H  H8  1  0.94621000  0.60314000  0.58897000  1.0
  H  H9  1  0.05379000  0.39687000  0.41103000  1.0
  H  H10  1  0.80721000  0.59094000  0.43010000  1.0
  H  H11  1  0.19278000  0.40906000  0.56989000  1.0
  H  H12  1  0.31412000  0.42597000  0.69014000  1.0
  H  H13  1  0.68587000  0.57402000  0.30986000  1.0
  H  H14  1  0.47296000  0.44856000  0.83575000  1.0
  H  H15  1  0.52705000  0.55144000  0.16425000  1.0
  H  H16  1  0.29859000  0.75412000  0.81748000  1.0
  H  H17  1  0.70141000  0.24588000  0.18252000  1.0
  H  H18  1  0.49692000  0.70544000  0.71748000  1.0
  H  H19  1  0.50308000  0.29456000  0.28251000  1.0
  H  H20  1  0.57124000  0.92058000  0.61906000  1.0
  H  H21  1  0.42876000  0.07942000  0.38094000  1.0
  H  H22  1  0.39288000  0.97225000  0.72817000  1.0
  H  H23  1  0.60712000  0.02775000  0.27182000  1.0
  H  H24  1  0.13678000  0.88607000  0.67397000  1.0
  H  H25  1  0.86322000  0.11393000  0.32603000  1.0
  H  H26  1  0.26366000  0.00084000  0.56537000  1.0
  H  H27  1  0.73634000  0.99916000  0.43463000  1.0
  H  H28  1  0.45672000  0.83868000  0.46583000  1.0
  H  H29  1  0.54328000  0.16132000  0.53417000  1.0
  H  H30  1  0.30846000  0.72914000  0.57050000  1.0
  H  H31  1  0.69154000  0.27086000  0.42950000  1.0
  H  H32  1  0.15986000  0.95169000  0.41779000  1.0
  H  H33  1  0.84014000  0.04831000  0.58221000  1.0
  H  H34  1  0.01500000  0.84007000  0.51873000  1.0
  H  H35  1  0.98500000  0.15993000  0.48127000  1.0
  H  H36  1  0.32328000  0.79063000  0.30616000  1.0
  H  H37  1  0.67672000  0.20937000  0.69384000  1.0
  H  H38  1  0.15783000  0.68630000  0.40277000  1.0
  H  H39  1  0.84217000  0.31370000  0.59723000  1.0
  H  H40  1  0.05151000  0.92679000  0.25155000  1.0
  H  H41  1  0.94849000  0.07321000  0.74845000  1.0
  H  H42  1  0.88300000  0.82913000  0.35474000  1.0
  H  H43  1  0.11699000  0.17087000  0.64526000  1.0
  C  C44  1  0.80533000  0.56544000  0.60665000  1.0
  C  C45  1  0.19467000  0.43456000  0.39335000  1.0
  C  C46  1  0.72536000  0.55849000  0.51846000  1.0
  C  C47  1  0.27464000  0.44150000  0.48154000  1.0
  C  C48  1  0.54492000  0.50640000  0.54521000  1.0
  C  C49  1  0.45508000  0.49360000  0.45479000  1.0
  C  C50  1  0.45387000  0.46647000  0.66169000  1.0
  C  C51  1  0.54613000  0.53353000  0.33831000  1.0
  C  C52  1  0.54255000  0.47803000  0.74495000  1.0
  C  C53  1  0.45745000  0.52197000  0.25505000  1.0
  C  C54  1  0.56520000  0.78173000  0.84194000  1.0
  C  C55  1  0.43480000  0.21827000  0.15805000  1.0
  C  C56  1  0.44322000  0.77880000  0.76245000  1.0
  C  C57  1  0.55678000  0.22119000  0.23755000  1.0
  C  C58  1  0.42872000  0.90054000  0.67900000  1.0
  C  C59  1  0.57128000  0.09946000  0.32100000  1.0
  C  C60  1  0.27711000  0.90635000  0.61208000  1.0
  C  C61  1  0.72289000  0.09365000  0.38792000  1.0
  C  C62  1  0.31220000  0.82504000  0.52558000  1.0
  C  C63  1  0.68780000  0.17496000  0.47442000  1.0
  C  C64  1  0.15853000  0.85412000  0.45781000  1.0
  C  C65  1  0.84147000  0.14588000  0.54219000  1.0
  C  C66  1  0.17771000  0.78322000  0.36459000  1.0
  C  C67  1  0.82229000  0.21678000  0.63541000  1.0
  C  C68  1  0.02848000  0.83164000  0.29538000  1.0
  C  C69  1  0.97152000  0.16836000  0.70462000  1.0
  C  C70  1  0.01821000  0.76024000  0.20928000  1.0
  C  C71  1  0.98179000  0.23976000  0.79072000  1.0
  N  N72  1  0.71685000  0.52514000  0.71851000  1.0
  N  N73  1  0.28315000  0.47486000  0.28149000  1.0
  O  O74  1  0.99175000  0.85478000  0.87080000  1.0
  O  O75  1  0.00825000  0.14522000  0.12920000  1.0
  O  O76  1  0.60908000  0.76597000  0.12815000  1.0
  O  O77  1  0.39092000  0.23403000  0.87185000  1.0
  O  O78  1  0.07902000  0.59661000  0.77182000  1.0
  O  O79  1  0.92097000  0.40339000  0.22818000  1.0
  O  O80  1  0.69210000  0.41608000  0.96986000  1.0
  O  O81  1  0.30790000  0.58392000  0.03014000  1.0
  O  O82  1  0.90906000  0.60619000  0.01857000  1.0
  O  O83  1  0.09094000  0.39381000  0.98143000  1.0
  O  O84  1  0.68415000  0.69439000  0.86826000  1.0
  O  O85  1  0.31585000  0.30561000  0.13174000  1.0
  O  O86  1  0.55614000  0.87303000  0.88744000  1.0
  O  O87  1  0.44386000  0.12697000  0.11256000  1.0
  O  O88  1  0.02451000  0.81808000  0.10521000  1.0
  O  O89  1  0.97549000  0.18193000  0.89479000  1.0
  O  O90  1  0.99766000  0.64709000  0.23999000  1.0
  O  O91  1  0.00233000  0.35291000  0.76001000  1.0
  O  O92  1  0.74236000  0.00498000  0.01004000  1.0
  O  O93  1  0.25764000  0.99502000  0.98996000  1.0
