# generated using pymatgen
data_AlH8C4Br3O2
_symmetry_space_group_name_H-M   'P 1'
_cell_length_a   6.62585000
_cell_length_b   6.62611000
_cell_length_c   12.53925920
_cell_angle_alpha   92.22418943
_cell_angle_beta   103.06504070
_cell_angle_gamma   119.89100000
_symmetry_Int_Tables_number   1
_chemical_formula_structural   AlH8C4Br3O2
_chemical_formula_sum   'Al2 H16 C8 Br6 O4'
_cell_volume   457.39247003
_cell_formula_units_Z   2
loop_
 _symmetry_equiv_pos_site_id
 _symmetry_equiv_pos_as_xyz
  1  'x, y, z'
loop_
 _atom_site_type_symbol
 _atom_site_label
 _atom_site_symmetry_multiplicity
 _atom_site_fract_x
 _atom_site_fract_y
 _atom_site_fract_z
 _atom_site_occupancy
  Al  Al0  1  0.04646000  0.29635000  0.74991000  1.0
  Al  Al1  1  0.95355000  0.70363000  0.25009000  1.0
  H  H2  1  0.38835000  0.65254000  0.96490000  1.0
  H  H3  1  0.18766000  0.42338000  0.53507000  1.0
  H  H4  1  0.61164000  0.34748000  0.03509000  1.0
  H  H5  1  0.81234000  0.57663000  0.46492000  1.0
  H  H6  1  0.24201000  0.40928000  0.03457000  1.0
  H  H7  1  0.87487000  0.20724000  0.46531000  1.0
  H  H8  1  0.75800000  0.59074000  0.96543000  1.0
  H  H9  1  0.12512000  0.79277000  0.53468000  1.0
  H  H10  1  0.81457000  0.15522000  0.97005000  1.0
  H  H11  1  0.68504000  0.84481000  0.52997000  1.0
  H  H12  1  0.18544000  0.84480000  0.02996000  1.0
  H  H13  1  0.31495000  0.15518000  0.47002000  1.0
  H  H14  1  0.64556000  0.21314000  0.85480000  1.0
  H  H15  1  0.85781000  0.79063000  0.64518000  1.0
  H  H16  1  0.35445000  0.78688000  0.14521000  1.0
  H  H17  1  0.14217000  0.20935000  0.35480000  1.0
  C  C18  1  0.22767000  0.54723000  0.99346000  1.0
  C  C19  1  0.05393000  0.23416000  0.50650000  1.0
  C  C20  1  0.77233000  0.45280000  0.00655000  1.0
  C  C21  1  0.94604000  0.76581000  0.49348000  1.0
  C  C22  1  0.79996000  0.29375000  0.92981000  1.0
  C  C23  1  0.86367000  0.87015000  0.57018000  1.0
  C  C24  1  0.20003000  0.70624000  0.07019000  1.0
  C  C25  1  0.13631000  0.12983000  0.42981000  1.0
  Br  Br26  1  0.39471000  0.64524000  0.74982000  1.0
  Br  Br27  1  0.60535000  0.35473000  0.25020000  1.0
  Br  Br28  1  0.67925000  0.25949000  0.65425000  1.0
  Br  Br29  1  0.10490000  0.02462000  0.84559000  1.0
  Br  Br30  1  0.32073000  0.74048000  0.34577000  1.0
  Br  Br31  1  0.89511000  0.97538000  0.15442000  1.0
  O  O32  1  0.01892000  0.43243000  0.89411000  1.0
  O  O33  1  0.03828000  0.12473000  0.60587000  1.0
  O  O34  1  0.98109000  0.56759000  0.10590000  1.0
  O  O35  1  0.96170000  0.87527000  0.39412000  1.0
