# generated using pymatgen
data_HgH5C7ClO
_symmetry_space_group_name_H-M   'P 1'
_cell_length_a   7.37561000
_cell_length_b   9.45822000
_cell_length_c   10.95180000
_cell_angle_alpha   89.99990000
_cell_angle_beta   90.00000000
_cell_angle_gamma   101.56700000
_symmetry_Int_Tables_number   1
_chemical_formula_structural   HgH5C7ClO
_chemical_formula_sum   'Hg4 H20 C28 Cl4 O4'
_cell_volume   748.48298847
_cell_formula_units_Z   4
loop_
 _symmetry_equiv_pos_site_id
 _symmetry_equiv_pos_as_xyz
  1  'x, y, z'
loop_
 _atom_site_type_symbol
 _atom_site_label
 _atom_site_symmetry_multiplicity
 _atom_site_fract_x
 _atom_site_fract_y
 _atom_site_fract_z
 _atom_site_occupancy
  Hg  Hg0  1  0.00772000  0.79832000  0.42324000  1.0
  Hg  Hg1  1  0.00774000  0.29832000  0.07677000  1.0
  Hg  Hg2  1  0.99227000  0.20168000  0.57677000  1.0
  Hg  Hg3  1  0.99226000  0.70168000  0.92323000  1.0
  H  H4  1  0.60192000  0.31353000  0.56860000  1.0
  H  H5  1  0.60195000  0.81355000  0.93140000  1.0
  H  H6  1  0.39806000  0.68645000  0.43140000  1.0
  H  H7  1  0.39807000  0.18646000  0.06860000  1.0
  H  H8  1  0.48906000  0.22817000  0.36205000  1.0
  H  H9  1  0.48908000  0.72819000  0.13795000  1.0
  H  H10  1  0.51094000  0.77182000  0.63795000  1.0
  H  H11  1  0.51093000  0.27181000  0.86205000  1.0
  H  H12  1  0.58662000  0.38694000  0.18047000  1.0
  H  H13  1  0.58663000  0.88694000  0.31953000  1.0
  H  H14  1  0.41339000  0.61307000  0.81953000  1.0
  H  H15  1  0.41337000  0.11307000  0.68047000  1.0
  H  H16  1  0.79841000  0.62133000  0.20493000  1.0
  H  H17  1  0.79844000  0.12133000  0.29508000  1.0
  H  H18  1  0.20159000  0.37867000  0.79507000  1.0
  H  H19  1  0.20156000  0.87867000  0.70492000  1.0
  H  H20  1  0.76905000  0.47593000  0.70006000  1.0
  H  H21  1  0.76906000  0.97595000  0.79994000  1.0
  H  H22  1  0.23094000  0.52405000  0.29993000  1.0
  H  H23  1  0.23094000  0.02405000  0.20007000  1.0
  C  C24  1  0.82003000  0.60383000  0.40097000  1.0
  C  C25  1  0.82005000  0.10384000  0.09904000  1.0
  C  C26  1  0.17996000  0.39617000  0.59904000  1.0
  C  C27  1  0.17995000  0.89617000  0.90097000  1.0
  C  C28  1  0.76394000  0.51527000  0.50339000  1.0
  C  C29  1  0.76395000  0.01528000  0.99661000  1.0
  C  C30  1  0.23605000  0.48472000  0.49661000  1.0
  C  C31  1  0.23605000  0.98472000  0.00339000  1.0
  C  C32  1  0.64556000  0.38014000  0.48816000  1.0
  C  C33  1  0.64559000  0.88015000  0.01184000  1.0
  C  C34  1  0.35442000  0.61986000  0.51184000  1.0
  C  C35  1  0.35442000  0.11986000  0.98816000  1.0
  C  C36  1  0.58168000  0.33273000  0.37263000  1.0
  C  C37  1  0.58170000  0.83274000  0.12737000  1.0
  C  C38  1  0.41831000  0.66727000  0.62737000  1.0
  C  C39  1  0.41831000  0.16727000  0.87263000  1.0
  C  C40  1  0.63602000  0.42125000  0.27169000  1.0
  C  C41  1  0.63604000  0.92125000  0.22831000  1.0
  C  C42  1  0.36397000  0.57876000  0.72831000  1.0
  C  C43  1  0.36396000  0.07876000  0.77169000  1.0
  C  C44  1  0.75536000  0.55582000  0.28552000  1.0
  C  C45  1  0.75539000  0.05583000  0.21448000  1.0
  C  C46  1  0.24463000  0.44418000  0.71448000  1.0
  C  C47  1  0.24462000  0.94418000  0.78552000  1.0
  C  C48  1  0.82331000  0.55701000  0.62862000  1.0
  C  C49  1  0.82333000  0.05704000  0.87138000  1.0
  C  C50  1  0.17668000  0.44297000  0.37138000  1.0
  C  C51  1  0.17668000  0.94297000  0.12862000  1.0
  Cl  Cl52  1  0.24840000  0.00328000  0.44774000  1.0
  Cl  Cl53  1  0.24841000  0.50329000  0.05225000  1.0
  Cl  Cl54  1  0.75160000  0.99672000  0.55226000  1.0
  Cl  Cl55  1  0.75160000  0.49671000  0.94774000  1.0
  O  O56  1  0.92475000  0.67203000  0.65871000  1.0
  O  O57  1  0.92477000  0.17205000  0.84129000  1.0
  O  O58  1  0.07523000  0.32795000  0.34129000  1.0
  O  O59  1  0.07524000  0.82795000  0.15871000  1.0
