# generated using pymatgen
data_CdCo2H16C12(NO4)4
_symmetry_space_group_name_H-M   'P 1'
_cell_length_a   7.48804000
_cell_length_b   8.94923000
_cell_length_c   8.94926000
_cell_angle_alpha   89.99980000
_cell_angle_beta   90.00000000
_cell_angle_gamma   89.99970000
_symmetry_Int_Tables_number   1
_chemical_formula_structural   CdCo2H16C12(NO4)4
_chemical_formula_sum   'Cd1 Co2 H16 C12 N4 O16'
_cell_volume   599.70953124
_cell_formula_units_Z   1
loop_
 _symmetry_equiv_pos_site_id
 _symmetry_equiv_pos_as_xyz
  1  'x, y, z'
loop_
 _atom_site_type_symbol
 _atom_site_label
 _atom_site_symmetry_multiplicity
 _atom_site_fract_x
 _atom_site_fract_y
 _atom_site_fract_z
 _atom_site_occupancy
  Cd  Cd0  1  0.00000000  0.50000000  0.50000000  1.0
  Co  Co1  1  0.45673000  0.50000000  1.00000000  1.0
  Co  Co2  1  0.54328000  0.00000000  0.50000000  1.0
  H  H3  1  0.81728000  0.62689000  0.11632000  1.0
  H  H4  1  0.81728000  0.37310000  0.88368000  1.0
  H  H5  1  0.18272000  0.88368000  0.62689000  1.0
  H  H6  1  0.18272000  0.11633000  0.37311000  1.0
  H  H7  1  0.92853000  0.63215000  0.93976000  1.0
  H  H8  1  0.92853000  0.36784000  0.06023000  1.0
  H  H9  1  0.07147000  0.06024000  0.63215000  1.0
  H  H10  1  0.07147000  0.93976000  0.36784000  1.0
  H  H11  1  0.65555000  0.62051000  0.81442000  1.0
  H  H12  1  0.65555000  0.37949000  0.18558000  1.0
  H  H13  1  0.34445000  0.18558000  0.62052000  1.0
  H  H14  1  0.34445000  0.81442000  0.37949000  1.0
  H  H15  1  0.61140000  0.73803000  0.95443000  1.0
  H  H16  1  0.61140000  0.26197000  0.04557000  1.0
  H  H17  1  0.38860000  0.04556000  0.73803000  1.0
  H  H18  1  0.38860000  0.95444000  0.26197000  1.0
  C  C19  1  0.81502000  0.58470000  0.00112000  1.0
  C  C20  1  0.81502000  0.41530000  0.99888000  1.0
  C  C21  1  0.18498000  0.99888000  0.58470000  1.0
  C  C22  1  0.18498000  0.00112000  0.41530000  1.0
  C  C23  1  0.22370000  0.41976000  0.21367000  1.0
  C  C24  1  0.22371000  0.58024000  0.78632000  1.0
  C  C25  1  0.77629000  0.78631000  0.41975000  1.0
  C  C26  1  0.77629000  0.21369000  0.58024000  1.0
  C  C27  1  0.32065000  0.56087000  0.26889000  1.0
  C  C28  1  0.32064000  0.43914000  0.73111000  1.0
  C  C29  1  0.67936000  0.73110000  0.56085000  1.0
  C  C30  1  0.67937000  0.26890000  0.43915000  1.0
  N  N31  1  0.64377000  0.62974000  0.92990000  1.0
  N  N32  1  0.64377000  0.37026000  0.07010000  1.0
  N  N33  1  0.35622000  0.07010000  0.62974000  1.0
  N  N34  1  0.35623000  0.92990000  0.37026000  1.0
  O  O35  1  0.27510000  0.62225000  0.38823000  1.0
  O  O36  1  0.27509000  0.37774000  0.61177000  1.0
  O  O37  1  0.72490000  0.61175000  0.62225000  1.0
  O  O38  1  0.72490000  0.38824000  0.37775000  1.0
  O  O39  1  0.44692000  0.60831000  0.18291000  1.0
  O  O40  1  0.44692000  0.39168000  0.81709000  1.0
  O  O41  1  0.55308000  0.81709000  0.60831000  1.0
  O  O42  1  0.55307000  0.18291000  0.39169000  1.0
  O  O43  1  0.27708000  0.37076000  0.08606000  1.0
  O  O44  1  0.27709000  0.62925000  0.91395000  1.0
  O  O45  1  0.72292000  0.91395000  0.37076000  1.0
  O  O46  1  0.72292000  0.08604000  0.62925000  1.0
  O  O47  1  0.10150000  0.36216000  0.28980000  1.0
  O  O48  1  0.10150000  0.63785000  0.71021000  1.0
  O  O49  1  0.89850000  0.71020000  0.36215000  1.0
  O  O50  1  0.89850000  0.28980000  0.63786000  1.0
