# generated using pymatgen
data_AgH12C13S2NO3
_symmetry_space_group_name_H-M   'P 1'
_cell_length_a   5.17778000
_cell_length_b   15.04500000
_cell_length_c   17.83100000
_cell_angle_alpha   90.00000000
_cell_angle_beta   90.00000000
_cell_angle_gamma   93.08910000
_symmetry_Int_Tables_number   1
_chemical_formula_structural   AgH12C13S2NO3
_chemical_formula_sum   'Ag4 H48 C52 S8 N4 O12'
_cell_volume   1387.01120956
_cell_formula_units_Z   4
loop_
 _symmetry_equiv_pos_site_id
 _symmetry_equiv_pos_as_xyz
  1  'x, y, z'
loop_
 _atom_site_type_symbol
 _atom_site_label
 _atom_site_symmetry_multiplicity
 _atom_site_fract_x
 _atom_site_fract_y
 _atom_site_fract_z
 _atom_site_occupancy
  Ag  Ag0  1  0.82701000  0.14263000  0.73348000  1.0
  Ag  Ag1  1  0.82701000  0.64264000  0.76652000  1.0
  Ag  Ag2  1  0.17299000  0.85736000  0.26652000  1.0
  Ag  Ag3  1  0.17299000  0.35736000  0.23348000  1.0
  H  H4  1  0.45134000  0.94153000  0.69869000  1.0
  H  H5  1  0.45134000  0.44153000  0.80131000  1.0
  H  H6  1  0.54866000  0.05847000  0.30131000  1.0
  H  H7  1  0.54866000  0.55847000  0.19869000  1.0
  H  H8  1  0.17440000  0.96609000  0.64469000  1.0
  H  H9  1  0.17441000  0.46609000  0.85531000  1.0
  H  H10  1  0.82560000  0.03391000  0.35531000  1.0
  H  H11  1  0.82560000  0.53391000  0.14469000  1.0
  H  H12  1  0.26852000  0.18357000  0.84913000  1.0
  H  H13  1  0.26849000  0.68357000  0.65086000  1.0
  H  H14  1  0.73154000  0.81643000  0.15085000  1.0
  H  H15  1  0.73147000  0.31642000  0.34914000  1.0
  H  H16  1  0.60141000  0.21733000  0.94721000  1.0
  H  H17  1  0.60141000  0.71732000  0.55279000  1.0
  H  H18  1  0.39864000  0.78268000  0.05278000  1.0
  H  H19  1  0.39857000  0.28269000  0.44722000  1.0
  H  H20  1  0.89164000  0.10127000  0.98806000  1.0
  H  H21  1  0.89163000  0.60126000  0.51194000  1.0
  H  H22  1  0.10841000  0.89873000  0.01193000  1.0
  H  H23  1  0.10839000  0.39875000  0.48807000  1.0
  H  H24  1  0.85478000  0.95053000  0.93041000  1.0
  H  H25  1  0.85478000  0.45052000  0.56960000  1.0
  H  H26  1  0.14522000  0.04947000  0.06959000  1.0
  H  H27  1  0.14526000  0.54949000  0.43041000  1.0
  H  H28  1  0.52439000  0.91533000  0.83224000  1.0
  H  H29  1  0.52438000  0.41533000  0.66776000  1.0
  H  H30  1  0.47559000  0.08466000  0.16777000  1.0
  H  H31  1  0.47563000  0.58467000  0.33224000  1.0
  H  H32  1  0.33464000  0.24489000  0.69826000  1.0
  H  H33  1  0.33464000  0.74490000  0.80173000  1.0
  H  H34  1  0.66535000  0.75511000  0.30174000  1.0
  H  H35  1  0.66533000  0.25511000  0.19827000  1.0
  H  H36  1  0.98380000  0.33988000  0.65599000  1.0
  H  H37  1  0.98379000  0.83988000  0.84400000  1.0
  H  H38  1  0.01619000  0.66012000  0.34401000  1.0
  H  H39  1  0.01617000  0.16012000  0.15600000  1.0
  H  H40  1  0.73620000  0.30080000  0.53895000  1.0
  H  H41  1  0.73620000  0.80080000  0.96105000  1.0
  H  H42  1  0.26380000  0.69920000  0.46105000  1.0
  H  H43  1  0.26379000  0.19920000  0.03896000  1.0
  H  H44  1  0.85245000  0.16991000  0.46283000  1.0
  H  H45  1  0.85247000  0.66991000  0.03717000  1.0
  H  H46  1  0.14754000  0.83009000  0.53717000  1.0
  H  H47  1  0.14754000  0.33009000  0.96284000  1.0
  H  H48  1  0.19810000  0.07420000  0.50595000  1.0
  H  H49  1  0.19813000  0.57420000  0.99405000  1.0
  H  H50  1  0.80188000  0.92580000  0.49405000  1.0
  H  H51  1  0.80189000  0.42580000  0.00595000  1.0
  C  C52  1  0.31955000  0.99380000  0.68439000  1.0
  C  C53  1  0.31955000  0.49380000  0.81561000  1.0
  C  C54  1  0.68045000  0.00620000  0.31561000  1.0
  C  C55  1  0.68044000  0.50620000  0.18439000  1.0
  C  C56  1  0.37548000  0.04716000  0.83490000  1.0
  C  C57  1  0.37547000  0.54717000  0.66510000  1.0
  C  C58  1  0.62454000  0.95283000  0.16510000  1.0
  C  C59  1  0.62453000  0.45283000  0.33490000  1.0
  C  C60  1  0.39556000  0.13229000  0.86715000  1.0
  C  C61  1  0.39555000  0.63228000  0.63285000  1.0
  C  C62  1  0.60447000  0.86771000  0.13285000  1.0
  C  C63  1  0.60442000  0.36772000  0.36715000  1.0
  C  C64  1  0.58070000  0.15082000  0.92288000  1.0
  C  C65  1  0.58070000  0.65081000  0.57711000  1.0
  C  C66  1  0.41935000  0.84918000  0.07711000  1.0
  C  C67  1  0.41930000  0.34919000  0.42290000  1.0
  C  C68  1  0.74510000  0.08560000  0.94568000  1.0
  C  C69  1  0.74511000  0.58559000  0.55432000  1.0
  C  C70  1  0.25492000  0.91440000  0.05432000  1.0
  C  C71  1  0.25492000  0.41442000  0.44569000  1.0
  C  C72  1  0.72428000  0.00110000  0.91321000  1.0
  C  C73  1  0.72428000  0.50110000  0.58679000  1.0
  C  C74  1  0.27572000  0.99889000  0.08679000  1.0
  C  C75  1  0.27573000  0.49891000  0.41321000  1.0
  C  C76  1  0.53888000  0.98102000  0.85824000  1.0
  C  C77  1  0.53887000  0.48102000  0.64177000  1.0
  C  C78  1  0.46111000  0.01897000  0.14177000  1.0
  C  C79  1  0.46113000  0.51898000  0.35823000  1.0
  C  C80  1  0.28066000  0.15221000  0.60615000  1.0
  C  C81  1  0.28066000  0.65220000  0.89385000  1.0
  C  C82  1  0.71933000  0.84779000  0.39385000  1.0
  C  C83  1  0.71932000  0.34779000  0.10615000  1.0
  C  C84  1  0.22328000  0.22762000  0.64801000  1.0
  C  C85  1  0.22327000  0.72762000  0.85199000  1.0
  C  C86  1  0.77672000  0.77238000  0.35200000  1.0
  C  C87  1  0.77670000  0.27238000  0.14801000  1.0
  C  C88  1  0.02769000  0.28141000  0.62320000  1.0
  C  C89  1  0.02769000  0.78141000  0.87680000  1.0
  C  C90  1  0.97231000  0.71860000  0.37680000  1.0
  C  C91  1  0.97228000  0.21859000  0.12320000  1.0
  C  C92  1  0.89102000  0.25967000  0.55753000  1.0
  C  C93  1  0.89103000  0.75967000  0.94246000  1.0
  C  C94  1  0.10896000  0.74033000  0.44246000  1.0
  C  C95  1  0.10896000  0.24033000  0.05754000  1.0
  C  C96  1  0.95274000  0.18545000  0.51531000  1.0
  C  C97  1  0.95274000  0.68545000  0.98469000  1.0
  C  C98  1  0.04725000  0.81455000  0.48469000  1.0
  C  C99  1  0.04726000  0.31455000  0.01532000  1.0
  C  C100  1  0.14814000  0.13155000  0.53931000  1.0
  C  C101  1  0.14815000  0.63156000  0.96069000  1.0
  C  C102  1  0.85184000  0.86844000  0.46069000  1.0
  C  C103  1  0.85185000  0.36844000  0.03931000  1.0
  S  S104  1  0.13308000  0.01989000  0.76675000  1.0
  S  S105  1  0.13308000  0.51989000  0.73326000  1.0
  S  S106  1  0.86691000  0.98010000  0.23326000  1.0
  S  S107  1  0.86691000  0.48010000  0.26674000  1.0
  S  S108  1  0.51924000  0.07992000  0.63755000  1.0
  S  S109  1  0.51925000  0.57992000  0.86245000  1.0
  S  S110  1  0.48074000  0.92008000  0.36245000  1.0
  S  S111  1  0.48074000  0.42009000  0.13755000  1.0
  N  N112  1  0.79131000  0.32224000  0.81421000  1.0
  N  N113  1  0.79129000  0.82224000  0.68580000  1.0
  N  N114  1  0.20872000  0.67776000  0.18580000  1.0
  N  N115  1  0.20869000  0.17776000  0.31421000  1.0
  O  O116  1  0.60724000  0.31745000  0.76751000  1.0
  O  O117  1  0.60724000  0.81745000  0.73250000  1.0
  O  O118  1  0.39277000  0.68255000  0.23250000  1.0
  O  O119  1  0.39274000  0.18255000  0.26751000  1.0
  O  O120  1  0.95493000  0.26098000  0.81480000  1.0
  O  O121  1  0.95491000  0.76098000  0.68519000  1.0
  O  O122  1  0.04510000  0.73902000  0.18519000  1.0
  O  O123  1  0.04508000  0.23902000  0.31481000  1.0
  O  O124  1  0.81629000  0.38559000  0.86008000  1.0
  O  O125  1  0.81625000  0.88559000  0.63992000  1.0
  O  O126  1  0.18375000  0.61441000  0.13992000  1.0
  O  O127  1  0.18371000  0.11441000  0.36008000  1.0
