# generated using pymatgen
data_PrH15C11SO9
_symmetry_space_group_name_H-M   'P 1'
_cell_length_a   8.21247000
_cell_length_b   9.83012000
_cell_length_c   18.68615670
_cell_angle_alpha   90.00000000
_cell_angle_beta   102.57371860
_cell_angle_gamma   90.00000000
_symmetry_Int_Tables_number   1
_chemical_formula_structural   PrH15C11SO9
_chemical_formula_sum   'Pr4 H60 C44 S4 O36'
_cell_volume   1472.34592949
_cell_formula_units_Z   4
loop_
 _symmetry_equiv_pos_site_id
 _symmetry_equiv_pos_as_xyz
  1  'x, y, z'
loop_
 _atom_site_type_symbol
 _atom_site_label
 _atom_site_symmetry_multiplicity
 _atom_site_fract_x
 _atom_site_fract_y
 _atom_site_fract_z
 _atom_site_occupancy
  Pr  Pr0  1  0.97256000  0.28324000  0.99540000  1.0
  Pr  Pr1  1  0.02744000  0.78323000  0.50460000  1.0
  Pr  Pr2  1  0.02744000  0.71677000  0.00460000  1.0
  Pr  Pr3  1  0.97255000  0.21676000  0.49540000  1.0
  H  H4  1  0.74533000  0.18807000  0.09718000  1.0
  H  H5  1  0.25467000  0.68807000  0.40282000  1.0
  H  H6  1  0.25467000  0.81195000  0.90282000  1.0
  H  H7  1  0.74533000  0.31194000  0.59718000  1.0
  H  H8  1  0.20406000  0.04643000  0.00693000  1.0
  H  H9  1  0.79593000  0.54644000  0.49307000  1.0
  H  H10  1  0.79592000  0.95357000  0.99306000  1.0
  H  H11  1  0.20406000  0.45356000  0.50693000  1.0
  H  H12  1  0.64546000  0.31437000  0.05827000  1.0
  H  H13  1  0.35456000  0.81436000  0.44173000  1.0
  H  H14  1  0.35456000  0.68565000  0.94172000  1.0
  H  H15  1  0.64545000  0.18564000  0.55828000  1.0
  H  H16  1  0.31877000  0.17604000  0.00631000  1.0
  H  H17  1  0.68121000  0.67604000  0.49369000  1.0
  H  H18  1  0.68119000  0.82398000  0.99369000  1.0
  H  H19  1  0.31880000  0.32397000  0.50631000  1.0
  H  H20  1  0.47837000  0.33521000  0.79261000  1.0
  H  H21  1  0.52163000  0.83522000  0.70739000  1.0
  H  H22  1  0.52167000  0.66474000  0.20740000  1.0
  H  H23  1  0.47838000  0.16480000  0.29262000  1.0
  H  H24  1  0.44663000  0.32320000  0.65725000  1.0
  H  H25  1  0.55337000  0.82322000  0.84275000  1.0
  H  H26  1  0.55335000  0.67673000  0.34276000  1.0
  H  H27  1  0.44665000  0.17681000  0.15725000  1.0
  H  H28  1  0.57947000  0.50134000  0.59265000  1.0
  H  H29  1  0.42051000  0.00135000  0.90735000  1.0
  H  H30  1  0.42043000  0.49860000  0.40733000  1.0
  H  H31  1  0.57950000  0.99867000  0.09266000  1.0
  H  H32  1  0.74798000  0.68395000  0.66333000  1.0
  H  H33  1  0.25201000  0.18396000  0.83667000  1.0
  H  H34  1  0.25193000  0.31600000  0.33663000  1.0
  H  H35  1  0.74800000  0.81605000  0.16334000  1.0
  H  H36  1  0.77254000  0.69909000  0.79956000  1.0
  H  H37  1  0.22747000  0.19909000  0.70044000  1.0
  H  H38  1  0.22744000  0.30089000  0.20040000  1.0
  H  H39  1  0.77252000  0.80092000  0.29957000  1.0
  H  H40  1  0.04029000  0.62991000  0.81456000  1.0
  H  H41  1  0.95972000  0.12991000  0.68543000  1.0
  H  H42  1  0.95970000  0.37009000  0.18544000  1.0
  H  H43  1  0.04031000  0.87008000  0.31457000  1.0
  H  H44  1  0.24229000  0.56044000  0.83556000  1.0
  H  H45  1  0.75771000  0.06044000  0.66444000  1.0
  H  H46  1  0.75770000  0.43958000  0.16444000  1.0
  H  H47  1  0.24230000  0.93957000  0.33557000  1.0
  H  H48  1  0.94801000  0.43218000  0.72680000  1.0
  H  H49  1  0.05199000  0.93219000  0.77320000  1.0
  H  H50  1  0.05197000  0.56783000  0.27319000  1.0
  H  H51  1  0.94803000  0.06782000  0.22681000  1.0
  H  H52  1  0.15170000  0.36685000  0.75011000  1.0
  H  H53  1  0.84832000  0.86685000  0.74990000  1.0
  H  H54  1  0.84829000  0.63316000  0.24989000  1.0
  H  H55  1  0.15170000  0.13315000  0.25011000  1.0
  H  H56  1  0.06226000  0.65089000  0.68346000  1.0
  H  H57  1  0.93777000  0.15089000  0.81655000  1.0
  H  H58  1  0.93774000  0.34911000  0.31654000  1.0
  H  H59  1  0.06226000  0.84911000  0.18346000  1.0
  H  H60  1  0.26264000  0.58168000  0.70378000  1.0
  H  H61  1  0.73738000  0.08170000  0.79622000  1.0
  H  H62  1  0.73737000  0.41833000  0.29623000  1.0
  H  H63  1  0.26265000  0.91832000  0.20379000  1.0
  C  C64  1  0.62371000  0.52017000  0.80292000  1.0
  C  C65  1  0.37630000  0.02018000  0.69708000  1.0
  C  C66  1  0.37630000  0.47980000  0.19707000  1.0
  C  C67  1  0.62369000  0.97983000  0.30293000  1.0
  C  C68  1  0.53471000  0.41239000  0.76391000  1.0
  C  C69  1  0.46529000  0.91241000  0.73609000  1.0
  C  C70  1  0.46530000  0.58756000  0.23608000  1.0
  C  C71  1  0.53471000  0.08762000  0.26392000  1.0
  C  C72  1  0.51878000  0.40556000  0.68815000  1.0
  C  C73  1  0.48122000  0.90557000  0.81185000  1.0
  C  C74  1  0.48119000  0.59439000  0.31185000  1.0
  C  C75  1  0.51880000  0.09446000  0.18816000  1.0
  C  C76  1  0.59270000  0.50492000  0.65195000  1.0
  C  C77  1  0.40729000  0.00493000  0.84805000  1.0
  C  C78  1  0.40724000  0.49503000  0.34804000  1.0
  C  C79  1  0.59271000  0.99510000  0.15195000  1.0
  C  C80  1  0.68558000  0.60988000  0.69162000  1.0
  C  C81  1  0.31442000  0.10989000  0.80838000  1.0
  C  C82  1  0.31436000  0.39008000  0.30835000  1.0
  C  C83  1  0.68558000  0.89013000  0.19163000  1.0
  C  C84  1  0.70056000  0.61812000  0.76747000  1.0
  C  C85  1  0.29943000  0.11813000  0.73252000  1.0
  C  C86  1  0.29940000  0.38184000  0.23249000  1.0
  C  C87  1  0.70056000  0.88188000  0.26749000  1.0
  C  C88  1  0.06892000  0.44976000  0.87836000  1.0
  C  C89  1  0.93107000  0.94975000  0.62164000  1.0
  C  C90  1  0.93108000  0.55024000  0.12164000  1.0
  C  C91  1  0.06892000  0.05023000  0.37836000  1.0
  C  C92  1  0.10953000  0.53346000  0.81771000  1.0
  C  C93  1  0.89048000  0.03346000  0.68229000  1.0
  C  C94  1  0.89047000  0.46654000  0.18229000  1.0
  C  C95  1  0.10954000  0.96653000  0.31772000  1.0
  C  C96  1  0.07965000  0.46161000  0.74439000  1.0
  C  C97  1  0.92036000  0.96161000  0.75561000  1.0
  C  C98  1  0.92034000  0.53840000  0.25561000  1.0
  C  C99  1  0.07966000  0.03839000  0.24440000  1.0
  C  C100  1  0.10199000  0.49422000  0.61220000  1.0
  C  C101  1  0.89803000  0.99423000  0.88781000  1.0
  C  C102  1  0.89803000  0.50578000  0.38781000  1.0
  C  C103  1  0.10199000  0.00578000  0.11220000  1.0
  C  C104  1  0.12979000  0.55355000  0.68782000  1.0
  C  C105  1  0.87023000  0.05357000  0.81218000  1.0
  C  C106  1  0.87021000  0.44645000  0.31218000  1.0
  C  C107  1  0.12980000  0.94645000  0.18783000  1.0
  S  S108  1  0.63895000  0.52752000  0.89941000  1.0
  S  S109  1  0.36105000  0.02752000  0.60059000  1.0
  S  S110  1  0.36107000  0.47248000  0.10058000  1.0
  S  S111  1  0.63894000  0.97249000  0.39941000  1.0
  O  O112  1  0.04035000  0.32329000  0.87116000  1.0
  O  O113  1  0.95967000  0.82328000  0.62885000  1.0
  O  O114  1  0.95966000  0.67671000  0.12884000  1.0
  O  O115  1  0.04033000  0.17670000  0.37116000  1.0
  O  O116  1  0.22108000  0.12940000  0.97787000  1.0
  O  O117  1  0.77891000  0.62941000  0.52213000  1.0
  O  O118  1  0.77890000  0.87059000  0.02212000  1.0
  O  O119  1  0.22109000  0.37059000  0.47788000  1.0
  O  O120  1  0.71525000  0.23593000  0.05049000  1.0
  O  O121  1  0.28477000  0.73591000  0.44952000  1.0
  O  O122  1  0.28476000  0.76408000  0.94951000  1.0
  O  O123  1  0.71524000  0.26407000  0.55049000  1.0
  O  O124  1  0.04167000  0.37541000  0.60034000  1.0
  O  O125  1  0.95834000  0.87543000  0.89966000  1.0
  O  O126  1  0.95834000  0.62459000  0.39966000  1.0
  O  O127  1  0.04170000  0.12460000  0.10035000  1.0
  O  O128  1  0.71284000  0.39576000  0.92645000  1.0
  O  O129  1  0.28718000  0.89576000  0.57355000  1.0
  O  O130  1  0.28716000  0.60424000  0.07354000  1.0
  O  O131  1  0.71283000  0.10424000  0.42646000  1.0
  O  O132  1  0.47049000  0.54473000  0.91188000  1.0
  O  O133  1  0.52951000  0.04473000  0.58812000  1.0
  O  O134  1  0.52953000  0.45530000  0.08810000  1.0
  O  O135  1  0.47050000  0.95529000  0.41190000  1.0
  O  O136  1  0.74593000  0.64628000  0.92613000  1.0
  O  O137  1  0.25408000  0.14627000  0.57387000  1.0
  O  O138  1  0.25410000  0.35372000  0.07384000  1.0
  O  O139  1  0.74592000  0.85373000  0.42614000  1.0
  O  O140  1  0.06548000  0.50761000  0.93981000  1.0
  O  O141  1  0.93449000  0.00758000  0.56018000  1.0
  O  O142  1  0.93454000  0.49240000  0.06019000  1.0
  O  O143  1  0.06550000  0.99239000  0.43982000  1.0
  O  O144  1  0.14447000  0.56781000  0.56200000  1.0
  O  O145  1  0.85552000  0.06781000  0.93800000  1.0
  O  O146  1  0.85556000  0.43220000  0.43801000  1.0
  O  O147  1  0.14447000  0.93220000  0.06200000  1.0
