# generated using pymatgen
data_CdH18C18N4O5
_symmetry_space_group_name_H-M   'P 1'
_cell_length_a   9.10727000
_cell_length_b   10.50820000
_cell_length_c   11.57660000
_cell_angle_alpha   88.72820000
_cell_angle_beta   68.10870000
_cell_angle_gamma   68.20570000
_symmetry_Int_Tables_number   1
_chemical_formula_structural   CdH18C18N4O5
_chemical_formula_sum   'Cd2 H36 C36 N8 O10'
_cell_volume   945.80014627
_cell_formula_units_Z   2
loop_
 _symmetry_equiv_pos_site_id
 _symmetry_equiv_pos_as_xyz
  1  'x, y, z'
loop_
 _atom_site_type_symbol
 _atom_site_label
 _atom_site_symmetry_multiplicity
 _atom_site_fract_x
 _atom_site_fract_y
 _atom_site_fract_z
 _atom_site_occupancy
  Cd  Cd0  1  0.86595000  0.66513000  0.14313000  1.0
  Cd  Cd1  1  0.13406000  0.33487000  0.85687000  1.0
  H  H2  1  0.89907000  0.15954000  0.09864000  1.0
  H  H3  1  0.10093000  0.84046000  0.90135000  1.0
  H  H4  1  0.09206000  0.87840000  0.33326000  1.0
  H  H5  1  0.90793000  0.12161000  0.66674000  1.0
  H  H6  1  0.11122000  0.28360000  0.32929000  1.0
  H  H7  1  0.88877000  0.71640000  0.67070000  1.0
  H  H8  1  0.11804000  0.23212000  0.52448000  1.0
  H  H9  1  0.88196000  0.76788000  0.47552000  1.0
  H  H10  1  0.27698000  0.08377000  0.54778000  1.0
  H  H11  1  0.72302000  0.91622000  0.45222000  1.0
  H  H12  1  0.33048000  0.15357000  0.40241000  1.0
  H  H13  1  0.66952000  0.84643000  0.59759000  1.0
  H  H14  1  0.52771000  0.94102000  0.12105000  1.0
  H  H15  1  0.47229000  0.05897000  0.87896000  1.0
  H  H16  1  0.32825000  0.91319000  0.99627000  1.0
  H  H17  1  0.67174000  0.08681000  0.00375000  1.0
  H  H18  1  0.72392000  0.52472000  0.96482000  1.0
  H  H19  1  0.27609000  0.47528000  0.03517000  1.0
  H  H20  1  0.31739000  0.66149000  0.92527000  1.0
  H  H21  1  0.68261000  0.33851000  0.07473000  1.0
  H  H22  1  0.52395000  0.52531000  0.87127000  1.0
  H  H23  1  0.47605000  0.47469000  0.12873000  1.0
  H  H24  1  0.42199000  0.79733000  0.75997000  1.0
  H  H25  1  0.57800000  0.20267000  0.24004000  1.0
  H  H26  1  0.63765000  0.67473000  0.71559000  1.0
  H  H27  1  0.36235000  0.32528000  0.28441000  1.0
  H  H28  1  0.56351000  0.49285000  0.64457000  1.0
  H  H29  1  0.43649000  0.50715000  0.35543000  1.0
  H  H30  1  0.34557000  0.60810000  0.69655000  1.0
  H  H31  1  0.65443000  0.39190000  0.30345000  1.0
  H  H32  1  0.78398000  0.53375000  0.43815000  1.0
  H  H33  1  0.21602000  0.46625000  0.56186000  1.0
  H  H34  1  0.43357000  0.84304000  0.32432000  1.0
  H  H35  1  0.56644000  0.15697000  0.67568000  1.0
  H  H36  1  0.25821000  0.80426000  0.56753000  1.0
  H  H37  1  0.74179000  0.19575000  0.43247000  1.0
  C  C38  1  0.00566000  0.23309000  0.20801000  1.0
  C  C39  1  0.99434000  0.76691000  0.79198000  1.0
  C  C40  1  0.95770000  0.13644000  0.16706000  1.0
  C  C41  1  0.04229000  0.86357000  0.83293000  1.0
  C  C42  1  0.98699000  0.00888000  0.21362000  1.0
  C  C43  1  0.01300000  0.99113000  0.78637000  1.0
  C  C44  1  0.06617000  0.97836000  0.29896000  1.0
  C  C45  1  0.93381000  0.02164000  0.70104000  1.0
  C  C46  1  0.10905000  0.07709000  0.34333000  1.0
  C  C47  1  0.89094000  0.92291000  0.65667000  1.0
  C  C48  1  0.07964000  0.20432000  0.29761000  1.0
  C  C49  1  0.92036000  0.79569000  0.70239000  1.0
  C  C50  1  0.97204000  0.37181000  0.16231000  1.0
  C  C51  1  0.02796000  0.62819000  0.83769000  1.0
  C  C52  1  0.92709000  0.90582000  0.17773000  1.0
  C  C53  1  0.07291000  0.09418000  0.82226000  1.0
  C  C54  1  0.22801000  0.13389000  0.47830000  1.0
  C  C55  1  0.77199000  0.86611000  0.52170000  1.0
  C  C56  1  0.53665000  0.85027000  0.07176000  1.0
  C  C57  1  0.46334000  0.14972000  0.92825000  1.0
  C  C58  1  0.43778000  0.83826000  0.01064000  1.0
  C  C59  1  0.56221000  0.16173000  0.98937000  1.0
  C  C60  1  0.64275000  0.63359000  0.99363000  1.0
  C  C61  1  0.35726000  0.36641000  0.00636000  1.0
  C  C62  1  0.45592000  0.63787000  0.88022000  1.0
  C  C63  1  0.54408000  0.36213000  0.11978000  1.0
  C  C64  1  0.50243000  0.68684000  0.75125000  1.0
  C  C65  1  0.49757000  0.31317000  0.24876000  1.0
  C  C66  1  0.47773000  0.60261000  0.65960000  1.0
  C  C67  1  0.52227000  0.39739000  0.34040000  1.0
  C  C68  1  0.66647000  0.61400000  0.43929000  1.0
  C  C69  1  0.33354000  0.38600000  0.56071000  1.0
  C  C70  1  0.48132000  0.77332000  0.38404000  1.0
  C  C71  1  0.51868000  0.22668000  0.61596000  1.0
  C  C72  1  0.39200000  0.75482000  0.50408000  1.0
  C  C73  1  0.60801000  0.24518000  0.49592000  1.0
  N  N74  1  0.66361000  0.72186000  0.06058000  1.0
  N  N75  1  0.33640000  0.27814000  0.93942000  1.0
  N  N76  1  0.50693000  0.70014000  0.96197000  1.0
  N  N77  1  0.49307000  0.29985000  0.03803000  1.0
  N  N78  1  0.51127000  0.65268000  0.53755000  1.0
  N  N79  1  0.48874000  0.34732000  0.46245000  1.0
  N  N80  1  0.65179000  0.68553000  0.34492000  1.0
  N  N81  1  0.34822000  0.31447000  0.65508000  1.0
  O  O82  1  0.00089000  0.46083000  0.21414000  1.0
  O  O83  1  0.99911000  0.53917000  0.78586000  1.0
  O  O84  1  0.91207000  0.39721000  0.07661000  1.0
  O  O85  1  0.08793000  0.60279000  0.92339000  1.0
  O  O86  1  0.79430000  0.94878000  0.15320000  1.0
  O  O87  1  0.20570000  0.05121000  0.84680000  1.0
  O  O88  1  0.01516000  0.77749000  0.17872000  1.0
  O  O89  1  0.98485000  0.22250000  0.82127000  1.0
  O  O90  1  0.17752000  0.03927000  0.43157000  1.0
  O  O91  1  0.82247000  0.96073000  0.56844000  1.0
