# generated using pymatgen
data_CdH14C12NO7
_symmetry_space_group_name_H-M   'P 1'
_cell_length_a   9.79525000
_cell_length_b   13.07890000
_cell_length_c   13.07900000
_cell_angle_alpha   90.39880000
_cell_angle_beta   91.66110000
_cell_angle_gamma   91.66280000
_symmetry_Int_Tables_number   1
_chemical_formula_structural   CdH14C12NO7
_chemical_formula_sum   'Cd4 H56 C48 N4 O28'
_cell_volume   1674.10459409
_cell_formula_units_Z   4
loop_
 _symmetry_equiv_pos_site_id
 _symmetry_equiv_pos_as_xyz
  1  'x, y, z'
loop_
 _atom_site_type_symbol
 _atom_site_label
 _atom_site_symmetry_multiplicity
 _atom_site_fract_x
 _atom_site_fract_y
 _atom_site_fract_z
 _atom_site_occupancy
  Cd  Cd0  1  0.08807000  0.34095000  0.26300000  1.0
  Cd  Cd1  1  0.41191000  0.73701000  0.65905000  1.0
  Cd  Cd2  1  0.91192000  0.65905000  0.73701000  1.0
  Cd  Cd3  1  0.58809000  0.26299000  0.34095000  1.0
  H  H4  1  0.83047000  0.93387000  0.77560000  1.0
  H  H5  1  0.66953000  0.22441000  0.06613000  1.0
  H  H6  1  0.16953000  0.06613000  0.22441000  1.0
  H  H7  1  0.33046000  0.77559000  0.93387000  1.0
  H  H8  1  0.71946000  0.01637000  0.83761000  1.0
  H  H9  1  0.78054000  0.16240000  0.98363000  1.0
  H  H10  1  0.28054000  0.98364000  0.16239000  1.0
  H  H11  1  0.21946000  0.83760000  0.01637000  1.0
  H  H12  1  0.83254000  0.85915000  0.95597000  1.0
  H  H13  1  0.66746000  0.04404000  0.14085000  1.0
  H  H14  1  0.16746000  0.14086000  0.04403000  1.0
  H  H15  1  0.33254000  0.95595000  0.85914000  1.0
  H  H16  1  0.86421000  0.20193000  0.21891000  1.0
  H  H17  1  0.63580000  0.78108000  0.79807000  1.0
  H  H18  1  0.13580000  0.79807000  0.78108000  1.0
  H  H19  1  0.36421000  0.21892000  0.20193000  1.0
  H  H20  1  0.84596000  0.29869000  0.15415000  1.0
  H  H21  1  0.65404000  0.84584000  0.70131000  1.0
  H  H22  1  0.15404000  0.70132000  0.84585000  1.0
  H  H23  1  0.34596000  0.15415000  0.29869000  1.0
  H  H24  1  0.84042000  0.44703000  0.23966000  1.0
  H  H25  1  0.65956000  0.76034000  0.55296000  1.0
  H  H26  1  0.15957000  0.55297000  0.76034000  1.0
  H  H27  1  0.34043000  0.23967000  0.44703000  1.0
  H  H28  1  0.96328000  0.52499000  0.22215000  1.0
  H  H29  1  0.53671000  0.77784000  0.47500000  1.0
  H  H30  1  0.03672000  0.47500000  0.77784000  1.0
  H  H31  1  0.46328000  0.22215000  0.52500000  1.0
  H  H32  1  0.34131000  0.44396000  0.31349000  1.0
  H  H33  1  0.15868000  0.68652000  0.55605000  1.0
  H  H34  1  0.65868000  0.55604000  0.68651000  1.0
  H  H35  1  0.84132000  0.31349000  0.44396000  1.0
  H  H36  1  0.27255000  0.42691000  0.41782000  1.0
  H  H37  1  0.22744000  0.58219000  0.57309000  1.0
  H  H38  1  0.72745000  0.57309000  0.58218000  1.0
  H  H39  1  0.77255000  0.41782000  0.42690000  1.0
  H  H40  1  0.02391000  0.14958000  0.88544000  1.0
  H  H41  1  0.47609000  0.11456000  0.85042000  1.0
  H  H42  1  0.97609000  0.85043000  0.11457000  1.0
  H  H43  1  0.52391000  0.88544000  0.14957000  1.0
  H  H44  1  0.25449000  0.05273000  0.48270000  1.0
  H  H45  1  0.24552000  0.51730000  0.94728000  1.0
  H  H46  1  0.74552000  0.94727000  0.51729000  1.0
  H  H47  1  0.75448000  0.48270000  0.05273000  1.0
  H  H48  1  0.05677000  0.95557000  0.75527000  1.0
  H  H49  1  0.44322000  0.24473000  0.04443000  1.0
  H  H50  1  0.94324000  0.04443000  0.24474000  1.0
  H  H51  1  0.55677000  0.75525000  0.95557000  1.0
  H  H52  1  0.89872000  0.20880000  0.58283000  1.0
  H  H53  1  0.60129000  0.41717000  0.79119000  1.0
  H  H54  1  0.10130000  0.79119000  0.41717000  1.0
  H  H55  1  0.39870000  0.58283000  0.20882000  1.0
  H  H56  1  0.77641000  0.13037000  0.71836000  1.0
  H  H57  1  0.72360000  0.28164000  0.86963000  1.0
  H  H58  1  0.22362000  0.86963000  0.28164000  1.0
  H  H59  1  0.27639000  0.71836000  0.13038000  1.0
  C  C60  1  0.09026000  0.20985000  0.43676000  1.0
  C  C61  1  0.40976000  0.56324000  0.79014000  1.0
  C  C62  1  0.90974000  0.79015000  0.56324000  1.0
  C  C63  1  0.59024000  0.43677000  0.20987000  1.0
  C  C64  1  0.82589000  0.00867000  0.81512000  1.0
  C  C65  1  0.67411000  0.18487000  0.99133000  1.0
  C  C66  1  0.17411000  0.99134000  0.18488000  1.0
  C  C67  1  0.32589000  0.81512000  0.00867000  1.0
  C  C68  1  0.90539000  0.92146000  0.97535000  1.0
  C  C69  1  0.59460000  0.02466000  0.07854000  1.0
  C  C70  1  0.09461000  0.07855000  0.02466000  1.0
  C  C71  1  0.40540000  0.97534000  0.92145000  1.0
  C  C72  1  0.01313000  0.08389000  0.93582000  1.0
  C  C73  1  0.48687000  0.06417000  0.91611000  1.0
  C  C74  1  0.98687000  0.91612000  0.06418000  1.0
  C  C75  1  0.51312000  0.93582000  0.08388000  1.0
  C  C76  1  0.08002000  0.14059000  0.52592000  1.0
  C  C77  1  0.42000000  0.47409000  0.85941000  1.0
  C  C78  1  0.92000000  0.85942000  0.47409000  1.0
  C  C79  1  0.57998000  0.52590000  0.14059000  1.0
  C  C80  1  0.91749000  0.00558000  0.91034000  1.0
  C  C81  1  0.58251000  0.08966000  0.99442000  1.0
  C  C82  1  0.08252000  0.99442000  0.08966000  1.0
  C  C83  1  0.41749000  0.91033000  0.00558000  1.0
  C  C84  1  0.17539000  0.06343000  0.53804000  1.0
  C  C85  1  0.32462000  0.46197000  0.93657000  1.0
  C  C86  1  0.82462000  0.93656000  0.46196000  1.0
  C  C87  1  0.67538000  0.53804000  0.06344000  1.0
  C  C88  1  0.06154000  0.00738000  0.69076000  1.0
  C  C89  1  0.43846000  0.30923000  0.99261000  1.0
  C  C90  1  0.93848000  0.99261000  0.30924000  1.0
  C  C91  1  0.56153000  0.69076000  0.00740000  1.0
  C  C92  1  0.26052000  0.91004000  0.62996000  1.0
  C  C93  1  0.23949000  0.37005000  0.08998000  1.0
  C  C94  1  0.73950000  0.08997000  0.37003000  1.0
  C  C95  1  0.76051000  0.62996000  0.91003000  1.0
  C  C96  1  0.16511000  0.99679000  0.62048000  1.0
  C  C97  1  0.33489000  0.37952000  0.00322000  1.0
  C  C98  1  0.83488000  0.00319000  0.37950000  1.0
  C  C99  1  0.66511000  0.62048000  0.99680000  1.0
  C  C100  1  0.97451000  0.15020000  0.59476000  1.0
  C  C101  1  0.52549000  0.40523000  0.84978000  1.0
  C  C102  1  0.02552000  0.84980000  0.40525000  1.0
  C  C103  1  0.47448000  0.59475000  0.15021000  1.0
  C  C104  1  0.96325000  0.08311000  0.67792000  1.0
  C  C105  1  0.53674000  0.32208000  0.91689000  1.0
  C  C106  1  0.03677000  0.91689000  0.32208000  1.0
  C  C107  1  0.46324000  0.67791000  0.08312000  1.0
  N  N108  1  0.85768000  0.09129000  0.74516000  1.0
  N  N109  1  0.64232000  0.25484000  0.90870000  1.0
  N  N110  1  0.14234000  0.90871000  0.25484000  1.0
  N  N111  1  0.35766000  0.74515000  0.09130000  1.0
  O  O112  1  0.19580000  0.20661000  0.38087000  1.0
  O  O113  1  0.30421000  0.61912000  0.79339000  1.0
  O  O114  1  0.80419000  0.79338000  0.61911000  1.0
  O  O115  1  0.69579000  0.38088000  0.20662000  1.0
  O  O116  1  0.91583000  0.24953000  0.17298000  1.0
  O  O117  1  0.58417000  0.82701000  0.75047000  1.0
  O  O118  1  0.08417000  0.75047000  0.82701000  1.0
  O  O119  1  0.41583000  0.17299000  0.24953000  1.0
  O  O120  1  0.92829000  0.47542000  0.27086000  1.0
  O  O121  1  0.57170000  0.72913000  0.52457000  1.0
  O  O122  1  0.07171000  0.52458000  0.72913000  1.0
  O  O123  1  0.42830000  0.27086000  0.47541000  1.0
  O  O124  1  0.99621000  0.27280000  0.41542000  1.0
  O  O125  1  0.50380000  0.58458000  0.72719000  1.0
  O  O126  1  0.00380000  0.72720000  0.58458000  1.0
  O  O127  1  0.49620000  0.41542000  0.27282000  1.0
  O  O128  1  0.34401000  0.89249000  0.56049000  1.0
  O  O129  1  0.15600000  0.43951000  0.10752000  1.0
  O  O130  1  0.65601000  0.10751000  0.43950000  1.0
  O  O131  1  0.84400000  0.56049000  0.89250000  1.0
  O  O132  1  0.25246000  0.45025000  0.34861000  1.0
  O  O133  1  0.24753000  0.65141000  0.54976000  1.0
  O  O134  1  0.74754000  0.54976000  0.65140000  1.0
  O  O135  1  0.75246000  0.34861000  0.45024000  1.0
  O  O136  1  0.25293000  0.85274000  0.71013000  1.0
  O  O137  1  0.24709000  0.28988000  0.14728000  1.0
  O  O138  1  0.74709000  0.14727000  0.28986000  1.0
  O  O139  1  0.75291000  0.71013000  0.85274000  1.0
