# generated using pymatgen
data_H10Pt(C6S)2
_symmetry_space_group_name_H-M   'P 1'
_cell_length_a   7.12466000
_cell_length_b   13.65450000
_cell_length_c   13.65487342
_cell_angle_alpha   86.11694041
_cell_angle_beta   74.87440205
_cell_angle_gamma   74.87910000
_symmetry_Int_Tables_number   1
_chemical_formula_structural   H10Pt(C6S)2
_chemical_formula_sum   'H40 Pt4 C48 S8'
_cell_volume   1237.97636317
_cell_formula_units_Z   4
loop_
 _symmetry_equiv_pos_site_id
 _symmetry_equiv_pos_as_xyz
  1  'x, y, z'
loop_
 _atom_site_type_symbol
 _atom_site_label
 _atom_site_symmetry_multiplicity
 _atom_site_fract_x
 _atom_site_fract_y
 _atom_site_fract_z
 _atom_site_occupancy
  H  H0  1  0.43303000  0.77472000  0.02483000  1.0
  H  H1  1  0.20607000  0.47524000  0.27434000  1.0
  H  H2  1  0.23116000  0.22609000  0.97534000  1.0
  H  H3  1  0.95617000  0.52501000  0.72557000  1.0
  H  H4  1  0.93261000  0.02466000  0.77391000  1.0
  H  H5  1  0.45564000  0.72567000  0.52476000  1.0
  H  H6  1  0.73260000  0.97516000  0.22527000  1.0
  H  H7  1  0.70675000  0.27442000  0.47499000  1.0
  H  H8  1  0.54285000  0.58806000  0.99790000  1.0
  H  H9  1  0.28961000  0.50271000  0.08778000  1.0
  H  H10  1  0.12683000  0.41267000  0.00286000  1.0
  H  H11  1  0.88074000  0.49745000  0.91214000  1.0
  H  H12  1  0.04235000  0.99713000  0.58734000  1.0
  H  H13  1  0.38010000  0.91223000  0.49728000  1.0
  H  H14  1  0.62881000  0.00211000  0.41194000  1.0
  H  H15  1  0.79032000  0.08785000  0.50255000  1.0
  H  H16  1  0.45931000  0.51085000  0.85926000  1.0
  H  H17  1  0.06813000  0.64201000  0.01090000  1.0
  H  H18  1  0.82785000  0.48931000  0.14202000  1.0
  H  H19  1  0.72151000  0.35818000  0.98904000  1.0
  H  H20  1  0.95919000  0.85798000  0.51069000  1.0
  H  H21  1  0.22104000  0.98910000  0.35798000  1.0
  H  H22  1  0.32941000  0.14075000  0.48914000  1.0
  H  H23  1  0.56872000  0.01095000  0.64182000  1.0
  H  H24  1  0.27642000  0.62143000  0.74408000  1.0
  H  H25  1  0.76984000  0.75692000  0.12168000  1.0
  H  H26  1  0.64147000  0.37819000  0.25707000  1.0
  H  H27  1  0.64858000  0.24341000  0.87824000  1.0
  H  H28  1  0.77673000  0.74293000  0.62181000  1.0
  H  H29  1  0.14847000  0.87832000  0.24307000  1.0
  H  H30  1  0.14192000  0.25593000  0.37856000  1.0
  H  H31  1  0.27023000  0.12176000  0.75659000  1.0
  H  H32  1  0.18150000  0.80877000  0.76588000  1.0
  H  H33  1  0.69608000  0.73454000  0.30899000  1.0
  H  H34  1  0.75627000  0.19091000  0.23465000  1.0
  H  H35  1  0.73938000  0.26594000  0.69097000  1.0
  H  H36  1  0.68182000  0.76535000  0.80910000  1.0
  H  H37  1  0.23963000  0.69101000  0.26546000  1.0
  H  H38  1  0.25615000  0.23412000  0.19122000  1.0
  H  H39  1  0.19629000  0.30903000  0.73407000  1.0
  Pt  Pt40  1  0.90475000  0.00017000  0.99979000  1.0
  Pt  Pt41  1  0.65367000  0.50016000  0.49991000  1.0
  Pt  Pt42  1  0.40471000  0.00021000  0.99983000  1.0
  Pt  Pt43  1  0.15374000  0.50009000  0.49984000  1.0
  C  C44  1  0.29779000  0.80269000  0.89800000  1.0
  C  C45  1  0.94442000  0.60226000  0.30257000  1.0
  C  C46  1  0.99782000  0.19758000  0.10229000  1.0
  C  C47  1  0.84940000  0.39807000  0.69736000  1.0
  C  C48  1  0.79770000  0.89771000  0.80242000  1.0
  C  C49  1  0.34925000  0.69743000  0.39775000  1.0
  C  C50  1  0.49848000  0.10200000  0.19730000  1.0
  C  C51  1  0.44483000  0.30264000  0.60193000  1.0
  C  C52  1  0.39975000  0.74063000  0.96351000  1.0
  C  C53  1  0.11173000  0.53675000  0.24036000  1.0
  C  C54  1  0.10266000  0.25993000  0.03688000  1.0
  C  C55  1  0.88932000  0.46350000  0.75955000  1.0
  C  C56  1  0.89948000  0.96311000  0.74008000  1.0
  C  C57  1  0.38882000  0.75964000  0.46325000  1.0
  C  C58  1  0.60388000  0.03649000  0.25937000  1.0
  C  C59  1  0.61237000  0.24044000  0.53650000  1.0
  C  C60  1  0.46068000  0.63605000  0.94783000  1.0
  C  C61  1  0.15733000  0.55274000  0.13584000  1.0
  C  C62  1  0.04305000  0.36445000  0.05286000  1.0
  C  C63  1  0.84653000  0.44744000  0.86407000  1.0
  C  C64  1  0.96036000  0.94713000  0.63555000  1.0
  C  C65  1  0.34591000  0.86417000  0.44726000  1.0
  C  C66  1  0.54456000  0.05219000  0.36394000  1.0
  C  C67  1  0.65803000  0.13592000  0.55256000  1.0
  C  C68  1  0.41386000  0.59271000  0.87023000  1.0
  C  C69  1  0.03337000  0.63065000  0.09269000  1.0
  C  C70  1  0.87554000  0.40749000  0.13074000  1.0
  C  C71  1  0.75721000  0.36952000  0.90724000  1.0
  C  C72  1  0.91377000  0.86926000  0.59251000  1.0
  C  C73  1  0.25672000  0.90731000  0.36934000  1.0
  C  C74  1  0.37680000  0.12978000  0.40729000  1.0
  C  C75  1  0.53397000  0.09276000  0.63048000  1.0
  C  C76  1  0.31038000  0.65479000  0.80574000  1.0
  C  C77  1  0.86521000  0.69500000  0.15491000  1.0
  C  C78  1  0.77027000  0.34512000  0.19516000  1.0
  C  C79  1  0.71536000  0.30528000  0.84504000  1.0
  C  C80  1  0.81054000  0.80483000  0.65489000  1.0
  C  C81  1  0.21513000  0.84509000  0.30499000  1.0
  C  C82  1  0.27090000  0.19426000  0.34521000  1.0
  C  C83  1  0.36566000  0.15495000  0.69473000  1.0
  C  C84  1  0.25528000  0.75981000  0.81831000  1.0
  C  C85  1  0.82231000  0.68216000  0.25990000  1.0
  C  C86  1  0.83306000  0.24012000  0.18230000  1.0
  C  C87  1  0.76442000  0.31821000  0.74006000  1.0
  C  C88  1  0.75549000  0.81770000  0.75988000  1.0
  C  C89  1  0.26437000  0.74011000  0.31784000  1.0
  C  C90  1  0.33340000  0.18170000  0.24019000  1.0
  C  C91  1  0.32268000  0.25994000  0.68180000  1.0
  S  S92  1  0.23420000  0.93735000  0.90479000  1.0
  S  S93  1  0.88795000  0.59522000  0.43724000  1.0
  S  S94  1  0.07620000  0.06293000  0.09493000  1.0
  S  S95  1  0.92026000  0.40512000  0.56270000  1.0
  S  S96  1  0.73407000  0.90507000  0.93707000  1.0
  S  S97  1  0.42040000  0.56276000  0.40478000  1.0
  S  S98  1  0.57633000  0.09521000  0.06264000  1.0
  S  S99  1  0.38808000  0.43730000  0.59488000  1.0
