# generated using pymatgen
data_Ag2H16C10N4O5
_symmetry_space_group_name_H-M   'P 1'
_cell_length_a   6.21984000
_cell_length_b   11.64840000
_cell_length_c   21.99800000
_cell_angle_alpha   90.00000000
_cell_angle_beta   97.77970000
_cell_angle_gamma   90.00000000
_symmetry_Int_Tables_number   1
_chemical_formula_structural   Ag2H16C10N4O5
_chemical_formula_sum   'Ag8 H64 C40 N16 O20'
_cell_volume   1579.11177050
_cell_formula_units_Z   4
loop_
 _symmetry_equiv_pos_site_id
 _symmetry_equiv_pos_as_xyz
  1  'x, y, z'
loop_
 _atom_site_type_symbol
 _atom_site_label
 _atom_site_symmetry_multiplicity
 _atom_site_fract_x
 _atom_site_fract_y
 _atom_site_fract_z
 _atom_site_occupancy
  Ag  Ag0  1  0.07812000  0.62390000  0.71309000  1.0
  Ag  Ag1  1  0.92188000  0.12390000  0.78691000  1.0
  Ag  Ag2  1  0.92189000  0.37610000  0.28691000  1.0
  Ag  Ag3  1  0.07811000  0.87610000  0.21309000  1.0
  Ag  Ag4  1  0.58791000  0.48223000  0.94758000  1.0
  Ag  Ag5  1  0.41209000  0.98224000  0.55242000  1.0
  Ag  Ag6  1  0.41208000  0.51776000  0.05242000  1.0
  Ag  Ag7  1  0.58791000  0.01777000  0.44757000  1.0
  H  H8  1  0.08911000  0.54517000  0.93652000  1.0
  H  H9  1  0.91090000  0.04517000  0.56348000  1.0
  H  H10  1  0.91088000  0.45482000  0.06348000  1.0
  H  H11  1  0.08910000  0.95482000  0.43652000  1.0
  H  H12  1  0.05298000  0.39741000  0.95586000  1.0
  H  H13  1  0.94703000  0.89741000  0.54414000  1.0
  H  H14  1  0.94701000  0.60258000  0.04414000  1.0
  H  H15  1  0.05297000  0.10258000  0.45586000  1.0
  H  H16  1  0.32418000  0.27694000  0.83491000  1.0
  H  H17  1  0.67582000  0.77694000  0.66509000  1.0
  H  H18  1  0.67581000  0.72306000  0.16509000  1.0
  H  H19  1  0.32418000  0.22306000  0.33491000  1.0
  H  H20  1  0.18489000  0.24978000  0.89925000  1.0
  H  H21  1  0.81511000  0.74978000  0.60075000  1.0
  H  H22  1  0.81509000  0.75022000  0.10075000  1.0
  H  H23  1  0.18488000  0.25022000  0.39925000  1.0
  H  H24  1  0.79954000  0.27999000  0.89194000  1.0
  H  H25  1  0.20046000  0.78000000  0.60806000  1.0
  H  H26  1  0.20044000  0.72000000  0.10805000  1.0
  H  H27  1  0.79954000  0.22000000  0.39194000  1.0
  H  H28  1  0.65519000  0.33654000  0.82242000  1.0
  H  H29  1  0.34481000  0.83654000  0.67758000  1.0
  H  H30  1  0.34479000  0.66346000  0.17758000  1.0
  H  H31  1  0.65519000  0.16346000  0.32242000  1.0
  H  H32  1  0.27828000  0.59079000  0.84904000  1.0
  H  H33  1  0.72172000  0.09080000  0.65096000  1.0
  H  H34  1  0.72171000  0.40920000  0.15097000  1.0
  H  H35  1  0.27828000  0.90920000  0.34903000  1.0
  H  H36  1  0.36912000  0.47642000  0.80462000  1.0
  H  H37  1  0.63089000  0.97642000  0.69538000  1.0
  H  H38  1  0.63087000  0.52358000  0.19538000  1.0
  H  H39  1  0.36911000  0.02358000  0.30462000  1.0
  H  H40  1  0.83503000  0.38189000  0.73767000  1.0
  H  H41  1  0.16498000  0.88189000  0.76233000  1.0
  H  H42  1  0.16496000  0.61812000  0.26233000  1.0
  H  H43  1  0.83503000  0.11811000  0.23767000  1.0
  H  H44  1  0.12188000  0.36089000  0.74055000  1.0
  H  H45  1  0.87813000  0.86089000  0.75945000  1.0
  H  H46  1  0.87811000  0.63912000  0.25945000  1.0
  H  H47  1  0.12188000  0.13912000  0.24055000  1.0
  H  H48  1  0.70333000  0.53912000  0.79599000  1.0
  H  H49  1  0.29668000  0.03912000  0.70401000  1.0
  H  H50  1  0.29667000  0.46088000  0.20401000  1.0
  H  H51  1  0.70332000  0.96088000  0.29599000  1.0
  H  H52  1  0.89079000  0.62366000  0.84552000  1.0
  H  H53  1  0.10921000  0.12366000  0.65448000  1.0
  H  H54  1  0.10920000  0.37634000  0.15448000  1.0
  H  H55  1  0.89079000  0.87634000  0.34551000  1.0
  H  H56  1  0.79108000  0.50891000  0.64675000  1.0
  H  H57  1  0.20894000  0.00890000  0.85325000  1.0
  H  H58  1  0.20892000  0.49111000  0.35325000  1.0
  H  H59  1  0.79107000  0.99110000  0.14675000  1.0
  H  H60  1  0.59805000  0.55173000  0.58356000  1.0
  H  H61  1  0.40198000  0.05173000  0.91644000  1.0
  H  H62  1  0.40196000  0.44827000  0.41644000  1.0
  H  H63  1  0.59803000  0.94827000  0.08356000  1.0
  H  H64  1  0.64941000  0.40400000  0.51845000  1.0
  H  H65  1  0.35060000  0.90399000  0.98155000  1.0
  H  H66  1  0.35060000  0.59601000  0.48156000  1.0
  H  H67  1  0.64941000  0.09600000  0.01845000  1.0
  H  H68  1  0.86871000  0.34790000  0.57008000  1.0
  H  H69  1  0.13132000  0.84790000  0.92991000  1.0
  H  H70  1  0.13131000  0.65210000  0.42992000  1.0
  H  H71  1  0.86869000  0.15210000  0.07009000  1.0
  C  C72  1  0.05931000  0.45824000  0.91799000  1.0
  C  C73  1  0.94070000  0.95824000  0.58201000  1.0
  C  C74  1  0.94070000  0.54175000  0.08202000  1.0
  C  C75  1  0.05929000  0.04175000  0.41798000  1.0
  C  C76  1  0.19533000  0.30776000  0.86033000  1.0
  C  C77  1  0.80468000  0.80776000  0.63967000  1.0
  C  C78  1  0.80466000  0.69224000  0.13966000  1.0
  C  C79  1  0.19533000  0.19224000  0.36034000  1.0
  C  C80  1  0.80860000  0.33920000  0.85361000  1.0
  C  C81  1  0.19140000  0.83920000  0.64640000  1.0
  C  C82  1  0.19139000  0.66080000  0.14639000  1.0
  C  C83  1  0.80860000  0.16080000  0.35361000  1.0
  C  C84  1  0.24217000  0.50358000  0.83171000  1.0
  C  C85  1  0.75782000  0.00358000  0.66829000  1.0
  C  C86  1  0.75782000  0.49642000  0.16829000  1.0
  C  C87  1  0.24217000  0.99642000  0.33170000  1.0
  C  C88  1  0.99198000  0.38464000  0.76734000  1.0
  C  C89  1  0.00803000  0.88464000  0.73266000  1.0
  C  C90  1  0.00801000  0.61536000  0.23266000  1.0
  C  C91  1  0.99197000  0.11536000  0.26734000  1.0
  C  C92  1  0.85752000  0.53701000  0.82685000  1.0
  C  C93  1  0.14249000  0.03701000  0.67315000  1.0
  C  C94  1  0.14248000  0.46299000  0.17315000  1.0
  C  C95  1  0.85751000  0.96299000  0.32685000  1.0
  C  C96  1  0.62347000  0.22415000  0.53702000  1.0
  C  C97  1  0.37654000  0.72414000  0.96298000  1.0
  C  C98  1  0.37654000  0.77586000  0.46298000  1.0
  C  C99  1  0.62345000  0.27585000  0.03702000  1.0
  C  C100  1  0.68988000  0.34549000  0.55814000  1.0
  C  C101  1  0.31014000  0.84548000  0.94186000  1.0
  C  C102  1  0.31014000  0.65452000  0.44186000  1.0
  C  C103  1  0.68986000  0.15451000  0.05814000  1.0
  C  C104  1  0.62135000  0.49536000  0.62469000  1.0
  C  C105  1  0.37868000  0.99536000  0.87531000  1.0
  C  C106  1  0.37866000  0.50464000  0.37531000  1.0
  C  C107  1  0.62133000  0.00464000  0.12469000  1.0
  C  C108  1  0.46266000  0.53769000  0.66750000  1.0
  C  C109  1  0.53737000  0.03768000  0.83250000  1.0
  C  C110  1  0.53734000  0.46232000  0.33250000  1.0
  C  C111  1  0.46265000  0.96231000  0.16750000  1.0
  N  N112  1  0.84764000  0.45622000  0.87795000  1.0
  N  N113  1  0.15237000  0.95622000  0.62205000  1.0
  N  N114  1  0.15236000  0.54378000  0.12205000  1.0
  N  N115  1  0.84763000  0.04378000  0.37794000  1.0
  N  N116  1  0.23758000  0.42474000  0.88367000  1.0
  N  N117  1  0.76242000  0.92474000  0.61633000  1.0
  N  N118  1  0.76241000  0.57526000  0.11633000  1.0
  N  N119  1  0.23758000  0.07525000  0.38367000  1.0
  N  N120  1  0.03236000  0.50308000  0.79072000  1.0
  N  N121  1  0.96764000  0.00308000  0.70928000  1.0
  N  N122  1  0.96763000  0.49693000  0.20928000  1.0
  N  N123  1  0.03236000  0.99693000  0.29072000  1.0
  N  N124  1  0.98508000  0.30228000  0.81871000  1.0
  N  N125  1  0.01493000  0.80228000  0.68129000  1.0
  N  N126  1  0.01491000  0.69772000  0.18129000  1.0
  N  N127  1  0.98508000  0.19772000  0.31871000  1.0
  O  O128  1  0.71505000  0.18716000  0.49231000  1.0
  O  O129  1  0.28496000  0.68715000  0.00769000  1.0
  O  O130  1  0.28495000  0.81285000  0.50769000  1.0
  O  O131  1  0.71503000  0.31284000  0.99231000  1.0
  O  O132  1  0.48893000  0.17091000  0.56492000  1.0
  O  O133  1  0.51107000  0.67091000  0.93508000  1.0
  O  O134  1  0.51106000  0.82909000  0.43508000  1.0
  O  O135  1  0.48891000  0.32908000  0.06492000  1.0
  O  O136  1  0.58229000  0.37925000  0.60800000  1.0
  O  O137  1  0.41775000  0.87925000  0.89201000  1.0
  O  O138  1  0.41774000  0.62075000  0.39201000  1.0
  O  O139  1  0.58226000  0.12075000  0.10800000  1.0
  O  O140  1  0.27867000  0.48874000  0.66382000  1.0
  O  O141  1  0.72136000  0.98872000  0.83618000  1.0
  O  O142  1  0.72134000  0.51126000  0.33618000  1.0
  O  O143  1  0.27866000  0.01127000  0.16383000  1.0
  O  O144  1  0.52483000  0.62261000  0.70171000  1.0
  O  O145  1  0.47520000  0.12260000  0.79829000  1.0
  O  O146  1  0.47517000  0.37739000  0.29829000  1.0
  O  O147  1  0.52481000  0.87739000  0.20171000  1.0
