# generated using pymatgen
data_ZnH10C14(NO2)2
_symmetry_space_group_name_H-M   'P 1'
_cell_length_a   7.46446000
_cell_length_b   13.36140000
_cell_length_c   16.37340000
_cell_angle_alpha   113.02700000
_cell_angle_beta   89.99460000
_cell_angle_gamma   106.22100000
_symmetry_Int_Tables_number   1
_chemical_formula_structural   ZnH10C14(NO2)2
_chemical_formula_sum   'Zn4 H40 C56 N8 O16'
_cell_volume   1432.01054914
_cell_formula_units_Z   4
loop_
 _symmetry_equiv_pos_site_id
 _symmetry_equiv_pos_as_xyz
  1  'x, y, z'
loop_
 _atom_site_type_symbol
 _atom_site_label
 _atom_site_symmetry_multiplicity
 _atom_site_fract_x
 _atom_site_fract_y
 _atom_site_fract_z
 _atom_site_occupancy
  Zn  Zn0  1  0.62204000  0.67363000  0.82318000  1.0
  Zn  Zn1  1  0.94807000  0.32631000  0.67676000  1.0
  Zn  Zn2  1  0.37796000  0.32637000  0.17682000  1.0
  Zn  Zn3  1  0.05193000  0.67369000  0.32324000  1.0
  H  H4  1  0.96208000  0.48744000  0.34977000  1.0
  H  H5  1  0.47437000  0.51253000  0.15013000  1.0
  H  H6  1  0.03792000  0.51256000  0.65023000  1.0
  H  H7  1  0.52563000  0.48747000  0.84986000  1.0
  H  H8  1  0.79698000  0.47275000  0.27345000  1.0
  H  H9  1  0.32401000  0.52728000  0.22647000  1.0
  H  H10  1  0.20302000  0.52725000  0.72655000  1.0
  H  H11  1  0.67599000  0.47272000  0.77353000  1.0
  H  H12  1  0.45197000  0.68699000  0.58427000  1.0
  H  H13  1  0.76470000  0.31294000  0.91566000  1.0
  H  H14  1  0.54804000  0.31302000  0.41573000  1.0
  H  H15  1  0.23529000  0.68706000  0.08434000  1.0
  H  H16  1  0.58052000  0.58892000  0.31309000  1.0
  H  H17  1  0.99134000  0.41102000  0.18682000  1.0
  H  H18  1  0.41947000  0.41108000  0.68691000  1.0
  H  H19  1  0.00866000  0.58898000  0.81318000  1.0
  H  H20  1  0.92021000  0.55671000  0.50792000  1.0
  H  H21  1  0.36320000  0.44332000  0.99197000  1.0
  H  H22  1  0.07979000  0.44329000  0.49208000  1.0
  H  H23  1  0.63679000  0.55668000  0.00803000  1.0
  H  H24  1  0.78608000  0.81850000  0.01835000  1.0
  H  H25  1  0.96758000  0.18149000  0.48164000  1.0
  H  H26  1  0.21393000  0.18150000  0.98165000  1.0
  H  H27  1  0.03241000  0.81851000  0.51835000  1.0
  H  H28  1  0.11309000  0.93078000  0.09748000  1.0
  H  H29  1  0.18224000  0.06917000  0.40255000  1.0
  H  H30  1  0.88692000  0.06921000  0.90252000  1.0
  H  H31  1  0.81775000  0.93084000  0.59745000  1.0
  H  H32  1  0.29150000  0.89770000  0.83910000  1.0
  H  H33  1  0.39322000  0.10197000  0.66090000  1.0
  H  H34  1  0.70850000  0.10230000  0.16090000  1.0
  H  H35  1  0.60678000  0.89803000  0.33910000  1.0
  H  H36  1  0.96366000  0.78772000  0.77286000  1.0
  H  H37  1  0.17551000  0.21210000  0.72714000  1.0
  H  H38  1  0.03634000  0.21228000  0.22714000  1.0
  H  H39  1  0.82449000  0.78790000  0.27286000  1.0
  H  H40  1  0.43737000  0.01839000  0.09319000  1.0
  H  H41  1  0.41856000  0.98133000  0.40681000  1.0
  H  H42  1  0.56264000  0.98161000  0.90680000  1.0
  H  H43  1  0.58143000  0.01867000  0.59319000  1.0
  C  C44  1  0.69012000  0.62262000  0.55520000  1.0
  C  C45  1  0.06723000  0.37739000  0.94473000  1.0
  C  C46  1  0.30988000  0.37738000  0.44480000  1.0
  C  C47  1  0.93276000  0.62260000  0.05527000  1.0
  C  C48  1  0.53898000  0.65385000  0.53351000  1.0
  C  C49  1  0.88487000  0.34609000  0.96641000  1.0
  C  C50  1  0.46102000  0.34616000  0.46649000  1.0
  C  C51  1  0.11513000  0.65390000  0.03359000  1.0
  C  C52  1  0.49737000  0.64040000  0.44581000  1.0
  C  C53  1  0.85665000  0.35954000  0.05411000  1.0
  C  C54  1  0.50264000  0.35961000  0.55419000  1.0
  C  C55  1  0.14334000  0.64046000  0.94589000  1.0
  C  C56  1  0.60735000  0.59565000  0.38059000  1.0
  C  C57  1  0.01141000  0.40430000  0.11932000  1.0
  C  C58  1  0.39265000  0.40435000  0.61941000  1.0
  C  C59  1  0.98859000  0.59570000  0.88068000  1.0
  C  C60  1  0.75861000  0.56444000  0.40204000  1.0
  C  C61  1  0.19389000  0.43561000  0.09788000  1.0
  C  C62  1  0.24139000  0.43556000  0.59796000  1.0
  C  C63  1  0.80611000  0.56439000  0.90211000  1.0
  C  C64  1  0.80072000  0.57839000  0.48948000  1.0
  C  C65  1  0.22205000  0.42163000  0.01044000  1.0
  C  C66  1  0.19927000  0.42161000  0.51053000  1.0
  C  C67  1  0.77795000  0.57837000  0.98956000  1.0
  C  C68  1  0.73075000  0.63220000  0.64815000  1.0
  C  C69  1  0.09821000  0.36777000  0.85177000  1.0
  C  C70  1  0.26925000  0.36780000  0.35186000  1.0
  C  C71  1  0.90179000  0.63223000  0.14822000  1.0
  C  C72  1  0.33421000  0.67219000  0.42200000  1.0
  C  C73  1  0.66165000  0.32773000  0.07795000  1.0
  C  C74  1  0.66579000  0.32782000  0.57800000  1.0
  C  C75  1  0.33835000  0.67227000  0.92205000  1.0
  C  C76  1  0.90362000  0.84068000  0.98275000  1.0
  C  C77  1  0.06275000  0.15921000  0.51725000  1.0
  C  C78  1  0.09639000  0.15932000  0.01725000  1.0
  C  C79  1  0.93725000  0.84079000  0.48275000  1.0
  C  C80  1  0.08516000  0.90234000  0.02538000  1.0
  C  C81  1  0.18253000  0.09748000  0.47463000  1.0
  C  C82  1  0.91485000  0.09765000  0.97462000  1.0
  C  C83  1  0.81746000  0.90252000  0.52537000  1.0
  C  C84  1  0.23270000  0.92586000  0.97569000  1.0
  C  C85  1  0.30644000  0.07391000  0.52432000  1.0
  C  C86  1  0.76730000  0.07414000  0.02431000  1.0
  C  C87  1  0.69356000  0.92609000  0.47568000  1.0
  C  C88  1  0.18568000  0.88514000  0.88282000  1.0
  C  C89  1  0.30009000  0.11463000  0.61720000  1.0
  C  C90  1  0.81432000  0.11486000  0.11718000  1.0
  C  C91  1  0.69991000  0.88537000  0.38280000  1.0
  C  C92  1  0.00204000  0.82428000  0.84488000  1.0
  C  C93  1  0.17737000  0.17555000  0.65512000  1.0
  C  C94  1  0.99796000  0.17572000  0.15512000  1.0
  C  C95  1  0.82263000  0.82445000  0.34488000  1.0
  C  C96  1  0.42302000  0.98854000  0.02047000  1.0
  C  C97  1  0.43424000  0.01130000  0.47955000  1.0
  C  C98  1  0.57698000  0.01146000  0.97953000  1.0
  C  C99  1  0.56576000  0.98870000  0.52045000  1.0
  N  N100  1  0.87610000  0.52790000  0.33444000  1.0
  N  N101  1  0.34791000  0.47212000  0.16547000  1.0
  N  N102  1  0.12390000  0.47211000  0.66556000  1.0
  N  N103  1  0.65209000  0.52788000  0.83453000  1.0
  N  N104  1  0.86206000  0.80145000  0.89343000  1.0
  N  N105  1  0.06038000  0.19846000  0.60656000  1.0
  N  N106  1  0.13794000  0.19855000  0.10657000  1.0
  N  N107  1  0.93963000  0.80154000  0.39343000  1.0
  O  O108  1  0.62639000  0.67931000  0.70503000  1.0
  O  O109  1  0.94670000  0.32067000  0.79492000  1.0
  O  O110  1  0.37362000  0.32069000  0.29497000  1.0
  O  O111  1  0.05329000  0.67933000  0.20507000  1.0
  O  O112  1  0.85726000  0.59662000  0.66705000  1.0
  O  O113  1  0.26031000  0.40328000  0.83283000  1.0
  O  O114  1  0.14273000  0.40338000  0.33296000  1.0
  O  O115  1  0.73968000  0.59672000  0.16716000  1.0
  O  O116  1  0.30456000  0.65730000  0.33864000  1.0
  O  O117  1  0.64689000  0.34270000  0.16134000  1.0
  O  O118  1  0.69544000  0.34270000  0.66137000  1.0
  O  O119  1  0.35311000  0.65730000  0.83866000  1.0
  O  O120  1  0.23169000  0.70998000  0.47939000  1.0
  O  O121  1  0.52137000  0.28989000  0.02055000  1.0
  O  O122  1  0.76831000  0.29002000  0.52061000  1.0
  O  O123  1  0.47863000  0.71011000  0.97945000  1.0
