# generated using pymatgen
data_ErH13(C4O3)4
_symmetry_space_group_name_H-M   'P 1'
_cell_length_a   7.16199000
_cell_length_b   10.84730000
_cell_length_c   11.07950000
_cell_angle_alpha   85.91950000
_cell_angle_beta   78.38290000
_cell_angle_gamma   78.48410000
_symmetry_Int_Tables_number   1
_chemical_formula_structural   ErH13(C4O3)4
_chemical_formula_sum   'Er2 H26 C32 O24'
_cell_volume   825.71250524
_cell_formula_units_Z   2
loop_
 _symmetry_equiv_pos_site_id
 _symmetry_equiv_pos_as_xyz
  1  'x, y, z'
loop_
 _atom_site_type_symbol
 _atom_site_label
 _atom_site_symmetry_multiplicity
 _atom_site_fract_x
 _atom_site_fract_y
 _atom_site_fract_z
 _atom_site_occupancy
  Er  Er0  1  0.16898000  0.24472000  0.43556000  1.0
  Er  Er1  1  0.83108000  0.75527000  0.56438000  1.0
  H  H2  1  0.67405000  0.23547000  0.70599000  1.0
  H  H3  1  0.32594000  0.76455000  0.29398000  1.0
  H  H4  1  0.95201000  0.42327000  0.62368000  1.0
  H  H5  1  0.04796000  0.57672000  0.37627000  1.0
  H  H6  1  0.82759000  0.43108000  0.52395000  1.0
  H  H7  1  0.17238000  0.56891000  0.47600000  1.0
  H  H8  1  0.61631000  0.16568000  0.41026000  1.0
  H  H9  1  0.38387000  0.83439000  0.58960000  1.0
  H  H10  1  0.52207000  0.05241000  0.38829000  1.0
  H  H11  1  0.47797000  0.94717000  0.61295000  1.0
  H  H12  1  0.39003000  0.39077000  0.54794000  1.0
  H  H13  1  0.60994000  0.60922000  0.45206000  1.0
  H  H14  1  0.42362000  0.44033000  0.40854000  1.0
  H  H15  1  0.57638000  0.55965000  0.59146000  1.0
  H  H16  1  0.22304000  0.83290000  0.07414000  1.0
  H  H17  1  0.77696000  0.16708000  0.92582000  1.0
  H  H18  1  0.33682000  0.03656000  0.05005000  1.0
  H  H19  1  0.66319000  0.96341000  0.94992000  1.0
  H  H20  1  0.31291000  0.16852000  0.85681000  1.0
  H  H21  1  0.68710000  0.83146000  0.14317000  1.0
  H  H22  1  0.43075000  0.29863000  0.01224000  1.0
  H  H23  1  0.56926000  0.70138000  0.98775000  1.0
  H  H24  1  0.28350000  0.61087000  0.75968000  1.0
  H  H25  1  0.71648000  0.38914000  0.24030000  1.0
  H  H26  1  0.02461000  0.63294000  0.14421000  1.0
  H  H27  1  0.97539000  0.36707000  0.85576000  1.0
  C  C28  1  0.17027000  0.12206000  0.66335000  1.0
  C  C29  1  0.82974000  0.87795000  0.33661000  1.0
  C  C30  1  0.02129000  0.87877000  0.69806000  1.0
  C  C31  1  0.97868000  0.12123000  0.30190000  1.0
  C  C32  1  0.18118000  0.04135000  0.77770000  1.0
  C  C33  1  0.81883000  0.95864000  0.22225000  1.0
  C  C34  1  0.11185000  0.92718000  0.79227000  1.0
  C  C35  1  0.88815000  0.07282000  0.20769000  1.0
  C  C36  1  0.12865000  0.85445000  0.90046000  1.0
  C  C37  1  0.87133000  0.14554000  0.09950000  1.0
  C  C38  1  0.21453000  0.89125000  0.99076000  1.0
  C  C39  1  0.78546000  0.10874000  0.00920000  1.0
  C  C40  1  0.27988000  0.00483000  0.97614000  1.0
  C  C41  1  0.72013000  0.99515000  0.02383000  1.0
  C  C42  1  0.26340000  0.07936000  0.86987000  1.0
  C  C43  1  0.73662000  0.92063000  0.13010000  1.0
  C  C44  1  0.20645000  0.39783000  0.21602000  1.0
  C  C45  1  0.79355000  0.60220000  0.78396000  1.0
  C  C46  1  0.49259000  0.38017000  0.76515000  1.0
  C  C47  1  0.50740000  0.61984000  0.23481000  1.0
  C  C48  1  0.22943000  0.46037000  0.09041000  1.0
  C  C49  1  0.77057000  0.53964000  0.90956000  1.0
  C  C50  1  0.35384000  0.39287000  0.99316000  1.0
  C  C51  1  0.64616000  0.60715000  0.00682000  1.0
  C  C52  1  0.37364000  0.44662000  0.87375000  1.0
  C  C53  1  0.62635000  0.55337000  0.12624000  1.0
  C  C54  1  0.27301000  0.56838000  0.85210000  1.0
  C  C55  1  0.72699000  0.43162000  0.14787000  1.0
  C  C56  1  0.15106000  0.63472000  0.94963000  1.0
  C  C57  1  0.84893000  0.36528000  0.05034000  1.0
  C  C58  1  0.12592000  0.58167000  0.06904000  1.0
  C  C59  1  0.87406000  0.41835000  0.93093000  1.0
  O  O60  1  0.22355000  0.22842000  0.65279000  1.0
  O  O61  1  0.77627000  0.77164000  0.34725000  1.0
  O  O62  1  0.11146000  0.08034000  0.57503000  1.0
  O  O63  1  0.88873000  0.91962000  0.42488000  1.0
  O  O64  1  0.84003000  0.91059000  0.70125000  1.0
  O  O65  1  0.15994000  0.08945000  0.29870000  1.0
  O  O66  1  0.12928000  0.79585000  0.62367000  1.0
  O  O67  1  0.87067000  0.20413000  0.37631000  1.0
  O  O68  1  0.06040000  0.43898000  0.30088000  1.0
  O  O69  1  0.93957000  0.56102000  0.69909000  1.0
  O  O70  1  0.33292000  0.30238000  0.23590000  1.0
  O  O71  1  0.66713000  0.69768000  0.76408000  1.0
  O  O72  1  0.59815000  0.26707000  0.78584000  1.0
  O  O73  1  0.40182000  0.73292000  0.21414000  1.0
  O  O74  1  0.49736000  0.42584000  0.65890000  1.0
  O  O75  1  0.50266000  0.57417000  0.34111000  1.0
  O  O76  1  0.03927000  0.74972000  0.92247000  1.0
  O  O77  1  0.96072000  0.25028000  0.07750000  1.0
  O  O78  1  0.91806000  0.36998000  0.56467000  1.0
  O  O79  1  0.08192000  0.63001000  0.43528000  1.0
  O  O80  1  0.49303000  0.13298000  0.42812000  1.0
  O  O81  1  0.50699000  0.86727000  0.57191000  1.0
  O  O82  1  0.33491000  0.40025000  0.47196000  1.0
  O  O83  1  0.66502000  0.59981000  0.52804000  1.0
