# generated using pymatgen
data_Ni3H20(C11O7)2
_symmetry_space_group_name_H-M   'P 1'
_cell_length_a   6.25206000
_cell_length_b   10.90290000
_cell_length_c   16.73810000
_cell_angle_alpha   105.09100000
_cell_angle_beta   89.99830000
_cell_angle_gamma   89.97380000
_symmetry_Int_Tables_number   1
_chemical_formula_structural   Ni3H20(C11O7)2
_chemical_formula_sum   'Ni6 H40 C44 O28'
_cell_volume   1101.61449497
_cell_formula_units_Z   2
loop_
 _symmetry_equiv_pos_site_id
 _symmetry_equiv_pos_as_xyz
  1  'x, y, z'
loop_
 _atom_site_type_symbol
 _atom_site_label
 _atom_site_symmetry_multiplicity
 _atom_site_fract_x
 _atom_site_fract_y
 _atom_site_fract_z
 _atom_site_occupancy
  Ni  Ni0  1  0.50002000  0.49998000  0.99999000  1.0
  Ni  Ni1  1  0.99988000  0.50028000  0.49921000  1.0
  Ni  Ni2  1  0.99751000  0.53230000  0.91439000  1.0
  Ni  Ni3  1  0.49768000  0.46736000  0.58668000  1.0
  Ni  Ni4  1  0.00252000  0.46764000  0.08562000  1.0
  Ni  Ni5  1  0.50242000  0.53256000  0.41397000  1.0
  H  H6  1  0.20128000  0.79162000  0.68581000  1.0
  H  H7  1  0.70111000  0.20831000  0.81407000  1.0
  H  H8  1  0.79897000  0.20851000  0.31420000  1.0
  H  H9  1  0.29887000  0.79164000  0.18589000  1.0
  H  H10  1  0.30070000  0.97992000  0.79866000  1.0
  H  H11  1  0.80055000  0.01996000  0.70120000  1.0
  H  H12  1  0.69953000  0.02013000  0.20141000  1.0
  H  H13  1  0.19931000  0.98001000  0.29873000  1.0
  H  H14  1  0.04831000  0.06354000  0.91600000  1.0
  H  H15  1  0.54804000  0.93643000  0.58396000  1.0
  H  H16  1  0.95175000  0.93656000  0.08402000  1.0
  H  H17  1  0.45167000  0.06357000  0.41603000  1.0
  H  H18  1  0.59187000  0.77459000  0.80075000  1.0
  H  H19  1  0.09125000  0.22533000  0.69940000  1.0
  H  H20  1  0.40845000  0.22537000  0.19921000  1.0
  H  H21  1  0.90867000  0.77478000  0.30063000  1.0
  H  H22  1  0.62682000  0.15358000  0.92500000  1.0
  H  H23  1  0.12644000  0.84638000  0.57506000  1.0
  H  H24  1  0.37324000  0.84638000  0.07496000  1.0
  H  H25  1  0.87311000  0.15365000  0.42502000  1.0
  H  H26  1  0.33173000  0.65362000  0.89375000  1.0
  H  H27  1  0.83251000  0.34632000  0.60595000  1.0
  H  H28  1  0.66834000  0.34640000  0.10623000  1.0
  H  H29  1  0.16843000  0.65394000  0.39375000  1.0
  H  H30  1  0.13500000  0.71178000  0.85553000  1.0
  H  H31  1  0.63690000  0.28730000  0.64424000  1.0
  H  H32  1  0.86495000  0.28827000  0.14451000  1.0
  H  H33  1  0.36509000  0.71195000  0.35543000  1.0
  H  H34  1  0.81248000  0.45763000  0.76210000  1.0
  H  H35  1  0.30967000  0.54259000  0.73839000  1.0
  H  H36  1  0.18788000  0.54223000  0.23789000  1.0
  H  H37  1  0.68767000  0.45789000  0.26196000  1.0
  H  H38  1  0.65622000  0.46729000  0.83629000  1.0
  H  H39  1  0.15563000  0.53292000  0.66346000  1.0
  H  H40  1  0.34390000  0.53268000  0.16363000  1.0
  H  H41  1  0.84379000  0.46725000  0.33613000  1.0
  H  H42  1  0.81147000  0.35647000  0.95555000  1.0
  H  H43  1  0.31107000  0.64208000  0.54442000  1.0
  H  H44  1  0.18854000  0.64350000  0.04445000  1.0
  H  H45  1  0.68831000  0.35754000  0.45630000  1.0
  C  C46  1  0.81744000  0.66641000  0.66376000  1.0
  C  C47  1  0.31732000  0.33357000  0.83625000  1.0
  C  C48  1  0.18251000  0.33387000  0.33605000  1.0
  C  C49  1  0.68274000  0.66641000  0.16376000  1.0
  C  C50  1  0.88528000  0.77480000  0.73447000  1.0
  C  C51  1  0.38488000  0.22510000  0.76556000  1.0
  C  C52  1  0.11501000  0.22525000  0.26550000  1.0
  C  C53  1  0.61508000  0.77491000  0.23443000  1.0
  C  C54  1  0.08801000  0.83067000  0.73529000  1.0
  C  C55  1  0.58775000  0.16926000  0.76465000  1.0
  C  C56  1  0.91224000  0.16944000  0.26472000  1.0
  C  C57  1  0.41219000  0.83072000  0.23532000  1.0
  C  C58  1  0.14505000  0.93539000  0.79953000  1.0
  C  C59  1  0.64483000  0.06453000  0.70039000  1.0
  C  C60  1  0.85514000  0.06470000  0.20050000  1.0
  C  C61  1  0.35502000  0.93545000  0.29957000  1.0
  C  C62  1  0.00403000  0.98241000  0.86514000  1.0
  C  C63  1  0.50370000  0.01753000  0.63484000  1.0
  C  C64  1  0.99608000  0.01767000  0.13488000  1.0
  C  C65  1  0.49603000  0.98247000  0.36514000  1.0
  C  C66  1  0.80673000  0.92210000  0.86727000  1.0
  C  C67  1  0.30626000  0.07781000  0.63279000  1.0
  C  C68  1  0.19343000  0.07791000  0.13272000  1.0
  C  C69  1  0.69348000  0.92219000  0.36723000  1.0
  C  C70  1  0.74691000  0.82031000  0.80103000  1.0
  C  C71  1  0.24635000  0.17957000  0.69908000  1.0
  C  C72  1  0.25338000  0.17967000  0.19895000  1.0
  C  C73  1  0.75350000  0.82046000  0.30094000  1.0
  C  C74  1  0.57382000  0.08628000  0.95878000  1.0
  C  C75  1  0.07347000  0.91369000  0.54126000  1.0
  C  C76  1  0.42627000  0.91370000  0.04119000  1.0
  C  C77  1  0.92611000  0.08632000  0.45880000  1.0
  C  C78  1  0.65790000  0.96331000  0.93772000  1.0
  C  C79  1  0.15744000  0.03665000  0.56234000  1.0
  C  C80  1  0.34224000  0.03668000  0.06226000  1.0
  C  C81  1  0.84217000  0.96335000  0.43770000  1.0
  C  C82  1  0.58468000  0.87640000  0.98070000  1.0
  C  C83  1  0.08436000  0.12358000  0.51934000  1.0
  C  C84  1  0.41541000  0.12358000  0.01928000  1.0
  C  C85  1  0.91524000  0.87642000  0.48070000  1.0
  C  C86  1  0.67118000  0.74353000  0.96610000  1.0
  C  C87  1  0.17115000  0.25636000  0.53386000  1.0
  C  C88  1  0.32888000  0.25644000  0.03389000  1.0
  C  C89  1  0.82899000  0.74355000  0.46596000  1.0
  O  O90  1  0.97063000  0.60563000  0.61953000  1.0
  O  O91  1  0.47084000  0.39480000  0.87999000  1.0
  O  O92  1  0.02874000  0.39508000  0.37976000  1.0
  O  O93  1  0.52928000  0.60516000  0.12000000  1.0
  O  O94  1  0.62004000  0.64212000  0.65251000  1.0
  O  O95  1  0.11997000  0.35764000  0.84808000  1.0
  O  O96  1  0.37973000  0.35814000  0.34780000  1.0
  O  O97  1  0.88009000  0.64235000  0.15197000  1.0
  O  O98  1  0.86994000  0.72284000  0.96591000  1.0
  O  O99  1  0.37003000  0.27668000  0.53441000  1.0
  O  O100  1  0.13011000  0.27712000  0.03412000  1.0
  O  O101  1  0.63034000  0.72269000  0.46564000  1.0
  O  O102  1  0.52460000  0.65874000  0.95744000  1.0
  O  O103  1  0.02484000  0.34132000  0.54215000  1.0
  O  O104  1  0.47542000  0.34125000  0.04255000  1.0
  O  O105  1  0.97595000  0.65882000  0.45724000  1.0
  O  O106  1  0.21025000  0.63220000  0.85261000  1.0
  O  O107  1  0.71136000  0.36715000  0.64734000  1.0
  O  O108  1  0.78971000  0.36785000  0.14741000  1.0
  O  O109  1  0.29010000  0.63237000  0.35267000  1.0
  O  O110  1  0.77743000  0.51211000  0.81721000  1.0
  O  O111  1  0.27607000  0.48812000  0.68310000  1.0
  O  O112  1  0.22283000  0.48779000  0.18276000  1.0
  O  O113  1  0.72253000  0.51221000  0.31713000  1.0
  O  O114  1  0.81188000  0.44661000  0.98401000  1.0
  O  O115  1  0.31234000  0.55172000  0.51629000  1.0
  O  O116  1  0.18815000  0.55335000  0.01601000  1.0
  O  O117  1  0.68755000  0.44771000  0.48493000  1.0
