# generated using pymatgen
data_CdH6C8I2(BrN2)2
_symmetry_space_group_name_H-M   'P 1'
_cell_length_a   4.16492000
_cell_length_b   11.87650000
_cell_length_c   15.08680000
_cell_angle_alpha   90.00000000
_cell_angle_beta   89.99930000
_cell_angle_gamma   93.84480000
_symmetry_Int_Tables_number   1
_chemical_formula_structural   CdH6C8I2(BrN2)2
_chemical_formula_sum   'Cd2 H12 C16 I4 Br4 N8'
_cell_volume   744.58403593
_cell_formula_units_Z   2
loop_
 _symmetry_equiv_pos_site_id
 _symmetry_equiv_pos_as_xyz
  1  'x, y, z'
loop_
 _atom_site_type_symbol
 _atom_site_label
 _atom_site_symmetry_multiplicity
 _atom_site_fract_x
 _atom_site_fract_y
 _atom_site_fract_z
 _atom_site_occupancy
  Cd  Cd0  1  0.99997000  0.49998000  1.00000000  1.0
  Cd  Cd1  1  0.00005000  0.00001000  0.50000000  1.0
  H  H2  1  0.79440000  0.70190000  0.85738000  1.0
  H  H3  1  0.20560000  0.79810000  0.35738000  1.0
  H  H4  1  0.20557000  0.29807000  0.14261000  1.0
  H  H5  1  0.79447000  0.20193000  0.64262000  1.0
  H  H6  1  0.79816000  0.74873000  0.69270000  1.0
  H  H7  1  0.20178000  0.75128000  0.19270000  1.0
  H  H8  1  0.20187000  0.25126000  0.30731000  1.0
  H  H9  1  0.79818000  0.24874000  0.80731000  1.0
  H  H10  1  0.24540000  0.40767000  0.80365000  1.0
  H  H11  1  0.75468000  0.09235000  0.30366000  1.0
  H  H12  1  0.75459000  0.59231000  0.19633000  1.0
  H  H13  1  0.24536000  0.90768000  0.69635000  1.0
  C  C14  1  0.89615000  0.64705000  0.80825000  1.0
  C  C15  1  0.10386000  0.85295000  0.30825000  1.0
  C  C16  1  0.10384000  0.35293000  0.19174000  1.0
  C  C17  1  0.89618000  0.14708000  0.69176000  1.0
  C  C18  1  0.89918000  0.67243000  0.71805000  1.0
  C  C19  1  0.10081000  0.82757000  0.21805000  1.0
  C  C20  1  0.10083000  0.32756000  0.28195000  1.0
  C  C21  1  0.89918000  0.17244000  0.78196000  1.0
  C  C22  1  0.14060000  0.51122000  0.68821000  1.0
  C  C23  1  0.85940000  0.98878000  0.18822000  1.0
  C  C24  1  0.85938000  0.48877000  0.31178000  1.0
  C  C25  1  0.14056000  0.01124000  0.81179000  1.0
  C  C26  1  0.14259000  0.48362000  0.77861000  1.0
  C  C27  1  0.85746000  0.01639000  0.27862000  1.0
  C  C28  1  0.85739000  0.51635000  0.22138000  1.0
  C  C29  1  0.14256000  0.98364000  0.72139000  1.0
  I  I30  1  0.52501000  0.67276000  0.03220000  1.0
  I  I31  1  0.47500000  0.82724000  0.53220000  1.0
  I  I32  1  0.47493000  0.32721000  0.96779000  1.0
  I  I33  1  0.52508000  0.17279000  0.46780000  1.0
  Br  Br34  1  0.31054000  0.41000000  0.60515000  1.0
  Br  Br35  1  0.68944000  0.09001000  0.10516000  1.0
  Br  Br36  1  0.68946000  0.58999000  0.39483000  1.0
  Br  Br37  1  0.31050000  0.91000000  0.89485000  1.0
  N  N38  1  0.01772000  0.55196000  0.83798000  1.0
  N  N39  1  0.98234000  0.94805000  0.33798000  1.0
  N  N40  1  0.98226000  0.44801000  0.16201000  1.0
  N  N41  1  0.01772000  0.05198000  0.66203000  1.0
  N  N42  1  0.02051000  0.60398000  0.65767000  1.0
  N  N43  1  0.97946000  0.89603000  0.15768000  1.0
  N  N44  1  0.97949000  0.39602000  0.34232000  1.0
  N  N45  1  0.02049000  0.10398000  0.84233000  1.0
