# generated using pymatgen
data_Zn4H26C43S10(N7O9)2
_symmetry_space_group_name_H-M   'P 1'
_cell_length_a   11.46610000
_cell_length_b   12.67130000
_cell_length_c   24.05220000
_cell_angle_alpha   89.65100000
_cell_angle_beta   91.01720000
_cell_angle_gamma   89.91640000
_symmetry_Int_Tables_number   1
_chemical_formula_structural   Zn4H26C43S10(N7O9)2
_chemical_formula_sum   'Zn4 H26 C43 S10 N14 O18'
_cell_volume   3493.93377474
_cell_formula_units_Z   1
loop_
 _symmetry_equiv_pos_site_id
 _symmetry_equiv_pos_as_xyz
  1  'x, y, z'
loop_
 _atom_site_type_symbol
 _atom_site_label
 _atom_site_symmetry_multiplicity
 _atom_site_fract_x
 _atom_site_fract_y
 _atom_site_fract_z
 _atom_site_occupancy
  Zn  Zn0  1  0.38076000  0.50033000  0.49966000  1.0
  Zn  Zn1  1  0.62580000  0.50111000  0.49856000  1.0
  Zn  Zn2  1  0.62008000  0.49837000  0.96642000  1.0
  Zn  Zn3  1  0.37570000  0.49968000  0.96619000  1.0
  H  H4  1  0.67982000  0.49469000  0.79206000  1.0
  H  H5  1  0.22340000  0.41880000  0.77260000  1.0
  H  H6  1  0.21898000  0.55968000  0.77528000  1.0
  H  H7  1  0.23644000  0.56560000  0.67043000  1.0
  H  H8  1  0.23821000  0.42524000  0.66920000  1.0
  H  H9  1  0.11908000  0.63453000  0.38968000  1.0
  H  H10  1  0.25955000  0.59414000  0.40887000  1.0
  H  H11  1  0.88646000  0.37444000  0.60591000  1.0
  H  H12  1  0.74951000  0.39626000  0.58117000  1.0
  H  H13  1  0.22748000  0.90511000  0.50854000  1.0
  H  H14  1  0.27819000  0.77608000  0.50217000  1.0
  H  H15  1  0.77489000  0.09487000  0.51058000  1.0
  H  H16  1  0.72563000  0.22416000  0.50261000  1.0
  H  H17  1  0.77112000  0.49114000  0.28651000  1.0
  H  H18  1  0.71979000  0.50469000  0.35345000  1.0
  H  H19  1  0.23106000  0.47789000  0.17869000  1.0
  H  H20  1  0.28120000  0.49405000  0.11167000  1.0
  H  H21  1  0.88427000  0.62581000  0.07618000  1.0
  H  H22  1  0.74274000  0.58823000  0.05698000  1.0
  H  H23  1  0.10949000  0.37635000  0.85679000  1.0
  H  H24  1  0.25028000  0.41062000  0.87629000  1.0
  H  H25  1  0.77262000  0.90311000  0.95669000  1.0
  H  H26  1  0.72153000  0.77404000  0.96150000  1.0
  H  H27  1  0.22680000  0.09572000  0.95293000  1.0
  H  H28  1  0.27675000  0.22423000  0.96177000  1.0
  H  H29  1  0.72541000  0.34465000  0.70298000  1.0
  C  C30  1  0.50297000  0.29534000  0.49658000  1.0
  C  C31  1  0.51206000  0.49207000  0.61051000  1.0
  C  C32  1  0.49892000  0.70553000  0.50223000  1.0
  C  C33  1  0.49929000  0.51322000  0.38810000  1.0
  C  C34  1  0.49855000  0.29374000  0.97046000  1.0
  C  C35  1  0.48999000  0.48977000  0.85540000  1.0
  C  C36  1  0.50088000  0.70430000  0.96204000  1.0
  C  C37  1  0.50074000  0.51267000  0.07693000  1.0
  C  C38  1  0.13113000  0.54826000  0.46145000  1.0
  C  C39  1  0.87644000  0.44931000  0.53140000  1.0
  C  C40  1  0.99675000  0.46700000  0.51965000  1.0
  C  C41  1  0.01034000  0.53324000  0.47386000  1.0
  C  C42  1  0.40350000  0.88738000  0.49826000  1.0
  C  C43  1  0.59899000  0.11341000  0.49757000  1.0
  C  C44  1  0.50070000  0.81983000  0.49989000  1.0
  C  C45  1  0.50187000  0.18103000  0.49626000  1.0
  C  C46  1  0.56186000  0.00607000  0.49839000  1.0
  C  C47  1  0.44055000  0.99470000  0.49758000  1.0
  C  C48  1  0.49299000  0.49254000  0.79322000  1.0
  C  C49  1  0.50899000  0.49498000  0.67279000  1.0
  C  C50  1  0.39468000  0.49362000  0.75841000  1.0
  C  C51  1  0.60964000  0.49492000  0.70801000  1.0
  C  C52  1  0.40327000  0.49554000  0.70045000  1.0
  C  C53  1  0.60084000  0.49399000  0.76609000  1.0
  C  C54  1  0.26233000  0.49174000  0.75639000  1.0
  C  C55  1  0.27236000  0.49484000  0.69101000  1.0
  C  C56  1  0.59632000  0.51755000  0.29340000  1.0
  C  C57  1  0.40362000  0.51317000  0.17154000  1.0
  C  C58  1  0.49864000  0.51649000  0.32772000  1.0
  C  C59  1  0.50119000  0.51642000  0.13719000  1.0
  C  C60  1  0.43938000  0.51574000  0.22856000  1.0
  C  C61  1  0.56042000  0.51840000  0.23637000  1.0
  C  C62  1  0.87053000  0.54371000  0.00361000  1.0
  C  C63  1  0.12440000  0.45258000  0.93042000  1.0
  C  C64  1  0.00406000  0.46732000  0.94340000  1.0
  C  C65  1  0.99109000  0.52905000  0.99059000  1.0
  C  C66  1  0.59677000  0.88550000  0.96692000  1.0
  C  C67  1  0.40200000  0.11241000  0.96806000  1.0
  C  C68  1  0.49946000  0.81850000  0.96472000  1.0
  C  C69  1  0.49928000  0.17939000  0.97048000  1.0
  C  C70  1  0.43875000  0.00494000  0.96717000  1.0
  C  C71  1  0.56002000  0.99291000  0.96845000  1.0
  C  C72  1  0.73228000  0.49399000  0.68689000  1.0
  S  S73  1  0.12985000  0.42762000  0.54569000  1.0
  S  S74  1  0.87609000  0.57171000  0.44797000  1.0
  S  S75  1  0.63404000  0.88664000  0.49960000  1.0
  S  S76  1  0.36841000  0.11416000  0.49524000  1.0
  S  S77  1  0.36617000  0.51541000  0.29055000  1.0
  S  S78  1  0.63356000  0.52114000  0.17437000  1.0
  S  S79  1  0.87019000  0.43107000  0.91699000  1.0
  S  S80  1  0.12529000  0.56610000  0.01648000  1.0
  S  S81  1  0.36628000  0.88590000  0.96529000  1.0
  S  S82  1  0.63246000  0.11182000  0.97210000  1.0
  N  N83  1  0.20166000  0.49704000  0.49770000  1.0
  N  N84  1  0.80507000  0.50156000  0.49619000  1.0
  N  N85  1  0.79936000  0.49581000  0.96678000  1.0
  N  N86  1  0.19594000  0.50129000  0.96660000  1.0
  N  N87  1  0.17443000  0.60744000  0.41968000  1.0
  N  N88  1  0.83515000  0.38403000  0.57141000  1.0
  N  N89  1  0.28991000  0.85485000  0.49557000  1.0
  N  N90  1  0.71261000  0.14555000  0.49655000  1.0
  N  N91  1  0.70980000  0.52053000  0.31200000  1.0
  N  N92  1  0.29006000  0.51077000  0.15296000  1.0
  N  N93  1  0.82835000  0.59990000  0.04636000  1.0
  N  N94  1  0.16630000  0.39410000  0.88804000  1.0
  N  N95  1  0.71030000  0.85231000  0.96937000  1.0
  N  N96  1  0.28838000  0.14534000  0.96823000  1.0
  O  O97  1  0.40443000  0.34309000  0.49647000  1.0
  O  O98  1  0.60328000  0.34129000  0.49716000  1.0
  O  O99  1  0.61116000  0.48330000  0.58759000  1.0
  O  O100  1  0.41383000  0.49843000  0.58549000  1.0
  O  O101  1  0.59710000  0.65699000  0.50422000  1.0
  O  O102  1  0.39827000  0.66048000  0.50223000  1.0
  O  O103  1  0.40085000  0.51531000  0.41279000  1.0
  O  O104  1  0.59916000  0.50761000  0.41297000  1.0
  O  O105  1  0.59706000  0.34100000  0.97321000  1.0
  O  O106  1  0.39837000  0.34007000  0.96736000  1.0
  O  O107  1  0.38962000  0.48847000  0.87782000  1.0
  O  O108  1  0.58748000  0.48950000  0.88119000  1.0
  O  O109  1  0.40247000  0.65637000  0.96167000  1.0
  O  O110  1  0.60122000  0.65871000  0.96013000  1.0
  O  O111  1  0.59918000  0.51829000  0.05224000  1.0
  O  O112  1  0.40147000  0.50311000  0.05188000  1.0
  O  O113  1  0.78367000  0.39481000  0.68987000  1.0
  O  O114  1  0.78985000  0.56908000  0.67274000  1.0
