# generated using pymatgen
data_CdH24C33(N4O3)2
_symmetry_space_group_name_H-M   'P 1'
_cell_length_a   9.96069000
_cell_length_b   9.96194000
_cell_length_c   16.53220000
_cell_angle_alpha   107.34900000
_cell_angle_beta   101.66800000
_cell_angle_gamma   93.17200000
_symmetry_Int_Tables_number   1
_chemical_formula_structural   CdH24C33(N4O3)2
_chemical_formula_sum   'Cd2 H48 C66 N16 O12'
_cell_volume   1521.68783715
_cell_formula_units_Z   2
loop_
 _symmetry_equiv_pos_site_id
 _symmetry_equiv_pos_as_xyz
  1  'x, y, z'
loop_
 _atom_site_type_symbol
 _atom_site_label
 _atom_site_symmetry_multiplicity
 _atom_site_fract_x
 _atom_site_fract_y
 _atom_site_fract_z
 _atom_site_occupancy
  Cd  Cd0  1  0.63535000  0.41579000  0.91954000  1.0
  Cd  Cd1  1  0.36465000  0.58421000  0.08046000  1.0
  H  H2  1  0.92375000  0.51480000  0.89504000  1.0
  H  H3  1  0.07625000  0.48520000  0.10495000  1.0
  H  H4  1  0.04393000  0.55035000  0.78389000  1.0
  H  H5  1  0.95608000  0.44965000  0.21610000  1.0
  H  H6  1  0.91798000  0.45899000  0.62551000  1.0
  H  H7  1  0.08202000  0.54100000  0.37449000  1.0
  H  H8  1  0.56988000  0.30977000  0.70562000  1.0
  H  H9  1  0.43012000  0.69023000  0.29438000  1.0
  H  H10  1  0.71183000  0.32900000  0.51339000  1.0
  H  H11  1  0.28817000  0.67100000  0.48661000  1.0
  H  H12  1  0.55701000  0.40960000  0.42659000  1.0
  H  H13  1  0.44299000  0.59040000  0.57341000  1.0
  H  H14  1  0.41108000  0.35277000  0.27782000  1.0
  H  H15  1  0.58892000  0.64723000  0.72219000  1.0
  H  H16  1  0.20617000  0.16695000  0.22693000  1.0
  H  H17  1  0.79382000  0.83306000  0.77308000  1.0
  H  H18  1  0.00149000  0.86251000  0.35646000  1.0
  H  H19  1  0.99852000  0.13748000  0.64354000  1.0
  H  H20  1  0.15949000  0.90617000  0.50126000  1.0
  H  H21  1  0.84052000  0.09383000  0.49874000  1.0
  H  H22  1  0.37072000  0.08154000  0.54836000  1.0
  H  H23  1  0.62928000  0.91846000  0.45165000  1.0
  H  H24  1  0.99750000  0.76889000  0.21247000  1.0
  H  H25  1  0.00250000  0.23112000  0.78753000  1.0
  H  H26  1  0.92245000  0.04108000  0.09081000  1.0
  H  H27  1  0.07756000  0.95892000  0.90919000  1.0
  H  H28  1  0.76641000  0.97197000  0.94349000  1.0
  H  H29  1  0.23359000  0.02803000  0.05651000  1.0
  H  H30  1  0.64840000  0.72025000  0.87662000  1.0
  H  H31  1  0.35160000  0.27975000  0.12338000  1.0
  H  H32  1  0.82783000  0.61475000  0.09423000  1.0
  H  H33  1  0.17216000  0.38526000  0.90578000  1.0
  H  H34  1  0.52762000  0.14018000  0.95285000  1.0
  H  H35  1  0.47238000  0.85982000  0.04714000  1.0
  H  H36  1  0.38524000  0.90308000  0.87855000  1.0
  H  H37  1  0.61477000  0.09692000  0.12145000  1.0
  H  H38  1  0.24524000  0.04248000  0.65625000  1.0
  H  H39  1  0.75476000  0.95751000  0.34375000  1.0
  H  H40  1  0.38227000  0.27949000  0.74297000  1.0
  H  H41  1  0.61773000  0.72051000  0.25702000  1.0
  H  H42  1  0.23375000  0.74170000  0.75745000  1.0
  H  H43  1  0.76625000  0.25830000  0.24255000  1.0
  H  H44  1  0.97078000  0.78666000  0.53112000  1.0
  H  H45  1  0.02921000  0.21334000  0.46888000  1.0
  H  H46  1  0.77120000  0.70648000  0.40365000  1.0
  H  H47  1  0.22880000  0.29352000  0.59635000  1.0
  H  H48  1  0.29856000  0.54883000  0.67557000  1.0
  H  H49  1  0.70144000  0.45117000  0.32442000  1.0
  C  C50  1  0.87216000  0.47667000  0.82623000  1.0
  C  C51  1  0.12785000  0.52333000  0.17377000  1.0
  C  C52  1  0.93910000  0.49530000  0.76337000  1.0
  C  C53  1  0.06091000  0.50470000  0.23662000  1.0
  C  C54  1  0.86932000  0.44482000  0.67621000  1.0
  C  C55  1  0.13068000  0.55517000  0.32379000  1.0
  C  C56  1  0.73376000  0.37670000  0.65379000  1.0
  C  C57  1  0.26624000  0.62330000  0.34621000  1.0
  C  C58  1  0.67492000  0.36199000  0.72124000  1.0
  C  C59  1  0.32508000  0.63801000  0.27876000  1.0
  C  C60  1  0.65462000  0.32606000  0.56353000  1.0
  C  C61  1  0.34538000  0.67394000  0.43648000  1.0
  C  C62  1  0.44774000  0.24790000  0.45878000  1.0
  C  C63  1  0.55226000  0.75210000  0.54122000  1.0
  C  C64  1  0.47299000  0.32275000  0.40332000  1.0
  C  C65  1  0.52700000  0.67725000  0.59668000  1.0
  C  C66  1  0.38778000  0.29213000  0.31946000  1.0
  C  C67  1  0.61221000  0.70788000  0.68054000  1.0
  C  C68  1  0.27470000  0.18931000  0.29095000  1.0
  C  C69  1  0.72529000  0.81069000  0.70906000  1.0
  C  C70  1  0.24311000  0.11311000  0.34613000  1.0
  C  C71  1  0.75689000  0.88690000  0.65387000  1.0
  C  C72  1  0.12399000  0.00831000  0.31896000  1.0
  C  C73  1  0.87601000  0.99170000  0.68104000  1.0
  C  C74  1  0.09472000  0.93810000  0.37591000  1.0
  C  C75  1  0.90529000  0.06190000  0.62409000  1.0
  C  C76  1  0.18350000  0.96435000  0.45844000  1.0
  C  C77  1  0.81650000  0.03564000  0.54156000  1.0
  C  C78  1  0.30058000  0.06187000  0.48512000  1.0
  C  C79  1  0.69943000  0.93813000  0.51488000  1.0
  C  C80  1  0.33116000  0.14012000  0.43082000  1.0
  C  C81  1  0.66884000  0.85988000  0.56919000  1.0
  C  C82  1  0.97926000  0.86212000  0.19047000  1.0
  C  C83  1  0.02074000  0.13789000  0.80954000  1.0
  C  C84  1  0.88661000  0.83344000  0.10508000  1.0
  C  C85  1  0.11339000  0.16656000  0.89492000  1.0
  C  C86  1  0.86806000  0.93424000  0.06126000  1.0
  C  C87  1  0.13194000  0.06577000  0.93874000  1.0
  C  C88  1  0.78136000  0.89499000  0.97861000  1.0
  C  C89  1  0.21865000  0.10501000  0.02139000  1.0
  C  C90  1  0.71585000  0.75634000  0.94181000  1.0
  C  C91  1  0.28415000  0.24366000  0.05819000  1.0
  C  C92  1  0.81561000  0.69712000  0.06322000  1.0
  C  C93  1  0.18439000  0.30288000  0.93678000  1.0
  C  C94  1  0.46252000  0.11506000  0.88760000  1.0
  C  C95  1  0.53748000  0.88494000  0.11240000  1.0
  C  C96  1  0.38506000  0.98312000  0.84572000  1.0
  C  C97  1  0.61493000  0.01688000  0.15428000  1.0
  C  C98  1  0.30772000  0.95243000  0.76009000  1.0
  C  C99  1  0.69228000  0.04757000  0.23991000  1.0
  C  C100  1  0.30643000  0.06091000  0.72194000  1.0
  C  C101  1  0.69357000  0.93909000  0.27805000  1.0
  C  C102  1  0.38348000  0.19117000  0.76927000  1.0
  C  C103  1  0.61652000  0.80883000  0.23072000  1.0
  C  C104  1  0.23549000  0.80947000  0.71581000  1.0
  C  C105  1  0.76451000  0.19052000  0.28419000  1.0
  C  C106  1  0.13663000  0.61803000  0.59514000  1.0
  C  C107  1  0.86337000  0.38197000  0.40486000  1.0
  C  C108  1  0.01970000  0.57446000  0.52234000  1.0
  C  C109  1  0.98029000  0.42554000  0.47766000  1.0
  C  C110  1  0.94254000  0.67450000  0.49474000  1.0
  C  C111  1  0.05745000  0.32550000  0.50525000  1.0
  C  C112  1  0.83165000  0.62924000  0.42370000  1.0
  C  C113  1  0.16835000  0.37076000  0.57629000  1.0
  C  C114  1  0.20810000  0.51593000  0.62130000  1.0
  C  C115  1  0.79189000  0.48407000  0.37870000  1.0
  N  N116  1  0.74178000  0.41075000  0.80504000  1.0
  N  N117  1  0.25822000  0.58924000  0.19496000  1.0
  N  N118  1  0.52471000  0.28187000  0.54428000  1.0
  N  N119  1  0.47529000  0.71813000  0.45572000  1.0
  N  N120  1  0.03907000  0.98692000  0.23672000  1.0
  N  N121  1  0.96093000  0.01308000  0.76328000  1.0
  N  N122  1  0.73208000  0.65884000  0.98352000  1.0
  N  N123  1  0.26792000  0.34116000  0.01648000  1.0
  N  N124  1  0.46380000  0.21770000  0.85012000  1.0
  N  N125  1  0.53620000  0.78230000  0.14988000  1.0
  N  N126  1  0.18312000  0.76285000  0.63324000  1.0
  N  N127  1  0.81688000  0.23715000  0.36677000  1.0
  N  N128  1  0.85590000  0.27777000  0.99926000  1.0
  N  N129  1  0.14410000  0.72223000  0.00074000  1.0
  N  N130  1  0.38587000  0.57718000  0.86765000  1.0
  N  N131  1  0.61414000  0.42282000  0.13235000  1.0
  O  O132  1  0.86721000  0.41039000  0.00762000  1.0
  O  O133  1  0.13279000  0.58961000  0.99238000  1.0
  O  O134  1  0.94370000  0.22939000  0.04413000  1.0
  O  O135  1  0.05631000  0.77061000  0.95587000  1.0
  O  O136  1  0.75205000  0.19883000  0.94335000  1.0
  O  O137  1  0.24795000  0.80116000  0.05665000  1.0
  O  O138  1  0.42830000  0.54328000  0.93737000  1.0
  O  O139  1  0.57170000  0.45671000  0.06263000  1.0
  O  O140  1  0.44425000  0.53060000  0.80524000  1.0
  O  O141  1  0.55575000  0.46941000  0.19476000  1.0
  O  O142  1  0.29136000  0.65379000  0.86396000  1.0
  O  O143  1  0.70864000  0.34621000  0.13605000  1.0
