# generated using pymatgen
data_ZnH13C19N5O4
_symmetry_space_group_name_H-M   'P 1'
_cell_length_a   5.93477000
_cell_length_b   10.84660000
_cell_length_c   15.50027695
_cell_angle_alpha   87.43931925
_cell_angle_beta   83.52155707
_cell_angle_gamma   89.17970000
_symmetry_Int_Tables_number   1
_chemical_formula_structural   ZnH13C19N5O4
_chemical_formula_sum   'Zn2 H26 C38 N10 O8'
_cell_volume   990.38032769
_cell_formula_units_Z   2
loop_
 _symmetry_equiv_pos_site_id
 _symmetry_equiv_pos_as_xyz
  1  'x, y, z'
loop_
 _atom_site_type_symbol
 _atom_site_label
 _atom_site_symmetry_multiplicity
 _atom_site_fract_x
 _atom_site_fract_y
 _atom_site_fract_z
 _atom_site_occupancy
  Zn  Zn0  1  0.21481000  0.73783000  0.80134000  1.0
  Zn  Zn1  1  0.78518000  0.26217000  0.19866000  1.0
  H  H2  1  0.38768000  0.44312000  0.83293000  1.0
  H  H3  1  0.61230000  0.55688000  0.16707000  1.0
  H  H4  1  0.12550000  0.38311000  0.69168000  1.0
  H  H5  1  0.87450000  0.61689000  0.30831000  1.0
  H  H6  1  0.64376000  0.74006000  0.66818000  1.0
  H  H7  1  0.35624000  0.25994000  0.33182000  1.0
  H  H8  1  0.94900000  0.54346000  0.64933000  1.0
  H  H9  1  0.05100000  0.45655000  0.35067000  1.0
  H  H10  1  0.26443000  0.16522000  0.70610000  1.0
  H  H11  1  0.73557000  0.83478000  0.29390000  1.0
  H  H12  1  0.00173000  0.00448000  0.77931000  1.0
  H  H13  1  0.99828000  0.99552000  0.22069000  1.0
  H  H14  1  0.67664000  0.89240000  0.76529000  1.0
  H  H15  1  0.32336000  0.10761000  0.23470000  1.0
  H  H16  1  0.10784000  0.93613000  0.95092000  1.0
  H  H17  1  0.89217000  0.06387000  0.04908000  1.0
  H  H18  1  0.35380000  0.15370000  0.93678000  1.0
  H  H19  1  0.64622000  0.84629000  0.06323000  1.0
  H  H20  1  0.82114000  0.81427000  0.57535000  1.0
  H  H21  1  0.17886000  0.18572000  0.42465000  1.0
  H  H22  1  0.35461000  0.08073000  0.54673000  1.0
  H  H23  1  0.64540000  0.91927000  0.45326000  1.0
  H  H24  1  0.87837000  0.42140000  0.94030000  1.0
  H  H25  1  0.12160000  0.57861000  0.05971000  1.0
  H  H26  1  0.42170000  0.72565000  0.99546000  1.0
  H  H27  1  0.57827000  0.27436000  0.00455000  1.0
  C  C28  1  0.63850000  0.64806000  0.69820000  1.0
  C  C29  1  0.36149000  0.35194000  0.30181000  1.0
  C  C30  1  0.78776000  0.55154000  0.68873000  1.0
  C  C31  1  0.21223000  0.44846000  0.31127000  1.0
  C  C32  1  0.49390000  0.49782000  0.78481000  1.0
  C  C33  1  0.50609000  0.50218000  0.21519000  1.0
  C  C34  1  0.78933000  0.33617000  0.75455000  1.0
  C  C35  1  0.21067000  0.66382000  0.24545000  1.0
  C  C36  1  0.01404000  0.31106000  0.72212000  1.0
  C  C37  1  0.98596000  0.68894000  0.27788000  1.0
  C  C38  1  0.09121000  0.18975000  0.73074000  1.0
  C  C39  1  0.90879000  0.81025000  0.26926000  1.0
  C  C40  1  0.94655000  0.09981000  0.77166000  1.0
  C  C41  1  0.05345000  0.90019000  0.22834000  1.0
  C  C42  1  0.72716000  0.13659000  0.80280000  1.0
  C  C43  1  0.27285000  0.86340000  0.19720000  1.0
  C  C44  1  0.55562000  0.93057000  0.81483000  1.0
  C  C45  1  0.44438000  0.06943000  0.18517000  1.0
  C  C46  1  0.26405000  0.96079000  0.91120000  1.0
  C  C47  1  0.73596000  0.03921000  0.08880000  1.0
  C  C48  1  0.38350000  0.06829000  0.90338000  1.0
  C  C49  1  0.61650000  0.93171000  0.09663000  1.0
  C  C50  1  0.20467000  0.88169000  0.64463000  1.0
  C  C51  1  0.79534000  0.11831000  0.35537000  1.0
  C  C52  1  0.09712000  0.94173000  0.57004000  1.0
  C  C53  1  0.90289000  0.05827000  0.42995000  1.0
  C  C54  1  0.89921000  0.89578000  0.54235000  1.0
  C  C55  1  0.10080000  0.10422000  0.45765000  1.0
  C  C56  1  0.19787000  0.04653000  0.52652000  1.0
  C  C57  1  0.80214000  0.95346000  0.47347000  1.0
  C  C58  1  0.84702000  0.67148000  0.92383000  1.0
  C  C59  1  0.15296000  0.32852000  0.07618000  1.0
  C  C60  1  0.66949000  0.58270000  0.96453000  1.0
  C  C61  1  0.33049000  0.41731000  0.03547000  1.0
  C  C62  1  0.71215000  0.45517000  0.96670000  1.0
  C  C63  1  0.28783000  0.54484000  0.03330000  1.0
  C  C64  1  0.45573000  0.62675000  0.99835000  1.0
  C  C65  1  0.54425000  0.37325000  0.00165000  1.0
  N  N66  1  0.45718000  0.61367000  0.75811000  1.0
  N  N67  1  0.54282000  0.38633000  0.24189000  1.0
  N  N68  1  0.69457000  0.45597000  0.74351000  1.0
  N  N69  1  0.30542000  0.54403000  0.25649000  1.0
  N  N70  1  0.64783000  0.25183000  0.79458000  1.0
  N  N71  1  0.35218000  0.74816000  0.20542000  1.0
  N  N72  1  0.56888000  0.04796000  0.84199000  1.0
  N  N73  1  0.43113000  0.95204000  0.15801000  1.0
  N  N74  1  0.37056000  0.87653000  0.85453000  1.0
  N  N75  1  0.62944000  0.12347000  0.14547000  1.0
  O  O76  1  0.99485000  0.62492000  0.86563000  1.0
  O  O77  1  0.00514000  0.37508000  0.13436000  1.0
  O  O78  1  0.40923000  0.90091000  0.65090000  1.0
  O  O79  1  0.59078000  0.09909000  0.34910000  1.0
  O  O80  1  0.07252000  0.81307000  0.69989000  1.0
  O  O81  1  0.92749000  0.18693000  0.30010000  1.0
  O  O82  1  0.84383000  0.78121000  0.94572000  1.0
  O  O83  1  0.15617000  0.21879000  0.05429000  1.0
