# generated using pymatgen
data_CdH13C18N3O4
_symmetry_space_group_name_H-M   'P 1'
_cell_length_a   11.79660000
_cell_length_b   13.75280000
_cell_length_c   21.29300000
_cell_angle_alpha   90.00000000
_cell_angle_beta   90.00010000
_cell_angle_gamma   89.99990000
_symmetry_Int_Tables_number   1
_chemical_formula_structural   CdH13C18N3O4
_chemical_formula_sum   'Cd4 H52 C72 N12 O16'
_cell_volume   3454.49712025
_cell_formula_units_Z   4
loop_
 _symmetry_equiv_pos_site_id
 _symmetry_equiv_pos_as_xyz
  1  'x, y, z'
loop_
 _atom_site_type_symbol
 _atom_site_label
 _atom_site_symmetry_multiplicity
 _atom_site_fract_x
 _atom_site_fract_y
 _atom_site_fract_z
 _atom_site_occupancy
  Cd  Cd0  1  0.00000000  0.60303000  0.56682000  1.0
  Cd  Cd1  1  0.00000000  0.39697000  0.43318000  1.0
  Cd  Cd2  1  0.00000000  0.89697000  0.06682000  1.0
  Cd  Cd3  1  0.00000000  0.10303000  0.93318000  1.0
  H  H4  1  0.20517000  0.46874000  0.61971000  1.0
  H  H5  1  0.41500000  0.46352000  0.62400000  1.0
  H  H6  1  0.41659000  0.72411000  0.50949000  1.0
  H  H7  1  0.20659000  0.71775000  0.51097000  1.0
  H  H8  1  0.20517000  0.53126000  0.38029000  1.0
  H  H9  1  0.41500000  0.53648000  0.37600000  1.0
  H  H10  1  0.41659000  0.27589000  0.49051000  1.0
  H  H11  1  0.20659000  0.28225000  0.48903000  1.0
  H  H12  1  0.79483000  0.03126000  0.11971000  1.0
  H  H13  1  0.58500000  0.03648000  0.12400000  1.0
  H  H14  1  0.58341000  0.77589000  0.00949000  1.0
  H  H15  1  0.79341000  0.78225000  0.01097000  1.0
  H  H16  1  0.79483000  0.96874000  0.88029000  1.0
  H  H17  1  0.58500000  0.96352000  0.87600000  1.0
  H  H18  1  0.58341000  0.22411000  0.99051000  1.0
  H  H19  1  0.79341000  0.21775000  0.98903000  1.0
  H  H20  1  0.79483000  0.53126000  0.38030000  1.0
  H  H21  1  0.58500000  0.53648000  0.37600000  1.0
  H  H22  1  0.58341000  0.27589000  0.49051000  1.0
  H  H23  1  0.79341000  0.28225000  0.48903000  1.0
  H  H24  1  0.79483000  0.46874000  0.61970000  1.0
  H  H25  1  0.58501000  0.46352000  0.62400000  1.0
  H  H26  1  0.58341000  0.72411000  0.50949000  1.0
  H  H27  1  0.79341000  0.71775000  0.51097000  1.0
  H  H28  1  0.20517000  0.96874000  0.88029000  1.0
  H  H29  1  0.41500000  0.96352000  0.87600000  1.0
  H  H30  1  0.41659000  0.22411000  0.99051000  1.0
  H  H31  1  0.20659000  0.21775000  0.98903000  1.0
  H  H32  1  0.20517000  0.03126000  0.11971000  1.0
  H  H33  1  0.41500000  0.03648000  0.12400000  1.0
  H  H34  1  0.41659000  0.77589000  0.00949000  1.0
  H  H35  1  0.20659000  0.78225000  0.01097000  1.0
  H  H36  1  0.00000000  0.56874000  0.33020000  1.0
  H  H37  1  0.00000000  0.64219000  0.22199000  1.0
  H  H38  1  0.00000000  0.85650000  0.40910000  1.0
  H  H39  1  0.00000000  0.99422000  0.33838000  1.0
  H  H40  1  0.00000000  0.97629000  0.25567000  1.0
  H  H41  1  0.00000000  0.43127000  0.66980000  1.0
  H  H42  1  0.00000000  0.35781000  0.77801000  1.0
  H  H43  1  0.00000000  0.14350000  0.59091000  1.0
  H  H44  1  0.00000000  0.00578000  0.66163000  1.0
  H  H45  1  0.00000000  0.02371000  0.74433000  1.0
  H  H46  1  0.00000000  0.93127000  0.83020000  1.0
  H  H47  1  0.00000000  0.85781000  0.72199000  1.0
  H  H48  1  0.00000000  0.64350000  0.90909000  1.0
  H  H49  1  0.00000000  0.50578000  0.83837000  1.0
  H  H50  1  0.00000000  0.52371000  0.75567000  1.0
  H  H51  1  0.00000000  0.06874000  0.16980000  1.0
  H  H52  1  0.00000000  0.14219000  0.27801000  1.0
  H  H53  1  0.00000000  0.35650000  0.09091000  1.0
  H  H54  1  0.00000000  0.49422000  0.16162000  1.0
  H  H55  1  0.00000000  0.47629000  0.24433000  1.0
  C  C56  1  0.25609000  0.52380000  0.59585000  1.0
  C  C57  1  0.37394000  0.52169000  0.59784000  1.0
  C  C58  1  0.43710000  0.59351000  0.56656000  1.0
  C  C59  1  0.37488000  0.66541000  0.53479000  1.0
  C  C60  1  0.25715000  0.66270000  0.53509000  1.0
  C  C61  1  0.25609000  0.47620000  0.40415000  1.0
  C  C62  1  0.37394000  0.47831000  0.40216000  1.0
  C  C63  1  0.43710000  0.40649000  0.43344000  1.0
  C  C64  1  0.37488000  0.33459000  0.46521000  1.0
  C  C65  1  0.25715000  0.33730000  0.46491000  1.0
  C  C66  1  0.74391000  0.97620000  0.09585000  1.0
  C  C67  1  0.62606000  0.97831000  0.09784000  1.0
  C  C68  1  0.56290000  0.90649000  0.06656000  1.0
  C  C69  1  0.62512000  0.83459000  0.03479000  1.0
  C  C70  1  0.74285000  0.83730000  0.03509000  1.0
  C  C71  1  0.74391000  0.02380000  0.90415000  1.0
  C  C72  1  0.62606000  0.02169000  0.90216000  1.0
  C  C73  1  0.56290000  0.09351000  0.93344000  1.0
  C  C74  1  0.62512000  0.16541000  0.96521000  1.0
  C  C75  1  0.74285000  0.16270000  0.96491000  1.0
  C  C76  1  0.74391000  0.47620000  0.40415000  1.0
  C  C77  1  0.62606000  0.47831000  0.40216000  1.0
  C  C78  1  0.56290000  0.40649000  0.43344000  1.0
  C  C79  1  0.62512000  0.33459000  0.46521000  1.0
  C  C80  1  0.74285000  0.33730000  0.46491000  1.0
  C  C81  1  0.74391000  0.52380000  0.59585000  1.0
  C  C82  1  0.62606000  0.52169000  0.59784000  1.0
  C  C83  1  0.56290000  0.59351000  0.56656000  1.0
  C  C84  1  0.62512000  0.66541000  0.53479000  1.0
  C  C85  1  0.74285000  0.66270000  0.53509000  1.0
  C  C86  1  0.25609000  0.02380000  0.90415000  1.0
  C  C87  1  0.37394000  0.02169000  0.90216000  1.0
  C  C88  1  0.43710000  0.09351000  0.93344000  1.0
  C  C89  1  0.37488000  0.16541000  0.96521000  1.0
  C  C90  1  0.25715000  0.16270000  0.96491000  1.0
  C  C91  1  0.25609000  0.97620000  0.09585000  1.0
  C  C92  1  0.37394000  0.97831000  0.09784000  1.0
  C  C93  1  0.43710000  0.90649000  0.06656000  1.0
  C  C94  1  0.37488000  0.83459000  0.03479000  1.0
  C  C95  1  0.25715000  0.83730000  0.03509000  1.0
  C  C96  1  0.00000000  0.66753000  0.44084000  1.0
  C  C97  1  0.00000000  0.70922000  0.37593000  1.0
  C  C98  1  0.00000000  0.64703000  0.32347000  1.0
  C  C99  1  0.00000000  0.68756000  0.26387000  1.0
  C  C100  1  0.00000000  0.80968000  0.36773000  1.0
  C  C101  1  0.00000000  0.85180000  0.30715000  1.0
  C  C102  1  0.00000000  0.78835000  0.25392000  1.0
  C  C103  1  0.00000000  0.82405000  0.18789000  1.0
  C  C104  1  0.00000000  0.33247000  0.55916000  1.0
  C  C105  1  0.00000000  0.29079000  0.62407000  1.0
  C  C106  1  0.00000000  0.35297000  0.67653000  1.0
  C  C107  1  0.00000000  0.31244000  0.73613000  1.0
  C  C108  1  0.00000000  0.19032000  0.63227000  1.0
  C  C109  1  0.00000000  0.14820000  0.69285000  1.0
  C  C110  1  0.00000000  0.21165000  0.74608000  1.0
  C  C111  1  0.00000000  0.17596000  0.81211000  1.0
  C  C112  1  0.00000000  0.83247000  0.94084000  1.0
  C  C113  1  0.00000000  0.79078000  0.87594000  1.0
  C  C114  1  0.00000000  0.85297000  0.82347000  1.0
  C  C115  1  0.00000000  0.81244000  0.76387000  1.0
  C  C116  1  0.00000000  0.69032000  0.86773000  1.0
  C  C117  1  0.00000000  0.64820000  0.80715000  1.0
  C  C118  1  0.00000000  0.71165000  0.75392000  1.0
  C  C119  1  0.00000000  0.67596000  0.68789000  1.0
  C  C120  1  0.00000000  0.16753000  0.05916000  1.0
  C  C121  1  0.00000000  0.20922000  0.12407000  1.0
  C  C122  1  0.00000000  0.14703000  0.17653000  1.0
  C  C123  1  0.00000000  0.18756000  0.23613000  1.0
  C  C124  1  0.00000000  0.30968000  0.13227000  1.0
  C  C125  1  0.00000000  0.35180000  0.19285000  1.0
  C  C126  1  0.00000000  0.28835000  0.24608000  1.0
  C  C127  1  0.00000000  0.32405000  0.31211000  1.0
  N  N128  1  0.19846000  0.59277000  0.56473000  1.0
  N  N129  1  0.19846000  0.40723000  0.43527000  1.0
  N  N130  1  0.80154000  0.90722000  0.06473000  1.0
  N  N131  1  0.80154000  0.09278000  0.93527000  1.0
  N  N132  1  0.80154000  0.40723000  0.43527000  1.0
  N  N133  1  0.80154000  0.59277000  0.56473000  1.0
  N  N134  1  0.19846000  0.09277000  0.93527000  1.0
  N  N135  1  0.19846000  0.90722000  0.06473000  1.0
  N  N136  1  0.00000000  0.95011000  0.30047000  1.0
  N  N137  1  0.00000000  0.04989000  0.69953000  1.0
  N  N138  1  0.00000000  0.54989000  0.80047000  1.0
  N  N139  1  0.00000000  0.45011000  0.19953000  1.0
  O  O140  1  0.00000000  0.72541000  0.48772000  1.0
  O  O141  1  0.00000000  0.57495000  0.44857000  1.0
  O  O142  1  0.00000000  0.76385000  0.14263000  1.0
  O  O143  1  0.00000000  0.91697000  0.17765000  1.0
  O  O144  1  0.00000000  0.27459000  0.51228000  1.0
  O  O145  1  0.00000000  0.42505000  0.55143000  1.0
  O  O146  1  0.00000000  0.23615000  0.85737000  1.0
  O  O147  1  0.00000000  0.08303000  0.82235000  1.0
  O  O148  1  0.00000000  0.77459000  0.98772000  1.0
  O  O149  1  0.00001000  0.92505000  0.94857000  1.0
  O  O150  1  0.00000000  0.73615000  0.64263000  1.0
  O  O151  1  0.00000000  0.58303000  0.67765000  1.0
  O  O152  1  0.00000000  0.22541000  0.01228000  1.0
  O  O153  1  0.00000000  0.07495000  0.05143000  1.0
  O  O154  1  0.00000000  0.26385000  0.35737000  1.0
  O  O155  1  0.00000000  0.41697000  0.32235000  1.0
