# generated using pymatgen
data_Sm6CoH36C20S6(N4O27)2
_symmetry_space_group_name_H-M   'P 1'
_cell_length_a   6.57060000
_cell_length_b   9.41325000
_cell_length_c   21.61900000
_cell_angle_alpha   97.14030000
_cell_angle_beta   94.43710000
_cell_angle_gamma   97.99090000
_symmetry_Int_Tables_number   1
_chemical_formula_structural   Sm6CoH36C20S6(N4O27)2
_chemical_formula_sum   'Sm6 Co1 H36 C20 S6 N8 O54'
_cell_volume   1307.78857296
_cell_formula_units_Z   1
loop_
 _symmetry_equiv_pos_site_id
 _symmetry_equiv_pos_as_xyz
  1  'x, y, z'
loop_
 _atom_site_type_symbol
 _atom_site_label
 _atom_site_symmetry_multiplicity
 _atom_site_fract_x
 _atom_site_fract_y
 _atom_site_fract_z
 _atom_site_occupancy
  Sm  Sm0  1  0.35257000  0.00690000  0.86293000  1.0
  Sm  Sm1  1  0.64743000  0.99310000  0.13707000  1.0
  Sm  Sm2  1  0.07694000  0.87460000  0.67976000  1.0
  Sm  Sm3  1  0.92306000  0.12540000  0.32024000  1.0
  Sm  Sm4  1  0.33782000  0.28739000  0.57763000  1.0
  Sm  Sm5  1  0.66219000  0.71261000  0.42237000  1.0
  Co  Co6  1  0.00000000  0.50000000  0.00000000  1.0
  H  H7  1  0.57879000  0.61901000  0.69301000  1.0
  H  H8  1  0.42122000  0.38099000  0.30699000  1.0
  H  H9  1  0.83656000  0.26787000  0.85832000  1.0
  H  H10  1  0.16343000  0.73214000  0.14168000  1.0
  H  H11  1  0.57368000  0.63632000  0.81172000  1.0
  H  H12  1  0.42633000  0.36368000  0.18828000  1.0
  H  H13  1  0.91741000  0.38094000  0.76055000  1.0
  H  H14  1  0.08259000  0.61906000  0.23944000  1.0
  H  H15  1  0.10087000  0.51864000  0.64426000  1.0
  H  H16  1  0.89913000  0.48136000  0.35574000  1.0
  H  H17  1  0.04787000  0.50229000  0.57142000  1.0
  H  H18  1  0.95212000  0.49771000  0.42858000  1.0
  H  H19  1  0.19926000  0.96349000  0.52967000  1.0
  H  H20  1  0.80074000  0.03650000  0.47033000  1.0
  H  H21  1  0.31244000  0.02630000  0.47479000  1.0
  H  H22  1  0.68757000  0.97370000  0.52521000  1.0
  H  H23  1  0.29316000  0.77117000  0.56351000  1.0
  H  H24  1  0.70684000  0.22883000  0.43649000  1.0
  H  H25  1  0.04998000  0.74804000  0.54481000  1.0
  H  H26  1  0.95002000  0.25196000  0.45519000  1.0
  H  H27  1  0.55925000  0.86067000  0.70907000  1.0
  H  H28  1  0.44075000  0.13933000  0.29093000  1.0
  H  H29  1  0.52375000  0.92761000  0.64926000  1.0
  H  H30  1  0.47624000  0.07240000  0.35074000  1.0
  H  H31  1  0.05214000  0.07419000  0.95327000  1.0
  H  H32  1  0.94786000  0.92581000  0.04673000  1.0
  H  H33  1  0.22997000  0.20547000  0.97983000  1.0
  H  H34  1  0.77003000  0.79453000  0.02017000  1.0
  H  H35  1  0.68989000  0.16561000  0.96464000  1.0
  H  H36  1  0.31011000  0.83439000  0.03536000  1.0
  H  H37  1  0.67768000  0.00116000  0.97431000  1.0
  H  H38  1  0.32232000  0.99884000  0.02569000  1.0
  H  H39  1  0.64738000  0.58153000  0.03495000  1.0
  H  H40  1  0.35262000  0.41846000  0.96505000  1.0
  H  H41  1  0.63363000  0.58092000  0.96129000  1.0
  H  H42  1  0.36638000  0.41907000  0.03871000  1.0
  C  C43  1  0.29905000  0.16725000  0.72124000  1.0
  C  C44  1  0.70095000  0.83275000  0.27876000  1.0
  C  C45  1  0.39712000  0.31846000  0.73958000  1.0
  C  C46  1  0.60287000  0.68154000  0.26043000  1.0
  C  C47  1  0.45017000  0.40820000  0.79660000  1.0
  C  C48  1  0.54983000  0.59180000  0.20340000  1.0
  C  C49  1  0.43867000  0.38611000  0.86267000  1.0
  C  C50  1  0.56133000  0.61389000  0.13733000  1.0
  C  C51  1  0.52126000  0.53092000  0.71787000  1.0
  C  C52  1  0.47875000  0.46909000  0.28213000  1.0
  C  C53  1  0.18085000  0.71053000  0.93529000  1.0
  C  C54  1  0.81916000  0.28947000  0.06471000  1.0
  C  C55  1  0.06862000  0.59983000  0.88670000  1.0
  C  C56  1  0.93139000  0.40017000  0.11330000  1.0
  C  C57  1  0.05096000  0.57659000  0.82141000  1.0
  C  C58  1  0.94904000  0.42341000  0.17859000  1.0
  C  C59  1  0.10805000  0.66807000  0.77268000  1.0
  C  C60  1  0.89195000  0.33193000  0.22732000  1.0
  C  C61  1  0.91266000  0.37822000  0.85884000  1.0
  C  C62  1  0.08734000  0.62178000  0.14116000  1.0
  S  S63  1  0.67828000  0.64029000  0.56431000  1.0
  S  S64  1  0.32172000  0.35971000  0.43569000  1.0
  S  S65  1  0.83488000  0.17452000  0.62875000  1.0
  S  S66  1  0.16513000  0.82548000  0.37125000  1.0
  S  S67  1  0.77497000  0.93861000  0.81606000  1.0
  S  S68  1  0.22503000  0.06139000  0.18394000  1.0
  N  N69  1  0.44143000  0.39767000  0.69151000  1.0
  N  N70  1  0.55857000  0.60233000  0.30849000  1.0
  N  N71  1  0.52646000  0.54168000  0.78097000  1.0
  N  N72  1  0.47354000  0.45832000  0.21903000  1.0
  N  N73  1  0.97985000  0.47689000  0.90903000  1.0
  N  N74  1  0.02015000  0.52311000  0.09097000  1.0
  N  N75  1  0.95218000  0.43575000  0.80584000  1.0
  N  N76  1  0.04782000  0.56425000  0.19416000  1.0
  O  O77  1  0.83557000  0.62937000  0.51687000  1.0
  O  O78  1  0.16443000  0.37063000  0.48313000  1.0
  O  O79  1  0.58738000  0.49409000  0.57390000  1.0
  O  O80  1  0.41262000  0.50591000  0.42610000  1.0
  O  O81  1  0.78532000  0.71736000  0.62436000  1.0
  O  O82  1  0.21467000  0.28265000  0.37564000  1.0
  O  O83  1  0.52290000  0.72265000  0.53749000  1.0
  O  O84  1  0.47710000  0.27735000  0.46251000  1.0
  O  O85  1  0.98324000  0.21284000  0.58280000  1.0
  O  O86  1  0.01677000  0.78716000  0.41720000  1.0
  O  O87  1  0.84449000  0.02152000  0.64143000  1.0
  O  O88  1  0.15550000  0.97848000  0.35857000  1.0
  O  O89  1  0.87474000  0.27561000  0.68693000  1.0
  O  O90  1  0.12527000  0.72439000  0.31307000  1.0
  O  O91  1  0.62408000  0.17076000  0.59693000  1.0
  O  O92  1  0.37592000  0.82925000  0.40307000  1.0
  O  O93  1  0.27194000  0.12142000  0.66260000  1.0
  O  O94  1  0.72806000  0.87858000  0.33740000  1.0
  O  O95  1  0.23554000  0.08296000  0.76031000  1.0
  O  O96  1  0.76445000  0.91704000  0.23969000  1.0
  O  O97  1  0.40161000  0.25831000  0.87604000  1.0
  O  O98  1  0.59839000  0.74168000  0.12396000  1.0
  O  O99  1  0.46434000  0.49892000  0.90306000  1.0
  O  O100  1  0.53565000  0.50107000  0.09695000  1.0
  O  O101  1  0.28771000  0.82379000  0.92453000  1.0
  O  O102  1  0.71230000  0.17621000  0.07547000  1.0
  O  O103  1  0.16927000  0.67868000  0.99195000  1.0
  O  O104  1  0.83074000  0.32131000  0.00805000  1.0
  O  O105  1  0.21034000  0.79591000  0.78702000  1.0
  O  O106  1  0.78966000  0.20410000  0.21298000  1.0
  O  O107  1  0.04637000  0.61981000  0.71587000  1.0
  O  O108  1  0.95363000  0.38019000  0.28413000  1.0
  O  O109  1  0.66377000  0.06457000  0.80917000  1.0
  O  O110  1  0.33622000  0.93542000  0.19083000  1.0
  O  O111  1  0.63600000  0.83265000  0.84535000  1.0
  O  O112  1  0.36400000  0.16735000  0.15465000  1.0
  O  O113  1  0.80860000  0.86864000  0.75200000  1.0
  O  O114  1  0.19140000  0.13136000  0.24800000  1.0
  O  O115  1  0.97495000  0.98584000  0.85428000  1.0
  O  O116  1  0.02505000  0.01417000  0.14572000  1.0
  O  O117  1  0.16092000  0.50558000  0.60394000  1.0
  O  O118  1  0.83908000  0.49442000  0.39606000  1.0
  O  O119  1  0.24893000  0.05423000  0.51283000  1.0
  O  O120  1  0.75109000  0.94576000  0.48717000  1.0
  O  O121  1  0.16567000  0.81526000  0.57059000  1.0
  O  O122  1  0.83433000  0.18474000  0.42941000  1.0
  O  O123  1  0.44755000  0.86903000  0.67687000  1.0
  O  O124  1  0.55245000  0.13096000  0.32313000  1.0
  O  O125  1  0.20045000  0.09733000  0.96608000  1.0
  O  O126  1  0.79955000  0.90267000  0.03391000  1.0
  O  O127  1  0.63959000  0.06558000  0.94389000  1.0
  O  O128  1  0.36041000  0.93442000  0.05611000  1.0
  O  O129  1  0.72343000  0.61934000  0.00074000  1.0
  O  O130  1  0.27657000  0.38065000  0.99926000  1.0
