# generated using pymatgen
data_CuH20C18(NO)6
_symmetry_space_group_name_H-M   'P 1'
_cell_length_a   7.41281000
_cell_length_b   8.74599000
_cell_length_c   8.92790000
_cell_angle_alpha   65.02890000
_cell_angle_beta   82.98140000
_cell_angle_gamma   74.72620000
_symmetry_Int_Tables_number   1
_chemical_formula_structural   CuH20C18(NO)6
_chemical_formula_sum   'Cu1 H20 C18 N6 O6'
_cell_volume   506.13582716
_cell_formula_units_Z   1
loop_
 _symmetry_equiv_pos_site_id
 _symmetry_equiv_pos_as_xyz
  1  'x, y, z'
loop_
 _atom_site_type_symbol
 _atom_site_label
 _atom_site_symmetry_multiplicity
 _atom_site_fract_x
 _atom_site_fract_y
 _atom_site_fract_z
 _atom_site_occupancy
  Cu  Cu0  1  0.50000000  0.00000000  0.99999000  1.0
  H  H1  1  0.61272000  0.28655000  0.70645000  1.0
  H  H2  1  0.38729000  0.71343000  0.29355000  1.0
  H  H3  1  0.51809000  0.61336000  0.58836000  1.0
  H  H4  1  0.48194000  0.38662000  0.41165000  1.0
  H  H5  1  0.28421000  0.75762000  0.74581000  1.0
  H  H6  1  0.71582000  0.24237000  0.25419000  1.0
  H  H7  1  0.27319000  0.25011000  0.12001000  1.0
  H  H8  1  0.72680000  0.74989000  0.87999000  1.0
  H  H9  1  0.12263000  0.73259000  0.98337000  1.0
  H  H10  1  0.87739000  0.26742000  0.01662000  1.0
  H  H11  1  0.94370000  0.75668000  0.21195000  1.0
  H  H12  1  0.05629000  0.24334000  0.78806000  1.0
  H  H13  1  0.85115000  0.44136000  0.44657000  1.0
  H  H14  1  0.14886000  0.55865000  0.55342000  1.0
  H  H15  1  0.81893000  0.64176000  0.46733000  1.0
  H  H16  1  0.18107000  0.35824000  0.53267000  1.0
  H  H17  1  0.66852000  0.84059000  0.55187000  1.0
  H  H18  1  0.33143000  0.15942000  0.44813000  1.0
  H  H19  1  0.68928000  0.05163000  0.47502000  1.0
  H  H20  1  0.31068000  0.94838000  0.52499000  1.0
  C  C21  1  0.51488000  0.35639000  0.77024000  1.0
  C  C22  1  0.48513000  0.64360000  0.22976000  1.0
  C  C23  1  0.46070000  0.53670000  0.70636000  1.0
  C  C24  1  0.53931000  0.46329000  0.29365000  1.0
  C  C25  1  0.33333333  0.61725000  0.79342000  1.0
  C  C26  1  0.66666667  0.38274000  0.20658000  1.0
  C  C27  1  0.26582000  0.51623000  0.94754000  1.0
  C  C28  1  0.73419000  0.48376000  0.05246000  1.0
  C  C29  1  0.32359000  0.33467000  0.00329000  1.0
  C  C30  1  0.67640000  0.66532000  0.99671000  1.0
  C  C31  1  0.08277000  0.51910000  0.19647000  1.0
  C  C32  1  0.91723000  0.48091000  0.80353000  1.0
  C  C33  1  0.91999000  0.54178000  0.43798000  1.0
  C  C34  1  0.08002000  0.45822000  0.56202000  1.0
  C  C35  1  0.61426000  0.97928000  0.29381000  1.0
  C  C36  1  0.38573000  0.02071000  0.70619000  1.0
  C  C37  1  0.59885000  0.97329000  0.46879000  1.0
  C  C38  1  0.40112000  0.02672000  0.53121000  1.0
  N  N39  1  0.44409000  0.25920000  0.91520000  1.0
  N  N40  1  0.55591000  0.74079000  0.08480000  1.0
  N  N41  1  0.14622000  0.60065000  0.03593000  1.0
  N  N42  1  0.85379000  0.39936000  0.96407000  1.0
  N  N43  1  0.98661000  0.62461000  0.27023000  1.0
  N  N44  1  0.01339000  0.37541000  0.72977000  1.0
  O  O45  1  0.11298000  0.35850000  0.26982000  1.0
  O  O46  1  0.88703000  0.64151000  0.73018000  1.0
  O  O47  1  0.46419000  0.97871000  0.23367000  1.0
  O  O48  1  0.53580000  0.02127000  0.76632000  1.0
  O  O49  1  0.76865000  0.98266000  0.21672000  1.0
  O  O50  1  0.23136000  0.01733000  0.78330000  1.0
