# generated using pymatgen
data_NaH11C8S(NO)2
_symmetry_space_group_name_H-M   'P 1'
_cell_length_a   7.66814000
_cell_length_b   10.16150000
_cell_length_c   14.21940000
_cell_angle_alpha   71.57900000
_cell_angle_beta   89.99940000
_cell_angle_gamma   89.99920000
_symmetry_Int_Tables_number   1
_chemical_formula_structural   NaH11C8S(NO)2
_chemical_formula_sum   'Na4 H44 C32 S4 N8 O8'
_cell_volume   1051.20062390
_cell_formula_units_Z   4
loop_
 _symmetry_equiv_pos_site_id
 _symmetry_equiv_pos_as_xyz
  1  'x, y, z'
loop_
 _atom_site_type_symbol
 _atom_site_label
 _atom_site_symmetry_multiplicity
 _atom_site_fract_x
 _atom_site_fract_y
 _atom_site_fract_z
 _atom_site_occupancy
  Na  Na0  1  0.45971000  0.49223000  0.88583000  1.0
  Na  Na1  1  0.95971000  0.00776000  0.61417000  1.0
  Na  Na2  1  0.54029000  0.50777000  0.11417000  1.0
  Na  Na3  1  0.04029000  0.99223000  0.38583000  1.0
  H  H4  1  0.74748000  0.76138000  0.67905000  1.0
  H  H5  1  0.24749000  0.73862000  0.82095000  1.0
  H  H6  1  0.25253000  0.23862000  0.32094000  1.0
  H  H7  1  0.75252000  0.26138000  0.17905000  1.0
  H  H8  1  0.67234000  0.04235000  0.36139000  1.0
  H  H9  1  0.17235000  0.45765000  0.13861000  1.0
  H  H10  1  0.32765000  0.95765000  0.63861000  1.0
  H  H11  1  0.82766000  0.54235000  0.86138000  1.0
  H  H12  1  0.46984000  0.99756000  0.31860000  1.0
  H  H13  1  0.96984000  0.50244000  0.18140000  1.0
  H  H14  1  0.53017000  0.00245000  0.68140000  1.0
  H  H15  1  0.03017000  0.49755000  0.81859000  1.0
  H  H16  1  0.33735000  0.42662000  0.62930000  1.0
  H  H17  1  0.83735000  0.07339000  0.87070000  1.0
  H  H18  1  0.66264000  0.57339000  0.37070000  1.0
  H  H19  1  0.16264000  0.92661000  0.12930000  1.0
  H  H20  1  0.26087000  0.49228000  0.50424000  1.0
  H  H21  1  0.76086000  0.00772000  0.99576000  1.0
  H  H22  1  0.73914000  0.50771000  0.49577000  1.0
  H  H23  1  0.23914000  0.99228000  0.00424000  1.0
  H  H24  1  0.11052000  0.42559000  0.60357000  1.0
  H  H25  1  0.61052000  0.07442000  0.89643000  1.0
  H  H26  1  0.88948000  0.57442000  0.39644000  1.0
  H  H27  1  0.38948000  0.92558000  0.10357000  1.0
  H  H28  1  0.18360000  0.62004000  0.66960000  1.0
  H  H29  1  0.68360000  0.87996000  0.83040000  1.0
  H  H30  1  0.81641000  0.37997000  0.33040000  1.0
  H  H31  1  0.31640000  0.12004000  0.16960000  1.0
  H  H32  1  0.10900000  0.68714000  0.54400000  1.0
  H  H33  1  0.60900000  0.81287000  0.95599000  1.0
  H  H34  1  0.89101000  0.31287000  0.45599000  1.0
  H  H35  1  0.39100000  0.18713000  0.04401000  1.0
  H  H36  1  0.81155000  0.83651000  0.31924000  1.0
  H  H37  1  0.31154000  0.66349000  0.18076000  1.0
  H  H38  1  0.18845000  0.16350000  0.68075000  1.0
  H  H39  1  0.68845000  0.33651000  0.81924000  1.0
  H  H40  1  0.72403000  0.96567000  0.21408000  1.0
  H  H41  1  0.22402000  0.53433000  0.28592000  1.0
  H  H42  1  0.27597000  0.03434000  0.78592000  1.0
  H  H43  1  0.77597000  0.46566000  0.71408000  1.0
  H  H44  1  0.60706000  0.80951000  0.27010000  1.0
  H  H45  1  0.10705000  0.69049000  0.22990000  1.0
  H  H46  1  0.39295000  0.19050000  0.72989000  1.0
  H  H47  1  0.89294000  0.30950000  0.77010000  1.0
  C  C48  1  0.65260000  0.76803000  0.62086000  1.0
  C  C49  1  0.15263000  0.73199000  0.87915000  1.0
  C  C50  1  0.34739000  0.23198000  0.37914000  1.0
  C  C51  1  0.84738000  0.26803000  0.12086000  1.0
  C  C52  1  0.40764000  0.78624000  0.47023000  1.0
  C  C53  1  0.90764000  0.71376000  0.02976000  1.0
  C  C54  1  0.59237000  0.21378000  0.52976000  1.0
  C  C55  1  0.09236000  0.28623000  0.97024000  1.0
  C  C56  1  0.59597000  0.95686000  0.35104000  1.0
  C  C57  1  0.09597000  0.54313000  0.14896000  1.0
  C  C58  1  0.40403000  0.04314000  0.64896000  1.0
  C  C59  1  0.90403000  0.45686000  0.85104000  1.0
  C  C60  1  0.68911000  0.85208000  0.52463000  1.0
  C  C61  1  0.18911000  0.64791000  0.97538000  1.0
  C  C62  1  0.31090000  0.14791000  0.47538000  1.0
  C  C63  1  0.81087000  0.35209000  0.02462000  1.0
  C  C64  1  0.49333000  0.69855000  0.64633000  1.0
  C  C65  1  0.99334000  0.80145000  0.85367000  1.0
  C  C66  1  0.50667000  0.30145000  0.35367000  1.0
  C  C67  1  0.00667000  0.19854000  0.14634000  1.0
  C  C68  1  0.23220000  0.48437000  0.58151000  1.0
  C  C69  1  0.73220000  0.01563000  0.91849000  1.0
  C  C70  1  0.76780000  0.51563000  0.41849000  1.0
  C  C71  1  0.26780000  0.98437000  0.08151000  1.0
  C  C72  1  0.21224000  0.62801000  0.59249000  1.0
  C  C73  1  0.71225000  0.87200000  0.90750000  1.0
  C  C74  1  0.78775000  0.37199000  0.40750000  1.0
  C  C75  1  0.28775000  0.12800000  0.09250000  1.0
  C  C76  1  0.69073000  0.88797000  0.28516000  1.0
  C  C77  1  0.19072000  0.61202000  0.21484000  1.0
  C  C78  1  0.30927000  0.11203000  0.71484000  1.0
  C  C79  1  0.80928000  0.38797000  0.78516000  1.0
  S  S80  1  0.27082000  0.78574000  0.37724000  1.0
  S  S81  1  0.77083000  0.71426000  0.12276000  1.0
  S  S82  1  0.72918000  0.21426000  0.62275000  1.0
  S  S83  1  0.22917000  0.28573000  0.87725000  1.0
  N  N84  1  0.56002000  0.86170000  0.45138000  1.0
  N  N85  1  0.06002000  0.63830000  0.04863000  1.0
  N  N86  1  0.43999000  0.13830000  0.54862000  1.0
  N  N87  1  0.93998000  0.36170000  0.95138000  1.0
  N  N88  1  0.37424000  0.70977000  0.56693000  1.0
  N  N89  1  0.87425000  0.79024000  0.93307000  1.0
  N  N90  1  0.62576000  0.29023000  0.43307000  1.0
  N  N91  1  0.12575000  0.20977000  0.06693000  1.0
  O  O92  1  0.44829000  0.62810000  0.73265000  1.0
  O  O93  1  0.94832000  0.87190000  0.76734000  1.0
  O  O94  1  0.55171000  0.37190000  0.26735000  1.0
  O  O95  1  0.05169000  0.12811000  0.23265000  1.0
  O  O96  1  0.82839000  0.92232000  0.49871000  1.0
  O  O97  1  0.32838000  0.57766000  0.00130000  1.0
  O  O98  1  0.17162000  0.07767000  0.50129000  1.0
  O  O99  1  0.67160000  0.42232000  0.99871000  1.0
