# generated using pymatgen
data_ZnH6C8O5
_symmetry_space_group_name_H-M   'P 1'
_cell_length_a   5.89729000
_cell_length_b   8.59263000
_cell_length_c   16.93890000
_cell_angle_alpha   89.99910000
_cell_angle_beta   90.00030000
_cell_angle_gamma   89.99860000
_symmetry_Int_Tables_number   1
_chemical_formula_structural   ZnH6C8O5
_chemical_formula_sum   'Zn4 H24 C32 O20'
_cell_volume   858.34879175
_cell_formula_units_Z   4
loop_
 _symmetry_equiv_pos_site_id
 _symmetry_equiv_pos_as_xyz
  1  'x, y, z'
loop_
 _atom_site_type_symbol
 _atom_site_label
 _atom_site_symmetry_multiplicity
 _atom_site_fract_x
 _atom_site_fract_y
 _atom_site_fract_z
 _atom_site_occupancy
  Zn  Zn0  1  0.58905000  0.84213000  0.31462000  1.0
  Zn  Zn1  1  0.41095000  0.15787000  0.81462000  1.0
  Zn  Zn2  1  0.58905000  0.65787000  0.81461000  1.0
  Zn  Zn3  1  0.41094000  0.34214000  0.31461000  1.0
  H  H4  1  0.48643000  0.84425000  0.05749000  1.0
  H  H5  1  0.51358000  0.15574000  0.55748000  1.0
  H  H6  1  0.48641000  0.65573000  0.55749000  1.0
  H  H7  1  0.51359000  0.34425000  0.05748000  1.0
  H  H8  1  0.89398000  0.05430000  0.16130000  1.0
  H  H9  1  0.10602000  0.94571000  0.66129000  1.0
  H  H10  1  0.89396000  0.44571000  0.66129000  1.0
  H  H11  1  0.10602000  0.55431000  0.16128000  1.0
  H  H12  1  0.73854000  0.10483000  0.02667000  1.0
  H  H13  1  0.26147000  0.89516000  0.52667000  1.0
  H  H14  1  0.73854000  0.39517000  0.52666000  1.0
  H  H15  1  0.26145000  0.60483000  0.02665000  1.0
  H  H16  1  0.95405000  0.02525000  0.90874000  1.0
  H  H17  1  0.04596000  0.97474000  0.40874000  1.0
  H  H18  1  0.95406000  0.47473000  0.40873000  1.0
  H  H19  1  0.04591000  0.52526000  0.90872000  1.0
  H  H20  1  0.00970000  0.80416000  0.28878000  1.0
  H  H21  1  0.99030000  0.19583000  0.78877000  1.0
  H  H22  1  0.00971000  0.69585000  0.78878000  1.0
  H  H23  1  0.99029000  0.30416000  0.28876000  1.0
  H  H24  1  0.88905000  0.63165000  0.28688000  1.0
  H  H25  1  0.11096000  0.36834000  0.78688000  1.0
  H  H26  1  0.88903000  0.86836000  0.78689000  1.0
  H  H27  1  0.11097000  0.13164000  0.28687000  1.0
  C  C28  1  0.35156000  0.86501000  0.90486000  1.0
  C  C29  1  0.64844000  0.13500000  0.40486000  1.0
  C  C30  1  0.35157000  0.63498000  0.40486000  1.0
  C  C31  1  0.64842000  0.36501000  0.90486000  1.0
  C  C32  1  0.23464000  0.93003000  0.97534000  1.0
  C  C33  1  0.76538000  0.06998000  0.47534000  1.0
  C  C34  1  0.23464000  0.56996000  0.47534000  1.0
  C  C35  1  0.76535000  0.43003000  0.97533000  1.0
  C  C36  1  0.32430000  0.90353000  0.05060000  1.0
  C  C37  1  0.67571000  0.09647000  0.55060000  1.0
  C  C38  1  0.32428000  0.59647000  0.55060000  1.0
  C  C39  1  0.67570000  0.40353000  0.05060000  1.0
  C  C40  1  0.20402000  0.95096000  0.11762000  1.0
  C  C41  1  0.79599000  0.04903000  0.61762000  1.0
  C  C42  1  0.20401000  0.54901000  0.61762000  1.0
  C  C43  1  0.79599000  0.45099000  0.11761000  1.0
  C  C44  1  0.99140000  0.02271000  0.10902000  1.0
  C  C45  1  0.00860000  0.97729000  0.60902000  1.0
  C  C46  1  0.99140000  0.47728000  0.60902000  1.0
  C  C47  1  0.00858000  0.52273000  0.10901000  1.0
  C  C48  1  0.90355000  0.05010000  0.03402000  1.0
  C  C49  1  0.09647000  0.94990000  0.53402000  1.0
  C  C50  1  0.90353000  0.44990000  0.53402000  1.0
  C  C51  1  0.09645000  0.55010000  0.03401000  1.0
  C  C52  1  0.02535000  0.00575000  0.96716000  1.0
  C  C53  1  0.97468000  0.99428000  0.46715000  1.0
  C  C54  1  0.02534000  0.49425000  0.46715000  1.0
  C  C55  1  0.97464000  0.50575000  0.96714000  1.0
  C  C56  1  0.29560000  0.91747000  0.19764000  1.0
  C  C57  1  0.70442000  0.08253000  0.69763000  1.0
  C  C58  1  0.29557000  0.58253000  0.69763000  1.0
  C  C59  1  0.70442000  0.41749000  0.19763000  1.0
  O  O60  1  0.44814000  0.73272000  0.91335000  1.0
  O  O61  1  0.55186000  0.26728000  0.41334000  1.0
  O  O62  1  0.44813000  0.76727000  0.41335000  1.0
  O  O63  1  0.55187000  0.23272000  0.91335000  1.0
  O  O64  1  0.34908000  0.93397000  0.83799000  1.0
  O  O65  1  0.65093000  0.06603000  0.33798000  1.0
  O  O66  1  0.34908000  0.56605000  0.33798000  1.0
  O  O67  1  0.65089000  0.43395000  0.83798000  1.0
  O  O68  1  0.49122000  0.85318000  0.20294000  1.0
  O  O69  1  0.50880000  0.14682000  0.70294000  1.0
  O  O70  1  0.49120000  0.64681000  0.70294000  1.0
  O  O71  1  0.50879000  0.35321000  0.20295000  1.0
  O  O72  1  0.17725000  0.95000000  0.25886000  1.0
  O  O73  1  0.82277000  0.04998000  0.75886000  1.0
  O  O74  1  0.17721000  0.54998000  0.75886000  1.0
  O  O75  1  0.82279000  0.45002000  0.25885000  1.0
  O  O76  1  0.89050000  0.73637000  0.31252000  1.0
  O  O77  1  0.10950000  0.26362000  0.81251000  1.0
  O  O78  1  0.89050000  0.76364000  0.81252000  1.0
  O  O79  1  0.10950000  0.23637000  0.31250000  1.0
