# generated using pymatgen
data_H10PbC12NO5
_symmetry_space_group_name_H-M   'P 1'
_cell_length_a   7.17876000
_cell_length_b   9.02952000
_cell_length_c   9.92263000
_cell_angle_alpha   79.29480000
_cell_angle_beta   71.29960000
_cell_angle_gamma   86.29370000
_symmetry_Int_Tables_number   1
_chemical_formula_structural   H10PbC12NO5
_chemical_formula_sum   'H20 Pb2 C24 N2 O10'
_cell_volume   598.62486974
_cell_formula_units_Z   2
loop_
 _symmetry_equiv_pos_site_id
 _symmetry_equiv_pos_as_xyz
  1  'x, y, z'
loop_
 _atom_site_type_symbol
 _atom_site_label
 _atom_site_symmetry_multiplicity
 _atom_site_fract_x
 _atom_site_fract_y
 _atom_site_fract_z
 _atom_site_occupancy
  H  H0  1  0.50234000  0.85618000  0.29705000  1.0
  H  H1  1  0.49765000  0.14384000  0.70295000  1.0
  H  H2  1  0.27274000  0.83498000  0.32215000  1.0
  H  H3  1  0.72725000  0.16504000  0.67785000  1.0
  H  H4  1  0.70128000  0.88167000  0.89036000  1.0
  H  H5  1  0.29871000  0.11832000  0.10965000  1.0
  H  H6  1  0.93473000  0.90861000  0.90587000  1.0
  H  H7  1  0.06526000  0.09139000  0.09413000  1.0
  H  H8  1  0.75275000  0.80041000  0.05201000  1.0
  H  H9  1  0.24725000  0.19959000  0.94799000  1.0
  H  H10  1  0.69507000  0.26505000  0.07979000  1.0
  H  H11  1  0.30493000  0.73495000  0.92020000  1.0
  H  H12  1  0.74034000  0.19884000  0.91391000  1.0
  H  H13  1  0.25966000  0.80115000  0.08609000  1.0
  H  H14  1  0.54834000  0.33292000  0.96885000  1.0
  H  H15  1  0.45166000  0.66708000  0.03114000  1.0
  H  H16  1  0.19363000  0.52980000  0.43212000  1.0
  H  H17  1  0.80638000  0.47020000  0.56788000  1.0
  H  H18  1  0.51349000  0.48108000  0.24975000  1.0
  H  H19  1  0.48652000  0.51891000  0.75026000  1.0
  Pb  Pb20  1  0.25458000  0.12264000  0.45605000  1.0
  Pb  Pb21  1  0.74542000  0.87736000  0.54395000  1.0
  C  C22  1  0.88859000  0.68391000  0.87598000  1.0
  C  C23  1  0.11141000  0.31609000  0.12401000  1.0
  C  C24  1  0.06286000  0.68095000  0.75884000  1.0
  C  C25  1  0.93714000  0.31905000  0.24116000  1.0
  C  C26  1  0.13068000  0.54287000  0.71558000  1.0
  C  C27  1  0.86931000  0.45713000  0.28442000  1.0
  C  C28  1  0.01112000  0.41523000  0.78008000  1.0
  C  C29  1  0.98889000  0.58477000  0.21992000  1.0
  C  C30  1  0.83551000  0.42785000  0.89277000  1.0
  C  C31  1  0.16449000  0.57215000  0.10723000  1.0
  C  C32  1  0.81613000  0.82648000  0.93412000  1.0
  C  C33  1  0.18386000  0.17352000  0.06588000  1.0
  C  C34  1  0.16187000  0.82448000  0.67154000  1.0
  C  C35  1  0.83813000  0.17552000  0.32845000  1.0
  C  C36  1  0.07066000  0.27719000  0.71056000  1.0
  C  C37  1  0.92934000  0.72281000  0.28944000  1.0
  C  C38  1  0.69876000  0.29786000  0.96649000  1.0
  C  C39  1  0.30124000  0.70214000  0.03350000  1.0
  C  C40  1  0.32095000  0.52730000  0.60220000  1.0
  C  C41  1  0.67907000  0.47269000  0.39780000  1.0
  C  C42  1  0.32770000  0.51432000  0.46217000  1.0
  C  C43  1  0.67230000  0.48568000  0.53785000  1.0
  C  C44  1  0.50594000  0.48725000  0.36020000  1.0
  C  C45  1  0.49405000  0.51274000  0.63979000  1.0
  N  N46  1  0.78259000  0.55872000  0.94211000  1.0
  N  N47  1  0.21741000  0.44128000  0.05789000  1.0
  O  O48  1  0.05208000  0.91629000  0.61231000  1.0
  O  O49  1  0.94793000  0.08372000  0.38769000  1.0
  O  O50  1  0.33715000  0.85477000  0.65334000  1.0
  O  O51  1  0.66285000  0.14522000  0.34666000  1.0
  O  O52  1  0.22876000  0.20659000  0.71201000  1.0
  O  O53  1  0.77124000  0.79341000  0.28799000  1.0
  O  O54  1  0.96359000  0.24719000  0.63746000  1.0
  O  O55  1  0.03642000  0.75281000  0.36255000  1.0
  O  O56  1  0.37733000  0.90976000  0.30243000  1.0
  O  O57  1  0.62266000  0.09025000  0.69757000  1.0
