# generated using pymatgen
data_CdH18C32(NO)4
_symmetry_space_group_name_H-M   'P 1'
_cell_length_a   13.52130000
_cell_length_b   15.48880000
_cell_length_c   15.48870000
_cell_angle_alpha   98.14390000
_cell_angle_beta   108.97100000
_cell_angle_gamma   108.97100000
_symmetry_Int_Tables_number   1
_chemical_formula_structural   CdH18C32(NO)4
_chemical_formula_sum   'Cd4 H72 C128 N16 O16'
_cell_volume   2787.80819601
_cell_formula_units_Z   4
loop_
 _symmetry_equiv_pos_site_id
 _symmetry_equiv_pos_as_xyz
  1  'x, y, z'
loop_
 _atom_site_type_symbol
 _atom_site_label
 _atom_site_symmetry_multiplicity
 _atom_site_fract_x
 _atom_site_fract_y
 _atom_site_fract_z
 _atom_site_occupancy
  Cd  Cd0  1  0.05162000  0.55676000  0.90361000  1.0
  Cd  Cd1  1  0.44838000  0.09639000  0.44324000  1.0
  Cd  Cd2  1  0.94838000  0.44324000  0.09639000  1.0
  Cd  Cd3  1  0.55162000  0.90361000  0.55676000  1.0
  H  H4  1  0.15347000  0.76884000  0.86968000  1.0
  H  H5  1  0.34653000  0.13032000  0.23115000  1.0
  H  H6  1  0.84653000  0.23115000  0.13032000  1.0
  H  H7  1  0.65347000  0.86968000  0.76884000  1.0
  H  H8  1  0.14298000  0.84713000  0.73565000  1.0
  H  H9  1  0.35702000  0.26435000  0.15286000  1.0
  H  H10  1  0.85702000  0.15287000  0.26435000  1.0
  H  H11  1  0.64299000  0.73565000  0.84714000  1.0
  H  H12  1  0.02426000  0.74378000  0.56805000  1.0
  H  H13  1  0.47574000  0.43194000  0.25622000  1.0
  H  H14  1  0.97575000  0.25622000  0.43194000  1.0
  H  H15  1  0.52427000  0.56806000  0.74378000  1.0
  H  H16  1  0.84933000  0.64475000  0.28761000  1.0
  H  H17  1  0.65067000  0.71239000  0.35524000  1.0
  H  H18  1  0.15067000  0.35525000  0.71240000  1.0
  H  H19  1  0.34933000  0.28760000  0.64475000  1.0
  H  H20  1  0.73311000  0.53482000  0.12308000  1.0
  H  H21  1  0.76689000  0.87691000  0.46518000  1.0
  H  H22  1  0.26690000  0.46518000  0.87692000  1.0
  H  H23  1  0.23310000  0.12309000  0.53482000  1.0
  H  H24  1  0.64343000  0.36171000  0.09934000  1.0
  H  H25  1  0.85657000  0.90066000  0.63829000  1.0
  H  H26  1  0.35658000  0.63829000  0.90066000  1.0
  H  H27  1  0.14343000  0.09934000  0.36171000  1.0
  H  H28  1  0.66458000  0.29389000  0.23852000  1.0
  H  H29  1  0.83542000  0.76147000  0.70611000  1.0
  H  H30  1  0.33542000  0.70611000  0.76147000  1.0
  H  H31  1  0.16458000  0.23853000  0.29389000  1.0
  H  H32  1  0.76783000  0.26698000  0.50171000  1.0
  H  H33  1  0.73216000  0.49829000  0.73302000  1.0
  H  H34  1  0.23216000  0.73301000  0.49829000  1.0
  H  H35  1  0.26783000  0.50172000  0.26698000  1.0
  H  H36  1  0.80418000  0.20752000  0.64661000  1.0
  H  H37  1  0.69582000  0.35339000  0.79248000  1.0
  H  H38  1  0.19582000  0.79248000  0.35340000  1.0
  H  H39  1  0.30418000  0.64661000  0.20752000  1.0
  H  H40  1  0.92904000  0.32589000  0.80716000  1.0
  H  H41  1  0.57096000  0.19284000  0.67411000  1.0
  H  H42  1  0.07096000  0.67411000  0.19284000  1.0
  H  H43  1  0.42903000  0.80716000  0.32589000  1.0
  H  H44  1  0.32799000  0.88911000  0.11844000  1.0
  H  H45  1  0.17201000  0.88157000  0.11089000  1.0
  H  H46  1  0.67200000  0.11088000  0.88156000  1.0
  H  H47  1  0.82799000  0.11844000  0.88912000  1.0
  H  H48  1  0.51650000  0.99795000  0.23863000  1.0
  H  H49  1  0.98351000  0.76137000  0.00205000  1.0
  H  H50  1  0.48350000  0.00205000  0.76136000  1.0
  H  H51  1  0.01649000  0.23864000  0.99795000  1.0
  H  H52  1  0.63464000  0.77091000  0.22422000  1.0
  H  H53  1  0.86535000  0.77578000  0.22908000  1.0
  H  H54  1  0.36536000  0.22908000  0.77578000  1.0
  H  H55  1  0.13464000  0.22422000  0.77092000  1.0
  H  H56  1  0.44310000  0.66202000  0.10254000  1.0
  H  H57  1  0.05689000  0.89747000  0.33798000  1.0
  H  H58  1  0.55690000  0.33798000  0.89747000  1.0
  H  H59  1  0.94310000  0.10253000  0.66202000  1.0
  H  H60  1  0.79279000  0.90494000  0.24096000  1.0
  H  H61  1  0.70722000  0.75905000  0.09506000  1.0
  H  H62  1  0.20722000  0.09507000  0.75904000  1.0
  H  H63  1  0.29278000  0.24096000  0.90494000  1.0
  H  H64  1  0.98486000  0.00680000  0.36191000  1.0
  H  H65  1  0.51514000  0.63809000  0.99320000  1.0
  H  H66  1  0.01514000  0.99321000  0.63809000  1.0
  H  H67  1  0.48485000  0.36191000  0.00680000  1.0
  H  H68  1  0.00841000  0.12300000  0.50406000  1.0
  H  H69  1  0.49159000  0.49594000  0.87700000  1.0
  H  H70  1  0.99159000  0.87700000  0.49594000  1.0
  H  H71  1  0.50841000  0.50406000  0.12300000  1.0
  H  H72  1  0.83582000  0.13256000  0.52300000  1.0
  H  H73  1  0.66417000  0.47700000  0.86744000  1.0
  H  H74  1  0.16417000  0.86743000  0.47700000  1.0
  H  H75  1  0.33582000  0.52300000  0.13257000  1.0
  C  C76  1  0.10557000  0.72798000  0.79517000  1.0
  C  C77  1  0.39443000  0.20482000  0.27202000  1.0
  C  C78  1  0.89443000  0.27202000  0.20482000  1.0
  C  C79  1  0.60557000  0.79518000  0.72798000  1.0
  C  C80  1  0.09852000  0.77065000  0.72071000  1.0
  C  C81  1  0.40148000  0.27929000  0.22935000  1.0
  C  C82  1  0.90148000  0.22935000  0.27929000  1.0
  C  C83  1  0.59852000  0.72071000  0.77065000  1.0
  C  C84  1  0.03325000  0.71395000  0.62828000  1.0
  C  C85  1  0.46675000  0.37172000  0.28605000  1.0
  C  C86  1  0.96675000  0.28604000  0.37172000  1.0
  C  C87  1  0.53325000  0.62829000  0.71396000  1.0
  C  C88  1  0.97688000  0.61567000  0.61157000  1.0
  C  C89  1  0.52312000  0.38843000  0.38433000  1.0
  C  C90  1  0.02312000  0.38433000  0.38843000  1.0
  C  C91  1  0.47688000  0.61157000  0.61567000  1.0
  C  C92  1  0.90507000  0.55324000  0.51583000  1.0
  C  C93  1  0.59492000  0.48416000  0.44676000  1.0
  C  C94  1  0.09492000  0.44676000  0.48416000  1.0
  C  C95  1  0.40508000  0.51584000  0.55324000  1.0
  C  C96  1  0.82331000  0.53156000  0.35508000  1.0
  C  C97  1  0.67669000  0.64492000  0.46844000  1.0
  C  C98  1  0.17669000  0.46844000  0.64492000  1.0
  C  C99  1  0.32332000  0.35508000  0.53156000  1.0
  C  C100  1  0.80702000  0.56835000  0.27510000  1.0
  C  C101  1  0.69298000  0.72489000  0.43165000  1.0
  C  C102  1  0.19298000  0.43165000  0.72490000  1.0
  C  C103  1  0.30702000  0.27511000  0.56835000  1.0
  C  C104  1  0.74288000  0.50742000  0.18506000  1.0
  C  C105  1  0.75712000  0.81494000  0.49258000  1.0
  C  C106  1  0.25712000  0.49258000  0.81494000  1.0
  C  C107  1  0.24288000  0.18506000  0.50742000  1.0
  C  C108  1  0.69102000  0.40800000  0.17151000  1.0
  C  C109  1  0.80898000  0.82849000  0.59200000  1.0
  C  C110  1  0.30898000  0.59200000  0.82849000  1.0
  C  C111  1  0.19102000  0.17151000  0.40800000  1.0
  C  C112  1  0.70323000  0.37001000  0.24754000  1.0
  C  C113  1  0.79677000  0.75245000  0.62998000  1.0
  C  C114  1  0.29677000  0.62999000  0.75246000  1.0
  C  C115  1  0.20323000  0.24755000  0.37001000  1.0
  C  C116  1  0.77047000  0.43060000  0.34111000  1.0
  C  C117  1  0.72953000  0.65889000  0.56940000  1.0
  C  C118  1  0.22953000  0.56940000  0.65889000  1.0
  C  C119  1  0.27047000  0.34111000  0.43060000  1.0
  C  C120  1  0.85197000  0.45256000  0.50185000  1.0
  C  C121  1  0.64803000  0.49814000  0.54744000  1.0
  C  C122  1  0.14803000  0.54744000  0.49814000  1.0
  C  C123  1  0.35197000  0.50186000  0.45256000  1.0
  C  C124  1  0.87086000  0.41387000  0.58341000  1.0
  C  C125  1  0.62914000  0.41659000  0.58613000  1.0
  C  C126  1  0.12914000  0.58613000  0.41659000  1.0
  C  C127  1  0.37086000  0.58341000  0.41386000  1.0
  C  C128  1  0.82194000  0.31571000  0.57240000  1.0
  C  C129  1  0.67806000  0.42760000  0.68429000  1.0
  C  C130  1  0.17806000  0.68429000  0.42760000  1.0
  C  C131  1  0.32193000  0.57240000  0.31571000  1.0
  C  C132  1  0.84187000  0.28292000  0.65239000  1.0
  C  C133  1  0.65813000  0.34761000  0.71708000  1.0
  C  C134  1  0.15813000  0.71708000  0.34761000  1.0
  C  C135  1  0.34186000  0.65239000  0.28292000  1.0
  C  C136  1  0.91051000  0.34819000  0.74203000  1.0
  C  C137  1  0.58949000  0.25797000  0.65181000  1.0
  C  C138  1  0.08949000  0.65181000  0.25797000  1.0
  C  C139  1  0.41050000  0.74203000  0.34818000  1.0
  C  C140  1  0.93821000  0.47520000  0.67610000  1.0
  C  C141  1  0.56179000  0.32389000  0.52480000  1.0
  C  C142  1  0.06179000  0.52480000  0.32389000  1.0
  C  C143  1  0.43821000  0.67611000  0.47520000  1.0
  C  C144  1  0.99112000  0.57790000  0.69047000  1.0
  C  C145  1  0.50888000  0.30952000  0.42210000  1.0
  C  C146  1  0.00888000  0.42210000  0.30952000  1.0
  C  C147  1  0.49112000  0.69048000  0.57790000  1.0
  C  C148  1  0.25585000  0.70260000  0.03223000  1.0
  C  C149  1  0.24415000  0.96777000  0.29740000  1.0
  C  C150  1  0.74415000  0.29739000  0.96776000  1.0
  C  C151  1  0.75585000  0.03223000  0.70261000  1.0
  C  C152  1  0.37323000  0.76860000  0.10176000  1.0
  C  C153  1  0.12677000  0.89825000  0.23141000  1.0
  C  C154  1  0.62677000  0.23140000  0.89824000  1.0
  C  C155  1  0.87323000  0.10176000  0.76860000  1.0
  C  C156  1  0.39573000  0.86367000  0.14061000  1.0
  C  C157  1  0.10427000  0.85939000  0.13634000  1.0
  C  C158  1  0.60427000  0.13633000  0.85938000  1.0
  C  C159  1  0.89572000  0.14061000  0.86367000  1.0
  C  C160  1  0.50237000  0.92476000  0.20888000  1.0
  C  C161  1  0.99763000  0.79112000  0.07524000  1.0
  C  C162  1  0.49762000  0.07523000  0.79112000  1.0
  C  C163  1  0.00237000  0.20888000  0.92477000  1.0
  C  C164  1  0.59027000  0.89269000  0.24050000  1.0
  C  C165  1  0.90973000  0.75949000  0.10731000  1.0
  C  C166  1  0.40973000  0.10731000  0.75949000  1.0
  C  C167  1  0.09027000  0.24051000  0.89270000  1.0
  C  C168  1  0.56801000  0.79759000  0.19975000  1.0
  C  C169  1  0.93199000  0.80025000  0.20240000  1.0
  C  C170  1  0.43199000  0.20240000  0.80025000  1.0
  C  C171  1  0.06801000  0.19974000  0.79760000  1.0
  C  C172  1  0.46105000  0.73632000  0.13162000  1.0
  C  C173  1  0.03895000  0.86838000  0.26368000  1.0
  C  C174  1  0.53895000  0.26368000  0.86838000  1.0
  C  C175  1  0.96105000  0.13162000  0.73632000  1.0
  C  C176  1  0.70344000  0.95647000  0.31457000  1.0
  C  C177  1  0.79656000  0.68543000  0.04353000  1.0
  C  C178  1  0.29656000  0.04353000  0.68542000  1.0
  C  C179  1  0.20344000  0.31457000  0.95647000  1.0
  C  C180  1  0.80198000  0.95317000  0.30434000  1.0
  C  C181  1  0.69802000  0.69566000  0.04683000  1.0
  C  C182  1  0.19802000  0.04683000  0.69566000  1.0
  C  C183  1  0.30197000  0.30434000  0.95317000  1.0
  C  C184  1  0.91059000  0.01160000  0.37181000  1.0
  C  C185  1  0.58942000  0.62819000  0.98840000  1.0
  C  C186  1  0.08941000  0.98840000  0.62818000  1.0
  C  C187  1  0.41058000  0.37181000  0.01160000  1.0
  C  C188  1  0.92360000  0.07673000  0.45110000  1.0
  C  C189  1  0.57640000  0.54890000  0.92327000  1.0
  C  C190  1  0.07640000  0.92327000  0.54890000  1.0
  C  C191  1  0.42360000  0.45110000  0.07673000  1.0
  C  C192  1  0.82728000  0.08255000  0.46147000  1.0
  C  C193  1  0.67272000  0.53853000  0.91745000  1.0
  C  C194  1  0.17272000  0.91745000  0.53853000  1.0
  C  C195  1  0.32728000  0.46147000  0.08255000  1.0
  C  C196  1  0.71736000  0.02253000  0.39517000  1.0
  C  C197  1  0.78264000  0.60482000  0.97748000  1.0
  C  C198  1  0.28264000  0.97747000  0.60482000  1.0
  C  C199  1  0.21736000  0.39518000  0.02253000  1.0
  C  C200  1  0.61869000  0.03008000  0.41635000  1.0
  C  C201  1  0.88130000  0.58365000  0.96992000  1.0
  C  C202  1  0.38130000  0.96992000  0.58365000  1.0
  C  C203  1  0.11869000  0.41635000  0.03008000  1.0
  N  N204  1  0.05403000  0.63431000  0.78009000  1.0
  N  N205  1  0.44597000  0.21991000  0.36569000  1.0
  N  N206  1  0.94597000  0.36569000  0.21991000  1.0
  N  N207  1  0.55403000  0.78009000  0.63430000  1.0
  N  N208  1  0.95690000  0.44151000  0.75321000  1.0
  N  N209  1  0.54311000  0.24678000  0.55849000  1.0
  N  N210  1  0.04310000  0.55849000  0.24679000  1.0
  N  N211  1  0.45689000  0.75321000  0.44151000  1.0
  N  N212  1  0.88995000  0.59128000  0.44320000  1.0
  N  N213  1  0.61005000  0.55680000  0.40872000  1.0
  N  N214  1  0.11005000  0.40872000  0.55680000  1.0
  N  N215  1  0.38996000  0.44320000  0.59128000  1.0
  N  N216  1  0.78563000  0.39302000  0.41569000  1.0
  N  N217  1  0.71437000  0.58431000  0.60698000  1.0
  N  N218  1  0.21437000  0.60698000  0.58431000  1.0
  N  N219  1  0.28564000  0.41569000  0.39302000  1.0
  O  O220  1  0.17939000  0.73417000  0.00408000  1.0
  O  O221  1  0.32061000  0.99592000  0.26584000  1.0
  O  O222  1  0.82062000  0.26583000  0.99592000  1.0
  O  O223  1  0.67938000  0.00408000  0.73417000  1.0
  O  O224  1  0.23789000  0.61421000  0.00423000  1.0
  O  O225  1  0.26211000  0.99577000  0.38579000  1.0
  O  O226  1  0.76212000  0.38578000  0.99577000  1.0
  O  O227  1  0.73789000  0.00422000  0.61421000  1.0
  O  O228  1  0.54371000  0.95664000  0.41903000  1.0
  O  O229  1  0.95629000  0.58097000  0.04336000  1.0
  O  O230  1  0.45629000  0.04336000  0.58097000  1.0
  O  O231  1  0.04371000  0.41903000  0.95664000  1.0
  O  O232  1  0.61715000  0.11268000  0.43124000  1.0
  O  O233  1  0.88285000  0.56876000  0.88732000  1.0
  O  O234  1  0.38285000  0.88732000  0.56876000  1.0
  O  O235  1  0.11715000  0.43124000  0.11269000  1.0
