# generated using pymatgen
data_CdH12(C5O4)2
_symmetry_space_group_name_H-M   'P 1'
_cell_length_a   5.38756000
_cell_length_b   6.51324743
_cell_length_c   18.18490000
_cell_angle_alpha   93.69816817
_cell_angle_beta   90.02130000
_cell_angle_gamma   114.40928531
_symmetry_Int_Tables_number   1
_chemical_formula_structural   CdH12(C5O4)2
_chemical_formula_sum   'Cd2 H24 C20 O16'
_cell_volume   579.61388248
_cell_formula_units_Z   2
loop_
 _symmetry_equiv_pos_site_id
 _symmetry_equiv_pos_as_xyz
  1  'x, y, z'
loop_
 _atom_site_type_symbol
 _atom_site_label
 _atom_site_symmetry_multiplicity
 _atom_site_fract_x
 _atom_site_fract_y
 _atom_site_fract_z
 _atom_site_occupancy
  Cd  Cd0  1  0.80907000  0.00016000  0.75001000  1.0
  Cd  Cd1  1  0.19095000  0.99985000  0.24999000  1.0
  H  H2  1  0.28716000  0.35687000  0.69545000  1.0
  H  H3  1  0.93031000  0.64329000  0.80457000  1.0
  H  H4  1  0.71282000  0.64313000  0.30455000  1.0
  H  H5  1  0.06968000  0.35670000  0.19543000  1.0
  H  H6  1  0.28135000  0.10948000  0.66869000  1.0
  H  H7  1  0.17185000  0.89066000  0.83136000  1.0
  H  H8  1  0.71867000  0.89054000  0.33131000  1.0
  H  H9  1  0.82816000  0.10933000  0.16864000  1.0
  H  H10  1  0.10674000  0.46741000  0.58885000  1.0
  H  H11  1  0.63917000  0.53272000  0.91115000  1.0
  H  H12  1  0.89327000  0.53259000  0.41115000  1.0
  H  H13  1  0.36082000  0.46727000  0.08885000  1.0
  H  H14  1  0.92817000  0.50174000  0.66775000  1.0
  H  H15  1  0.42635000  0.49872000  0.83223000  1.0
  H  H16  1  0.07184000  0.49827000  0.33225000  1.0
  H  H17  1  0.57366000  0.50128000  0.16776000  1.0
  H  H18  1  0.75253000  0.91761000  0.50550000  1.0
  H  H19  1  0.83533000  0.08236000  0.99445000  1.0
  H  H20  1  0.24749000  0.08239000  0.49450000  1.0
  H  H21  1  0.16466000  0.91763000  0.00554000  1.0
  H  H22  1  0.66151000  0.26589000  0.57266000  1.0
  H  H23  1  0.39513000  0.73419000  0.92734000  1.0
  H  H24  1  0.33851000  0.73411000  0.42733000  1.0
  H  H25  1  0.60486000  0.26581000  0.07265000  1.0
  C  C26  1  0.34246000  0.73847000  0.66535000  1.0
  C  C27  1  0.60370000  0.26170000  0.83460000  1.0
  C  C28  1  0.65753000  0.26154000  0.33466000  1.0
  C  C29  1  0.39629000  0.73828000  0.16540000  1.0
  C  C30  1  0.07345000  0.59363000  0.62605000  1.0
  C  C31  1  0.47961000  0.40662000  0.87390000  1.0
  C  C32  1  0.92654000  0.40637000  0.37396000  1.0
  C  C33  1  0.52039000  0.59337000  0.12611000  1.0
  C  C34  1  0.73762000  0.60694000  0.54455000  1.0
  C  C35  1  0.13067000  0.39315000  0.95540000  1.0
  C  C36  1  0.26241000  0.39307000  0.45545000  1.0
  C  C37  1  0.86933000  0.60685000  0.04458000  1.0
  C  C38  1  0.64125000  0.73448000  0.50336000  1.0
  C  C39  1  0.90694000  0.26550000  0.99660000  1.0
  C  C40  1  0.35877000  0.26551000  0.49664000  1.0
  C  C41  1  0.09305000  0.73452000  0.00339000  1.0
  C  C42  1  0.59464000  0.37103000  0.54109000  1.0
  C  C43  1  0.22328000  0.62902000  0.95891000  1.0
  C  C44  1  0.40537000  0.62897000  0.45891000  1.0
  C  C45  1  0.77670000  0.37098000  0.04109000  1.0
  O  O46  1  0.44733000  0.63614000  0.70423000  1.0
  O  O47  1  0.81073000  0.36385000  0.79570000  1.0
  O  O48  1  0.55267000  0.36388000  0.29577000  1.0
  O  O49  1  0.18925000  0.63612000  0.20431000  1.0
  O  O50  1  0.45827000  0.95136000  0.66092000  1.0
  O  O51  1  0.50672000  0.04883000  0.83904000  1.0
  O  O52  1  0.54172000  0.04863000  0.33909000  1.0
  O  O53  1  0.49327000  0.95116000  0.16096000  1.0
  O  O54  1  0.97286000  0.72642000  0.58671000  1.0
  O  O55  1  0.24639000  0.27381000  0.91318000  1.0
  O  O56  1  0.02714000  0.27357000  0.41329000  1.0
  O  O57  1  0.75358000  0.72619000  0.08681000  1.0
  O  O58  1  0.16855000  0.19191000  0.68485000  1.0
  O  O59  1  0.97655000  0.80819000  0.81526000  1.0
  O  O60  1  0.83145000  0.80810000  0.31515000  1.0
  O  O61  1  0.02345000  0.19179000  0.18473000  1.0
