# generated using pymatgen
data_CuH28C20(N4Cl)2
_symmetry_space_group_name_H-M   'P 1'
_cell_length_a   7.56556000
_cell_length_b   8.82877000
_cell_length_c   17.60470000
_cell_angle_alpha   90.00000000
_cell_angle_beta   90.00000000
_cell_angle_gamma   115.07300000
_symmetry_Int_Tables_number   1
_chemical_formula_structural   CuH28C20(N4Cl)2
_chemical_formula_sum   'Cu2 H56 C40 N16 Cl4'
_cell_volume   1065.09212001
_cell_formula_units_Z   2
loop_
 _symmetry_equiv_pos_site_id
 _symmetry_equiv_pos_as_xyz
  1  'x, y, z'
loop_
 _atom_site_type_symbol
 _atom_site_label
 _atom_site_symmetry_multiplicity
 _atom_site_fract_x
 _atom_site_fract_y
 _atom_site_fract_z
 _atom_site_occupancy
  Cu  Cu0  1  0.00000000  0.50000000  0.50000000  1.0
  Cu  Cu1  1  0.00000000  0.00000000  0.00000000  1.0
  H  H2  1  0.67904000  0.62698000  0.43914000  1.0
  H  H3  1  0.32096000  0.87302000  0.93914000  1.0
  H  H4  1  0.32096000  0.37302000  0.56086000  1.0
  H  H5  1  0.67904000  0.12698000  0.06086000  1.0
  H  H6  1  0.29194000  0.86821000  0.45617000  1.0
  H  H7  1  0.70806000  0.63179000  0.95617000  1.0
  H  H8  1  0.70807000  0.13179000  0.54383000  1.0
  H  H9  1  0.29193000  0.36821000  0.04383000  1.0
  H  H10  1  0.15689000  0.09819000  0.40272000  1.0
  H  H11  1  0.84311000  0.40181000  0.90272000  1.0
  H  H12  1  0.84311000  0.90181000  0.59728000  1.0
  H  H13  1  0.15689000  0.59819000  0.09728000  1.0
  H  H14  1  0.83479000  0.07604000  0.36116000  1.0
  H  H15  1  0.16520000  0.42396000  0.86116000  1.0
  H  H16  1  0.16520000  0.92396000  0.63884000  1.0
  H  H17  1  0.83480000  0.57604000  0.13884000  1.0
  H  H18  1  0.66548000  0.96925000  0.43386000  1.0
  H  H19  1  0.33452000  0.53075000  0.93386000  1.0
  H  H20  1  0.33452000  0.03075000  0.56614000  1.0
  H  H21  1  0.66548000  0.46925000  0.06614000  1.0
  H  H22  1  0.49880000  0.72461000  0.35449000  1.0
  H  H23  1  0.50120000  0.77539000  0.85449000  1.0
  H  H24  1  0.50120000  0.27539000  0.64551000  1.0
  H  H25  1  0.49880000  0.22461000  0.14551000  1.0
  H  H26  1  0.68348000  0.79922000  0.28442000  1.0
  H  H27  1  0.31652000  0.70078000  0.78442000  1.0
  H  H28  1  0.31653000  0.20078000  0.71558000  1.0
  H  H29  1  0.68347000  0.29922000  0.21558000  1.0
  H  H30  1  0.40588000  0.95919000  0.32525000  1.0
  H  H31  1  0.59412000  0.54081000  0.82525000  1.0
  H  H32  1  0.59412000  0.04081000  0.67475000  1.0
  H  H33  1  0.40588000  0.45919000  0.17475000  1.0
  H  H34  1  0.59138000  0.03576000  0.25551000  1.0
  H  H35  1  0.40862000  0.46424000  0.75551000  1.0
  H  H36  1  0.40863000  0.96424000  0.74449000  1.0
  H  H37  1  0.59138000  0.53576000  0.24449000  1.0
  H  H38  1  0.43739000  0.77637000  0.18020000  1.0
  H  H39  1  0.56261000  0.72363000  0.68020000  1.0
  H  H40  1  0.56261000  0.22363000  0.81980000  1.0
  H  H41  1  0.43739000  0.27637000  0.31980000  1.0
  H  H42  1  0.26495000  0.67885000  0.25389000  1.0
  H  H43  1  0.73505000  0.82115000  0.75389000  1.0
  H  H44  1  0.73505000  0.32115000  0.74611000  1.0
  H  H45  1  0.26495000  0.17885000  0.24611000  1.0
  H  H46  1  0.01544000  0.82131000  0.28188000  1.0
  H  H47  1  0.98456000  0.67869000  0.78188000  1.0
  H  H48  1  0.98456000  0.17869000  0.71812000  1.0
  H  H49  1  0.01544000  0.32131000  0.21812000  1.0
  H  H50  1  0.82962000  0.92613000  0.16820000  1.0
  H  H51  1  0.17037000  0.57387000  0.66820000  1.0
  H  H52  1  0.17038000  0.07387000  0.83179000  1.0
  H  H53  1  0.82963000  0.42613000  0.33180000  1.0
  H  H54  1  0.34180000  0.91444000  0.07818000  1.0
  H  H55  1  0.65820000  0.58556000  0.57818000  1.0
  H  H56  1  0.65821000  0.08556000  0.92182000  1.0
  H  H57  1  0.34180000  0.41444000  0.42182000  1.0
  C  C58  1  0.82737000  0.72270000  0.43486000  1.0
  C  C59  1  0.17263000  0.77730000  0.93486000  1.0
  C  C60  1  0.17263000  0.27730000  0.56514000  1.0
  C  C61  1  0.82737000  0.22270000  0.06514000  1.0
  C  C62  1  0.14562000  0.85374000  0.44276000  1.0
  C  C63  1  0.85438000  0.64626000  0.94276000  1.0
  C  C64  1  0.85438000  0.14626000  0.55724000  1.0
  C  C65  1  0.14562000  0.35374000  0.05724000  1.0
  C  C66  1  0.07953000  0.96671000  0.41607000  1.0
  C  C67  1  0.92047000  0.53329000  0.91608000  1.0
  C  C68  1  0.92047000  0.03329000  0.58393000  1.0
  C  C69  1  0.07953000  0.46671000  0.08393000  1.0
  C  C70  1  0.74504000  0.95207000  0.38490000  1.0
  C  C71  1  0.25496000  0.54793000  0.88490000  1.0
  C  C72  1  0.25496000  0.04793000  0.61510000  1.0
  C  C73  1  0.74504000  0.45207000  0.11510000  1.0
  C  C74  1  0.60273000  0.83869000  0.32601000  1.0
  C  C75  1  0.39726000  0.66131000  0.82601000  1.0
  C  C76  1  0.39727000  0.16131000  0.67399000  1.0
  C  C77  1  0.60273000  0.33869000  0.17399000  1.0
  C  C78  1  0.48979000  0.92149000  0.28447000  1.0
  C  C79  1  0.51020000  0.57851000  0.78447000  1.0
  C  C80  1  0.51021000  0.07851000  0.71553000  1.0
  C  C81  1  0.48980000  0.42149000  0.21553000  1.0
  C  C82  1  0.35360000  0.79927000  0.22642000  1.0
  C  C83  1  0.64641000  0.70073000  0.72642000  1.0
  C  C84  1  0.64641000  0.20073000  0.77358000  1.0
  C  C85  1  0.35360000  0.29927000  0.27358000  1.0
  C  C86  1  0.05282000  0.85756000  0.22320000  1.0
  C  C87  1  0.94718000  0.64244000  0.72320000  1.0
  C  C88  1  0.94718000  0.14244000  0.77680000  1.0
  C  C89  1  0.05282000  0.35756000  0.27680000  1.0
  C  C90  1  0.96507000  0.91193000  0.16768000  1.0
  C  C91  1  0.03493000  0.58807000  0.66768000  1.0
  C  C92  1  0.03493000  0.08808000  0.83232000  1.0
  C  C93  1  0.96507000  0.41193000  0.33232000  1.0
  C  C94  1  0.22757000  0.90882000  0.11731000  1.0
  C  C95  1  0.77243000  0.59118000  0.61731000  1.0
  C  C96  1  0.77243000  0.09118000  0.88269000  1.0
  C  C97  1  0.22757000  0.40882000  0.38269000  1.0
  N  N98  1  0.98679000  0.70276000  0.45419000  1.0
  N  N99  1  0.01321000  0.79724000  0.95419000  1.0
  N  N100  1  0.01321000  0.29725000  0.54581000  1.0
  N  N101  1  0.98679000  0.20276000  0.04581000  1.0
  N  N102  1  0.87876000  0.88228000  0.41112000  1.0
  N  N103  1  0.12124000  0.61772000  0.91112000  1.0
  N  N104  1  0.12125000  0.11772000  0.58888000  1.0
  N  N105  1  0.87876000  0.38228000  0.08888000  1.0
  N  N106  1  0.21833000  0.85634000  0.19043000  1.0
  N  N107  1  0.78167000  0.64366000  0.69043000  1.0
  N  N108  1  0.78168000  0.14366000  0.80957000  1.0
  N  N109  1  0.21833000  0.35634000  0.30957000  1.0
  N  N110  1  0.07518000  0.94235000  0.10227000  1.0
  N  N111  1  0.92482000  0.55765000  0.60227000  1.0
  N  N112  1  0.92482000  0.05765000  0.89773000  1.0
  N  N113  1  0.07518000  0.44235000  0.39773000  1.0
  Cl  Cl114  1  0.41892000  0.69708000  0.54044000  1.0
  Cl  Cl115  1  0.58108000  0.80292000  0.04044000  1.0
  Cl  Cl116  1  0.58108000  0.30292000  0.45956000  1.0
  Cl  Cl117  1  0.41892000  0.19708000  0.95956000  1.0
