# generated using pymatgen
data_CuH13C20N5O6
_symmetry_space_group_name_H-M   'P 1'
_cell_length_a   10.35430000
_cell_length_b   11.24220000
_cell_length_c   21.52530000
_cell_angle_alpha   94.94410000
_cell_angle_beta   89.99990000
_cell_angle_gamma   90.00000000
_symmetry_Int_Tables_number   1
_chemical_formula_structural   CuH13C20N5O6
_chemical_formula_sum   'Cu4 H52 C80 N20 O24'
_cell_volume   2496.33204635
_cell_formula_units_Z   4
loop_
 _symmetry_equiv_pos_site_id
 _symmetry_equiv_pos_as_xyz
  1  'x, y, z'
loop_
 _atom_site_type_symbol
 _atom_site_label
 _atom_site_symmetry_multiplicity
 _atom_site_fract_x
 _atom_site_fract_y
 _atom_site_fract_z
 _atom_site_occupancy
  Cu  Cu0  1  0.83523000  0.41398000  0.45099000  1.0
  Cu  Cu1  1  0.33522000  0.58602000  0.04901000  1.0
  Cu  Cu2  1  0.16478000  0.58602000  0.54901000  1.0
  Cu  Cu3  1  0.66477000  0.41398000  0.95099000  1.0
  H  H4  1  0.91002000  0.19252000  0.50855000  1.0
  H  H5  1  0.41002000  0.80749000  0.99145000  1.0
  H  H6  1  0.08999000  0.80749000  0.49145000  1.0
  H  H7  1  0.58998000  0.19252000  0.00855000  1.0
  H  H8  1  0.10011000  0.05338000  0.50096000  1.0
  H  H9  1  0.60011000  0.94662000  0.99904000  1.0
  H  H10  1  0.89990000  0.94662000  0.49904000  1.0
  H  H11  1  0.39989000  0.05339000  0.00096000  1.0
  H  H12  1  0.23245000  0.23642000  0.34418000  1.0
  H  H13  1  0.73244000  0.76357000  0.15582000  1.0
  H  H14  1  0.76756000  0.76357000  0.65582000  1.0
  H  H15  1  0.26755000  0.23642000  0.84418000  1.0
  H  H16  1  0.04066000  0.37003000  0.36006000  1.0
  H  H17  1  0.54065000  0.62997000  0.13994000  1.0
  H  H18  1  0.95935000  0.62997000  0.63994000  1.0
  H  H19  1  0.45934000  0.37003000  0.86006000  1.0
  H  H20  1  0.60937000  0.78518000  0.38873000  1.0
  H  H21  1  0.10937000  0.21482000  0.11127000  1.0
  H  H22  1  0.39063000  0.21482000  0.61127000  1.0
  H  H23  1  0.89063000  0.78518000  0.88873000  1.0
  H  H24  1  0.76498000  0.61316000  0.38062000  1.0
  H  H25  1  0.26498000  0.38684000  0.11938000  1.0
  H  H26  1  0.23502000  0.38684000  0.61938000  1.0
  H  H27  1  0.73503000  0.61316000  0.88062000  1.0
  H  H28  1  0.65140000  0.50637000  0.55145000  1.0
  H  H29  1  0.15139000  0.49363000  0.94855000  1.0
  H  H30  1  0.34861000  0.49363000  0.44855000  1.0
  H  H31  1  0.84860000  0.50637000  0.05145000  1.0
  H  H32  1  0.49011000  0.67259000  0.56688000  1.0
  H  H33  1  0.99011000  0.32741000  0.93312000  1.0
  H  H34  1  0.50990000  0.32741000  0.43312000  1.0
  H  H35  1  0.00989000  0.67259000  0.06688000  1.0
  H  H36  1  0.67580000  0.31730000  0.62693000  1.0
  H  H37  1  0.17579000  0.68270000  0.87306000  1.0
  H  H38  1  0.32421000  0.68269000  0.37306000  1.0
  H  H39  1  0.82420000  0.31730000  0.12693000  1.0
  H  H40  1  0.62669000  0.29633000  0.73856000  1.0
  H  H41  1  0.12670000  0.70368000  0.76144000  1.0
  H  H42  1  0.37330000  0.70367000  0.26144000  1.0
  H  H43  1  0.87331000  0.29633000  0.23856000  1.0
  H  H44  1  0.06274000  0.42844000  0.67654000  1.0
  H  H45  1  0.56274000  0.57157000  0.82347000  1.0
  H  H46  1  0.93726000  0.57158000  0.32347000  1.0
  H  H47  1  0.43726000  0.42843000  0.17653000  1.0
  H  H48  1  0.37773000  0.83884000  0.52802000  1.0
  H  H49  1  0.87773000  0.16115000  0.97198000  1.0
  H  H50  1  0.62227000  0.16115000  0.47198000  1.0
  H  H51  1  0.12227000  0.83884000  0.02802000  1.0
  H  H52  1  0.36519000  0.06543000  0.37921000  1.0
  H  H53  1  0.86519000  0.93456000  0.12079000  1.0
  H  H54  1  0.63482000  0.93456000  0.62079000  1.0
  H  H55  1  0.13481000  0.06543000  0.87921000  1.0
  C  C56  1  0.98457000  0.19896000  0.47333000  1.0
  C  C57  1  0.48457000  0.80104000  0.02666000  1.0
  C  C58  1  0.01544000  0.80104000  0.52666000  1.0
  C  C59  1  0.51543000  0.19896000  0.97334000  1.0
  C  C60  1  0.08853000  0.12147000  0.46843000  1.0
  C  C61  1  0.58853000  0.87852000  0.03157000  1.0
  C  C62  1  0.91148000  0.87853000  0.53157000  1.0
  C  C63  1  0.41147000  0.12148000  0.96843000  1.0
  C  C64  1  0.18116000  0.13228000  0.42152000  1.0
  C  C65  1  0.68116000  0.86771000  0.07848000  1.0
  C  C66  1  0.81884000  0.86771000  0.57848000  1.0
  C  C67  1  0.31884000  0.13229000  0.92152000  1.0
  C  C68  1  0.16385000  0.22282000  0.38135000  1.0
  C  C69  1  0.66384000  0.77717000  0.11864000  1.0
  C  C70  1  0.83616000  0.77717000  0.61864000  1.0
  C  C71  1  0.33615000  0.22282000  0.88135000  1.0
  C  C72  1  0.05757000  0.29814000  0.38984000  1.0
  C  C73  1  0.55756000  0.70186000  0.11015000  1.0
  C  C74  1  0.94244000  0.70186000  0.61015000  1.0
  C  C75  1  0.44243000  0.29814000  0.88984000  1.0
  C  C76  1  0.29117000  0.05131000  0.41450000  1.0
  C  C77  1  0.79117000  0.94868000  0.08550000  1.0
  C  C78  1  0.70883000  0.94868000  0.58550000  1.0
  C  C79  1  0.20883000  0.05131000  0.91450000  1.0
  C  C80  1  0.43278000  0.82950000  0.48421000  1.0
  C  C81  1  0.93278000  0.17049000  0.01580000  1.0
  C  C82  1  0.56722000  0.17049000  0.51580000  1.0
  C  C83  1  0.06722000  0.82951000  0.98421000  1.0
  C  C84  1  0.53524000  0.74064000  0.47815000  1.0
  C  C85  1  0.03524000  0.25935000  0.02185000  1.0
  C  C86  1  0.46476000  0.25936000  0.52185000  1.0
  C  C87  1  0.96476000  0.74064000  0.97815000  1.0
  C  C88  1  0.61602000  0.72500000  0.42560000  1.0
  C  C89  1  0.11602000  0.27500000  0.07440000  1.0
  C  C90  1  0.38398000  0.27500000  0.57440000  1.0
  C  C91  1  0.88398000  0.72501000  0.92560000  1.0
  C  C92  1  0.70232000  0.63059000  0.42084000  1.0
  C  C93  1  0.20232000  0.36941000  0.07916000  1.0
  C  C94  1  0.29768000  0.36941000  0.57915000  1.0
  C  C95  1  0.79768000  0.63059000  0.92085000  1.0
  C  C96  1  0.63881000  0.57008000  0.51670000  1.0
  C  C97  1  0.13880000  0.42992000  0.98330000  1.0
  C  C98  1  0.36120000  0.42992000  0.48330000  1.0
  C  C99  1  0.86119000  0.57008000  0.01670000  1.0
  C  C100  1  0.55018000  0.66288000  0.52512000  1.0
  C  C101  1  0.05018000  0.33712000  0.97488000  1.0
  C  C102  1  0.44982000  0.33712000  0.47488000  1.0
  C  C103  1  0.94981000  0.66288000  0.02512000  1.0
  C  C104  1  0.87216000  0.37445000  0.64429000  1.0
  C  C105  1  0.37216000  0.62554000  0.85571000  1.0
  C  C106  1  0.12784000  0.62555000  0.35571000  1.0
  C  C107  1  0.62784000  0.37445000  0.14429000  1.0
  C  C108  1  0.74986000  0.33619000  0.66226000  1.0
  C  C109  1  0.24986000  0.66381000  0.83773000  1.0
  C  C110  1  0.25014000  0.66381000  0.33773000  1.0
  C  C111  1  0.75014000  0.33619000  0.16226000  1.0
  C  C112  1  0.72253000  0.32458000  0.72482000  1.0
  C  C113  1  0.22254000  0.67542000  0.77518000  1.0
  C  C114  1  0.27746000  0.67542000  0.27518000  1.0
  C  C115  1  0.77747000  0.32458000  0.22481000  1.0
  C  C116  1  0.81599000  0.34986000  0.77113000  1.0
  C  C117  1  0.31600000  0.65014000  0.72887000  1.0
  C  C118  1  0.18400000  0.65014000  0.22887000  1.0
  C  C119  1  0.68401000  0.34986000  0.27113000  1.0
  C  C120  1  0.93889000  0.38347000  0.75154000  1.0
  C  C121  1  0.43889000  0.61653000  0.74846000  1.0
  C  C122  1  0.06110000  0.61654000  0.24846000  1.0
  C  C123  1  0.56111000  0.38346000  0.25154000  1.0
  C  C124  1  0.96803000  0.39636000  0.68945000  1.0
  C  C125  1  0.46803000  0.60364000  0.81055000  1.0
  C  C126  1  0.03197000  0.60366000  0.31055000  1.0
  C  C127  1  0.53197000  0.39635000  0.18945000  1.0
  C  C128  1  0.78364000  0.33787000  0.83866000  1.0
  C  C129  1  0.28365000  0.66214000  0.66134000  1.0
  C  C130  1  0.21635000  0.66214000  0.16134000  1.0
  C  C131  1  0.71636000  0.33787000  0.33866000  1.0
  C  C132  1  0.90327000  0.39659000  0.57799000  1.0
  C  C133  1  0.40327000  0.60341000  0.92201000  1.0
  C  C134  1  0.09673000  0.60341000  0.42201000  1.0
  C  C135  1  0.59673000  0.39659000  0.07799000  1.0
  N  N136  1  0.97015000  0.28728000  0.43527000  1.0
  N  N137  1  0.47014000  0.71272000  0.06472000  1.0
  N  N138  1  0.02986000  0.71272000  0.56473000  1.0
  N  N139  1  0.52985000  0.28728000  0.93527000  1.0
  N  N140  1  0.29946000  0.96421000  0.44984000  1.0
  N  N141  1  0.79947000  0.03578000  0.05016000  1.0
  N  N142  1  0.70054000  0.03579000  0.55016000  1.0
  N  N143  1  0.20053000  0.96421000  0.94984000  1.0
  N  N144  1  0.40494000  0.89155000  0.43800000  1.0
  N  N145  1  0.90495000  0.10844000  0.06201000  1.0
  N  N146  1  0.59506000  0.10844000  0.56200000  1.0
  N  N147  1  0.09505000  0.89156000  0.93800000  1.0
  N  N148  1  0.71212000  0.55286000  0.46513000  1.0
  N  N149  1  0.21212000  0.44714000  0.03487000  1.0
  N  N150  1  0.28788000  0.44714000  0.53487000  1.0
  N  N151  1  0.78788000  0.55286000  0.96513000  1.0
  N  N152  1  0.04184000  0.41099000  0.79723000  1.0
  N  N153  1  0.54186000  0.58902000  0.70278000  1.0
  N  N154  1  0.95814000  0.58902000  0.20278000  1.0
  N  N155  1  0.45815000  0.41098000  0.29723000  1.0
  O  O156  1  0.80954000  0.37713000  0.53853000  1.0
  O  O157  1  0.30953000  0.62286000  0.96147000  1.0
  O  O158  1  0.19046000  0.62286000  0.46147000  1.0
  O  O159  1  0.69046000  0.37713000  0.03853000  1.0
  O  O160  1  0.01404000  0.43082000  0.56485000  1.0
  O  O161  1  0.51403000  0.56918000  0.93515000  1.0
  O  O162  1  0.98597000  0.56918000  0.43515000  1.0
  O  O163  1  0.48596000  0.43083000  0.06485000  1.0
  O  O164  1  0.69402000  0.41127000  0.85912000  1.0
  O  O165  1  0.19403000  0.58874000  0.64087000  1.0
  O  O166  1  0.30597000  0.58874000  0.14088000  1.0
  O  O167  1  0.80598000  0.41126000  0.35912000  1.0
  O  O168  1  0.83979000  0.26258000  0.86816000  1.0
  O  O169  1  0.33979000  0.73744000  0.63184000  1.0
  O  O170  1  0.16021000  0.73743000  0.13184000  1.0
  O  O171  1  0.66022000  0.26257000  0.36816000  1.0
  O  O172  1  0.01244000  0.46732000  0.84742000  1.0
  O  O173  1  0.51246000  0.53269000  0.65258000  1.0
  O  O174  1  0.98754000  0.53270000  0.15258000  1.0
  O  O175  1  0.48755000  0.46731000  0.34742000  1.0
  O  O176  1  0.15317000  0.37784000  0.78266000  1.0
  O  O177  1  0.65319000  0.62217000  0.71734000  1.0
  O  O178  1  0.84680000  0.62217000  0.21734000  1.0
  O  O179  1  0.34682000  0.37784000  0.28266000  1.0
