# generated using pymatgen
data_CdH15C25N2O7
_symmetry_space_group_name_H-M   'P 1'
_cell_length_a   9.08340000
_cell_length_b   11.44510000
_cell_length_c   11.63580000
_cell_angle_alpha   93.60450000
_cell_angle_beta   102.03700000
_cell_angle_gamma   103.87100000
_symmetry_Int_Tables_number   1
_chemical_formula_structural   CdH15C25N2O7
_chemical_formula_sum   'Cd2 H30 C50 N4 O14'
_cell_volume   1140.42207354
_cell_formula_units_Z   2
loop_
 _symmetry_equiv_pos_site_id
 _symmetry_equiv_pos_as_xyz
  1  'x, y, z'
loop_
 _atom_site_type_symbol
 _atom_site_label
 _atom_site_symmetry_multiplicity
 _atom_site_fract_x
 _atom_site_fract_y
 _atom_site_fract_z
 _atom_site_occupancy
  Cd  Cd0  1  0.03009000  0.09490000  0.29400000  1.0
  Cd  Cd1  1  0.96988000  0.90516000  0.70604000  1.0
  H  H2  1  0.15266000  0.70019000  0.15711000  1.0
  H  H3  1  0.84731000  0.29985000  0.84291000  1.0
  H  H4  1  0.24051000  0.51366000  0.21000000  1.0
  H  H5  1  0.75948000  0.48639000  0.79002000  1.0
  H  H6  1  0.24351000  0.45054000  0.41175000  1.0
  H  H7  1  0.75649000  0.54950000  0.58827000  1.0
  H  H8  1  0.43771000  0.70241000  0.58594000  1.0
  H  H9  1  0.56228000  0.29765000  0.41410000  1.0
  H  H10  1  0.63896000  0.60285000  0.92061000  1.0
  H  H11  1  0.36102000  0.39710000  0.07939000  1.0
  H  H12  1  0.37564000  0.47060000  0.92869000  1.0
  H  H13  1  0.62433000  0.52932000  0.07127000  1.0
  H  H14  1  0.14653000  0.45330000  0.76161000  1.0
  H  H15  1  0.85345000  0.54665000  0.23835000  1.0
  H  H16  1  0.84340000  0.92129000  0.04910000  1.0
  H  H17  1  0.15662000  0.07875000  0.95095000  1.0
  H  H18  1  0.64746000  0.92641000  0.86455000  1.0
  H  H19  1  0.35259000  0.07359000  0.13547000  1.0
  H  H20  1  0.64705000  0.28413000  0.00833000  1.0
  H  H21  1  0.35287000  0.71586000  0.99164000  1.0
  H  H22  1  0.83736000  0.26241000  0.18572000  1.0
  H  H23  1  0.16254000  0.73760000  0.81429000  1.0
  H  H24  1  0.56872000  0.97859000  0.69706000  1.0
  H  H25  1  0.43141000  0.02139000  0.30294000  1.0
  H  H26  1  0.38143000  0.00693000  0.51748000  1.0
  H  H27  1  0.61872000  0.99299000  0.48249000  1.0
  H  H28  1  0.25824000  0.27664000  0.69824000  1.0
  H  H29  1  0.74175000  0.72325000  0.30162000  1.0
  H  H30  1  0.42933000  0.25561000  0.88929000  1.0
  H  H31  1  0.57063000  0.74434000  0.11061000  1.0
  C  C32  1  0.06468000  0.85454000  0.29383000  1.0
  C  C33  1  0.93528000  0.14549000  0.70616000  1.0
  C  C34  1  0.06930000  0.77309000  0.53810000  1.0
  C  C35  1  0.93075000  0.22697000  0.46194000  1.0
  C  C36  1  0.11058000  0.70511000  0.44053000  1.0
  C  C37  1  0.88940000  0.29494000  0.55949000  1.0
  C  C38  1  0.11000000  0.74099000  0.32704000  1.0
  C  C39  1  0.88999000  0.25905000  0.67299000  1.0
  C  C40  1  0.15677000  0.67151000  0.24503000  1.0
  C  C41  1  0.84322000  0.32852000  0.75499000  1.0
  C  C42  1  0.20725000  0.56862000  0.27496000  1.0
  C  C43  1  0.79274000  0.43142000  0.72505000  1.0
  C  C44  1  0.21054000  0.53270000  0.38744000  1.0
  C  C45  1  0.78947000  0.46734000  0.61257000  1.0
  C  C46  1  0.16025000  0.60067000  0.46780000  1.0
  C  C47  1  0.83973000  0.39938000  0.53223000  1.0
  C  C48  1  0.28071000  0.57273000  0.66289000  1.0
  C  C49  1  0.71929000  0.42729000  0.33712000  1.0
  C  C50  1  0.42476000  0.64855000  0.65884000  1.0
  C  C51  1  0.57524000  0.35148000  0.34119000  1.0
  C  C52  1  0.55208000  0.65842000  0.75300000  1.0
  C  C53  1  0.44791000  0.34158000  0.24701000  1.0
  C  C54  1  0.53591000  0.59309000  0.84955000  1.0
  C  C55  1  0.46406000  0.40688000  0.15044000  1.0
  C  C56  1  0.39017000  0.52001000  0.85320000  1.0
  C  C57  1  0.60980000  0.47994000  0.14678000  1.0
  C  C58  1  0.26147000  0.50923000  0.76033000  1.0
  C  C59  1  0.73851000  0.49075000  0.23966000  1.0
  C  C60  1  0.70733000  0.74048000  0.75138000  1.0
  C  C61  1  0.29266000  0.25952000  0.24866000  1.0
  C  C62  1  0.79399000  0.99882000  0.03606000  1.0
  C  C63  1  0.20602000  0.00120000  0.96397000  1.0
  C  C64  1  0.68513000  0.00283000  0.93370000  1.0
  C  C65  1  0.31489000  0.99718000  0.06631000  1.0
  C  C66  1  0.62798000  0.10579000  0.91944000  1.0
  C  C67  1  0.37202000  0.89421000  0.08055000  1.0
  C  C68  1  0.68418000  0.20053000  0.01286000  1.0
  C  C69  1  0.31577000  0.79947000  0.98712000  1.0
  C  C70  1  0.79192000  0.18970000  0.11266000  1.0
  C  C71  1  0.20802000  0.81031000  0.88734000  1.0
  C  C72  1  0.51781000  0.11671000  0.80994000  1.0
  C  C73  1  0.48223000  0.88326000  0.19003000  1.0
  C  C74  1  0.50261000  0.04598000  0.70307000  1.0
  C  C75  1  0.49749000  0.95399000  0.29691000  1.0
  C  C76  1  0.39983000  0.06237000  0.60156000  1.0
  C  C77  1  0.60027000  0.93756000  0.39840000  1.0
  C  C78  1  0.32948000  0.21181000  0.70267000  1.0
  C  C79  1  0.67054000  0.78810000  0.29721000  1.0
  C  C80  1  0.42685000  0.20046000  0.80874000  1.0
  C  C81  1  0.57315000  0.79949000  0.19118000  1.0
  N  N82  1  0.84666000  0.09068000  0.12450000  1.0
  N  N83  1  0.15331000  0.90935000  0.87552000  1.0
  N  N84  1  0.31802000  0.14446000  0.60201000  1.0
  N  N85  1  0.68204000  0.85543000  0.39789000  1.0
  O  O86  1  0.03206000  0.87094000  0.18632000  1.0
  O  O87  1  0.96791000  0.12908000  0.81369000  1.0
  O  O88  1  0.06566000  0.93085000  0.37993000  1.0
  O  O89  1  0.93426000  0.06919000  0.62008000  1.0
  O  O90  1  0.92727000  0.75759000  0.54209000  1.0
  O  O91  1  0.07280000  0.24248000  0.45801000  1.0
  O  O92  1  0.18013000  0.83753000  0.61886000  1.0
  O  O93  1  0.81992000  0.16253000  0.38116000  1.0
  O  O94  1  0.70717000  0.83389000  0.69601000  1.0
  O  O95  1  0.29284000  0.16611000  0.30402000  1.0
  O  O96  1  0.82948000  0.71431000  0.80387000  1.0
  O  O97  1  0.17051000  0.28569000  0.19619000  1.0
  O  O98  1  0.14835000  0.56357000  0.57734000  1.0
  O  O99  1  0.85164000  0.43648000  0.42268000  1.0
