# generated using pymatgen
data_NdCuH13C15N2O13
_symmetry_space_group_name_H-M   'P 1'
_cell_length_a   8.09504000
_cell_length_b   11.04450000
_cell_length_c   11.85450000
_cell_angle_alpha   100.88100000
_cell_angle_beta   106.59600000
_cell_angle_gamma   102.81400000
_symmetry_Int_Tables_number   1
_chemical_formula_structural   NdCuH13C15N2O13
_chemical_formula_sum   'Nd2 Cu2 H26 C30 N4 O26'
_cell_volume   953.68567610
_cell_formula_units_Z   2
loop_
 _symmetry_equiv_pos_site_id
 _symmetry_equiv_pos_as_xyz
  1  'x, y, z'
loop_
 _atom_site_type_symbol
 _atom_site_label
 _atom_site_symmetry_multiplicity
 _atom_site_fract_x
 _atom_site_fract_y
 _atom_site_fract_z
 _atom_site_occupancy
  Nd  Nd0  1  0.01525000  0.33764000  0.07983000  1.0
  Nd  Nd1  1  0.98474000  0.66236000  0.92017000  1.0
  Cu  Cu2  1  0.96695000  0.77062000  0.44442000  1.0
  Cu  Cu3  1  0.03306000  0.22938000  0.55558000  1.0
  H  H4  1  0.40112000  0.67708000  0.14732000  1.0
  H  H5  1  0.59889000  0.32291000  0.85267000  1.0
  H  H6  1  0.75391000  0.08529000  0.95845000  1.0
  H  H7  1  0.24609000  0.91472000  0.04155000  1.0
  H  H8  1  0.82420000  0.11076000  0.85147000  1.0
  H  H9  1  0.17580000  0.88924000  0.14853000  1.0
  H  H10  1  0.15431000  0.12517000  0.16923000  1.0
  H  H11  1  0.84569000  0.87483000  0.83077000  1.0
  H  H12  1  0.22030000  0.13208000  0.05650000  1.0
  H  H13  1  0.77970000  0.86792000  0.94351000  1.0
  H  H14  1  0.30260000  0.33146000  0.97730000  1.0
  H  H15  1  0.69740000  0.66853000  0.02269000  1.0
  H  H16  1  0.16333000  0.33770000  0.85656000  1.0
  H  H17  1  0.83667000  0.66229000  0.14344000  1.0
  H  H18  1  0.51131000  0.45901000  0.30541000  1.0
  H  H19  1  0.48868000  0.54097000  0.69459000  1.0
  H  H20  1  0.44815000  0.35301000  0.46314000  1.0
  H  H21  1  0.55185000  0.64700000  0.53686000  1.0
  H  H22  1  0.68371000  0.25728000  0.57639000  1.0
  H  H23  1  0.31628000  0.74273000  0.42362000  1.0
  H  H24  1  0.63078000  0.82931000  0.47822000  1.0
  H  H25  1  0.36924000  0.17070000  0.52178000  1.0
  H  H26  1  0.42033000  0.94449000  0.37301000  1.0
  H  H27  1  0.57969000  0.05552000  0.62700000  1.0
  H  H28  1  0.49993000  0.05275000  0.22033000  1.0
  H  H29  1  0.50007000  0.94726000  0.77968000  1.0
  C  C30  1  0.29866000  0.58571000  0.13435000  1.0
  C  C31  1  0.70134000  0.41428000  0.86564000  1.0
  C  C32  1  0.79882000  0.48657000  0.23422000  1.0
  C  C33  1  0.20118000  0.51343000  0.76578000  1.0
  C  C34  1  0.78510000  0.05692000  0.14467000  1.0
  C  C35  1  0.21491000  0.94308000  0.85533000  1.0
  C  C36  1  0.06466000  0.35862000  0.38003000  1.0
  C  C37  1  0.93534000  0.64138000  0.61997000  1.0
  C  C38  1  0.88672000  0.36312000  0.39414000  1.0
  C  C39  1  0.11328000  0.63687000  0.60585000  1.0
  C  C40  1  0.76714000  0.42082000  0.33013000  1.0
  C  C41  1  0.23286000  0.57917000  0.66987000  1.0
  C  C42  1  0.60769000  0.41664000  0.35591000  1.0
  C  C43  1  0.39231000  0.58335000  0.64408000  1.0
  C  C44  1  0.57273000  0.35722000  0.44359000  1.0
  C  C45  1  0.42726000  0.64278000  0.55640000  1.0
  C  C46  1  0.69899000  0.30335000  0.50500000  1.0
  C  C47  1  0.30101000  0.69664000  0.49501000  1.0
  C  C48  1  0.74636000  0.99973000  0.24385000  1.0
  C  C49  1  0.25364000  0.00028000  0.75616000  1.0
  C  C50  1  0.85744000  0.93800000  0.30946000  1.0
  C  C51  1  0.14256000  0.06200000  0.69054000  1.0
  C  C52  1  0.03695000  0.93276000  0.30045000  1.0
  C  C53  1  0.96305000  0.06724000  0.69955000  1.0
  C  C54  1  0.65813000  0.87971000  0.41199000  1.0
  C  C55  1  0.34188000  0.12029000  0.58801000  1.0
  C  C56  1  0.54452000  0.94445000  0.35424000  1.0
  C  C57  1  0.45549000  0.05555000  0.64577000  1.0
  C  C58  1  0.58826000  0.00386000  0.26877000  1.0
  C  C59  1  0.41174000  0.99615000  0.73123000  1.0
  N  N60  1  0.85000000  0.30608000  0.47908000  1.0
  N  N61  1  0.14999000  0.69392000  0.52093000  1.0
  N  N62  1  0.81023000  0.87698000  0.38935000  1.0
  N  N63  1  0.18979000  0.12303000  0.61066000  1.0
  O  O64  1  0.79022000  0.15490000  0.91861000  1.0
  O  O65  1  0.20979000  0.84511000  0.08139000  1.0
  O  O66  1  0.34642000  0.48820000  0.15342000  1.0
  O  O67  1  0.65357000  0.51179000  0.84658000  1.0
  O  O68  1  0.19233000  0.18414000  0.12246000  1.0
  O  O69  1  0.80767000  0.81586000  0.87755000  1.0
  O  O70  1  0.13222000  0.58313000  0.09942000  1.0
  O  O71  1  0.86778000  0.41687000  0.90058000  1.0
  O  O72  1  0.17479000  0.29868000  0.92813000  1.0
  O  O73  1  0.82520000  0.70132000  0.07187000  1.0
  O  O74  1  0.78289000  0.41674000  0.13139000  1.0
  O  O75  1  0.21711000  0.58326000  0.86861000  1.0
  O  O76  1  0.12127000  0.41184000  0.30787000  1.0
  O  O77  1  0.87872000  0.58817000  0.69213000  1.0
  O  O78  1  0.86570000  0.17609000  0.17458000  1.0
  O  O79  1  0.13431000  0.82391000  0.82542000  1.0
  O  O80  1  0.15394000  0.30062000  0.44865000  1.0
  O  O81  1  0.84605000  0.69938000  0.55134000  1.0
  O  O82  1  0.82943000  0.60805000  0.26076000  1.0
  O  O83  1  0.17055000  0.39195000  0.73923000  1.0
  O  O84  1  0.72169000  0.98156000  0.03738000  1.0
  O  O85  1  0.27831000  0.01844000  0.96262000  1.0
  O  O86  1  0.10620000  0.99424000  0.23823000  1.0
  O  O87  1  0.89379000  0.00577000  0.76177000  1.0
  O  O88  1  0.11406000  0.86360000  0.36146000  1.0
  O  O89  1  0.88595000  0.13640000  0.63853000  1.0
