# generated using pymatgen
data_CuH8C12BrN2
_symmetry_space_group_name_H-M   'P 1'
_cell_length_a   7.24603000
_cell_length_b   8.45168000
_cell_length_c   17.60880000
_cell_angle_alpha   89.99960000
_cell_angle_beta   89.99980000
_cell_angle_gamma   93.35340000
_symmetry_Int_Tables_number   1
_chemical_formula_structural   CuH8C12BrN2
_chemical_formula_sum   'Cu4 H32 C48 Br4 N8'
_cell_volume   1076.53627491
_cell_formula_units_Z   4
loop_
 _symmetry_equiv_pos_site_id
 _symmetry_equiv_pos_as_xyz
  1  'x, y, z'
loop_
 _atom_site_type_symbol
 _atom_site_label
 _atom_site_symmetry_multiplicity
 _atom_site_fract_x
 _atom_site_fract_y
 _atom_site_fract_z
 _atom_site_occupancy
  Cu  Cu0  1  0.57503000  0.30329000  0.29484000  1.0
  Cu  Cu1  1  0.07503000  0.30328000  0.20517000  1.0
  Cu  Cu2  1  0.42498000  0.69672000  0.70517000  1.0
  Cu  Cu3  1  0.92497000  0.69671000  0.79483000  1.0
  H  H4  1  0.27239000  0.32480000  0.60389000  1.0
  H  H5  1  0.77240000  0.32483000  0.89611000  1.0
  H  H6  1  0.72759000  0.67517000  0.39611000  1.0
  H  H7  1  0.22760000  0.67519000  0.10389000  1.0
  H  H8  1  0.61031000  0.72637000  0.11082000  1.0
  H  H9  1  0.11029000  0.72634000  0.38917000  1.0
  H  H10  1  0.38972000  0.27366000  0.88919000  1.0
  H  H11  1  0.88970000  0.27363000  0.61081000  1.0
  H  H12  1  0.49715000  0.22129000  0.13731000  1.0
  H  H13  1  0.99710000  0.22125000  0.36269000  1.0
  H  H14  1  0.50290000  0.77874000  0.86270000  1.0
  H  H15  1  0.00286000  0.77871000  0.63730000  1.0
  H  H16  1  0.56201000  0.18174000  0.57619000  1.0
  H  H17  1  0.06201000  0.18177000  0.92381000  1.0
  H  H18  1  0.43797000  0.81822000  0.42381000  1.0
  H  H19  1  0.93798000  0.81825000  0.07618000  1.0
  H  H20  1  0.66429000  0.97197000  0.32517000  1.0
  H  H21  1  0.16432000  0.97198000  0.17483000  1.0
  H  H22  1  0.33569000  0.02804000  0.67484000  1.0
  H  H23  1  0.83572000  0.02804000  0.82516000  1.0
  H  H24  1  0.68314000  0.18013000  0.44395000  1.0
  H  H25  1  0.18315000  0.18014000  0.05605000  1.0
  H  H26  1  0.31685000  0.81986000  0.55605000  1.0
  H  H27  1  0.81686000  0.81987000  0.94394000  1.0
  H  H28  1  0.68437000  0.72224000  0.24947000  1.0
  H  H29  1  0.18439000  0.72223000  0.25052000  1.0
  H  H30  1  0.31561000  0.27777000  0.75054000  1.0
  H  H31  1  0.81565000  0.27777000  0.74946000  1.0
  H  H32  1  0.25089000  0.43551000  0.36420000  1.0
  H  H33  1  0.75092000  0.43553000  0.13580000  1.0
  H  H34  1  0.74910000  0.56450000  0.63580000  1.0
  H  H35  1  0.24912000  0.56449000  0.86420000  1.0
  C  C36  1  0.32779000  0.31659000  0.54654000  1.0
  C  C37  1  0.82781000  0.31662000  0.95346000  1.0
  C  C38  1  0.67219000  0.68338000  0.45346000  1.0
  C  C39  1  0.17220000  0.68340000  0.04654000  1.0
  C  C40  1  0.60479000  0.83332000  0.14511000  1.0
  C  C41  1  0.10477000  0.83329000  0.35489000  1.0
  C  C42  1  0.39523000  0.16671000  0.85490000  1.0
  C  C43  1  0.89522000  0.16668000  0.64509000  1.0
  C  C44  1  0.54199000  0.10937000  0.15956000  1.0
  C  C45  1  0.04197000  0.10934000  0.34044000  1.0
  C  C46  1  0.45803000  0.89065000  0.84045000  1.0
  C  C47  1  0.95801000  0.89063000  0.65955000  1.0
  C  C48  1  0.48786000  0.23938000  0.53109000  1.0
  C  C49  1  0.98787000  0.23941000  0.96891000  1.0
  C  C50  1  0.51211000  0.76059000  0.46891000  1.0
  C  C51  1  0.01213000  0.76062000  0.03109000  1.0
  C  C52  1  0.63269000  0.96927000  0.26465000  1.0
  C  C53  1  0.13271000  0.96927000  0.23536000  1.0
  C  C54  1  0.36729000  0.03074000  0.73537000  1.0
  C  C55  1  0.86731000  0.03073000  0.76463000  1.0
  C  C56  1  0.55604000  0.23735000  0.45723000  1.0
  C  C57  1  0.05606000  0.23737000  0.04277000  1.0
  C  C58  1  0.44394000  0.76263000  0.54277000  1.0
  C  C59  1  0.94396000  0.76264000  0.95722000  1.0
  C  C60  1  0.64429000  0.83120000  0.22243000  1.0
  C  C61  1  0.14430000  0.83119000  0.27757000  1.0
  C  C62  1  0.35570000  0.16881000  0.77758000  1.0
  C  C63  1  0.85571000  0.16880000  0.72241000  1.0
  C  C64  1  0.31578000  0.38121000  0.41290000  1.0
  C  C65  1  0.81580000  0.38124000  0.08710000  1.0
  C  C66  1  0.68421000  0.61878000  0.58710000  1.0
  C  C67  1  0.18422000  0.61878000  0.91290000  1.0
  C  C68  1  0.07212000  0.46697000  0.49634000  1.0
  C  C69  1  0.57211000  0.46697000  0.00367000  1.0
  C  C70  1  0.92788000  0.53303000  0.50367000  1.0
  C  C71  1  0.42789000  0.53302000  0.99634000  1.0
  C  C72  1  0.55421000  0.97637000  0.11207000  1.0
  C  C73  1  0.05417000  0.97634000  0.38792000  1.0
  C  C74  1  0.44583000  0.02365000  0.88794000  1.0
  C  C75  1  0.94579000  0.02362000  0.61206000  1.0
  C  C76  1  0.51594000  0.99099000  0.03371000  1.0
  C  C77  1  0.01586000  0.99095000  0.46629000  1.0
  C  C78  1  0.48414000  0.00905000  0.96630000  1.0
  C  C79  1  0.98405000  0.00900000  0.53370000  1.0
  C  C80  1  0.23765000  0.38888000  0.48585000  1.0
  C  C81  1  0.73767000  0.38890000  0.01415000  1.0
  C  C82  1  0.76234000  0.61111000  0.51415000  1.0
  C  C83  1  0.26234000  0.61111000  0.98585000  1.0
  Br  Br84  1  0.86460000  0.46750000  0.28817000  1.0
  Br  Br85  1  0.36460000  0.46751000  0.21184000  1.0
  Br  Br86  1  0.13540000  0.53248000  0.71185000  1.0
  Br  Br87  1  0.63539000  0.53250000  0.78816000  1.0
  N  N88  1  0.47190000  0.30769000  0.39851000  1.0
  N  N89  1  0.97192000  0.30771000  0.10149000  1.0
  N  N90  1  0.52809000  0.69231000  0.60149000  1.0
  N  N91  1  0.02810000  0.69231000  0.89851000  1.0
  N  N92  1  0.58161000  0.10717000  0.23409000  1.0
  N  N93  1  0.08162000  0.10716000  0.26592000  1.0
  N  N94  1  0.41839000  0.89284000  0.76593000  1.0
  N  N95  1  0.91839000  0.89283000  0.73408000  1.0
