# generated using pymatgen
data_Zn3H5C22NO14
_symmetry_space_group_name_H-M   'P 1'
_cell_length_a   18.52720000
_cell_length_b   18.53950000
_cell_length_c   32.12840000
_cell_angle_alpha   90.00070000
_cell_angle_beta   90.00040000
_cell_angle_gamma   89.99910000
_symmetry_Int_Tables_number   1
_chemical_formula_structural   Zn3H5C22NO14
_chemical_formula_sum   'Zn12 H20 C88 N4 O56'
_cell_volume   11035.62425548
_cell_formula_units_Z   4
loop_
 _symmetry_equiv_pos_site_id
 _symmetry_equiv_pos_as_xyz
  1  'x, y, z'
loop_
 _atom_site_type_symbol
 _atom_site_label
 _atom_site_symmetry_multiplicity
 _atom_site_fract_x
 _atom_site_fract_y
 _atom_site_fract_z
 _atom_site_occupancy
  Zn  Zn0  1  0.42998000  0.50000000  0.00000000  1.0
  Zn  Zn1  1  0.92998000  0.00000000  0.50000000  1.0
  Zn  Zn2  1  0.57028000  0.50000000  0.00000000  1.0
  Zn  Zn3  1  0.07028000  0.00000000  0.50000000  1.0
  Zn  Zn4  1  0.50008000  0.42990000  0.49999000  1.0
  Zn  Zn5  1  0.50008000  0.57011000  0.50001000  1.0
  Zn  Zn6  1  0.00008000  0.92989000  0.00001000  1.0
  Zn  Zn7  1  0.00008000  0.07011000  0.99999000  1.0
  Zn  Zn8  1  0.49980000  0.00000000  0.95946000  1.0
  Zn  Zn9  1  0.49980000  0.00000000  0.04054000  1.0
  Zn  Zn10  1  0.99980000  0.50000000  0.45946000  1.0
  Zn  Zn11  1  0.99980000  0.50000000  0.54054000  1.0
  H  H12  1  0.55670000  0.38820000  0.77543000  1.0
  H  H13  1  0.57365000  0.39844000  0.22461000  1.0
  H  H14  1  0.57396000  0.60135000  0.77539000  1.0
  H  H15  1  0.55702000  0.61165000  0.22457000  1.0
  H  H16  1  0.07316000  0.89809000  0.27539000  1.0
  H  H17  1  0.05706000  0.88837000  0.72457000  1.0
  H  H18  1  0.05756000  0.11137000  0.27542000  1.0
  H  H19  1  0.07362000  0.10158000  0.72461000  1.0
  H  H20  1  0.43149000  0.39690000  0.72429000  1.0
  H  H21  1  0.44853000  0.38735000  0.27565000  1.0
  H  H22  1  0.44887000  0.61280000  0.72435000  1.0
  H  H23  1  0.43178000  0.60331000  0.27571000  1.0
  H  H24  1  0.94799000  0.88759000  0.22434000  1.0
  H  H25  1  0.93181000  0.89667000  0.77571000  1.0
  H  H26  1  0.93226000  0.10364000  0.22429000  1.0
  H  H27  1  0.94850000  0.11263000  0.77565000  1.0
  H  H28  1  0.37689000  0.50992000  0.77532000  1.0
  H  H29  1  0.37685000  0.49045000  0.22468000  1.0
  H  H30  1  0.87680000  0.99103000  0.27532000  1.0
  H  H31  1  0.87685000  0.00952000  0.72468000  1.0
  C  C32  1  0.50005000  0.36036000  0.00000000  1.0
  C  C33  1  0.50005000  0.63964000  1.00000000  1.0
  C  C34  1  0.00005000  0.86036000  0.50000000  1.0
  C  C35  1  0.00005000  0.13964000  0.50000000  1.0
  C  C36  1  0.50012000  0.49994000  0.91956000  1.0
  C  C37  1  0.50012000  0.50006000  0.08044000  1.0
  C  C38  1  0.00012000  0.00005000  0.41956000  1.0
  C  C39  1  0.00012000  0.99994000  0.58044000  1.0
  C  C40  1  0.46211000  0.44291000  0.73612000  1.0
  C  C41  1  0.47157000  0.43762000  0.26388000  1.0
  C  C42  1  0.47176000  0.56247000  0.73613000  1.0
  C  C43  1  0.46226000  0.55721000  0.26388000  1.0
  C  C44  1  0.97125000  0.93775000  0.23612000  1.0
  C  C45  1  0.96228000  0.94278000  0.76388000  1.0
  C  C46  1  0.96252000  0.05739000  0.23611000  1.0
  C  C47  1  0.97155000  0.06237000  0.76388000  1.0
  C  C48  1  0.53098000  0.43738000  0.76402000  1.0
  C  C49  1  0.54045000  0.44298000  0.23598000  1.0
  C  C50  1  0.54064000  0.55691000  0.76402000  1.0
  C  C51  1  0.53114000  0.56254000  0.23598000  1.0
  C  C52  1  0.04018000  0.94278000  0.26402000  1.0
  C  C53  1  0.03116000  0.93747000  0.73598000  1.0
  C  C54  1  0.03144000  0.06238000  0.26401000  1.0
  C  C55  1  0.04043000  0.05703000  0.73598000  1.0
  C  C56  1  0.50050000  0.49984000  0.87481000  1.0
  C  C57  1  0.50050000  0.50015000  0.12519000  1.0
  C  C58  1  0.00050000  0.00014000  0.37481000  1.0
  C  C59  1  0.00050000  0.99985000  0.62519000  1.0
  C  C60  1  0.49876000  0.50000000  0.62495000  1.0
  C  C61  1  0.49876000  0.50001000  0.37505000  1.0
  C  C62  1  0.99875000  0.00001000  0.12495000  1.0
  C  C63  1  0.99876000  0.99999000  0.87505000  1.0
  C  C64  1  0.43218000  0.50547000  0.76378000  1.0
  C  C65  1  0.43216000  0.49474000  0.23622000  1.0
  C  C66  1  0.93212000  0.99506000  0.26378000  1.0
  C  C67  1  0.93216000  0.00524000  0.73622000  1.0
  C  C68  1  0.50109000  0.49996000  0.79289000  1.0
  C  C69  1  0.50107000  0.50004000  0.20712000  1.0
  C  C70  1  0.00106000  0.00003000  0.29288000  1.0
  C  C71  1  0.00107000  0.99996000  0.70712000  1.0
  C  C72  1  0.50088000  0.49999000  0.70680000  1.0
  C  C73  1  0.50086000  0.50002000  0.29320000  1.0
  C  C74  1  0.00085000  0.00001000  0.20679000  1.0
  C  C75  1  0.00086000  0.99998000  0.79320000  1.0
  C  C76  1  0.56920000  0.49445000  0.73593000  1.0
  C  C77  1  0.56920000  0.50537000  0.26407000  1.0
  C  C78  1  0.06920000  0.00501000  0.23593000  1.0
  C  C79  1  0.06920000  0.99465000  0.76407000  1.0
  C  C80  1  0.50144000  0.49980000  0.83690000  1.0
  C  C81  1  0.50143000  0.50020000  0.16310000  1.0
  C  C82  1  0.00143000  0.00019000  0.33690000  1.0
  C  C83  1  0.00143000  0.99980000  0.66310000  1.0
  C  C84  1  0.50054000  0.49991000  0.66281000  1.0
  C  C85  1  0.50054000  0.50010000  0.33719000  1.0
  C  C86  1  0.00054000  0.00009000  0.16281000  1.0
  C  C87  1  0.00055000  0.99990000  0.83719000  1.0
  C  C88  1  0.49998000  0.28266000  0.00000000  1.0
  C  C89  1  0.49998000  0.71734000  0.00000000  1.0
  C  C90  1  0.99998000  0.78266000  0.50000000  1.0
  C  C91  1  0.99998000  0.21734000  0.50000000  1.0
  C  C92  1  0.50001000  0.21709000  1.00000000  1.0
  C  C93  1  0.50002000  0.78291000  0.00000000  1.0
  C  C94  1  0.00001000  0.71709000  0.50000000  1.0
  C  C95  1  0.00002000  0.28291000  0.50000000  1.0
  C  C96  1  0.36019000  0.50000000  0.50000000  1.0
  C  C97  1  0.86019000  0.00000000  1.00000000  1.0
  C  C98  1  0.49922000  0.50002000  0.58027000  1.0
  C  C99  1  0.49922000  0.49999000  0.41973000  1.0
  C  C100  1  0.99922000  0.99999000  0.08027000  1.0
  C  C101  1  0.99922000  0.00001000  0.91973000  1.0
  C  C102  1  0.63968000  0.50000000  0.50000000  1.0
  C  C103  1  0.13968000  0.00000000  0.00000000  1.0
  C  C104  1  0.63916000  0.00000000  0.00000000  1.0
  C  C105  1  0.13916000  0.50000000  0.50000000  1.0
  C  C106  1  0.50005000  0.13943000  1.00000000  1.0
  C  C107  1  0.50005000  0.86057000  1.00000000  1.0
  C  C108  1  0.00005000  0.63943000  0.50001000  1.0
  C  C109  1  0.00005000  0.36057000  0.49999000  1.0
  C  C110  1  0.36068000  0.00000000  0.00000000  1.0
  C  C111  1  0.86068000  0.50000000  0.50000000  1.0
  C  C112  1  0.28242000  0.50000000  0.50000000  1.0
  C  C113  1  0.78242000  0.00000000  1.00000000  1.0
  C  C114  1  0.71681000  0.00000000  0.00000000  1.0
  C  C115  1  0.21681000  0.50000000  0.50000000  1.0
  C  C116  1  0.71744000  0.50000000  0.50000000  1.0
  C  C117  1  0.21744000  0.00000000  1.00000000  1.0
  C  C118  1  0.28304000  0.00000000  1.00000000  1.0
  C  C119  1  0.78305000  0.50000000  0.50000000  1.0
  N  N120  1  0.64513000  0.48828000  0.72280000  1.0
  N  N121  1  0.64515000  0.51130000  0.27720000  1.0
  N  N122  1  0.14519000  0.01060000  0.22280000  1.0
  N  N123  1  0.14516000  0.98874000  0.77720000  1.0
  O  O124  1  0.43826000  0.39082000  0.00000000  1.0
  O  O125  1  0.43827000  0.60918000  1.00000000  1.0
  O  O126  1  0.93826000  0.89082000  0.50000000  1.0
  O  O127  1  0.93826000  0.10918000  0.50000000  1.0
  O  O128  1  0.56187000  0.39070000  1.00000000  1.0
  O  O129  1  0.56187000  0.60931000  1.00000000  1.0
  O  O130  1  0.06186000  0.89069000  0.50000000  1.0
  O  O131  1  0.06187000  0.10931000  0.50000000  1.0
  O  O132  1  0.43831000  0.49996000  0.93736000  1.0
  O  O133  1  0.43831000  0.50004000  0.06264000  1.0
  O  O134  1  0.93831000  0.00003000  0.43736000  1.0
  O  O135  1  0.93831000  0.99996000  0.56264000  1.0
  O  O136  1  0.56177000  0.50001000  0.93754000  1.0
  O  O137  1  0.56177000  0.49999000  0.06246000  1.0
  O  O138  1  0.06177000  0.99999000  0.43754000  1.0
  O  O139  1  0.06177000  0.00001000  0.56246000  1.0
  O  O140  1  0.39053000  0.43823000  0.49998000  1.0
  O  O141  1  0.39053000  0.56177000  0.50002000  1.0
  O  O142  1  0.89053000  0.93823000  0.00001000  1.0
  O  O143  1  0.89053000  0.06177000  0.99999000  1.0
  O  O144  1  0.49943000  0.43832000  0.56239000  1.0
  O  O145  1  0.49948000  0.43827000  0.43760000  1.0
  O  O146  1  0.49949000  0.56174000  0.56241000  1.0
  O  O147  1  0.49943000  0.56168000  0.43761000  1.0
  O  O148  1  0.99948000  0.93827000  0.06240000  1.0
  O  O149  1  0.99942000  0.93832000  0.93761000  1.0
  O  O150  1  0.99943000  0.06168000  0.06239000  1.0
  O  O151  1  0.99948000  0.06173000  0.93760000  1.0
  O  O152  1  0.60929000  0.43824000  0.49999000  1.0
  O  O153  1  0.60929000  0.56176000  0.50001000  1.0
  O  O154  1  0.10929000  0.93824000  0.00001000  1.0
  O  O155  1  0.10929000  0.06176000  0.99999000  1.0
  O  O156  1  0.60859000  0.00000000  0.96437000  1.0
  O  O157  1  0.60859000  0.00000000  0.03563000  1.0
  O  O158  1  0.10859000  0.50000000  0.46437000  1.0
  O  O159  1  0.10859000  0.50000000  0.53563000  1.0
  O  O160  1  0.50007000  0.10892000  0.96437000  1.0
  O  O161  1  0.50008000  0.10892000  0.03562000  1.0
  O  O162  1  0.50008000  0.89108000  0.96438000  1.0
  O  O163  1  0.50008000  0.89108000  0.03563000  1.0
  O  O164  1  0.00008000  0.60892000  0.46438000  1.0
  O  O165  1  0.00007000  0.60892000  0.53563000  1.0
  O  O166  1  0.00008000  0.39108000  0.46436000  1.0
  O  O167  1  0.00008000  0.39108000  0.53562000  1.0
  O  O168  1  0.39128000  0.00002000  0.96437000  1.0
  O  O169  1  0.39128000  0.99998000  0.03563000  1.0
  O  O170  1  0.89128000  0.49998000  0.46437000  1.0
  O  O171  1  0.89128000  0.50002000  0.53563000  1.0
  O  O172  1  0.68971000  0.48460000  0.75156000  1.0
  O  O173  1  0.65884000  0.48724000  0.68515000  1.0
  O  O174  1  0.68974000  0.51485000  0.24844000  1.0
  O  O175  1  0.65887000  0.51229000  0.31485000  1.0
  O  O176  1  0.18980000  0.01389000  0.25156000  1.0
  O  O177  1  0.15890000  0.01160000  0.18515000  1.0
  O  O178  1  0.18975000  0.98522000  0.74844000  1.0
  O  O179  1  0.15888000  0.98775000  0.81485000  1.0
