# generated using pymatgen
data_ErH15C15NO8
_symmetry_space_group_name_H-M   'P 1'
_cell_length_a   8.59630000
_cell_length_b   10.28350000
_cell_length_c   10.82590000
_cell_angle_alpha   63.09050000
_cell_angle_beta   70.57330000
_cell_angle_gamma   81.71730000
_symmetry_Int_Tables_number   1
_chemical_formula_structural   ErH15C15NO8
_chemical_formula_sum   'Er2 H30 C30 N2 O16'
_cell_volume   804.77836538
_cell_formula_units_Z   2
loop_
 _symmetry_equiv_pos_site_id
 _symmetry_equiv_pos_as_xyz
  1  'x, y, z'
loop_
 _atom_site_type_symbol
 _atom_site_label
 _atom_site_symmetry_multiplicity
 _atom_site_fract_x
 _atom_site_fract_y
 _atom_site_fract_z
 _atom_site_occupancy
  Er  Er0  1  0.13832000  0.93826000  0.16200000  1.0
  Er  Er1  1  0.86167000  0.06175000  0.83799000  1.0
  H  H2  1  0.26057000  0.07562000  0.84553000  1.0
  H  H3  1  0.73943000  0.92439000  0.15446000  1.0
  H  H4  1  0.41845000  0.08798000  0.88797000  1.0
  H  H5  1  0.58155000  0.91203000  0.11202000  1.0
  H  H6  1  0.98692000  0.53416000  0.76137000  1.0
  H  H7  1  0.01307000  0.46584000  0.23863000  1.0
  H  H8  1  0.95953000  0.25160000  0.20560000  1.0
  H  H9  1  0.04046000  0.74840000  0.79439000  1.0
  H  H10  1  0.54910000  0.82099000  0.39667000  1.0
  H  H11  1  0.45089000  0.17900000  0.60333000  1.0
  H  H12  1  0.73871000  0.13547000  0.46979000  1.0
  H  H13  1  0.26128000  0.86452000  0.53021000  1.0
  H  H14  1  0.20359000  0.54395000  0.60045000  1.0
  H  H15  1  0.79641000  0.45607000  0.39953000  1.0
  H  H16  1  0.64760000  0.65286000  0.23953000  1.0
  H  H17  1  0.35240000  0.34716000  0.76045000  1.0
  H  H18  1  0.15078000  0.15102000  0.34274000  1.0
  H  H19  1  0.84920000  0.84899000  0.65725000  1.0
  H  H20  1  0.43088000  0.36324000  0.32992000  1.0
  H  H21  1  0.56912000  0.63675000  0.67009000  1.0
  H  H22  1  0.21669000  0.32353000  0.38467000  1.0
  H  H23  1  0.78331000  0.67647000  0.61534000  1.0
  H  H24  1  0.30564000  0.47723000  0.21871000  1.0
  H  H25  1  0.69437000  0.52276000  0.78129000  1.0
  H  H26  1  0.60649000  0.35360000  0.10649000  1.0
  H  H27  1  0.39352000  0.64637000  0.89355000  1.0
  H  H28  1  0.49110000  0.36981000  0.98965000  1.0
  H  H29  1  0.50895000  0.63015000  0.01037000  1.0
  H  H30  1  0.56543000  0.19674000  0.08977000  1.0
  H  H31  1  0.43460000  0.80322000  0.91029000  1.0
  C  C32  1  0.94517000  0.25282000  0.95915000  1.0
  C  C33  1  0.05482000  0.74718000  0.04085000  1.0
  C  C34  1  0.97224000  0.38044000  0.98083000  1.0
  C  C35  1  0.02775000  0.61956000  0.01917000  1.0
  C  C36  1  0.99310000  0.52047000  0.86542000  1.0
  C  C37  1  0.00689000  0.47954000  0.13457000  1.0
  C  C38  1  0.97848000  0.36065000  0.11601000  1.0
  C  C39  1  0.02151000  0.63936000  0.88399000  1.0
  C  C40  1  0.82894000  0.94874000  0.34517000  1.0
  C  C41  1  0.17106000  0.05126000  0.65482000  1.0
  C  C42  1  0.65920000  0.97636000  0.42426000  1.0
  C  C43  1  0.34079000  0.02364000  0.57574000  1.0
  C  C44  1  0.52539000  0.89978000  0.44174000  1.0
  C  C45  1  0.47460000  0.10021000  0.55825000  1.0
  C  C46  1  0.63361000  0.07741000  0.48269000  1.0
  C  C47  1  0.36638000  0.92259000  0.51730000  1.0
  C  C48  1  0.32423000  0.73046000  0.32211000  1.0
  C  C49  1  0.67577000  0.26956000  0.67788000  1.0
  C  C50  1  0.41601000  0.61012000  0.41184000  1.0
  C  C51  1  0.58399000  0.38989000  0.58815000  1.0
  C  C52  1  0.33359000  0.52353000  0.55832000  1.0
  C  C53  1  0.66641000  0.47648000  0.44167000  1.0
  C  C54  1  0.58342000  0.58561000  0.35339000  1.0
  C  C55  1  0.41658000  0.41440000  0.64659000  1.0
  C  C56  1  0.26092000  0.16940000  0.24797000  1.0
  C  C57  1  0.73908000  0.83060000  0.75203000  1.0
  C  C58  1  0.32779000  0.36432000  0.29100000  1.0
  C  C59  1  0.67221000  0.63567000  0.70901000  1.0
  C  C60  1  0.51617000  0.29981000  0.09320000  1.0
  C  C61  1  0.48386000  0.70015000  0.90683000  1.0
  N  N62  1  0.36550000  0.27198000  0.21523000  1.0
  N  N63  1  0.63451000  0.72800000  0.78478000  1.0
  O  O64  1  0.99412000  0.12756000  0.03478000  1.0
  O  O65  1  0.00586000  0.87244000  0.96521000  1.0
  O  O66  1  0.87427000  0.27350000  0.86582000  1.0
  O  O67  1  0.12572000  0.72651000  0.13418000  1.0
  O  O68  1  0.95224000  0.00339000  0.34555000  1.0
  O  O69  1  0.04775000  0.99661000  0.65444000  1.0
  O  O70  1  0.85001000  0.87109000  0.27509000  1.0
  O  O71  1  0.14998000  0.12892000  0.72490000  1.0
  O  O72  1  0.17277000  0.75048000  0.38000000  1.0
  O  O73  1  0.82723000  0.24955000  0.62000000  1.0
  O  O74  1  0.39783000  0.81345000  0.18841000  1.0
  O  O75  1  0.60217000  0.18657000  0.81159000  1.0
  O  O76  1  0.31419000  0.03282000  0.92419000  1.0
  O  O77  1  0.68581000  0.96718000  0.07580000  1.0
  O  O78  1  0.28558000  0.09652000  0.17602000  1.0
  O  O79  1  0.71441000  0.90349000  0.82398000  1.0
