# generated using pymatgen
data_CuH30C30(NO)6
_symmetry_space_group_name_H-M   'P 1'
_cell_length_a   6.89578000
_cell_length_b   7.81408000
_cell_length_c   15.60620000
_cell_angle_alpha   79.36350000
_cell_angle_beta   77.90320000
_cell_angle_gamma   68.57090000
_symmetry_Int_Tables_number   1
_chemical_formula_structural   CuH30C30(NO)6
_chemical_formula_sum   'Cu1 H30 C30 N6 O6'
_cell_volume   760.00367837
_cell_formula_units_Z   1
loop_
 _symmetry_equiv_pos_site_id
 _symmetry_equiv_pos_as_xyz
  1  'x, y, z'
loop_
 _atom_site_type_symbol
 _atom_site_label
 _atom_site_symmetry_multiplicity
 _atom_site_fract_x
 _atom_site_fract_y
 _atom_site_fract_z
 _atom_site_occupancy
  Cu  Cu0  1  0.50000000  0.50000000  0.50000000  1.0
  H  H1  1  0.50824000  0.41401000  0.32582000  1.0
  H  H2  1  0.49176000  0.58600000  0.67418000  1.0
  H  H3  1  0.76448000  0.35646000  0.18600000  1.0
  H  H4  1  0.23553000  0.64353000  0.81399000  1.0
  H  H5  1  0.20287000  0.46253000  0.31426000  1.0
  H  H6  1  0.79714000  0.53746000  0.68574000  1.0
  H  H7  1  0.92657000  0.52095000  0.44505000  1.0
  H  H8  1  0.07344000  0.47903000  0.55495000  1.0
  H  H9  1  0.31568000  0.11169000  0.29894000  1.0
  H  H10  1  0.68433000  0.88832000  0.70106000  1.0
  H  H11  1  0.67848000  0.90060000  0.29361000  1.0
  H  H12  1  0.32152000  0.09940000  0.70639000  1.0
  H  H13  1  0.85035000  0.11537000  0.03752000  1.0
  H  H14  1  0.14965000  0.88463000  0.96248000  1.0
  H  H15  1  0.49203000  0.33847000  0.03061000  1.0
  H  H16  1  0.50797000  0.66154000  0.96940000  1.0
  H  H17  1  0.21765000  0.16782000  0.02667000  1.0
  H  H18  1  0.78235000  0.83217000  0.97334000  1.0
  H  H19  1  0.92849000  0.71158000  0.11309000  1.0
  H  H20  1  0.07151000  0.28841000  0.88691000  1.0
  H  H21  1  0.04509000  0.92777000  0.61931000  1.0
  H  H22  1  0.95489000  0.07223000  0.38069000  1.0
  H  H23  1  0.93420000  0.08606000  0.70018000  1.0
  H  H24  1  0.06577000  0.91394000  0.29982000  1.0
  H  H25  1  0.09905000  0.13959000  0.60290000  1.0
  H  H26  1  0.90093000  0.86041000  0.39711000  1.0
  H  H27  1  0.48120000  0.17157000  0.50291000  1.0
  H  H28  1  0.51878000  0.82844000  0.49709000  1.0
  H  H29  1  0.32210000  0.14140000  0.45334000  1.0
  H  H30  1  0.67789000  0.85861000  0.54666000  1.0
  C  C31  1  0.66281000  0.42669000  0.31850000  1.0
  C  C32  1  0.33720000  0.57331000  0.68149000  1.0
  C  C33  1  0.80660000  0.39335000  0.24173000  1.0
  C  C34  1  0.19340000  0.60665000  0.75827000  1.0
  C  C35  1  0.00833000  0.40123000  0.23833000  1.0
  C  C36  1  0.99167000  0.59877000  0.76167000  1.0
  C  C37  1  0.05268000  0.44856000  0.31258000  1.0
  C  C38  1  0.94733000  0.55144000  0.68742000  1.0
  C  C39  1  0.89919000  0.48112000  0.38676000  1.0
  C  C40  1  0.10083000  0.51887000  0.61324000  1.0
  C  C41  1  0.36697000  0.24595000  0.16425000  1.0
  C  C42  1  0.63305000  0.75405000  0.83575000  1.0
  C  C43  1  0.42689000  0.12018000  0.23895000  1.0
  C  C44  1  0.57312000  0.87981000  0.76105000  1.0
  C  C45  1  0.63408000  0.99975000  0.23579000  1.0
  C  C46  1  0.36592000  0.00025000  0.76421000  1.0
  C  C47  1  0.72779000  0.11698000  0.09479000  1.0
  C  C48  1  0.27222000  0.88302000  0.90521000  1.0
  C  C49  1  0.52590000  0.24434000  0.09068000  1.0
  C  C50  1  0.47411000  0.75566000  0.90932000  1.0
  C  C51  1  0.08256000  0.43138000  0.07884000  1.0
  C  C52  1  0.91745000  0.56861000  0.92116000  1.0
  C  C53  1  0.12373000  0.31375000  0.01458000  1.0
  C  C54  1  0.87628000  0.68624000  0.98542000  1.0
  C  C55  1  0.95835000  0.61815000  0.06394000  1.0
  C  C56  1  0.04167000  0.38184000  0.93606000  1.0
  C  C57  1  0.78752000  0.17116000  0.58331000  1.0
  C  C58  1  0.21246000  0.82884000  0.41670000  1.0
  C  C59  1  0.97889000  0.07435000  0.62902000  1.0
  C  C60  1  0.02108000  0.92566000  0.37099000  1.0
  N  N61  1  0.70778000  0.46901000  0.39020000  1.0
  N  N62  1  0.29223000  0.53099000  0.60980000  1.0
  N  N63  1  0.15859000  0.36337000  0.16120000  1.0
  N  N64  1  0.84141000  0.63663000  0.83880000  1.0
  N  N65  1  0.78614000  0.99390000  0.16531000  1.0
  N  N66  1  0.21387000  0.00610000  0.83469000  1.0
  O  O67  1  0.73275000  0.34880000  0.56917000  1.0
  O  O68  1  0.26726000  0.65121000  0.43083000  1.0
  O  O69  1  0.69154000  0.07824000  0.56263000  1.0
  O  O70  1  0.30843000  0.92178000  0.43739000  1.0
  O  O71  1  0.36154000  0.23860000  0.46974000  1.0
  O  O72  1  0.63846000  0.76141000  0.53024000  1.0
