# generated using pymatgen
data_Zn3H16(C12O7)2
_symmetry_space_group_name_H-M   'P 1'
_cell_length_a   9.59318000
_cell_length_b   11.75150000
_cell_length_c   18.30806960
_cell_angle_alpha   105.88515152
_cell_angle_beta   89.99971643
_cell_angle_gamma   89.99980000
_symmetry_Int_Tables_number   1
_chemical_formula_structural   Zn3H16(C12O7)2
_chemical_formula_sum   'Zn6 H32 C48 O28'
_cell_volume   1985.12915883
_cell_formula_units_Z   2
loop_
 _symmetry_equiv_pos_site_id
 _symmetry_equiv_pos_as_xyz
  1  'x, y, z'
loop_
 _atom_site_type_symbol
 _atom_site_label
 _atom_site_symmetry_multiplicity
 _atom_site_fract_x
 _atom_site_fract_y
 _atom_site_fract_z
 _atom_site_occupancy
  Zn  Zn0  1  0.01441000  0.27655000  0.06558000  1.0
  Zn  Zn1  1  0.51440000  0.22345000  0.43441000  1.0
  Zn  Zn2  1  0.98560000  0.72346000  0.93442000  1.0
  Zn  Zn3  1  0.48560000  0.77655000  0.56558000  1.0
  Zn  Zn4  1  0.99999000  0.50001000  0.00000000  1.0
  Zn  Zn5  1  0.50000000  0.00000000  0.50000000  1.0
  H  H6  1  0.85563000  0.72944000  0.20575000  1.0
  H  H7  1  0.35563000  0.77056000  0.29425000  1.0
  H  H8  1  0.14438000  0.27057000  0.79425000  1.0
  H  H9  1  0.64440000  0.22943000  0.70575000  1.0
  H  H10  1  0.74564000  0.84456000  0.32857000  1.0
  H  H11  1  0.24564000  0.65544000  0.17143000  1.0
  H  H12  1  0.25436000  0.15544000  0.67143000  1.0
  H  H13  1  0.75438000  0.34454000  0.82856000  1.0
  H  H14  1  0.72525000  0.52727000  0.40195000  1.0
  H  H15  1  0.22523000  0.97273000  0.09805000  1.0
  H  H16  1  0.27478000  0.47275000  0.59806000  1.0
  H  H17  1  0.77470000  0.02727000  0.90196000  1.0
  H  H18  1  0.83919000  0.41389000  0.28086000  1.0
  H  H19  1  0.33916000  0.08612000  0.21914000  1.0
  H  H20  1  0.16085000  0.58613000  0.71915000  1.0
  H  H21  1  0.66077000  0.91388000  0.78087000  1.0
  H  H22  1  0.52473000  0.46018000  0.12602000  1.0
  H  H23  1  0.02473000  0.03983000  0.37398000  1.0
  H  H24  1  0.47529000  0.53980000  0.87398000  1.0
  H  H25  1  0.97527000  0.96017000  0.62601000  1.0
  H  H26  1  0.29012000  0.42760000  0.92129000  1.0
  H  H27  1  0.79010000  0.07237000  0.57870000  1.0
  H  H28  1  0.70989000  0.57240000  0.07872000  1.0
  H  H29  1  0.20990000  0.92761000  0.42128000  1.0
  H  H30  1  0.10509000  0.18199000  0.16662000  1.0
  H  H31  1  0.60510000  0.31797333  0.33333333  1.0
  H  H32  1  0.89490000  0.81803000  0.83339000  1.0
  H  H33  1  0.39491000  0.68198000  0.66661000  1.0
  H  H34  1  0.22124000  0.23276000  0.11765000  1.0
  H  H35  1  0.72123000  0.26724000  0.38235000  1.0
  H  H36  1  0.77876000  0.76724000  0.88235000  1.0
  H  H37  1  0.27877000  0.73277000  0.61765000  1.0
  C  C38  1  0.91036000  0.49357000  0.16182000  1.0
  C  C39  1  0.41034000  0.00644000  0.33818000  1.0
  C  C40  1  0.08966000  0.50644000  0.83818000  1.0
  C  C41  1  0.58964000  0.99356000  0.66182000  1.0
  C  C42  1  0.85177000  0.56470000  0.23593000  1.0
  C  C43  1  0.35175000  0.93531000  0.26407000  1.0
  C  C44  1  0.14826000  0.43531000  0.76407000  1.0
  C  C45  1  0.64823000  0.06468000  0.73593000  1.0
  C  C46  1  0.82740000  0.68647000  0.24938000  1.0
  C  C47  1  0.32738000  0.81354000  0.25062000  1.0
  C  C48  1  0.17262000  0.31354000  0.75062000  1.0
  C  C49  1  0.67261000  0.18646000  0.74938000  1.0
  C  C50  1  0.76673000  0.75026000  0.31738000  1.0
  C  C51  1  0.26672000  0.74975000  0.18262000  1.0
  C  C52  1  0.23328000  0.24975000  0.68262000  1.0
  C  C53  1  0.73327000  0.25024000  0.81738000  1.0
  C  C54  1  0.72859000  0.69237000  0.37195000  1.0
  C  C55  1  0.22858000  0.80763000  0.12805000  1.0
  C  C56  1  0.27142000  0.30765000  0.62806000  1.0
  C  C57  1  0.77139000  0.19236000  0.87195000  1.0
  C  C58  1  0.75558000  0.57121000  0.35922000  1.0
  C  C59  1  0.25556000  0.92879000  0.14078000  1.0
  C  C60  1  0.24445000  0.42880000  0.64079000  1.0
  C  C61  1  0.74439000  0.07121000  0.85923000  1.0
  C  C62  1  0.81747000  0.50805000  0.29176000  1.0
  C  C63  1  0.31744000  0.99196000  0.20824000  1.0
  C  C64  1  0.18256000  0.49197000  0.70825000  1.0
  C  C65  1  0.68250000  0.00804000  0.79177000  1.0
  C  C66  1  0.65241000  0.75711000  0.44202000  1.0
  C  C67  1  0.15241000  0.74290000  0.05798000  1.0
  C  C68  1  0.34760000  0.24291000  0.55798000  1.0
  C  C69  1  0.84758000  0.25709000  0.94202000  1.0
  C  C70  1  0.28806000  0.37074000  0.05525000  1.0
  C  C71  1  0.78805000  0.12925000  0.44475000  1.0
  C  C72  1  0.71195000  0.62924000  0.94475000  1.0
  C  C73  1  0.21196000  0.87076000  0.55524000  1.0
  C  C74  1  0.39625000  0.43838000  0.02656000  1.0
  C  C75  1  0.89623000  0.06160000  0.47343000  1.0
  C  C76  1  0.60376000  0.56160000  0.97344000  1.0
  C  C77  1  0.10376000  0.93839000  0.52655000  1.0
  C  C78  1  0.51483000  0.47829000  0.07100000  1.0
  C  C79  1  0.01482000  0.02171000  0.42900000  1.0
  C  C80  1  0.48519000  0.52169000  0.92901000  1.0
  C  C81  1  0.98518000  0.97829000  0.57099000  1.0
  C  C82  1  0.38220000  0.45978000  0.95530000  1.0
  C  C83  1  0.88218000  0.04020000  0.54469000  1.0
  C  C84  1  0.61782000  0.54020000  0.04470000  1.0
  C  C85  1  0.11781000  0.95980000  0.45530000  1.0
  O  O86  1  0.93440000  0.54577000  0.11102000  1.0
  O  O87  1  0.43440000  0.95425000  0.38898000  1.0
  O  O88  1  0.06560000  0.45425000  0.88898000  1.0
  O  O89  1  0.56560000  0.04575000  0.61102000  1.0
  O  O90  1  0.93035000  0.38312000  0.15535000  1.0
  O  O91  1  0.43032000  0.11689000  0.34465000  1.0
  O  O92  1  0.06967000  0.61689000  0.84465000  1.0
  O  O93  1  0.56966000  0.88311000  0.65535000  1.0
  O  O94  1  0.64475000  0.86874000  0.45890000  1.0
  O  O95  1  0.14476000  0.63126000  0.04109000  1.0
  O  O96  1  0.35525000  0.13126000  0.54109000  1.0
  O  O97  1  0.85525000  0.36873000  0.95891000  1.0
  O  O98  1  0.59685000  0.69214000  0.48070000  1.0
  O  O99  1  0.09684000  0.80787000  0.01930000  1.0
  O  O100  1  0.40314000  0.30788000  0.51930000  1.0
  O  O101  1  0.90314000  0.19212000  0.98070000  1.0
  O  O102  1  0.16271000  0.36618000  0.02680000  1.0
  O  O103  1  0.66270000  0.13382000  0.47320000  1.0
  O  O104  1  0.83731000  0.63383000  0.97321000  1.0
  O  O105  1  0.33730000  0.86618000  0.52679000  1.0
  O  O106  1  0.32287000  0.31923000  0.10468000  1.0
  O  O107  1  0.82286000  0.18076000  0.39532000  1.0
  O  O108  1  0.67714000  0.68076000  0.89533000  1.0
  O  O109  1  0.17715000  0.81924000  0.60467000  1.0
  O  O110  1  0.13448000  0.17695000  0.11497000  1.0
  O  O111  1  0.63448000  0.32306000  0.38504000  1.0
  O  O112  1  0.86551000  0.82306000  0.88504000  1.0
  O  O113  1  0.36552000  0.67695000  0.61496000  1.0
