# generated using pymatgen
data_Zr3H14C31Cl5O16F
_symmetry_space_group_name_H-M   'P 1'
_cell_length_a   14.87910000
_cell_length_b   14.89192429
_cell_length_c   14.90008512
_cell_angle_alpha   119.86459321
_cell_angle_beta   90.30754934
_cell_angle_gamma   119.70740459
_symmetry_Int_Tables_number   1
_chemical_formula_structural   Zr3H14C31Cl5O16F
_chemical_formula_sum   'Zr6 H28 C62 Cl10 O32 F2'
_cell_volume   2343.33662382
_cell_formula_units_Z   2
loop_
 _symmetry_equiv_pos_site_id
 _symmetry_equiv_pos_as_xyz
  1  'x, y, z'
loop_
 _atom_site_type_symbol
 _atom_site_label
 _atom_site_symmetry_multiplicity
 _atom_site_fract_x
 _atom_site_fract_y
 _atom_site_fract_z
 _atom_site_occupancy
  Zr  Zr0  1  0.12317000  0.50441000  0.38641000  1.0
  Zr  Zr1  1  0.88355000  0.50436000  0.62140000  1.0
  Zr  Zr2  1  0.88086000  0.26502000  0.38254000  1.0
  Zr  Zr3  1  0.12170000  0.73906000  0.62463000  1.0
  Zr  Zr4  1  0.88622000  0.50285000  0.38157000  1.0
  Zr  Zr5  1  0.11785000  0.49449000  0.61713000  1.0
  H  H6  1  0.90952000  0.31889000  0.22211000  1.0
  H  H7  1  0.90952000  0.69042000  0.59647000  1.0
  H  H8  1  0.90524000  0.31187000  0.59180000  1.0
  H  H9  1  0.28193000  0.68306000  0.59694000  1.0
  H  H10  1  0.86077000  0.60867000  0.14255000  1.0
  H  H11  1  0.77120000  0.44064000  0.05870000  1.0
  H  H12  1  0.76692000  0.44029000  0.88914000  1.0
  H  H13  1  0.85883000  0.60875000  0.97281000  1.0
  H  H14  1  0.39957000  0.45619000  0.69233000  1.0
  H  H15  1  0.48287000  0.61861000  0.74346000  1.0
  H  H16  1  0.64987000  0.61452000  0.74254000  1.0
  H  H17  1  0.56560000  0.44881000  0.68165000  1.0
  H  H18  1  0.25913000  0.11822000  0.63700000  1.0
  H  H19  1  0.18468000  0.12683000  0.73065000  1.0
  H  H20  1  0.17572000  0.28862000  0.72515000  1.0
  H  H21  1  0.25297000  0.28308000  0.63377000  1.0
  H  H22  1  0.35227000  0.09448000  0.96800000  1.0
  H  H23  1  0.43227000  0.10610000  0.88068000  1.0
  H  H24  1  0.60394000  0.28391000  0.04837000  1.0
  H  H25  1  0.52266000  0.26592000  0.13323000  1.0
  H  H26  1  0.97826000  0.24962000  0.06212000  1.0
  H  H27  1  0.95628000  0.23180000  0.88895000  1.0
  H  H28  1  0.99565000  0.92693000  0.73620000  1.0
  H  H29  1  0.96720000  0.07117000  0.72580000  1.0
  H  H30  1  0.37768000  0.71939000  0.26736000  1.0
  H  H31  1  0.46555000  0.72334000  0.35287000  1.0
  H  H32  1  0.63135000  0.89237000  0.34965000  1.0
  H  H33  1  0.54347000  0.88738000  0.26320000  1.0
  C  C34  1  0.01349000  0.51288000  0.20578000  1.0
  C  C35  1  0.69832000  0.49674000  0.49182000  1.0
  C  C36  1  0.00402000  0.50248000  0.80384000  1.0
  C  C37  1  0.29418000  0.48121000  0.49153000  1.0
  C  C38  1  0.00405000  0.20136000  0.20109000  1.0
  C  C39  1  0.30594000  0.81020000  0.51075000  1.0
  C  C40  1  0.00692000  0.80693000  0.81063000  1.0
  C  C41  1  0.69565000  0.20608000  0.50320000  1.0
  C  C42  1  0.70142000  0.19870000  0.19643000  1.0
  C  C43  1  0.99954000  0.19144000  0.48764000  1.0
  C  C44  1  0.29926000  0.79120000  0.80681000  1.0
  C  C45  1  0.00696000  0.80324000  0.49737000  1.0
  C  C46  1  0.01743000  0.51053000  0.10449000  1.0
  C  C47  1  0.01045000  0.50271000  0.90437000  1.0
  C  C48  1  0.94053000  0.51453000  0.05573000  1.0
  C  C49  1  0.08800000  0.49427000  0.95033000  1.0
  C  C50  1  0.93795000  0.51256000  0.96116000  1.0
  C  C51  1  0.09332000  0.50126000  0.04908000  1.0
  C  C52  1  0.84345000  0.52275000  0.06729000  1.0
  C  C53  1  0.84108000  0.52197000  0.96096000  1.0
  C  C54  1  0.38881000  0.47039000  0.48117000  1.0
  C  C55  1  0.59325000  0.48730000  0.48353000  1.0
  C  C56  1  0.45327000  0.49277000  0.56792000  1.0
  C  C57  1  0.53017000  0.46722000  0.39497000  1.0
  C  C58  1  0.54908000  0.49707000  0.56755000  1.0
  C  C59  1  0.42732000  0.45055000  0.39035000  1.0
  C  C60  1  0.46642000  0.52589000  0.68323000  1.0
  C  C61  1  0.57184000  0.52489000  0.68077000  1.0
  C  C62  1  0.00101000  0.89625000  0.48856000  1.0
  C  C63  1  0.99913000  0.08713000  0.47957000  1.0
  C  C64  1  0.08314000  0.02549000  0.55960000  1.0
  C  C65  1  0.91700000  0.95555000  0.40208000  1.0
  C  C66  1  0.08089000  0.11627000  0.55622000  1.0
  C  C67  1  0.91549000  0.86341000  0.40965000  1.0
  C  C68  1  0.18990000  0.12321000  0.65558000  1.0
  C  C69  1  0.18591000  0.22568000  0.65275000  1.0
  C  C70  1  0.40250000  0.88775000  0.90416000  1.0
  C  C71  1  0.60601000  0.09114000  0.09213000  1.0
  C  C72  1  0.44825000  0.01555000  0.95440000  1.0
  C  C73  1  0.56526000  0.96144000  0.03822000  1.0
  C  C74  1  0.54449000  0.11245000  0.04486000  1.0
  C  C75  1  0.46364000  0.86269000  0.95053000  1.0
  C  C76  1  0.42837000  0.10554000  0.95380000  1.0
  C  C77  1  0.53594000  0.21474000  0.05723000  1.0
  C  C78  1  0.00371000  0.10115000  0.09856000  1.0
  C  C79  1  0.99369000  0.09352000  0.99890000  1.0
  C  C80  1  0.01290000  0.01417000  0.09978000  1.0
  C  C81  1  0.97857000  0.17608000  0.99007000  1.0
  C  C82  1  0.96759000  0.16705000  0.89343000  1.0
  C  C83  1  0.00610000  0.90973000  0.90899000  1.0
  C  C84  1  0.01283000  0.91869000  0.00567000  1.0
  C  C85  1  0.99685000  0.99862000  0.90396000  1.0
  C  C86  1  0.98801000  0.99423000  0.80667000  1.0
  C  C87  1  0.97339000  0.07621000  0.80134000  1.0
  C  C88  1  0.40689000  0.91622000  0.51718000  1.0
  C  C89  1  0.59847000  0.11200000  0.51227000  1.0
  C  C90  1  0.45783000  0.88949000  0.43869000  1.0
  C  C91  1  0.55002000  0.14253000  0.59530000  1.0
  C  C92  1  0.54916000  0.98271000  0.43645000  1.0
  C  C93  1  0.45789000  0.04774000  0.59818000  1.0
  C  C94  1  0.45254000  0.78208000  0.33827000  1.0
  C  C95  1  0.55598000  0.88740000  0.33592000  1.0
  Cl  Cl96  1  0.17842000  0.47124000  0.88736000  1.0
  Cl  Cl97  1  0.19424000  0.49525000  0.09723000  1.0
  Cl  Cl98  1  0.57685000  0.46665000  0.28982000  1.0
  Cl  Cl99  1  0.34919000  0.40157000  0.26923000  1.0
  Cl  Cl100  1  0.81533000  0.90093000  0.29491000  1.0
  Cl  Cl101  1  0.80131000  0.71049000  0.32270000  1.0
  Cl  Cl102  1  0.63950000  0.91794000  0.07395000  1.0
  Cl  Cl103  1  0.41540000  0.71079000  0.90511000  1.0
  Cl  Cl104  1  0.60145000  0.29732000  0.69829000  1.0
  Cl  Cl105  1  0.41152000  0.09957000  0.70623000  1.0
  O  O106  1  0.08925000  0.51786000  0.25290000  1.0
  O  O107  1  0.73746000  0.50436000  0.57384000  1.0
  O  O108  1  0.92697000  0.50521000  0.76976000  1.0
  O  O109  1  0.25888000  0.49553000  0.42479000  1.0
  O  O110  1  0.92698000  0.16286000  0.23804000  1.0
  O  O111  1  0.25990000  0.83880000  0.58229000  1.0
  O  O112  1  0.08399000  0.84325000  0.77253000  1.0
  O  O113  1  0.73070000  0.16223000  0.42563000  1.0
  O  O114  1  0.73803000  0.31137000  0.22886000  1.0
  O  O115  1  0.07594000  0.30423000  0.56769000  1.0
  O  O116  1  0.25727000  0.67449000  0.76224000  1.0
  O  O117  1  0.93759000  0.68637000  0.42118000  1.0
  O  O118  1  0.92285000  0.16223000  0.41769000  1.0
  O  O119  1  0.26195000  0.83414000  0.77312000  1.0
  O  O120  1  0.08081000  0.84683000  0.58023000  1.0
  O  O121  1  0.73840000  0.17007000  0.24802000  1.0
  O  O122  1  0.08060000  0.31600000  0.24039000  1.0
  O  O123  1  0.73792000  0.32341000  0.57409000  1.0
  O  O124  1  0.92978000  0.69282000  0.77192000  1.0
  O  O125  1  0.27248000  0.69766000  0.43358000  1.0
  O  O126  1  0.25903000  0.48232000  0.56977000  1.0
  O  O127  1  0.93250000  0.50750000  0.23746000  1.0
  O  O128  1  0.74180000  0.49680000  0.41825000  1.0
  O  O129  1  0.07579000  0.49915000  0.75879000  1.0
  O  O130  1  0.20234000  0.63259000  0.57099000  1.0
  O  O131  1  0.93218000  0.36620000  0.56654000  1.0
  O  O132  1  0.93761000  0.63874000  0.57120000  1.0
  O  O133  1  0.93673000  0.37064000  0.30172000  1.0
  O  O134  1  0.85507000  0.40661000  0.45319000  1.0
  O  O135  1  0.05358000  0.60215000  0.45633000  1.0
  O  O136  1  0.05034000  0.59786000  0.64983000  1.0
  O  O137  1  0.04962000  0.40078000  0.45075000  1.0
  F  F138  1  0.02297000  0.83791000  0.01515000  1.0
  F  F139  1  0.02516000  0.01883000  0.19245000  1.0
