# generated using pymatgen
data_TbPH15C21NO11
_symmetry_space_group_name_H-M   'P 1'
_cell_length_a   11.57680000
_cell_length_b   15.01100000
_cell_length_c   17.58270000
_cell_angle_alpha   89.99980000
_cell_angle_beta   89.99980000
_cell_angle_gamma   91.23120000
_symmetry_Int_Tables_number   1
_chemical_formula_structural   TbPH15C21NO11
_chemical_formula_sum   'Tb4 P4 H60 C84 N4 O44'
_cell_volume   3054.80466384
_cell_formula_units_Z   4
loop_
 _symmetry_equiv_pos_site_id
 _symmetry_equiv_pos_as_xyz
  1  'x, y, z'
loop_
 _atom_site_type_symbol
 _atom_site_label
 _atom_site_symmetry_multiplicity
 _atom_site_fract_x
 _atom_site_fract_y
 _atom_site_fract_z
 _atom_site_occupancy
  Tb  Tb0  1  0.08126000  0.59389000  0.57210000  1.0
  Tb  Tb1  1  0.41873000  0.90611000  0.07210000  1.0
  Tb  Tb2  1  0.91873000  0.40611000  0.42791000  1.0
  Tb  Tb3  1  0.58127000  0.09389000  0.92790000  1.0
  P  P4  1  0.33705000  0.75224000  0.57751000  1.0
  P  P5  1  0.16295000  0.74776000  0.07751000  1.0
  P  P6  1  0.66295000  0.24776000  0.42249000  1.0
  P  P7  1  0.83705000  0.25224000  0.92249000  1.0
  H  H8  1  0.10346000  0.13083000  0.32620000  1.0
  H  H9  1  0.39654000  0.36917000  0.82621000  1.0
  H  H10  1  0.89654000  0.86917000  0.67379000  1.0
  H  H11  1  0.60346000  0.63084000  0.17380000  1.0
  H  H12  1  0.19329000  0.48070000  0.70956000  1.0
  H  H13  1  0.30671000  0.01930000  0.20957000  1.0
  H  H14  1  0.80671000  0.51930000  0.29043000  1.0
  H  H15  1  0.69329000  0.98070000  0.79043000  1.0
  H  H16  1  0.14969000  0.57435000  0.72795000  1.0
  H  H17  1  0.35032000  0.92565000  0.22796000  1.0
  H  H18  1  0.85031000  0.42565000  0.27204000  1.0
  H  H19  1  0.64968000  0.07435000  0.77204000  1.0
  H  H20  1  0.40313000  0.61139000  0.47730000  1.0
  H  H21  1  0.09687000  0.88861000  0.97730000  1.0
  H  H22  1  0.59687000  0.38861000  0.52270000  1.0
  H  H23  1  0.90314000  0.11139000  0.02270000  1.0
  H  H24  1  0.59356000  0.54106000  0.45164000  1.0
  H  H25  1  0.90644000  0.95894000  0.95164000  1.0
  H  H26  1  0.40644000  0.45894000  0.54836000  1.0
  H  H27  1  0.09357000  0.04106000  0.04836000  1.0
  H  H28  1  0.76124000  0.72625000  0.60390000  1.0
  H  H29  1  0.73876000  0.77375000  0.10390000  1.0
  H  H30  1  0.23876000  0.27375000  0.39610000  1.0
  H  H31  1  0.26124000  0.22625000  0.89610000  1.0
  H  H32  1  0.57414000  0.79724000  0.63083000  1.0
  H  H33  1  0.92586000  0.70276000  0.13083000  1.0
  H  H34  1  0.42587000  0.20276000  0.36917000  1.0
  H  H35  1  0.07413000  0.29724000  0.86917000  1.0
  H  H36  1  0.47097000  0.83689000  0.45273000  1.0
  H  H37  1  0.02903000  0.66311000  0.95273000  1.0
  H  H38  1  0.52903000  0.16311000  0.54727000  1.0
  H  H39  1  0.97096000  0.33690000  0.04727000  1.0
  H  H40  1  0.42260000  0.95929000  0.36296000  1.0
  H  H41  1  0.07740000  0.54072000  0.86296000  1.0
  H  H42  1  0.57740000  0.04072000  0.63704000  1.0
  H  H43  1  0.92258000  0.45929000  0.13704000  1.0
  H  H44  1  0.08652000  0.97838000  0.46511000  1.0
  H  H45  1  0.41348000  0.52162000  0.96511000  1.0
  H  H46  1  0.91348000  0.02161000  0.53489000  1.0
  H  H47  1  0.58650000  0.47838000  0.03488000  1.0
  H  H48  1  0.13325000  0.85726000  0.55564000  1.0
  H  H49  1  0.36674000  0.64274000  0.05563000  1.0
  H  H50  1  0.86676000  0.14274000  0.44437000  1.0
  H  H51  1  0.63325000  0.35725000  0.94436000  1.0
  H  H52  1  0.31631000  0.67167000  0.72180000  1.0
  H  H53  1  0.18371000  0.82832000  0.22180000  1.0
  H  H54  1  0.68370000  0.32833000  0.27820000  1.0
  H  H55  1  0.81630000  0.17166000  0.77820000  1.0
  H  H56  1  0.35549000  0.72737000  0.85445000  1.0
  H  H57  1  0.14451000  0.77262000  0.35445000  1.0
  H  H58  1  0.64450000  0.27262000  0.14555000  1.0
  H  H59  1  0.85549000  0.22737000  0.64555000  1.0
  H  H60  1  0.43283000  0.98889000  0.76641000  1.0
  H  H61  1  0.06715000  0.51111000  0.26640000  1.0
  H  H62  1  0.56717000  0.01111000  0.23360000  1.0
  H  H63  1  0.93283000  0.48888000  0.73360000  1.0
  H  H64  1  0.38902000  0.93579000  0.63452000  1.0
  H  H65  1  0.11098000  0.56421000  0.13452000  1.0
  H  H66  1  0.61099000  0.06421000  0.36548000  1.0
  H  H67  1  0.88901000  0.43578000  0.86548000  1.0
  C  C68  1  0.47685000  0.70916000  0.55490000  1.0
  C  C69  1  0.02315000  0.79085000  0.05490000  1.0
  C  C70  1  0.52315000  0.29085000  0.44510000  1.0
  C  C71  1  0.97685000  0.20916000  0.94510000  1.0
  C  C72  1  0.48210000  0.63741000  0.50385000  1.0
  C  C73  1  0.01790000  0.86260000  0.00385000  1.0
  C  C74  1  0.51790000  0.36259000  0.49615000  1.0
  C  C75  1  0.98210000  0.13741000  0.99615000  1.0
  C  C76  1  0.58764000  0.59782000  0.48991000  1.0
  C  C77  1  0.91236000  0.90218000  0.98991000  1.0
  C  C78  1  0.41236000  0.40218000  0.51009000  1.0
  C  C79  1  0.08765000  0.09782000  0.01009000  1.0
  C  C80  1  0.68800000  0.62930000  0.52654000  1.0
  C  C81  1  0.81201000  0.87070000  0.02654000  1.0
  C  C82  1  0.31200000  0.37070000  0.47345000  1.0
  C  C83  1  0.18800000  0.12930000  0.97345000  1.0
  C  C84  1  0.68266000  0.70228000  0.57597000  1.0
  C  C85  1  0.81734000  0.79772000  0.07597000  1.0
  C  C86  1  0.31735000  0.29772000  0.42403000  1.0
  C  C87  1  0.18266000  0.20228000  0.92403000  1.0
  C  C88  1  0.57748000  0.74210000  0.59057000  1.0
  C  C89  1  0.92252000  0.75790000  0.09058000  1.0
  C  C90  1  0.42252000  0.25790000  0.40942000  1.0
  C  C91  1  0.07749000  0.24210000  0.90942000  1.0
  C  C92  1  0.80047000  0.58296000  0.51502000  1.0
  C  C93  1  0.69953000  0.91705000  0.01501000  1.0
  C  C94  1  0.19953000  0.41705000  0.48499000  1.0
  C  C95  1  0.30047000  0.08297000  0.98499000  1.0
  C  C96  1  0.30616000  0.84040000  0.51075000  1.0
  C  C97  1  0.19384000  0.65960000  0.01075000  1.0
  C  C98  1  0.69385000  0.15961000  0.48925000  1.0
  C  C99  1  0.80616000  0.34040000  0.98925000  1.0
  C  C100  1  0.38721000  0.86849000  0.45600000  1.0
  C  C101  1  0.11279000  0.63151000  0.95600000  1.0
  C  C102  1  0.61280000  0.13151000  0.54401000  1.0
  C  C103  1  0.88720000  0.36849000  0.04400000  1.0
  C  C104  1  0.36013000  0.93647000  0.40546000  1.0
  C  C105  1  0.13988000  0.56354000  0.90546000  1.0
  C  C106  1  0.63988000  0.06353000  0.59455000  1.0
  C  C107  1  0.86012000  0.43647000  0.09454000  1.0
  C  C108  1  0.25202000  0.97654000  0.40893000  1.0
  C  C109  1  0.24799000  0.52346000  0.90892000  1.0
  C  C110  1  0.74799000  0.02346000  0.59108000  1.0
  C  C111  1  0.75200000  0.47654000  0.09107000  1.0
  C  C112  1  0.17066000  0.94748000  0.46325000  1.0
  C  C113  1  0.32935000  0.55253000  0.96325000  1.0
  C  C114  1  0.82935000  0.05253000  0.53676000  1.0
  C  C115  1  0.67064000  0.44747000  0.03675000  1.0
  C  C116  1  0.19732000  0.87994000  0.51407000  1.0
  C  C117  1  0.30268000  0.62006000  0.01407000  1.0
  C  C118  1  0.80269000  0.12006000  0.48593000  1.0
  C  C119  1  0.69731000  0.37994000  0.98593000  1.0
  C  C120  1  0.22546000  0.04979000  0.35439000  1.0
  C  C121  1  0.27456000  0.45021000  0.85439000  1.0
  C  C122  1  0.77455000  0.95021000  0.64561000  1.0
  C  C123  1  0.72545000  0.54979000  0.14560000  1.0
  C  C124  1  0.35148000  0.80046000  0.67059000  1.0
  C  C125  1  0.14851000  0.69954000  0.17059000  1.0
  C  C126  1  0.64853000  0.19955000  0.32942000  1.0
  C  C127  1  0.85147000  0.30045000  0.82941000  1.0
  C  C128  1  0.34073000  0.74119000  0.73220000  1.0
  C  C129  1  0.15927000  0.75880000  0.23220000  1.0
  C  C130  1  0.65927000  0.25881000  0.26779000  1.0
  C  C131  1  0.84072000  0.24119000  0.76780000  1.0
  C  C132  1  0.36317000  0.77160000  0.80546000  1.0
  C  C133  1  0.13683000  0.72840000  0.30546000  1.0
  C  C134  1  0.63682000  0.22840000  0.19454000  1.0
  C  C135  1  0.86317000  0.27160000  0.69454000  1.0
  C  C136  1  0.39899000  0.86033000  0.81719000  1.0
  C  C137  1  0.10101000  0.63966000  0.31718000  1.0
  C  C138  1  0.60102000  0.13967000  0.18282000  1.0
  C  C139  1  0.89898000  0.36033000  0.68282000  1.0
  C  C140  1  0.40727000  0.91969000  0.75592000  1.0
  C  C141  1  0.09272000  0.58030000  0.25592000  1.0
  C  C142  1  0.59274000  0.08030000  0.24409000  1.0
  C  C143  1  0.90726000  0.41969000  0.74409000  1.0
  C  C144  1  0.38272000  0.88996000  0.68255000  1.0
  C  C145  1  0.11726000  0.61003000  0.18255000  1.0
  C  C146  1  0.61729000  0.11004000  0.31745000  1.0
  C  C147  1  0.88272000  0.38996000  0.81745000  1.0
  C  C148  1  0.42968000  0.89078000  0.89564000  1.0
  C  C149  1  0.07033000  0.60923000  0.39564000  1.0
  C  C150  1  0.57032000  0.10923000  0.10436000  1.0
  C  C151  1  0.92968000  0.39078000  0.60436000  1.0
  N  N152  1  0.98655000  0.72765000  0.67992000  1.0
  N  N153  1  0.51345000  0.77236000  0.17992000  1.0
  N  N154  1  0.01345000  0.27235000  0.32008000  1.0
  N  N155  1  0.48655000  0.22765000  0.82008000  1.0
  O  O156  1  0.24665000  0.67847000  0.57784000  1.0
  O  O157  1  0.25334000  0.82153000  0.07785000  1.0
  O  O158  1  0.75335000  0.32154000  0.42215000  1.0
  O  O159  1  0.74666000  0.17847000  0.92216000  1.0
  O  O160  1  0.79664000  0.50872000  0.47989000  1.0
  O  O161  1  0.70336000  0.99126000  0.97989000  1.0
  O  O162  1  0.20335000  0.49126000  0.52011000  1.0
  O  O163  1  0.29664000  0.00873000  0.02011000  1.0
  O  O164  1  0.89068000  0.62065000  0.54192000  1.0
  O  O165  1  0.60931000  0.87934000  0.04193000  1.0
  O  O166  1  0.10931000  0.37934000  0.45808000  1.0
  O  O167  1  0.39068000  0.12066000  0.95808000  1.0
  O  O168  1  0.11833000  0.07911000  0.36173000  1.0
  O  O169  1  0.38168000  0.42089000  0.86173000  1.0
  O  O170  1  0.88167000  0.92089000  0.63827000  1.0
  O  O171  1  0.61832000  0.57911000  0.13826000  1.0
  O  O172  1  0.29636000  0.07938000  0.30765000  1.0
  O  O173  1  0.20365000  0.42062000  0.80766000  1.0
  O  O174  1  0.70364000  0.92062000  0.69235000  1.0
  O  O175  1  0.79635000  0.57937000  0.19234000  1.0
  O  O176  1  0.48425000  0.96485000  0.90293000  1.0
  O  O177  1  0.01575000  0.53514000  0.40293000  1.0
  O  O178  1  0.51574000  0.03514000  0.09707000  1.0
  O  O179  1  0.98425000  0.46484000  0.59707000  1.0
  O  O180  1  0.39975000  0.84176000  0.95135000  1.0
  O  O181  1  0.10024000  0.65822000  0.45134000  1.0
  O  O182  1  0.60025000  0.15823000  0.04866000  1.0
  O  O183  1  0.89974000  0.34175000  0.54865000  1.0
  O  O184  1  0.02384000  0.75272000  0.61547000  1.0
  O  O185  1  0.47615000  0.74728000  0.11547000  1.0
  O  O186  1  0.97615000  0.24728000  0.38453000  1.0
  O  O187  1  0.52386000  0.25273000  0.88453000  1.0
  O  O188  1  0.00455000  0.64671000  0.69957000  1.0
  O  O189  1  0.49545000  0.85330000  0.19957000  1.0
  O  O190  1  0.99545000  0.35329000  0.30043000  1.0
  O  O191  1  0.50454000  0.14671000  0.80043000  1.0
  O  O192  1  0.93242000  0.77869000  0.72298000  1.0
  O  O193  1  0.56758000  0.72132000  0.22297000  1.0
  O  O194  1  0.06758000  0.22132000  0.27703000  1.0
  O  O195  1  0.43242000  0.27869000  0.77703000  1.0
  O  O196  1  0.18793000  0.54082000  0.68798000  1.0
  O  O197  1  0.31207000  0.95918000  0.18799000  1.0
  O  O198  1  0.81207000  0.45918000  0.31201000  1.0
  O  O199  1  0.68793000  0.04082000  0.81201000  1.0
