# generated using pymatgen
data_Cu3H8C12N4(O2F)6
_symmetry_space_group_name_H-M   'P 1'
_cell_length_a   6.65543000
_cell_length_b   8.05573000
_cell_length_c   19.44830000
_cell_angle_alpha   89.99290000
_cell_angle_beta   90.91700000
_cell_angle_gamma   89.97800000
_symmetry_Int_Tables_number   1
_chemical_formula_structural   Cu3H8C12N4(O2F)6
_chemical_formula_sum   'Cu6 H16 C24 N8 O24 F12'
_cell_volume   1042.57427963
_cell_formula_units_Z   2
loop_
 _symmetry_equiv_pos_site_id
 _symmetry_equiv_pos_as_xyz
  1  'x, y, z'
loop_
 _atom_site_type_symbol
 _atom_site_label
 _atom_site_symmetry_multiplicity
 _atom_site_fract_x
 _atom_site_fract_y
 _atom_site_fract_z
 _atom_site_occupancy
  Cu  Cu0  1  0.00094000  0.99904000  0.00020000  1.0
  Cu  Cu1  1  0.49983000  0.50086000  0.49998000  1.0
  Cu  Cu2  1  0.01290000  0.22421000  0.30285000  1.0
  Cu  Cu3  1  0.48680000  0.72411000  0.19713000  1.0
  Cu  Cu4  1  0.98698000  0.77610000  0.69726000  1.0
  Cu  Cu5  1  0.51247000  0.27583000  0.80271000  1.0
  H  H6  1  0.37694000  0.11401000  0.30372000  1.0
  H  H7  1  0.12294000  0.61354000  0.19615000  1.0
  H  H8  1  0.62314000  0.88609000  0.69667000  1.0
  H  H9  1  0.87643000  0.38547000  0.80341000  1.0
  H  H10  1  0.32902000  0.19417000  0.37759000  1.0
  H  H11  1  0.17140000  0.69304000  0.12222000  1.0
  H  H12  1  0.67073000  0.80611000  0.62274000  1.0
  H  H13  1  0.82896000  0.30484000  0.87723000  1.0
  H  H14  1  0.34586000  0.76166000  0.04368000  1.0
  H  H15  1  0.15514000  0.26333000  0.45622000  1.0
  H  H16  1  0.65604000  0.23747000  0.95620000  1.0
  H  H17  1  0.84407000  0.73950000  0.54366000  1.0
  H  H18  1  0.21159000  0.63892000  0.99970000  1.0
  H  H19  1  0.28983000  0.14098000  0.50026000  1.0
  H  H20  1  0.79241000  0.36031000  0.99935000  1.0
  H  H21  1  0.70757000  0.86262000  0.50063000  1.0
  C  C22  1  0.09934000  0.13447000  0.14850000  1.0
  C  C23  1  0.40047000  0.63500000  0.35150000  1.0
  C  C24  1  0.90136000  0.86463000  0.85180000  1.0
  C  C25  1  0.59861000  0.36560000  0.64829000  1.0
  C  C26  1  0.83235000  0.98288000  0.13023000  1.0
  C  C27  1  0.66785000  0.48373000  0.36991000  1.0
  C  C28  1  0.16861000  0.01594000  0.87008000  1.0
  C  C29  1  0.33148000  0.51730000  0.63004000  1.0
  C  C30  1  0.83417000  0.03543000  0.19848000  1.0
  C  C31  1  0.66575000  0.53577000  0.30159000  1.0
  C  C32  1  0.16647000  0.96373000  0.80180000  1.0
  C  C33  1  0.33327000  0.46447000  0.69826000  1.0
  C  C34  1  0.68762000  0.03952000  0.25441000  1.0
  C  C35  1  0.81234000  0.53959000  0.24567000  1.0
  C  C36  1  0.31287000  0.95987000  0.74583000  1.0
  C  C37  1  0.18669000  0.46008000  0.75416000  1.0
  C  C38  1  0.27601000  0.24472000  0.13453000  1.0
  C  C39  1  0.22343000  0.74507000  0.36534000  1.0
  C  C40  1  0.72435000  0.75471000  0.86576000  1.0
  C  C41  1  0.77565000  0.25565000  0.63431000  1.0
  C  C42  1  0.69808000  0.88699000  0.08441000  1.0
  C  C43  1  0.80235000  0.38801000  0.41573000  1.0
  C  C44  1  0.30291000  0.11201000  0.91582000  1.0
  C  C45  1  0.19732000  0.61348000  0.58424000  1.0
  N  N46  1  0.99959000  0.04781000  0.09953000  1.0
  N  N47  1  0.50057000  0.54879000  0.40056000  1.0
  N  N48  1  0.00149000  0.95090000  0.90080000  1.0
  N  N49  1  0.49880000  0.45240000  0.59935000  1.0
  N  N50  1  0.00508000  0.12799000  0.20918000  1.0
  N  N51  1  0.49467000  0.62814000  0.29081000  1.0
  N  N52  1  0.99542000  0.87135000  0.79107000  1.0
  N  N53  1  0.50427000  0.37187000  0.70896000  1.0
  O  O54  1  0.74373000  0.12131000  0.30821000  1.0
  O  O55  1  0.75604000  0.62113000  0.19180000  1.0
  O  O56  1  0.25650000  0.87844000  0.69196000  1.0
  O  O57  1  0.24294000  0.37818000  0.80796000  1.0
  O  O58  1  0.74731000  0.88356000  0.02126000  1.0
  O  O59  1  0.75368000  0.38532000  0.47895000  1.0
  O  O60  1  0.25439000  0.11480000  0.97904000  1.0
  O  O61  1  0.24639000  0.61673000  0.52107000  1.0
  O  O62  1  0.53870000  0.81342000  0.10392000  1.0
  O  O63  1  0.96129000  0.31384000  0.39614000  1.0
  O  O64  1  0.46150000  0.18648000  0.89610000  1.0
  O  O65  1  0.03828000  0.68754000  0.60383000  1.0
  O  O66  1  0.51420000  0.97617000  0.24879000  1.0
  O  O67  1  0.98573000  0.47620000  0.25134000  1.0
  O  O68  1  0.48631000  0.02317000  0.75143000  1.0
  O  O69  1  0.01316000  0.52332000  0.74857000  1.0
  O  O70  1  0.30568000  0.20602000  0.32726000  1.0
  O  O71  1  0.19409000  0.70553000  0.17256000  1.0
  O  O72  1  0.69419000  0.79399000  0.67307000  1.0
  O  O73  1  0.80535000  0.29325000  0.82688000  1.0
  O  O74  1  0.20471000  0.73088000  0.03196000  1.0
  O  O75  1  0.29641000  0.23278000  0.46789000  1.0
  O  O76  1  0.79768000  0.26740000  0.96750000  1.0
  O  O77  1  0.70244000  0.76961000  0.53244000  1.0
  F  F78  1  0.22103000  0.36853000  0.08922000  1.0
  F  F79  1  0.27814000  0.86950000  0.41040000  1.0
  F  F80  1  0.77921000  0.63008000  0.91072000  1.0
  F  F81  1  0.72105000  0.13162000  0.58906000  1.0
  F  F82  1  0.43364000  0.16426000  0.10644000  1.0
  F  F83  1  0.06624000  0.66457000  0.39366000  1.0
  F  F84  1  0.56748000  0.83532000  0.89426000  1.0
  F  F85  1  0.93286000  0.33641000  0.60614000  1.0
  F  F86  1  0.34462000  0.31971000  0.19271000  1.0
  F  F87  1  0.15450000  0.81925000  0.30700000  1.0
  F  F88  1  0.65467000  0.68071000  0.80751000  1.0
  F  F89  1  0.84466000  0.18084000  0.69250000  1.0
