# generated using pymatgen
data_ZnH22C27(NO)4
_symmetry_space_group_name_H-M   'P 1'
_cell_length_a   8.21227000
_cell_length_b   11.27800000
_cell_length_c   30.89740000
_cell_angle_alpha   89.99990000
_cell_angle_beta   89.99990000
_cell_angle_gamma   76.80700000
_symmetry_Int_Tables_number   1
_chemical_formula_structural   ZnH22C27(NO)4
_chemical_formula_sum   'Zn4 H88 C108 N16 O16'
_cell_volume   2786.12656294
_cell_formula_units_Z   4
loop_
 _symmetry_equiv_pos_site_id
 _symmetry_equiv_pos_as_xyz
  1  'x, y, z'
loop_
 _atom_site_type_symbol
 _atom_site_label
 _atom_site_symmetry_multiplicity
 _atom_site_fract_x
 _atom_site_fract_y
 _atom_site_fract_z
 _atom_site_occupancy
  Zn  Zn0  1  0.92600000  0.34385000  0.06386000  1.0
  Zn  Zn1  1  0.07399000  0.15615000  0.56386000  1.0
  Zn  Zn2  1  0.07400000  0.65615000  0.93614000  1.0
  Zn  Zn3  1  0.92600000  0.84385000  0.43614000  1.0
  H  H4  1  0.64201000  0.41433000  0.17728000  1.0
  H  H5  1  0.35800000  0.08567000  0.67727000  1.0
  H  H6  1  0.35800000  0.58567000  0.82272000  1.0
  H  H7  1  0.64200000  0.91433000  0.32272000  1.0
  H  H8  1  0.50554000  0.42177000  0.24995000  1.0
  H  H9  1  0.49446000  0.07823000  0.74995000  1.0
  H  H10  1  0.49446000  0.57822000  0.75005000  1.0
  H  H11  1  0.50554000  0.92177000  0.25005000  1.0
  H  H12  1  0.77095000  0.05305000  0.27499000  1.0
  H  H13  1  0.22904000  0.44694000  0.77499000  1.0
  H  H14  1  0.22905000  0.94695000  0.72501000  1.0
  H  H15  1  0.77096000  0.55306000  0.22501000  1.0
  H  H16  1  0.91528000  0.04824000  0.20291000  1.0
  H  H17  1  0.08471000  0.45176000  0.70291000  1.0
  H  H18  1  0.08472000  0.95177000  0.79709000  1.0
  H  H19  1  0.91528000  0.54824000  0.29709000  1.0
  H  H20  1  0.45555000  0.01651000  0.46158000  1.0
  H  H21  1  0.54444000  0.48349000  0.96158000  1.0
  H  H22  1  0.54445000  0.98349000  0.53842000  1.0
  H  H23  1  0.45555000  0.51651000  0.03842000  1.0
  H  H24  1  0.60001000  0.99780000  0.38959000  1.0
  H  H25  1  0.39999000  0.50220000  0.88959000  1.0
  H  H26  1  0.40000000  0.00220000  0.61041000  1.0
  H  H27  1  0.60002000  0.49780000  0.11041000  1.0
  H  H28  1  0.17827000  0.37481000  0.42738000  1.0
  H  H29  1  0.82174000  0.12519000  0.92738000  1.0
  H  H30  1  0.82173000  0.62519000  0.57262000  1.0
  H  H31  1  0.17827000  0.87481000  0.07262000  1.0
  H  H32  1  0.32233000  0.35775000  0.35528000  1.0
  H  H33  1  0.67768000  0.14224000  0.85528000  1.0
  H  H34  1  0.67767000  0.64224000  0.64472000  1.0
  H  H35  1  0.32234000  0.85775000  0.14472000  1.0
  H  H36  1  0.39186000  0.96796000  0.04179000  1.0
  H  H37  1  0.60814000  0.53205000  0.54179000  1.0
  H  H38  1  0.60814000  0.03204000  0.95820000  1.0
  H  H39  1  0.39186000  0.46796000  0.45821000  1.0
  H  H40  1  0.09977000  0.09488000  0.03894000  1.0
  H  H41  1  0.90023000  0.40512000  0.53894000  1.0
  H  H42  1  0.90023000  0.90512000  0.96106000  1.0
  H  H43  1  0.09977000  0.59488000  0.46106000  1.0
  H  H44  1  0.25637000  0.40466000  0.07522000  1.0
  H  H45  1  0.74363000  0.09534000  0.57522000  1.0
  H  H46  1  0.74364000  0.59534000  0.92478000  1.0
  H  H47  1  0.25636000  0.90466000  0.42478000  1.0
  H  H48  1  0.55407000  0.28977000  0.08139000  1.0
  H  H49  1  0.44592000  0.21023000  0.58139000  1.0
  H  H50  1  0.44593000  0.71022000  0.91861000  1.0
  H  H51  1  0.55407000  0.78978000  0.41861000  1.0
  H  H52  1  0.70016000  0.97553000  0.04263000  1.0
  H  H53  1  0.29984000  0.52448000  0.54263000  1.0
  H  H54  1  0.29985000  0.02447000  0.95738000  1.0
  H  H55  1  0.70016000  0.47553000  0.45737000  1.0
  H  H56  1  0.76356000  0.09692000  0.06841000  1.0
  H  H57  1  0.23644000  0.40308000  0.56841000  1.0
  H  H58  1  0.23644000  0.90308000  0.93159000  1.0
  H  H59  1  0.76356000  0.59693000  0.43159000  1.0
  H  H60  1  0.58300000  0.92078000  0.11459000  1.0
  H  H61  1  0.41700000  0.57922000  0.61459000  1.0
  H  H62  1  0.41700000  0.07922000  0.88541000  1.0
  H  H63  1  0.58299000  0.42078000  0.38541000  1.0
  H  H64  1  0.64598000  0.04411000  0.13869000  1.0
  H  H65  1  0.35401000  0.45589000  0.63869000  1.0
  H  H66  1  0.35401000  0.95589000  0.86131000  1.0
  H  H67  1  0.64598000  0.54411000  0.36131000  1.0
  H  H68  1  0.94856000  0.93760000  0.11169000  1.0
  H  H69  1  0.05144000  0.56240000  0.61168000  1.0
  H  H70  1  0.05144000  0.06240000  0.88832000  1.0
  H  H71  1  0.94856000  0.43760000  0.38832000  1.0
  H  H72  1  0.86747000  0.89026000  0.15936000  1.0
  H  H73  1  0.13253000  0.60974000  0.65936000  1.0
  H  H74  1  0.13253000  0.10973000  0.84064000  1.0
  H  H75  1  0.86747000  0.39027000  0.34064000  1.0
  H  H76  1  0.80722000  0.80347000  0.04083000  1.0
  H  H77  1  0.19278000  0.69653000  0.54083000  1.0
  H  H78  1  0.19278000  0.19653000  0.95917000  1.0
  H  H79  1  0.80721000  0.30347000  0.45917000  1.0
  H  H80  1  0.85221000  0.58612000  0.02030000  1.0
  H  H81  1  0.14778000  0.91388000  0.52030000  1.0
  H  H82  1  0.14778000  0.41388000  0.97970000  1.0
  H  H83  1  0.85221000  0.08612000  0.47970000  1.0
  H  H84  1  0.00939000  0.47148000  0.14378000  1.0
  H  H85  1  0.99061000  0.02852000  0.64378000  1.0
  H  H86  1  0.99062000  0.52852000  0.85622000  1.0
  H  H87  1  0.00938000  0.97148000  0.35622000  1.0
  H  H88  1  0.96699000  0.68516000  0.17016000  1.0
  H  H89  1  0.03301000  0.81484000  0.67016000  1.0
  H  H90  1  0.03302000  0.31484000  0.82984000  1.0
  H  H91  1  0.96699000  0.18516000  0.32984000  1.0
  C  C92  1  0.86954000  0.22259000  0.14191000  1.0
  C  C93  1  0.13046000  0.27741000  0.64191000  1.0
  C  C94  1  0.13047000  0.77741000  0.85809000  1.0
  C  C95  1  0.86954000  0.72259000  0.35809000  1.0
  C  C96  1  0.78461000  0.22935000  0.18536000  1.0
  C  C97  1  0.21539000  0.27065000  0.68536000  1.0
  C  C98  1  0.21539000  0.77066000  0.81464000  1.0
  C  C99  1  0.78461000  0.72935000  0.31464000  1.0
  C  C100  1  0.66960000  0.33514000  0.19848000  1.0
  C  C101  1  0.33040000  0.16486000  0.69847000  1.0
  C  C102  1  0.33040000  0.66486000  0.80152000  1.0
  C  C103  1  0.66961000  0.83514000  0.30152000  1.0
  C  C104  1  0.59346000  0.33981000  0.23883000  1.0
  C  C105  1  0.40654000  0.16019000  0.73883000  1.0
  C  C106  1  0.40653000  0.66019000  0.76117000  1.0
  C  C107  1  0.59347000  0.83981000  0.26117000  1.0
  C  C108  1  0.62798000  0.23779000  0.26622000  1.0
  C  C109  1  0.37202000  0.26221000  0.76622000  1.0
  C  C110  1  0.37202000  0.76221000  0.73378000  1.0
  C  C111  1  0.62799000  0.73779000  0.23378000  1.0
  C  C112  1  0.74441000  0.13132000  0.25335000  1.0
  C  C113  1  0.25559000  0.36867000  0.75335000  1.0
  C  C114  1  0.25559000  0.86868000  0.74665000  1.0
  C  C115  1  0.74442000  0.63133000  0.24665000  1.0
  C  C116  1  0.82263000  0.12845000  0.21344000  1.0
  C  C117  1  0.17737000  0.37155000  0.71344000  1.0
  C  C118  1  0.17737000  0.87155000  0.78656000  1.0
  C  C119  1  0.82264000  0.62845000  0.28656000  1.0
  C  C120  1  0.21587000  0.21135000  0.49071000  1.0
  C  C121  1  0.78413000  0.28866000  0.99071000  1.0
  C  C122  1  0.78413000  0.78865000  0.50929000  1.0
  C  C123  1  0.21587000  0.71135000  0.00929000  1.0
  C  C124  1  0.30773000  0.19702000  0.44856000  1.0
  C  C125  1  0.69227000  0.30298000  0.94856000  1.0
  C  C126  1  0.69227000  0.80298000  0.55144000  1.0
  C  C127  1  0.30773000  0.69702000  0.05144000  1.0
  C  C128  1  0.42603000  0.09031000  0.43809000  1.0
  C  C129  1  0.57397000  0.40969000  0.93809000  1.0
  C  C130  1  0.57397000  0.90969000  0.56191000  1.0
  C  C131  1  0.42604000  0.59031000  0.06191000  1.0
  C  C132  1  0.50648000  0.07978000  0.39814000  1.0
  C  C133  1  0.49352000  0.42022000  0.89814000  1.0
  C  C134  1  0.49352000  0.92022000  0.60186000  1.0
  C  C135  1  0.50649000  0.57978000  0.10186000  1.0
  C  C136  1  0.47018000  0.17656000  0.36846000  1.0
  C  C137  1  0.52983000  0.32343000  0.86846000  1.0
  C  C138  1  0.52983000  0.82343000  0.63154000  1.0
  C  C139  1  0.47018000  0.67657000  0.13154000  1.0
  C  C140  1  0.27162000  0.29322000  0.41860000  1.0
  C  C141  1  0.72838000  0.20678000  0.91860000  1.0
  C  C142  1  0.72838000  0.70677000  0.58140000  1.0
  C  C143  1  0.27162000  0.79322000  0.08140000  1.0
  C  C144  1  0.35080000  0.28392000  0.37878000  1.0
  C  C145  1  0.64921000  0.21608000  0.87878000  1.0
  C  C146  1  0.64920000  0.71608000  0.62122000  1.0
  C  C147  1  0.35081000  0.78392000  0.12122000  1.0
  C  C148  1  0.36762000  0.06464000  0.04959000  1.0
  C  C149  1  0.63238000  0.43536000  0.54959000  1.0
  C  C150  1  0.63239000  0.93535000  0.95041000  1.0
  C  C151  1  0.36762000  0.56465000  0.45041000  1.0
  C  C152  1  0.20484000  0.13361000  0.04796000  1.0
  C  C153  1  0.79515000  0.36640000  0.54796000  1.0
  C  C154  1  0.79516000  0.86639000  0.95204000  1.0
  C  C155  1  0.20484000  0.63361000  0.45204000  1.0
  C  C156  1  0.29215000  0.30728000  0.06843000  1.0
  C  C157  1  0.70785000  0.19273000  0.56842000  1.0
  C  C158  1  0.70785000  0.69272000  0.93157000  1.0
  C  C159  1  0.29215000  0.80728000  0.43157000  1.0
  C  C160  1  0.45754000  0.24318000  0.07144000  1.0
  C  C161  1  0.54246000  0.25682000  0.57144000  1.0
  C  C162  1  0.54246000  0.75681000  0.92856000  1.0
  C  C163  1  0.45754000  0.74319000  0.42856000  1.0
  C  C164  1  0.49804000  0.11804000  0.06254000  1.0
  C  C165  1  0.50196000  0.38196000  0.56253000  1.0
  C  C166  1  0.50197000  0.88195000  0.93746000  1.0
  C  C167  1  0.49804000  0.61805000  0.43747000  1.0
  C  C168  1  0.67039000  0.04105000  0.06935000  1.0
  C  C169  1  0.32960000  0.45896000  0.56935000  1.0
  C  C170  1  0.32961000  0.95895000  0.93065000  1.0
  C  C171  1  0.67039000  0.54105000  0.43065000  1.0
  C  C172  1  0.67881000  0.97476000  0.11318000  1.0
  C  C173  1  0.32118000  0.52524000  0.61318000  1.0
  C  C174  1  0.32119000  0.02524000  0.88682000  1.0
  C  C175  1  0.67881000  0.47476000  0.38682000  1.0
  C  C176  1  0.85127000  0.89348000  0.12405000  1.0
  C  C177  1  0.14873000  0.60652000  0.62405000  1.0
  C  C178  1  0.14873000  0.10652000  0.87595000  1.0
  C  C179  1  0.85127000  0.39348000  0.37595000  1.0
  C  C180  1  0.88179000  0.76466000  0.10796000  1.0
  C  C181  1  0.11821000  0.73534000  0.60796000  1.0
  C  C182  1  0.11821000  0.23534000  0.89204000  1.0
  C  C183  1  0.88179000  0.26466000  0.39204000  1.0
  C  C184  1  0.85159000  0.73402000  0.06516000  1.0
  C  C185  1  0.14841000  0.76598000  0.56516000  1.0
  C  C186  1  0.14841000  0.26598000  0.93484000  1.0
  C  C187  1  0.85158000  0.23402000  0.43484000  1.0
  C  C188  1  0.87878000  0.61269000  0.05299000  1.0
  C  C189  1  0.12122000  0.88732000  0.55299000  1.0
  C  C190  1  0.12122000  0.38732000  0.94701000  1.0
  C  C191  1  0.87877000  0.11269000  0.44701000  1.0
  C  C192  1  0.96661000  0.54834000  0.12195000  1.0
  C  C193  1  0.03338000  0.95166000  0.62195000  1.0
  C  C194  1  0.03339000  0.45166000  0.87805000  1.0
  C  C195  1  0.96661000  0.04834000  0.37805000  1.0
  C  C196  1  0.94218000  0.66752000  0.13637000  1.0
  C  C197  1  0.05782000  0.83248000  0.63637000  1.0
  C  C198  1  0.05782000  0.33247000  0.86363000  1.0
  C  C199  1  0.94217000  0.16753000  0.36363000  1.0
  N  N200  1  0.54154000  0.25317000  0.30591000  1.0
  N  N201  1  0.45846000  0.24683000  0.80591000  1.0
  N  N202  1  0.45846000  0.74682000  0.69409000  1.0
  N  N203  1  0.54155000  0.75318000  0.19409000  1.0
  N  N204  1  0.55867000  0.15789000  0.32891000  1.0
  N  N205  1  0.44134000  0.34211000  0.82891000  1.0
  N  N206  1  0.44134000  0.84211000  0.67109000  1.0
  N  N207  1  0.55867000  0.65789000  0.17109000  1.0
  N  N208  1  0.16704000  0.25364000  0.05749000  1.0
  N  N209  1  0.83296000  0.24637000  0.55749000  1.0
  N  N210  1  0.83297000  0.74636000  0.94251000  1.0
  N  N211  1  0.16704000  0.75364000  0.44251000  1.0
  N  N212  1  0.93502000  0.52056000  0.08084000  1.0
  N  N213  1  0.06498000  0.97945000  0.58084000  1.0
  N  N214  1  0.06498000  0.47944000  0.91916000  1.0
  N  N215  1  0.93502000  0.02056000  0.41916000  1.0
  O  O216  1  0.80576000  0.31293000  0.11590000  1.0
  O  O217  1  0.19424000  0.18707000  0.61590000  1.0
  O  O218  1  0.19425000  0.68706000  0.88410000  1.0
  O  O219  1  0.80575000  0.81294000  0.38410000  1.0
  O  O220  1  0.98922000  0.13647000  0.13307000  1.0
  O  O221  1  0.01078000  0.36352000  0.63307000  1.0
  O  O222  1  0.01078000  0.86352000  0.86693000  1.0
  O  O223  1  0.98922000  0.63648000  0.36693000  1.0
  O  O224  1  0.22206000  0.11213000  0.51279000  1.0
  O  O225  1  0.77794000  0.38787000  0.01279000  1.0
  O  O226  1  0.77794000  0.88787000  0.48721000  1.0
  O  O227  1  0.22206000  0.61213000  0.98721000  1.0
  O  O228  1  0.13657000  0.31453000  0.50278000  1.0
  O  O229  1  0.86343000  0.18547000  0.00278000  1.0
  O  O230  1  0.86343000  0.68547000  0.49722000  1.0
  O  O231  1  0.13657000  0.81453000  0.99722000  1.0
