# generated using pymatgen
data_MnH22C26(NO)4
_symmetry_space_group_name_H-M   'P 1'
_cell_length_a   8.65534000
_cell_length_b   11.19710000
_cell_length_c   13.61629053
_cell_angle_alpha   84.85238514
_cell_angle_beta   71.48645679
_cell_angle_gamma   67.28820000
_symmetry_Int_Tables_number   1
_chemical_formula_structural   MnH22C26(NO)4
_chemical_formula_sum   'Mn2 H44 C52 N8 O8'
_cell_volume   1153.48159301
_cell_formula_units_Z   2
loop_
 _symmetry_equiv_pos_site_id
 _symmetry_equiv_pos_as_xyz
  1  'x, y, z'
loop_
 _atom_site_type_symbol
 _atom_site_label
 _atom_site_symmetry_multiplicity
 _atom_site_fract_x
 _atom_site_fract_y
 _atom_site_fract_z
 _atom_site_occupancy
  Mn  Mn0  1  0.98666000  0.50440000  0.00854000  1.0
  Mn  Mn1  1  0.99986000  0.99536000  0.49134000  1.0
  H  H2  1  0.45183000  0.10461000  0.25116000  1.0
  H  H3  1  0.30719000  0.39524000  0.24871000  1.0
  H  H4  1  0.54967000  0.89943000  0.74729000  1.0
  H  H5  1  0.69642000  0.60111000  0.75294000  1.0
  H  H6  1  0.54565000  0.09738000  0.35137000  1.0
  H  H7  1  0.49430000  0.40217000  0.14862000  1.0
  H  H8  1  0.45181000  0.90264000  0.64992000  1.0
  H  H9  1  0.50409000  0.59813000  0.85004000  1.0
  H  H10  1  0.33696000  0.22082000  0.35581000  1.0
  H  H11  1  0.41281000  0.27907000  0.14405000  1.0
  H  H12  1  0.66030000  0.77905000  0.64546000  1.0
  H  H13  1  0.58534000  0.72124000  0.85492000  1.0
  H  H14  1  0.56595000  0.89191000  0.41191000  1.0
  H  H15  1  0.36939000  0.60829000  0.08823000  1.0
  H  H16  1  0.43070000  0.11148000  0.59095000  1.0
  H  H17  1  0.63225000  0.38870000  0.90925000  1.0
  H  H18  1  0.25613000  0.67412000  0.62643000  1.0
  H  H19  1  0.05578000  0.82603000  0.87393000  1.0
  H  H20  1  0.74532000  0.32434000  0.37117000  1.0
  H  H21  1  0.93953000  0.17581000  0.12901000  1.0
  H  H22  1  0.76873000  0.38822000  0.61638000  1.0
  H  H23  1  0.27270000  0.11203000  0.88359000  1.0
  H  H24  1  0.23518000  0.61464000  0.38154000  1.0
  H  H25  1  0.73093000  0.88499000  0.11820000  1.0
  H  H26  1  0.90384000  0.49355000  0.46437000  1.0
  H  H27  1  0.36123000  0.00693000  0.03562000  1.0
  H  H28  1  0.09804000  0.51029000  0.53316000  1.0
  H  H29  1  0.64146000  0.98911000  0.96644000  1.0
  H  H30  1  0.71898000  0.69385000  0.39884000  1.0
  H  H31  1  0.31142000  0.80653000  0.10124000  1.0
  H  H32  1  0.28015000  0.30859000  0.59882000  1.0
  H  H33  1  0.68685000  0.19118000  0.90101000  1.0
  H  H34  1  0.16760000  0.61715000  0.78316000  1.0
  H  H35  1  0.06680000  0.88299000  0.71692000  1.0
  H  H36  1  0.83769000  0.38169000  0.21726000  1.0
  H  H37  1  0.93549000  0.11851000  0.28303000  1.0
  H  H38  1  0.38850000  0.24776000  0.89356000  1.0
  H  H39  1  0.03036000  0.25188000  0.60605000  1.0
  H  H40  1  0.61889000  0.74888000  0.10125000  1.0
  H  H41  1  0.96975000  0.75074000  0.39835000  1.0
  H  H42  1  0.63187000  0.27517000  0.71149000  1.0
  H  H43  1  0.11803000  0.22499000  0.78853000  1.0
  H  H44  1  0.37454000  0.72481000  0.28374000  1.0
  H  H45  1  0.88304000  0.77488000  0.21607000  1.0
  C  C46  1  0.42173000  0.11888000  0.33506000  1.0
  C  C47  1  0.37536000  0.38094000  0.16483000  1.0
  C  C48  1  0.57731000  0.88166000  0.66412000  1.0
  C  C49  1  0.62304000  0.61873000  0.83609000  1.0
  C  C50  1  0.32911000  0.03289000  0.39333000  1.0
  C  C51  1  0.25524000  0.46707000  0.10653000  1.0
  C  C52  1  0.67030000  0.96502000  0.60095000  1.0
  C  C53  1  0.73590000  0.53499000  0.89925000  1.0
  C  C54  1  0.42715000  0.91264000  0.42566000  1.0
  C  C55  1  0.26534000  0.58736000  0.07427000  1.0
  C  C56  1  0.57145000  0.08732000  0.57177000  1.0
  C  C57  1  0.72974000  0.41278000  0.92846000  1.0
  C  C58  1  0.35898000  0.82072000  0.47713000  1.0
  C  C59  1  0.15668000  0.67926000  0.02286000  1.0
  C  C60  1  0.64084000  0.17740000  0.51773000  1.0
  C  C61  1  0.83516000  0.32257000  0.98240000  1.0
  C  C62  1  0.47532000  0.70086000  0.51271000  1.0
  C  C63  1  0.18844000  0.79932000  0.98743000  1.0
  C  C64  1  0.52483000  0.29972000  0.48482000  1.0
  C  C65  1  0.80837000  0.20022000  0.01523000  1.0
  C  C66  1  0.39903000  0.63677000  0.59543000  1.0
  C  C67  1  0.13045000  0.86344000  0.90484000  1.0
  C  C68  1  0.60250000  0.36344000  0.40238000  1.0
  C  C69  1  0.86717000  0.13657000  0.09772000  1.0
  C  C70  1  0.50404000  0.52608000  0.63355000  1.0
  C  C71  1  0.16280000  0.97415000  0.86666000  1.0
  C  C72  1  0.49915000  0.47533000  0.36444000  1.0
  C  C73  1  0.83802000  0.02458000  0.13560000  1.0
  C  C74  1  0.68687000  0.47556000  0.58780000  1.0
  C  C75  1  0.24957000  0.02471000  0.91229000  1.0
  C  C76  1  0.31626000  0.52691000  0.41012000  1.0
  C  C77  1  0.75264000  0.97285000  0.08974000  1.0
  C  C78  1  0.76236000  0.53632000  0.50297000  1.0
  C  C79  1  0.30110000  0.96404000  0.99708000  1.0
  C  C80  1  0.23954000  0.46661000  0.49481000  1.0
  C  C81  1  0.70050000  0.03303000  0.00497000  1.0
  C  C82  1  0.65876000  0.64858000  0.46605000  1.0
  C  C83  1  0.27300000  0.85172000  0.03406000  1.0
  C  C84  1  0.34160000  0.35350000  0.53182000  1.0
  C  C85  1  0.72617000  0.14630000  0.96804000  1.0
  C  C86  1  0.25894000  0.52002000  0.78806000  1.0
  C  C87  1  0.06614000  0.98008000  0.71208000  1.0
  C  C88  1  0.74686000  0.47840000  0.21126000  1.0
  C  C89  1  0.93602000  0.02158000  0.28874000  1.0
  C  C90  1  0.37839000  0.32809000  0.84204000  1.0
  C  C91  1  0.04853000  0.17178000  0.65781000  1.0
  C  C92  1  0.62813000  0.66990000  0.15400000  1.0
  C  C93  1  0.95236000  0.82982000  0.34570000  1.0
  C  C94  1  0.50152000  0.34161000  0.75347000  1.0
  C  C95  1  0.09623000  0.15843000  0.74654000  1.0
  C  C96  1  0.50491000  0.65758000  0.24270000  1.0
  C  C97  1  0.90506000  0.84221000  0.25713000  1.0
  N  N98  1  0.22846000  0.43969000  0.86251000  1.0
  N  N99  1  0.03049000  0.06019000  0.63744000  1.0
  N  N100  1  0.77877000  0.55723000  0.13432000  1.0
  N  N101  1  0.97030000  0.94263000  0.36552000  1.0
  N  N102  1  0.42467000  0.46480000  0.71952000  1.0
  N  N103  1  0.10811000  0.03538000  0.78066000  1.0
  N  N104  1  0.58031000  0.53537000  0.27850000  1.0
  N  N105  1  0.89346000  0.96458000  0.22151000  1.0
  O  O106  1  0.16083000  0.07766000  0.40930000  1.0
  O  O107  1  0.14762000  0.42230000  0.09054000  1.0
  O  O108  1  0.84016000  0.91651000  0.57804000  1.0
  O  O109  1  0.83482000  0.58318000  0.92206000  1.0
  O  O110  1  0.19504000  0.83432000  0.49999000  1.0
  O  O111  1  0.02931000  0.66554000  0.99992000  1.0
  O  O112  1  0.80695000  0.15974000  0.48942000  1.0
  O  O113  1  0.95565000  0.33994000  0.01059000  1.0
