# generated using pymatgen
data_ErH7(C3O4)2
_symmetry_space_group_name_H-M   'P 1'
_cell_length_a   7.97732000
_cell_length_b   9.50352000
_cell_length_c   12.25770000
_cell_angle_alpha   88.63760000
_cell_angle_beta   89.99960000
_cell_angle_gamma   89.99910000
_symmetry_Int_Tables_number   1
_chemical_formula_structural   ErH7(C3O4)2
_chemical_formula_sum   'Er4 H28 C24 O32'
_cell_volume   929.02565168
_cell_formula_units_Z   4
loop_
 _symmetry_equiv_pos_site_id
 _symmetry_equiv_pos_as_xyz
  1  'x, y, z'
loop_
 _atom_site_type_symbol
 _atom_site_label
 _atom_site_symmetry_multiplicity
 _atom_site_fract_x
 _atom_site_fract_y
 _atom_site_fract_z
 _atom_site_occupancy
  Er  Er0  1  0.44512000  0.30814000  0.41707000  1.0
  Er  Er1  1  0.94512000  0.19186000  0.08293000  1.0
  Er  Er2  1  0.55488000  0.69184000  0.58293000  1.0
  Er  Er3  1  0.05488000  0.80816000  0.91706000  1.0
  H  H4  1  0.89089000  0.13514000  0.49948000  1.0
  H  H5  1  0.39090000  0.36485000  0.00052000  1.0
  H  H6  1  0.10912000  0.86486000  0.50052000  1.0
  H  H7  1  0.60908000  0.63516000  0.99947000  1.0
  H  H8  1  0.18675000  0.66896000  0.20755000  1.0
  H  H9  1  0.68678000  0.83103000  0.29246000  1.0
  H  H10  1  0.81324000  0.33102000  0.79246000  1.0
  H  H11  1  0.31323000  0.16897000  0.70754000  1.0
  H  H12  1  0.33390000  0.92972000  0.31950000  1.0
  H  H13  1  0.83392000  0.57027000  0.18050000  1.0
  H  H14  1  0.66609000  0.07027000  0.68050000  1.0
  H  H15  1  0.16608000  0.42973000  0.81949000  1.0
  H  H16  1  0.64171000  0.03735000  0.42323000  1.0
  H  H17  1  0.14168000  0.46265000  0.07678000  1.0
  H  H18  1  0.35830000  0.96263000  0.57677000  1.0
  H  H19  1  0.85831000  0.53735000  0.92323000  1.0
  H  H20  1  0.71051000  0.12706000  0.32256000  1.0
  H  H21  1  0.21048000  0.37295000  0.17745000  1.0
  H  H22  1  0.28951000  0.87293000  0.67744000  1.0
  H  H23  1  0.78950000  0.62705000  0.82256000  1.0
  H  H24  1  0.30893000  0.18150000  0.21997000  1.0
  H  H25  1  0.80893000  0.31850000  0.28003000  1.0
  H  H26  1  0.69108000  0.81850000  0.78003000  1.0
  H  H27  1  0.19108000  0.68150000  0.71997000  1.0
  H  H28  1  0.48360000  0.24878000  0.18222000  1.0
  H  H29  1  0.98359000  0.25123000  0.31778000  1.0
  H  H30  1  0.51642000  0.75122000  0.81777000  1.0
  H  H31  1  0.01642000  0.74878000  0.68222000  1.0
  C  C32  1  0.15924000  0.14384000  0.46036000  1.0
  C  C33  1  0.65924000  0.35616000  0.03966000  1.0
  C  C34  1  0.84078000  0.85613000  0.53964000  1.0
  C  C35  1  0.34076000  0.64384000  0.96033000  1.0
  C  C36  1  0.00319000  0.06999000  0.49258000  1.0
  C  C37  1  0.50319000  0.43000000  0.00743000  1.0
  C  C38  1  0.99683000  0.93000000  0.50743000  1.0
  C  C39  1  0.49681000  0.56999000  0.99256000  1.0
  C  C40  1  0.24904000  0.72954000  0.27021000  1.0
  C  C41  1  0.74906000  0.77047000  0.22980000  1.0
  C  C42  1  0.75094000  0.27046000  0.72980000  1.0
  C  C43  1  0.25094000  0.22954000  0.77020000  1.0
  C  C44  1  0.31503000  0.64841000  0.36641000  1.0
  C  C45  1  0.81504000  0.85160000  0.13360000  1.0
  C  C46  1  0.68494000  0.35160000  0.63361000  1.0
  C  C47  1  0.18496000  0.14842000  0.86640000  1.0
  C  C48  1  0.20038000  0.94748000  0.16163000  1.0
  C  C49  1  0.70038000  0.55253000  0.33838000  1.0
  C  C50  1  0.79963000  0.05252000  0.83837000  1.0
  C  C51  1  0.29961000  0.44748000  0.66161000  1.0
  C  C52  1  0.27198000  0.86886000  0.25670000  1.0
  C  C53  1  0.77199000  0.63115000  0.24330000  1.0
  C  C54  1  0.72801000  0.13114000  0.74331000  1.0
  C  C55  1  0.22800000  0.36886000  0.75669000  1.0
  O  O56  1  0.30471000  0.09764000  0.48720000  1.0
  O  O57  1  0.80470000  0.40236000  0.01280000  1.0
  O  O58  1  0.69532000  0.90233000  0.51280000  1.0
  O  O59  1  0.19529000  0.59763000  0.98719000  1.0
  O  O60  1  0.33348000  0.51705000  0.35366000  1.0
  O  O61  1  0.83348000  0.98295000  0.14634000  1.0
  O  O62  1  0.66649000  0.48295000  0.64636000  1.0
  O  O63  1  0.16651000  0.01707000  0.85366000  1.0
  O  O64  1  0.38688000  0.26236000  0.23317000  1.0
  O  O65  1  0.88688000  0.23765000  0.26683000  1.0
  O  O66  1  0.61314000  0.73765000  0.76681000  1.0
  O  O67  1  0.11313000  0.76236000  0.73318000  1.0
  O  O68  1  0.14623000  0.25750000  0.40280000  1.0
  O  O69  1  0.64624000  0.24251000  0.09721000  1.0
  O  O70  1  0.85379000  0.74247000  0.59719000  1.0
  O  O71  1  0.35376000  0.75749000  0.90277000  1.0
  O  O72  1  0.35278000  0.71487000  0.45221000  1.0
  O  O73  1  0.85280000  0.78515000  0.04779000  1.0
  O  O74  1  0.64720000  0.28514000  0.54780000  1.0
  O  O75  1  0.14721000  0.21489000  0.95221000  1.0
  O  O76  1  0.60807000  0.10758000  0.36571000  1.0
  O  O77  1  0.10804000  0.39244000  0.13431000  1.0
  O  O78  1  0.39196000  0.89242000  0.63430000  1.0
  O  O79  1  0.89195000  0.60757000  0.86570000  1.0
  O  O80  1  0.16870000  0.88565000  0.07433000  1.0
  O  O81  1  0.66871000  0.61436000  0.42567000  1.0
  O  O82  1  0.83131000  0.11437000  0.92566000  1.0
  O  O83  1  0.33129000  0.38563000  0.57433000  1.0
  O  O84  1  0.16564000  0.07846000  0.17602000  1.0
  O  O85  1  0.66563000  0.42155000  0.32399000  1.0
  O  O86  1  0.83435000  0.92154000  0.82399000  1.0
  O  O87  1  0.33434000  0.57846000  0.67600000  1.0
