# generated using pymatgen
data_AgH9C8S(NO)2
_symmetry_space_group_name_H-M   'P 1'
_cell_length_a   8.82936000
_cell_length_b   9.03797000
_cell_length_c   12.67980000
_cell_angle_alpha   89.99980000
_cell_angle_beta   89.99980000
_cell_angle_gamma   71.20700000
_symmetry_Int_Tables_number   1
_chemical_formula_structural   AgH9C8S(NO)2
_chemical_formula_sum   'Ag4 H36 C32 S4 N8 O8'
_cell_volume   957.89891757
_cell_formula_units_Z   4
loop_
 _symmetry_equiv_pos_site_id
 _symmetry_equiv_pos_as_xyz
  1  'x, y, z'
loop_
 _atom_site_type_symbol
 _atom_site_label
 _atom_site_symmetry_multiplicity
 _atom_site_fract_x
 _atom_site_fract_y
 _atom_site_fract_z
 _atom_site_occupancy
  Ag  Ag0  1  0.53352000  0.02348000  0.14883000  1.0
  Ag  Ag1  1  0.46648000  0.47651000  0.64883000  1.0
  Ag  Ag2  1  0.46648000  0.97651000  0.85117000  1.0
  Ag  Ag3  1  0.53352000  0.52349000  0.35117000  1.0
  H  H4  1  0.83809000  0.07258000  0.84744000  1.0
  H  H5  1  0.16191000  0.42742000  0.34743000  1.0
  H  H6  1  0.16191000  0.92743000  0.15256000  1.0
  H  H7  1  0.83809000  0.57258000  0.65256000  1.0
  H  H8  1  0.69726000  0.23050000  0.05355000  1.0
  H  H9  1  0.30275000  0.26950000  0.55354000  1.0
  H  H10  1  0.30275000  0.76950000  0.94646000  1.0
  H  H11  1  0.69726000  0.73050000  0.44645000  1.0
  H  H12  1  0.65170000  0.32930000  0.93168000  1.0
  H  H13  1  0.34830000  0.17069000  0.43168000  1.0
  H  H14  1  0.34830000  0.67069000  0.06832000  1.0
  H  H15  1  0.65170000  0.82931000  0.56832000  1.0
  H  H16  1  0.72845000  0.41290000  0.03941000  1.0
  H  H17  1  0.27155000  0.08709000  0.53940000  1.0
  H  H18  1  0.27155000  0.58709000  0.96060000  1.0
  H  H19  1  0.72845000  0.91291000  0.46059000  1.0
  H  H20  1  0.14146000  0.99395000  0.68198000  1.0
  H  H21  1  0.85854000  0.50605000  0.18197000  1.0
  H  H22  1  0.85853000  0.00604000  0.31802000  1.0
  H  H23  1  0.14146000  0.49395000  0.81802000  1.0
  H  H24  1  0.03176000  0.88236000  0.74175000  1.0
  H  H25  1  0.96823000  0.61764000  0.24174000  1.0
  H  H26  1  0.96823000  0.11764000  0.25826000  1.0
  H  H27  1  0.03176000  0.38236000  0.75826000  1.0
  H  H28  1  0.24243000  0.83724000  0.76656000  1.0
  H  H29  1  0.75756000  0.66275000  0.26656000  1.0
  H  H30  1  0.75756000  0.16276000  0.23344000  1.0
  H  H31  1  0.24243000  0.33725000  0.73344000  1.0
  H  H32  1  0.14994000  0.46719000  0.09880000  1.0
  H  H33  1  0.85007000  0.03281000  0.59880000  1.0
  H  H34  1  0.85007000  0.53281000  0.90120000  1.0
  H  H35  1  0.14992000  0.96719000  0.40120000  1.0
  H  H36  1  0.17853000  0.29602000  0.17681000  1.0
  H  H37  1  0.82147000  0.20397000  0.67681000  1.0
  H  H38  1  0.82147000  0.70398000  0.82319000  1.0
  H  H39  1  0.17853000  0.79603000  0.32319000  1.0
  C  C40  1  0.16950000  0.19172000  0.96752000  1.0
  C  C41  1  0.83051000  0.30828000  0.46752000  1.0
  C  C42  1  0.83051000  0.80828000  0.03248000  1.0
  C  C43  1  0.16949000  0.69173000  0.53248000  1.0
  C  C44  1  0.90234000  0.22355000  0.95997000  1.0
  C  C45  1  0.09766000  0.27645000  0.45996000  1.0
  C  C46  1  0.09766000  0.77645000  0.04003000  1.0
  C  C47  1  0.90234000  0.72355000  0.54003000  1.0
  C  C48  1  0.93351000  0.10971000  0.88105000  1.0
  C  C49  1  0.06650000  0.39029000  0.38104000  1.0
  C  C50  1  0.06649000  0.89029000  0.11895000  1.0
  C  C51  1  0.93351000  0.60971000  0.61895000  1.0
  C  C52  1  0.08972000  0.04354000  0.84446000  1.0
  C  C53  1  0.91027000  0.45646000  0.34446000  1.0
  C  C54  1  0.91027000  0.95646000  0.15554000  1.0
  C  C55  1  0.08972000  0.54355000  0.65554000  1.0
  C  C56  1  0.73621000  0.30432000  0.99793000  1.0
  C  C57  1  0.26379000  0.19567000  0.49792000  1.0
  C  C58  1  0.26379000  0.69567000  0.00208000  1.0
  C  C59  1  0.73621000  0.80433000  0.50207000  1.0
  C  C60  1  0.12884000  0.93141000  0.75441000  1.0
  C  C61  1  0.87115000  0.56859000  0.25440000  1.0
  C  C62  1  0.87115000  0.06859000  0.24559000  1.0
  C  C63  1  0.12884000  0.43141000  0.74559000  1.0
  C  C64  1  0.23917000  0.36127000  0.12880000  1.0
  C  C65  1  0.76084000  0.13872000  0.62880000  1.0
  C  C66  1  0.76083000  0.63872000  0.87120000  1.0
  C  C67  1  0.23916000  0.86129000  0.37120000  1.0
  C  C68  1  0.36464000  0.39814000  0.19703000  1.0
  C  C69  1  0.63537000  0.10184000  0.69703000  1.0
  C  C70  1  0.63536000  0.60185000  0.80297000  1.0
  C  C71  1  0.36462000  0.89817000  0.30297000  1.0
  S  S72  1  0.33423000  0.23656000  0.01945000  1.0
  S  S73  1  0.66578000  0.26343000  0.51945000  1.0
  S  S74  1  0.66578000  0.76343000  0.98055000  1.0
  S  S75  1  0.33422000  0.73657000  0.48055000  1.0
  N  N76  1  0.02257000  0.26484000  0.00344000  1.0
  N  N77  1  0.97744000  0.23516000  0.50343000  1.0
  N  N78  1  0.97744000  0.73516000  0.99657000  1.0
  N  N79  1  0.02257000  0.76485000  0.49657000  1.0
  N  N80  1  0.20983000  0.08409000  0.88955000  1.0
  N  N81  1  0.79017000  0.41591000  0.38955000  1.0
  N  N82  1  0.79017000  0.91591000  0.11045000  1.0
  N  N83  1  0.20983000  0.58409000  0.61045000  1.0
  O  O84  1  0.50604000  0.30434000  0.19872000  1.0
  O  O85  1  0.49396000  0.19564000  0.69872000  1.0
  O  O86  1  0.49396000  0.69565000  0.80128000  1.0
  O  O87  1  0.50604000  0.80437000  0.30128000  1.0
  O  O88  1  0.31394000  0.52271000  0.25217000  1.0
  O  O89  1  0.68607000  0.97727000  0.75216000  1.0
  O  O90  1  0.68606000  0.47728000  0.74783000  1.0
  O  O91  1  0.31392000  0.02273000  0.24784000  1.0
