# generated using pymatgen
data_CuH10C10(NO2)2
_symmetry_space_group_name_H-M   'P 1'
_cell_length_a   6.64342000
_cell_length_b   8.95446000
_cell_length_c   9.47025000
_cell_angle_alpha   98.58690000
_cell_angle_beta   89.99920000
_cell_angle_gamma   89.99920000
_symmetry_Int_Tables_number   1
_chemical_formula_structural   CuH10C10(NO2)2
_chemical_formula_sum   'Cu2 H20 C20 N4 O8'
_cell_volume   557.05343804
_cell_formula_units_Z   2
loop_
 _symmetry_equiv_pos_site_id
 _symmetry_equiv_pos_as_xyz
  1  'x, y, z'
loop_
 _atom_site_type_symbol
 _atom_site_label
 _atom_site_symmetry_multiplicity
 _atom_site_fract_x
 _atom_site_fract_y
 _atom_site_fract_z
 _atom_site_occupancy
  Cu  Cu0  1  0.84868000  0.93721000  0.41000000  1.0
  Cu  Cu1  1  0.34868000  0.06279000  0.59000000  1.0
  H  H2  1  0.81928000  0.58863000  0.12066000  1.0
  H  H3  1  0.31925000  0.41136000  0.87933000  1.0
  H  H4  1  0.03354000  0.69755000  0.19061000  1.0
  H  H5  1  0.53352000  0.30246000  0.80940000  1.0
  H  H6  1  0.83943000  0.38210000  0.27497000  1.0
  H  H7  1  0.33942000  0.61790000  0.72503000  1.0
  H  H8  1  0.81482000  0.31570000  0.51866000  1.0
  H  H9  1  0.31485000  0.68430000  0.48134000  1.0
  H  H10  1  0.80805000  0.52631000  0.73085000  1.0
  H  H11  1  0.30809000  0.47370000  0.26915000  1.0
  H  H12  1  0.82451000  0.79417000  0.68308000  1.0
  H  H13  1  0.32452000  0.20583000  0.31691000  1.0
  H  H14  1  0.99770000  0.88656000  0.08073000  1.0
  H  H15  1  0.49768000  0.11344000  0.91929000  1.0
  H  H16  1  0.75081000  0.90369000  0.00959000  1.0
  H  H17  1  0.25078000  0.09630000  0.99040000  1.0
  H  H18  1  0.48783000  0.81431000  0.09452000  1.0
  H  H19  1  0.98782000  0.18568000  0.90548000  1.0
  H  H20  1  0.51310000  0.67840000  0.21056000  1.0
  H  H21  1  0.01309000  0.32161000  0.78946000  1.0
  C  C22  1  0.87306000  0.67533000  0.20754000  1.0
  C  C23  1  0.37304000  0.32467000  0.79247000  1.0
  C  C24  1  0.84935000  0.62216000  0.35042000  1.0
  C  C25  1  0.34935000  0.37784000  0.64958000  1.0
  C  C26  1  0.83769000  0.47089000  0.36760000  1.0
  C  C27  1  0.33768000  0.52910000  0.63240000  1.0
  C  C28  1  0.82471000  0.43418000  0.50539000  1.0
  C  C29  1  0.32471000  0.56582000  0.49460000  1.0
  C  C30  1  0.82128000  0.54969000  0.62157000  1.0
  C  C31  1  0.32131000  0.45030000  0.37843000  1.0
  C  C32  1  0.83094000  0.69897000  0.59691000  1.0
  C  C33  1  0.33094000  0.30103000  0.40309000  1.0
  C  C34  1  0.84080000  0.91782000  0.10818000  1.0
  C  C35  1  0.34078000  0.08218000  0.89183000  1.0
  C  C36  1  0.84428000  0.08520000  0.17536000  1.0
  C  C37  1  0.34428000  0.91480000  0.82464000  1.0
  C  C38  1  0.54476000  0.79682000  0.20018000  1.0
  C  C39  1  0.04475000  0.20318000  0.79982000  1.0
  C  C40  1  0.41181000  0.88926000  0.31301000  1.0
  C  C41  1  0.91180000  0.11075000  0.68699000  1.0
  N  N42  1  0.76521000  0.82035000  0.20971000  1.0
  N  N43  1  0.26520000  0.17965000  0.79029000  1.0
  N  N44  1  0.84579000  0.73350000  0.46426000  1.0
  N  N45  1  0.34578000  0.26650000  0.53574000  1.0
  O  O46  1  0.85245000  0.11368000  0.31306000  1.0
  O  O47  1  0.35246000  0.88632000  0.68694000  1.0
  O  O48  1  0.84591000  0.18490000  0.09608000  1.0
  O  O49  1  0.34592000  0.81510000  0.90391000  1.0
  O  O50  1  0.50110000  0.96177000  0.42329000  1.0
  O  O51  1  0.00109000  0.03822000  0.57671000  1.0
  O  O52  1  0.22654000  0.88267000  0.29171000  1.0
  O  O53  1  0.72654000  0.11735000  0.70828000  1.0
