# generated using pymatgen
data_GdH6C7SO8
_symmetry_space_group_name_H-M   'P 1'
_cell_length_a   5.88064000
_cell_length_b   10.25190000
_cell_length_c   18.70520000
_cell_angle_alpha   80.91110000
_cell_angle_beta   80.95210000
_cell_angle_gamma   73.32680000
_symmetry_Int_Tables_number   1
_chemical_formula_structural   GdH6C7SO8
_chemical_formula_sum   'Gd4 H24 C28 S4 O32'
_cell_volume   1059.22349560
_cell_formula_units_Z   4
loop_
 _symmetry_equiv_pos_site_id
 _symmetry_equiv_pos_as_xyz
  1  'x, y, z'
loop_
 _atom_site_type_symbol
 _atom_site_label
 _atom_site_symmetry_multiplicity
 _atom_site_fract_x
 _atom_site_fract_y
 _atom_site_fract_z
 _atom_site_occupancy
  Gd  Gd0  1  0.94887000  0.19621000  0.52967000  1.0
  Gd  Gd1  1  0.67491000  0.30382000  0.97032000  1.0
  Gd  Gd2  1  0.05113000  0.80379000  0.47033000  1.0
  Gd  Gd3  1  0.32509000  0.69618000  0.02969000  1.0
  H  H4  1  0.57846000  0.24650000  0.65842000  1.0
  H  H5  1  0.48348000  0.25357000  0.84155000  1.0
  H  H6  1  0.42153000  0.75350000  0.34158000  1.0
  H  H7  1  0.51652000  0.74643000  0.15846000  1.0
  H  H8  1  0.43393000  0.31526000  0.58987000  1.0
  H  H9  1  0.33948000  0.18469000  0.91013000  1.0
  H  H10  1  0.56607000  0.68474000  0.41013000  1.0
  H  H11  1  0.66053000  0.81531000  0.08987000  1.0
  H  H12  1  0.48012000  0.25037000  0.46793000  1.0
  H  H13  1  0.19855000  0.24957000  0.03195000  1.0
  H  H14  1  0.51988000  0.74963000  0.53207000  1.0
  H  H15  1  0.80146000  0.75043000  0.96805000  1.0
  H  H16  1  0.64177000  0.10551000  0.44939000  1.0
  H  H17  1  0.19670000  0.39438000  0.05056000  1.0
  H  H18  1  0.35823000  0.89449000  0.55061000  1.0
  H  H19  1  0.80330000  0.60562000  0.94944000  1.0
  H  H20  1  0.93016000  0.80694000  0.75084000  1.0
  H  H21  1  0.48804000  0.69312000  0.74910000  1.0
  H  H22  1  0.06984000  0.19306000  0.24916000  1.0
  H  H23  1  0.51194000  0.30689000  0.25090000  1.0
  H  H24  1  0.61423000  0.88602000  0.86386000  1.0
  H  H25  1  0.36432000  0.61369000  0.63614000  1.0
  H  H26  1  0.38576000  0.11398000  0.13614000  1.0
  H  H27  1  0.63567000  0.38632000  0.36386000  1.0
  C  C28  1  0.78255000  0.88853000  0.60787000  1.0
  C  C29  1  0.27901000  0.61152000  0.89215000  1.0
  C  C30  1  0.21746000  0.11147000  0.39213000  1.0
  C  C31  1  0.72099000  0.38848000  0.10785000  1.0
  C  C32  1  0.64901000  0.92235000  0.68043000  1.0
  C  C33  1  0.25222000  0.57758000  0.81958000  1.0
  C  C34  1  0.35099000  0.07766000  0.31957000  1.0
  C  C35  1  0.74777000  0.42242000  0.18042000  1.0
  C  C36  1  0.74836000  0.87091000  0.74701000  1.0
  C  C37  1  0.36645000  0.62911000  0.75296000  1.0
  C  C38  1  0.25164000  0.12909000  0.25299000  1.0
  C  C39  1  0.63354000  0.37090000  0.24704000  1.0
  C  C40  1  0.58798000  0.91253000  0.80668000  1.0
  C  C41  1  0.30734000  0.58737000  0.69333000  1.0
  C  C42  1  0.41201000  0.08747000  0.19331000  1.0
  C  C43  1  0.69265000  0.41263000  0.30667000  1.0
  C  C44  1  0.41401000  0.00274000  0.69132000  1.0
  C  C45  1  0.10870000  0.49705000  0.80874000  1.0
  C  C46  1  0.58599000  0.99726000  0.30868000  1.0
  C  C47  1  0.89130000  0.50295000  0.19126000  1.0
  C  C48  1  0.25078000  0.06955000  0.63693000  1.0
  C  C49  1  0.95766000  0.43041000  0.86313000  1.0
  C  C50  1  0.74922000  0.93045000  0.36307000  1.0
  C  C51  1  0.04235000  0.56958000  0.13688000  1.0
  C  C52  1  0.88430000  0.52073000  0.48128000  1.0
  C  C53  1  0.88629000  0.97931000  0.01869000  1.0
  C  C54  1  0.11570000  0.47927000  0.51872000  1.0
  C  C55  1  0.11371000  0.02070000  0.98132000  1.0
  S  S56  1  0.31850000  0.01262000  0.78297000  1.0
  S  S57  1  0.11455000  0.48715000  0.71713000  1.0
  S  S58  1  0.68149000  0.98738000  0.21703000  1.0
  S  S59  1  0.88545000  0.51285000  0.28288000  1.0
  O  O60  1  0.87669000  0.97565000  0.56602000  1.0
  O  O61  1  0.41826000  0.52444000  0.93407000  1.0
  O  O62  1  0.12332000  0.02435000  0.43397000  1.0
  O  O63  1  0.58175000  0.47556000  0.06593000  1.0
  O  O64  1  0.80858000  0.77115000  0.58919000  1.0
  O  O65  1  0.16867000  0.72891000  0.91079000  1.0
  O  O66  1  0.19143000  0.22885000  0.41081000  1.0
  O  O67  1  0.83133000  0.27109000  0.08921000  1.0
  O  O68  1  0.32201000  0.04994000  0.56921000  1.0
  O  O69  1  0.94118000  0.45014000  0.93083000  1.0
  O  O70  1  0.67799000  0.95006000  0.43078000  1.0
  O  O71  1  0.05883000  0.54986000  0.06917000  1.0
  O  O72  1  0.04398000  0.14632000  0.65509000  1.0
  O  O73  1  0.84591000  0.35364000  0.84492000  1.0
  O  O74  1  0.95602000  0.85368000  0.34491000  1.0
  O  O75  1  0.15411000  0.64635000  0.15508000  1.0
  O  O76  1  0.78431000  0.42939000  0.47824000  1.0
  O  O77  1  0.69190000  0.07065000  0.02168000  1.0
  O  O78  1  0.21567000  0.57061000  0.52176000  1.0
  O  O79  1  0.30810000  0.92935000  0.97833000  1.0
  O  O80  1  0.81320000  0.64741000  0.45610000  1.0
  O  O81  1  0.91652000  0.85265000  0.04389000  1.0
  O  O82  1  0.18679000  0.35259000  0.54390000  1.0
  O  O83  1  0.08349000  0.14736000  0.95612000  1.0
  O  O84  1  0.59457000  0.28660000  0.60786000  1.0
  O  O85  1  0.48933000  0.21345000  0.89210000  1.0
  O  O86  1  0.40543000  0.71340000  0.39214000  1.0
  O  O87  1  0.51069000  0.78655000  0.10790000  1.0
  O  O88  1  0.64707000  0.19814000  0.45884000  1.0
  O  O89  1  0.30412000  0.30176000  0.04111000  1.0
  O  O90  1  0.35293000  0.80185000  0.54116000  1.0
  O  O91  1  0.69589000  0.69824000  0.95889000  1.0
