# generated using pymatgen
data_KH15C7S2NO
_symmetry_space_group_name_H-M   'P 1'
_cell_length_a   5.23289000
_cell_length_b   10.04330000
_cell_length_c   11.71598766
_cell_angle_alpha   64.78903679
_cell_angle_beta   79.90782759
_cell_angle_gamma   78.71920000
_symmetry_Int_Tables_number   1
_chemical_formula_structural   KH15C7S2NO
_chemical_formula_sum   'K2 H30 C14 S4 N2 O2'
_cell_volume   543.38575183
_cell_formula_units_Z   2
loop_
 _symmetry_equiv_pos_site_id
 _symmetry_equiv_pos_as_xyz
  1  'x, y, z'
loop_
 _atom_site_type_symbol
 _atom_site_label
 _atom_site_symmetry_multiplicity
 _atom_site_fract_x
 _atom_site_fract_y
 _atom_site_fract_z
 _atom_site_occupancy
  K  K0  1  0.74990000  0.36408000  0.10798000  1.0
  K  K1  1  0.25013000  0.63591000  0.89202000  1.0
  H  H2  1  0.23221000  0.96681000  0.49023000  1.0
  H  H3  1  0.76787000  0.03321000  0.50976000  1.0
  H  H4  1  0.31325000  0.99585000  0.61773000  1.0
  H  H5  1  0.68681000  0.00416000  0.38227000  1.0
  H  H6  1  0.16313000  0.38448000  0.46298000  1.0
  H  H7  1  0.83690000  0.61554000  0.53701000  1.0
  H  H8  1  0.70208000  0.21407000  0.54129000  1.0
  H  H9  1  0.29793000  0.78593000  0.45873000  1.0
  H  H10  1  0.57243000  0.38602000  0.54973000  1.0
  H  H11  1  0.42758000  0.61399000  0.45027000  1.0
  H  H12  1  0.63918000  0.37548000  0.39953000  1.0
  H  H13  1  0.36087000  0.62452000  0.60048000  1.0
  H  H14  1  0.99726000  0.16805000  0.66541000  1.0
  H  H15  1  0.00274000  0.83195000  0.33458000  1.0
  H  H16  1  0.13013000  0.30490000  0.68660000  1.0
  H  H17  1  0.86985000  0.69511000  0.31340000  1.0
  H  H18  1  0.31963000  0.12865000  0.71245000  1.0
  H  H19  1  0.68036000  0.87135000  0.28755000  1.0
  H  H20  1  0.71447000  0.81447000  0.08243000  1.0
  H  H21  1  0.28546000  0.18551000  0.91757000  1.0
  H  H22  1  0.55327000  0.66299000  0.19417000  1.0
  H  H23  1  0.44671000  0.33698000  0.80582000  1.0
  H  H24  1  0.30615000  0.91701000  0.96417000  1.0
  H  H25  1  0.69376000  0.08297000  0.03585000  1.0
  H  H26  1  0.24788000  0.90704000  0.12173000  1.0
  H  H27  1  0.75205000  0.09292000  0.87831000  1.0
  H  H28  1  0.14576000  0.77052000  0.08804000  1.0
  H  H29  1  0.85419000  0.22944000  0.91198000  1.0
  H  H30  1  0.69607000  0.73300000  0.92868000  1.0
  H  H31  1  0.30392000  0.26700000  0.07131000  1.0
  C  C32  1  0.35441000  0.02459000  0.51584000  1.0
  C  C33  1  0.64564000  0.97543000  0.48415000  1.0
  C  C34  1  0.28884000  0.28123000  0.51378000  1.0
  C  C35  1  0.71117000  0.71879000  0.48621000  1.0
  C  C36  1  0.56710000  0.31625000  0.49943000  1.0
  C  C37  1  0.43291000  0.68375000  0.50058000  1.0
  C  C38  1  0.17744000  0.21545000  0.65284000  1.0
  C  C39  1  0.82256000  0.78457000  0.34715000  1.0
  C  C40  1  0.22592000  0.24261000  0.32548000  1.0
  C  C41  1  0.77413000  0.75741000  0.67451000  1.0
  C  C42  1  0.56437000  0.74480000  0.09514000  1.0
  C  C43  1  0.43559000  0.25518000  0.90485000  1.0
  C  C44  1  0.30084000  0.84036000  0.06498000  1.0
  C  C45  1  0.69910000  0.15961000  0.93504000  1.0
  S  S46  1  0.22161000  0.12172000  0.25521000  1.0
  S  S47  1  0.77847000  0.87828000  0.74479000  1.0
  S  S48  1  0.16482000  0.43158000  0.24167000  1.0
  S  S49  1  0.83518000  0.56843000  0.75832000  1.0
  N  N50  1  0.28000000  0.18441000  0.44803000  1.0
  N  N51  1  0.72005000  0.81561000  0.55196000  1.0
  O  O52  1  0.64772000  0.66097000  0.01845000  1.0
  O  O53  1  0.35221000  0.33903000  0.98153000  1.0
