# generated using pymatgen
data_GaH5C8O5
_symmetry_space_group_name_H-M   'P 1'
_cell_length_a   6.82319000
_cell_length_b   11.72630000
_cell_length_c   17.95390000
_cell_angle_alpha   90.00020000
_cell_angle_beta   89.99990000
_cell_angle_gamma   89.99930000
_symmetry_Int_Tables_number   1
_chemical_formula_structural   GaH5C8O5
_chemical_formula_sum   'Ga4 H20 C32 O20'
_cell_volume   1436.50541540
_cell_formula_units_Z   4
loop_
 _symmetry_equiv_pos_site_id
 _symmetry_equiv_pos_as_xyz
  1  'x, y, z'
loop_
 _atom_site_type_symbol
 _atom_site_label
 _atom_site_symmetry_multiplicity
 _atom_site_fract_x
 _atom_site_fract_y
 _atom_site_fract_z
 _atom_site_occupancy
  Ga  Ga0  1  0.00000000  0.00001000  0.00000000  1.0
  Ga  Ga1  1  0.00000000  0.49999000  0.50000000  1.0
  Ga  Ga2  1  0.50000000  0.00000000  0.00000000  1.0
  Ga  Ga3  1  0.49999000  0.49998000  0.50000000  1.0
  H  H4  1  0.56436000  0.78325000  0.82045000  1.0
  H  H5  1  0.43560000  0.28321000  0.67955000  1.0
  H  H6  1  0.06440000  0.21678000  0.17954000  1.0
  H  H7  1  0.93563000  0.71676000  0.32045000  1.0
  H  H8  1  0.43563000  0.21681000  0.17953000  1.0
  H  H9  1  0.56441000  0.71678000  0.32046000  1.0
  H  H10  1  0.93557000  0.78322000  0.82047000  1.0
  H  H11  1  0.06437000  0.28320000  0.67954000  1.0
  H  H12  1  0.56425000  0.68071000  0.69714000  1.0
  H  H13  1  0.43575000  0.18068000  0.80285000  1.0
  H  H14  1  0.06425000  0.31930000  0.30285000  1.0
  H  H15  1  0.93574000  0.81931000  0.19715000  1.0
  H  H16  1  0.43575000  0.31934000  0.30284000  1.0
  H  H17  1  0.56424000  0.81931000  0.19715000  1.0
  H  H18  1  0.93576000  0.68069000  0.69716000  1.0
  H  H19  1  0.06426000  0.18066000  0.80285000  1.0
  H  H20  1  0.74999000  0.64819000  0.47740000  1.0
  H  H21  1  0.25000000  0.14820000  0.02261000  1.0
  H  H22  1  0.25000000  0.35181000  0.52261000  1.0
  H  H23  1  0.75000000  0.85182000  0.97740000  1.0
  C  C24  1  0.42774000  0.75942000  0.79329000  1.0
  C  C25  1  0.57227000  0.25940000  0.70671000  1.0
  C  C26  1  0.92773000  0.24060000  0.20671000  1.0
  C  C27  1  0.07227000  0.74059000  0.29330000  1.0
  C  C28  1  0.57228000  0.24062000  0.20670000  1.0
  C  C29  1  0.42772000  0.74060000  0.29329000  1.0
  C  C30  1  0.07226000  0.75938000  0.79329000  1.0
  C  C31  1  0.92773000  0.25940000  0.70670000  1.0
  C  C32  1  0.42786000  0.70318000  0.72511000  1.0
  C  C33  1  0.57209000  0.20313000  0.77488000  1.0
  C  C34  1  0.92791000  0.29684000  0.27489000  1.0
  C  C35  1  0.07212000  0.79684000  0.22512000  1.0
  C  C36  1  0.57212000  0.29687000  0.27488000  1.0
  C  C37  1  0.42791000  0.79686000  0.22511000  1.0
  C  C38  1  0.07208000  0.70314000  0.72511000  1.0
  C  C39  1  0.92790000  0.20312000  0.77487000  1.0
  C  C40  1  0.25001000  0.78802000  0.82783000  1.0
  C  C41  1  0.75001000  0.28799000  0.67216000  1.0
  C  C42  1  0.75000000  0.21200000  0.17216000  1.0
  C  C43  1  0.24999000  0.71199000  0.32784000  1.0
  C  C44  1  0.25000000  0.85396000  0.89903000  1.0
  C  C45  1  0.75000000  0.35394000  0.60098000  1.0
  C  C46  1  0.75000000  0.14605000  0.10098000  1.0
  C  C47  1  0.25000000  0.64604000  0.39902000  1.0
  C  C48  1  0.24996000  0.67516000  0.69055000  1.0
  C  C49  1  0.74999000  0.17515000  0.80945000  1.0
  C  C50  1  0.75002000  0.32485000  0.30945000  1.0
  C  C51  1  0.25002000  0.82484000  0.19055000  1.0
  C  C52  1  0.24998000  0.61545000  0.61679000  1.0
  C  C53  1  0.74999000  0.11543000  0.88323000  1.0
  C  C54  1  0.75001000  0.38456000  0.38323000  1.0
  C  C55  1  0.25000000  0.88456000  0.11678000  1.0
  O  O56  1  0.08337000  0.88009000  0.92640000  1.0
  O  O57  1  0.91659000  0.38008000  0.57360000  1.0
  O  O58  1  0.58340000  0.11993000  0.07360000  1.0
  O  O59  1  0.41662000  0.61991000  0.42639000  1.0
  O  O60  1  0.91663000  0.11992000  0.07361000  1.0
  O  O61  1  0.08339000  0.61991000  0.42639000  1.0
  O  O62  1  0.41663000  0.88009000  0.92640000  1.0
  O  O63  1  0.58340000  0.38009000  0.57361000  1.0
  O  O64  1  0.08276000  0.59304000  0.58881000  1.0
  O  O65  1  0.91727000  0.09304000  0.91119000  1.0
  O  O66  1  0.58274000  0.40695000  0.41119000  1.0
  O  O67  1  0.41726000  0.90696000  0.08881000  1.0
  O  O68  1  0.91727000  0.40696000  0.41119000  1.0
  O  O69  1  0.08275000  0.90695000  0.08882000  1.0
  O  O70  1  0.41721000  0.59305000  0.58881000  1.0
  O  O71  1  0.58272000  0.09304000  0.91119000  1.0
  O  O72  1  0.25000000  0.07818000  0.99363000  1.0
  O  O73  1  0.75000000  0.57817000  0.50637000  1.0
  O  O74  1  0.74998000  0.92183000  0.00638000  1.0
  O  O75  1  0.25000000  0.42183000  0.49363000  1.0
