# generated using pymatgen
data_CuH8C6NClO
_symmetry_space_group_name_H-M   'P 1'
_cell_length_a   6.04012000
_cell_length_b   8.17018000
_cell_length_c   8.23590000
_cell_angle_alpha   72.03790000
_cell_angle_beta   71.46680000
_cell_angle_gamma   77.54350000
_symmetry_Int_Tables_number   1
_chemical_formula_structural   CuH8C6NClO
_chemical_formula_sum   'Cu2 H16 C12 N2 Cl2 O2'
_cell_volume   363.43925503
_cell_formula_units_Z   2
loop_
 _symmetry_equiv_pos_site_id
 _symmetry_equiv_pos_as_xyz
  1  'x, y, z'
loop_
 _atom_site_type_symbol
 _atom_site_label
 _atom_site_symmetry_multiplicity
 _atom_site_fract_x
 _atom_site_fract_y
 _atom_site_fract_z
 _atom_site_occupancy
  Cu  Cu0  1  0.69242000  0.10193000  0.99923000  1.0
  Cu  Cu1  1  0.30756000  0.89807000  0.00078000  1.0
  H  H2  1  0.75148000  0.04822000  0.62325000  1.0
  H  H3  1  0.24852000  0.95179000  0.37674000  1.0
  H  H4  1  0.45188000  0.09001000  0.61360000  1.0
  H  H5  1  0.54812000  0.90998000  0.38640000  1.0
  H  H6  1  0.59385000  0.26255000  0.60711000  1.0
  H  H7  1  0.40613000  0.73745000  0.39289000  1.0
  H  H8  1  0.13920000  0.25315000  0.82048000  1.0
  H  H9  1  0.86082000  0.74686000  0.17950000  1.0
  H  H10  1  0.43061000  0.42917000  0.86669000  1.0
  H  H11  1  0.56941000  0.57082000  0.13332000  1.0
  H  H12  1  0.25242000  0.54476000  0.63482000  1.0
  H  H13  1  0.74758000  0.45525000  0.36518000  1.0
  H  H14  1  0.51263000  0.73007000  0.69260000  1.0
  H  H15  1  0.48737000  0.26992000  0.30741000  1.0
  H  H16  1  0.93634000  0.78863000  0.56774000  1.0
  H  H17  1  0.06366000  0.21138000  0.43224000  1.0
  C  C18  1  0.57824000  0.12320000  0.66574000  1.0
  C  C19  1  0.42176000  0.87680000  0.33425000  1.0
  C  C20  1  0.00721000  0.36199000  0.78610000  1.0
  C  C21  1  0.99278000  0.63801000  0.21390000  1.0
  C  C22  1  0.61011000  0.46142000  0.81252000  1.0
  C  C23  1  0.38990000  0.53858000  0.18748000  1.0
  C  C24  1  0.06789000  0.52491000  0.68467000  1.0
  C  C25  1  0.93212000  0.47510000  0.31534000  1.0
  C  C26  1  0.65803000  0.62812000  0.71415000  1.0
  C  C27  1  0.34198000  0.37188000  0.28587000  1.0
  C  C28  1  0.89187000  0.66039000  0.64754000  1.0
  C  C29  1  0.10812000  0.33961000  0.35248000  1.0
  N  N30  1  0.78128000  0.33051000  0.84753000  1.0
  N  N31  1  0.21874000  0.66947000  0.15248000  1.0
  Cl  Cl32  1  0.89393000  0.08356000  0.19453000  1.0
  Cl  Cl33  1  0.10605000  0.91644000  0.80547000  1.0
  O  O34  1  0.49461000  0.08710000  0.85318000  1.0
  O  O35  1  0.50539000  0.91291000  0.14682000  1.0
