# generated using pymatgen
data_K2H12C10O11
_symmetry_space_group_name_H-M   'P 1'
_cell_length_a   6.83255000
_cell_length_b   13.02310000
_cell_length_c   18.23910000
_cell_angle_alpha   109.53500000
_cell_angle_beta   89.97500000
_cell_angle_gamma   105.21300000
_symmetry_Int_Tables_number   1
_chemical_formula_structural   K2H12C10O11
_chemical_formula_sum   'K8 H48 C40 O44'
_cell_volume   1469.09652578
_cell_formula_units_Z   4
loop_
 _symmetry_equiv_pos_site_id
 _symmetry_equiv_pos_as_xyz
  1  'x, y, z'
loop_
 _atom_site_type_symbol
 _atom_site_label
 _atom_site_symmetry_multiplicity
 _atom_site_fract_x
 _atom_site_fract_y
 _atom_site_fract_z
 _atom_site_occupancy
  K  K0  1  0.92754000  0.16523000  0.23439000  1.0
  K  K1  1  0.76317000  0.83531000  0.26568000  1.0
  K  K2  1  0.07246000  0.83477000  0.76561000  1.0
  K  K3  1  0.23681000  0.16469000  0.73433000  1.0
  K  K4  1  0.50800000  0.29940000  0.56388000  1.0
  K  K5  1  0.20847000  0.70076000  0.93647000  1.0
  K  K6  1  0.49201000  0.70060000  0.43612000  1.0
  K  K7  1  0.79153000  0.29924000  0.06353000  1.0
  H  H8  1  0.13790000  0.47497000  0.40084000  1.0
  H  H9  1  0.66278000  0.52539000  0.09934000  1.0
  H  H10  1  0.86210000  0.52503000  0.59916000  1.0
  H  H11  1  0.33722000  0.47461000  0.90066000  1.0
  H  H12  1  0.21643000  0.38547000  0.31494000  1.0
  H  H13  1  0.83068000  0.61480000  0.18527000  1.0
  H  H14  1  0.78357000  0.61454000  0.68506000  1.0
  H  H15  1  0.16932000  0.38520000  0.81473000  1.0
  H  H16  1  0.36533000  0.42955000  0.40640000  1.0
  H  H17  1  0.93573000  0.57047000  0.09385000  1.0
  H  H18  1  0.63467000  0.57046000  0.59360000  1.0
  H  H19  1  0.06427000  0.42952000  0.90615000  1.0
  H  H20  1  0.74886000  0.91578000  0.69071000  1.0
  H  H21  1  0.83229000  0.08398000  0.80923000  1.0
  H  H22  1  0.25113000  0.08422000  0.30928000  1.0
  H  H23  1  0.16771000  0.91602000  0.19077000  1.0
  H  H24  1  0.54222000  0.80527000  0.62690000  1.0
  H  H25  1  0.73574000  0.19436000  0.87300000  1.0
  H  H26  1  0.45778000  0.19473000  0.37310000  1.0
  H  H27  1  0.26426000  0.80564000  0.12700000  1.0
  H  H28  1  0.50171000  0.93699000  0.68743000  1.0
  H  H29  1  0.56387000  0.06242000  0.81258000  1.0
  H  H30  1  0.49829000  0.06301000  0.31257000  1.0
  H  H31  1  0.43613000  0.93758000  0.18743000  1.0
  H  H32  1  0.71965000  0.45920000  0.46126000  1.0
  H  H33  1  0.26015000  0.54078000  0.03869000  1.0
  H  H34  1  0.28035000  0.54080000  0.53874000  1.0
  H  H35  1  0.73985000  0.45922000  0.96131000  1.0
  H  H36  1  0.67003000  0.35122000  0.38635000  1.0
  H  H37  1  0.31946000  0.64877000  0.11362000  1.0
  H  H38  1  0.32997000  0.64878000  0.61365000  1.0
  H  H39  1  0.68054000  0.35123000  0.88638000  1.0
  H  H40  1  0.51974000  0.52957000  0.77276000  1.0
  H  H41  1  0.99067000  0.47049000  0.72740000  1.0
  H  H42  1  0.48026000  0.47042000  0.22725000  1.0
  H  H43  1  0.00933000  0.52951000  0.27260000  1.0
  H  H44  1  0.37088000  0.41798000  0.71142000  1.0
  H  H45  1  0.95319000  0.58211000  0.78862000  1.0
  H  H46  1  0.62912000  0.58202000  0.28858000  1.0
  H  H47  1  0.04681000  0.41789000  0.21138000  1.0
  H  H48  1  0.76481000  0.36822000  0.26373000  1.0
  H  H49  1  0.39774000  0.63189000  0.23619000  1.0
  H  H50  1  0.23519000  0.63178000  0.73627000  1.0
  H  H51  1  0.60226000  0.36810000  0.76381000  1.0
  H  H52  1  0.55290000  0.27480000  0.24528000  1.0
  H  H53  1  0.27922000  0.72527000  0.25464000  1.0
  H  H54  1  0.44710000  0.72520000  0.75471000  1.0
  H  H55  1  0.72077000  0.27472000  0.74536000  1.0
  C  C56  1  0.81257000  0.08179000  0.54162000  1.0
  C  C57  1  0.73088000  0.91815000  0.95842000  1.0
  C  C58  1  0.18743000  0.91821000  0.45837000  1.0
  C  C59  1  0.26912000  0.08186000  0.04159000  1.0
  C  C60  1  0.92799000  0.19240000  0.54749000  1.0
  C  C61  1  0.73579000  0.80758000  0.95259000  1.0
  C  C62  1  0.07201000  0.80760000  0.45250000  1.0
  C  C63  1  0.26421000  0.19242000  0.04741000  1.0
  C  C64  1  0.99969000  0.28861000  0.62378000  1.0
  C  C65  1  0.71104000  0.71125000  0.87633000  1.0
  C  C66  1  0.00031000  0.71139000  0.37622000  1.0
  C  C67  1  0.28895000  0.28875000  0.12367000  1.0
  C  C68  1  0.96380000  0.20447000  0.47348000  1.0
  C  C69  1  0.75994000  0.79566000  0.02661000  1.0
  C  C70  1  0.03620000  0.79553000  0.52652000  1.0
  C  C71  1  0.24007000  0.20434000  0.97339000  1.0
  C  C72  1  0.08304000  0.30800000  0.46428000  1.0
  C  C73  1  0.77582000  0.69220000  0.03585000  1.0
  C  C74  1  0.91696000  0.69200000  0.53572000  1.0
  C  C75  1  0.22418000  0.30780000  0.96415000  1.0
  C  C76  1  0.86824000  0.09685000  0.41499000  1.0
  C  C77  1  0.77215000  0.90338000  0.08508000  1.0
  C  C78  1  0.13176000  0.90316000  0.58501000  1.0
  C  C79  1  0.22785000  0.09662000  0.91492000  1.0
  C  C80  1  0.76636000  0.01509000  0.45971000  1.0
  C  C81  1  0.75159000  0.98496000  0.04031000  1.0
  C  C82  1  0.23364000  0.98491000  0.54029000  1.0
  C  C83  1  0.24842000  0.01504000  0.95969000  1.0
  C  C84  1  0.21084000  0.40635000  0.37800000  1.0
  C  C85  1  0.80445000  0.59388000  0.12220000  1.0
  C  C86  1  0.78917000  0.59366000  0.62200000  1.0
  C  C87  1  0.19555000  0.40612000  0.87780000  1.0
  C  C88  1  0.61001000  0.89665000  0.65314000  1.0
  C  C89  1  0.71246000  0.10298000  0.84684000  1.0
  C  C90  1  0.38999000  0.10335000  0.34686000  1.0
  C  C91  1  0.28754000  0.89702000  0.15317000  1.0
  C  C92  1  0.75971000  0.04778000  0.60829000  1.0
  C  C93  1  0.71156000  0.95202000  0.89173000  1.0
  C  C94  1  0.24029000  0.95222000  0.39171000  1.0
  C  C95  1  0.28844000  0.04798000  0.10827000  1.0
  O  O96  1  0.17884000  0.39298000  0.51973000  1.0
  O  O97  1  0.78689000  0.60720000  0.98045000  1.0
  O  O98  1  0.82115000  0.60702000  0.48027000  1.0
  O  O99  1  0.21309000  0.39280000  0.01955000  1.0
  O  O100  1  0.08846000  0.30410000  0.38902000  1.0
  O  O101  1  0.78496000  0.69618000  0.11113000  1.0
  O  O102  1  0.91154000  0.69590000  0.61098000  1.0
  O  O103  1  0.21504000  0.30382000  0.88887000  1.0
  O  O104  1  0.85894000  0.06350000  0.34245000  1.0
  O  O105  1  0.79662000  0.93690000  0.15761000  1.0
  O  O106  1  0.14106000  0.93650000  0.65755000  1.0
  O  O107  1  0.20339000  0.06310000  0.84239000  1.0
  O  O108  1  0.66947000  0.91517000  0.42431000  1.0
  O  O109  1  0.75439000  0.08487000  0.07568000  1.0
  O  O110  1  0.33053000  0.08483000  0.57569000  1.0
  O  O111  1  0.24562000  0.91513000  0.92432000  1.0
  O  O112  1  0.65581000  0.93608000  0.58807000  1.0
  O  O113  1  0.71925000  0.06373000  0.91195000  1.0
  O  O114  1  0.34419000  0.06392000  0.41193000  1.0
  O  O115  1  0.28077000  0.93628000  0.08805000  1.0
  O  O116  1  0.80623000  0.11086000  0.67763000  1.0
  O  O117  1  0.69475000  0.88888000  0.82240000  1.0
  O  O118  1  0.19376000  0.88914000  0.32237000  1.0
  O  O119  1  0.30526000  0.11112000  0.17760000  1.0
  O  O120  1  0.87798000  0.34795000  0.64878000  1.0
  O  O121  1  0.52992000  0.65186000  0.85155000  1.0
  O  O122  1  0.12201000  0.65205000  0.35122000  1.0
  O  O123  1  0.47008000  0.34814000  0.14846000  1.0
  O  O124  1  0.17265000  0.30088000  0.65574000  1.0
  O  O125  1  0.87154000  0.69900000  0.84419000  1.0
  O  O126  1  0.82735000  0.69912000  0.34426000  1.0
  O  O127  1  0.12846000  0.30100000  0.15581000  1.0
  O  O128  1  0.66162000  0.37606000  0.44360000  1.0
  O  O129  1  0.28574000  0.62395000  0.05640000  1.0
  O  O130  1  0.33838000  0.62395000  0.55640000  1.0
  O  O131  1  0.71426000  0.37605000  0.94360000  1.0
  O  O132  1  0.51622000  0.45686000  0.73025000  1.0
  O  O133  1  0.05978000  0.54327000  0.76983000  1.0
  O  O134  1  0.48377000  0.54313000  0.26975000  1.0
  O  O135  1  0.94022000  0.45673000  0.23017000  1.0
  O  O136  1  0.67880000  0.30573000  0.28023000  1.0
  O  O137  1  0.37459000  0.69453000  0.21978000  1.0
  O  O138  1  0.32120000  0.69427000  0.71977000  1.0
  O  O139  1  0.62540000  0.30546000  0.78022000  1.0
