# generated using pymatgen
data_CuH4C6N4O3
_symmetry_space_group_name_H-M   'P 1'
_cell_length_a   6.85777000
_cell_length_b   8.63527610
_cell_length_c   14.95310000
_cell_angle_alpha   76.42378116
_cell_angle_beta   89.99090000
_cell_angle_gamma   66.64859643
_symmetry_Int_Tables_number   1
_chemical_formula_structural   CuH4C6N4O3
_chemical_formula_sum   'Cu4 H16 C24 N16 O12'
_cell_volume   785.96554065
_cell_formula_units_Z   4
loop_
 _symmetry_equiv_pos_site_id
 _symmetry_equiv_pos_as_xyz
  1  'x, y, z'
loop_
 _atom_site_type_symbol
 _atom_site_label
 _atom_site_symmetry_multiplicity
 _atom_site_fract_x
 _atom_site_fract_y
 _atom_site_fract_z
 _atom_site_occupancy
  Cu  Cu0  1  0.93772000  0.45309000  0.26891000  1.0
  Cu  Cu1  1  0.39082000  0.54699000  0.23109000  1.0
  Cu  Cu2  1  0.06227000  0.54692000  0.73109000  1.0
  Cu  Cu3  1  0.60919000  0.45300000  0.76891000  1.0
  H  H4  1  0.54406000  0.34363000  0.00079000  1.0
  H  H5  1  0.88753000  0.65617000  0.49928000  1.0
  H  H6  1  0.45594000  0.65637000  0.99921000  1.0
  H  H7  1  0.11247000  0.34383000  0.50072000  1.0
  H  H8  1  0.38323000  0.08566000  0.83231000  1.0
  H  H9  1  0.46894000  0.91410000  0.66777000  1.0
  H  H10  1  0.61676000  0.91434000  0.16770000  1.0
  H  H11  1  0.53106000  0.08591000  0.33223000  1.0
  H  H12  1  0.05737000  0.09765000  0.91406000  1.0
  H  H13  1  0.15519000  0.90201000  0.58599000  1.0
  H  H14  1  0.94263000  0.90235000  0.08594000  1.0
  H  H15  1  0.84481000  0.09799000  0.41401000  1.0
  H  H16  1  0.98434000  0.23177000  0.04955000  1.0
  H  H17  1  0.21623000  0.76782000  0.45055000  1.0
  H  H18  1  0.01564000  0.76824000  0.95046000  1.0
  H  H19  1  0.78377000  0.23217000  0.54945000  1.0
  C  C20  1  0.25598000  0.29973000  0.03519000  1.0
  C  C21  1  0.55566000  0.69992000  0.46496000  1.0
  C  C22  1  0.74402000  0.70027000  0.96481000  1.0
  C  C23  1  0.44435000  0.30009000  0.53504000  1.0
  C  C24  1  0.43030000  0.29226000  0.98597000  1.0
  C  C25  1  0.72249000  0.70739000  0.51418000  1.0
  C  C26  1  0.56970000  0.70774000  0.01403000  1.0
  C  C27  1  0.27752000  0.29261000  0.48582000  1.0
  C  C28  1  0.33726000  0.14537000  0.88967000  1.0
  C  C29  1  0.48268000  0.85431000  0.61043000  1.0
  C  C30  1  0.66273000  0.85463000  0.11033000  1.0
  C  C31  1  0.51732000  0.14569000  0.38957000  1.0
  C  C32  1  0.16136000  0.15218000  0.93651000  1.0
  C  C33  1  0.31366000  0.84741000  0.56359000  1.0
  C  C34  1  0.83864000  0.84781000  0.06350000  1.0
  C  C35  1  0.68635000  0.15259000  0.43641000  1.0
  C  C36  1  0.11925000  0.22842000  0.01068000  1.0
  C  C37  1  0.34773000  0.77114000  0.48943000  1.0
  C  C38  1  0.88075000  0.77158000  0.98932000  1.0
  C  C39  1  0.65228000  0.22886000  0.51058000  1.0
  C  C40  1  0.21984000  0.38161000  0.11563000  1.0
  C  C41  1  0.60142000  0.61816000  0.38448000  1.0
  C  C42  1  0.78017000  0.61838000  0.88436000  1.0
  C  C43  1  0.39859000  0.38183000  0.61552000  1.0
  N  N44  1  0.47112000  0.21435000  0.91459000  1.0
  N  N45  1  0.68541000  0.78541000  0.58553000  1.0
  N  N46  1  0.52888000  0.78565000  0.08542000  1.0
  N  N47  1  0.31458000  0.21460000  0.41447000  1.0
  N  N48  1  0.09210000  0.60900000  0.26400000  1.0
  N  N49  1  0.70095000  0.39126000  0.23589000  1.0
  N  N50  1  0.90790000  0.39100000  0.73600000  1.0
  N  N51  1  0.29904000  0.60875000  0.76411000  1.0
  N  N52  1  0.01441000  0.72893000  0.30049000  1.0
  N  N53  1  0.74312000  0.27120000  0.19946000  1.0
  N  N54  1  0.98561000  0.27105000  0.69950000  1.0
  N  N55  1  0.25689000  0.72878000  0.80053000  1.0
  N  N56  1  0.93620000  0.84349000  0.33444000  1.0
  N  N57  1  0.77933000  0.15658000  0.16559000  1.0
  N  N58  1  0.06381000  0.15651000  0.66556000  1.0
  N  N59  1  0.22067000  0.84343000  0.83441000  1.0
  O  O60  1  0.07708000  0.36179000  0.16505000  1.0
  O  O61  1  0.43895000  0.63814000  0.33497000  1.0
  O  O62  1  0.92292000  0.63821000  0.83495000  1.0
  O  O63  1  0.56106000  0.36185000  0.66503000  1.0
  O  O64  1  0.33744000  0.46042000  0.12618000  1.0
  O  O65  1  0.79765000  0.53946000  0.37386000  1.0
  O  O66  1  0.66256000  0.53958000  0.87382000  1.0
  O  O67  1  0.20235000  0.46055000  0.62613000  1.0
  O  O68  1  0.63832000  0.20442000  0.86983000  1.0
  O  O69  1  0.84264000  0.79548000  0.63022000  1.0
  O  O70  1  0.36169000  0.79557000  0.13017000  1.0
  O  O71  1  0.15736000  0.20452000  0.36979000  1.0
