# generated using pymatgen
data_SnH9C4BrO2
_symmetry_space_group_name_H-M   'P 1'
_cell_length_a   7.71551000
_cell_length_b   9.44603000
_cell_length_c   10.76950000
_cell_angle_alpha   90.00620000
_cell_angle_beta   89.99960000
_cell_angle_gamma   89.99740000
_symmetry_Int_Tables_number   1
_chemical_formula_structural   SnH9C4BrO2
_chemical_formula_sum   'Sn4 H36 C16 Br4 O8'
_cell_volume   784.89126633
_cell_formula_units_Z   4
loop_
 _symmetry_equiv_pos_site_id
 _symmetry_equiv_pos_as_xyz
  1  'x, y, z'
loop_
 _atom_site_type_symbol
 _atom_site_label
 _atom_site_symmetry_multiplicity
 _atom_site_fract_x
 _atom_site_fract_y
 _atom_site_fract_z
 _atom_site_occupancy
  Sn  Sn0  1  0.24999000  0.07773000  0.18012000  1.0
  Sn  Sn1  1  0.75006000  0.92243000  0.81992000  1.0
  Sn  Sn2  1  0.25001000  0.57770000  0.31988000  1.0
  Sn  Sn3  1  0.74997000  0.42241000  0.68010000  1.0
  H  H4  1  0.91788000  0.99596000  0.16164000  1.0
  H  H5  1  0.41775000  0.00403000  0.83834000  1.0
  H  H6  1  0.58214000  0.49596000  0.33837000  1.0
  H  H7  1  0.08221000  0.50396000  0.66170000  1.0
  H  H8  1  0.08230000  0.00401000  0.83832000  1.0
  H  H9  1  0.58213000  0.99598000  0.16163000  1.0
  H  H10  1  0.41777000  0.50398000  0.66166000  1.0
  H  H11  1  0.91781000  0.49602000  0.33832000  1.0
  H  H12  1  0.93509000  0.13493000  0.27597000  1.0
  H  H13  1  0.43532000  0.86498000  0.72409000  1.0
  H  H14  1  0.56488000  0.63489000  0.22406000  1.0
  H  H15  1  0.06473000  0.36500000  0.77595000  1.0
  H  H16  1  0.06476000  0.86501000  0.72406000  1.0
  H  H17  1  0.56488000  0.13493000  0.27596000  1.0
  H  H18  1  0.43521000  0.36501000  0.77593000  1.0
  H  H19  1  0.93516000  0.63496000  0.22402000  1.0
  H  H20  1  0.00117000  0.95720000  0.31403000  1.0
  H  H21  1  0.50108000  0.04275000  0.68597000  1.0
  H  H22  1  0.49886000  0.45721000  0.18601000  1.0
  H  H23  1  0.99890000  0.54270000  0.81402000  1.0
  H  H24  1  0.99894000  0.04276000  0.68598000  1.0
  H  H25  1  0.49886000  0.95722000  0.31401000  1.0
  H  H26  1  0.50103000  0.54272000  0.81401000  1.0
  H  H27  1  0.00119000  0.45726000  0.18598000  1.0
  H  H28  1  0.24996000  0.20908000  0.61453000  1.0
  H  H29  1  0.75004000  0.79100000  0.38541000  1.0
  H  H30  1  0.25000000  0.70906000  0.88540000  1.0
  H  H31  1  0.75000000  0.29108000  0.11462000  1.0
  H  H32  1  0.36472000  0.10792000  0.50053000  1.0
  H  H33  1  0.86482000  0.89206000  0.49947000  1.0
  H  H34  1  0.13524000  0.60790000  0.99938000  1.0
  H  H35  1  0.63520000  0.39213000  0.00056000  1.0
  H  H36  1  0.63530000  0.89213000  0.49945000  1.0
  H  H37  1  0.13518000  0.10793000  0.50051000  1.0
  H  H38  1  0.86473000  0.39216000  0.00057000  1.0
  H  H39  1  0.36478000  0.60788000  0.99937000  1.0
  C  C40  1  0.99207000  0.03686000  0.24046000  1.0
  C  C41  1  0.49211000  0.96312000  0.75959000  1.0
  C  C42  1  0.50791000  0.53684000  0.25957000  1.0
  C  C43  1  0.00795000  0.46311000  0.74047000  1.0
  C  C44  1  0.00799000  0.96315000  0.75956000  1.0
  C  C45  1  0.50788000  0.03688000  0.24043000  1.0
  C  C46  1  0.49201000  0.46312000  0.74048000  1.0
  C  C47  1  0.99205000  0.53687000  0.25951000  1.0
  C  C48  1  0.25003000  0.29709000  0.43020000  1.0
  C  C49  1  0.75002000  0.70293000  0.56980000  1.0
  C  C50  1  0.25000000  0.79705000  0.06980000  1.0
  C  C51  1  0.74998000  0.20292000  0.93026000  1.0
  C  C52  1  0.24997000  0.17371000  0.51784000  1.0
  C  C53  1  0.75004000  0.82630000  0.48214000  1.0
  C  C54  1  0.25001000  0.67368000  0.98210000  1.0
  C  C55  1  0.74999000  0.32637000  0.01788000  1.0
  Br  Br56  1  0.24996000  0.26646000  0.00874000  1.0
  Br  Br57  1  0.75000000  0.73355000  0.99115000  1.0
  Br  Br58  1  0.25006000  0.76643000  0.49128000  1.0
  Br  Br59  1  0.74992000  0.23360000  0.50881000  1.0
  O  O60  1  0.24999000  0.27937000  0.31292000  1.0
  O  O61  1  0.74998000  0.72065000  0.68703000  1.0
  O  O62  1  0.25001000  0.77930000  0.18702000  1.0
  O  O63  1  0.75002000  0.22062000  0.81301000  1.0
  O  O64  1  0.24997000  0.42271000  0.47598000  1.0
  O  O65  1  0.74998000  0.57727000  0.52398000  1.0
  O  O66  1  0.25003000  0.92269000  0.02402000  1.0
  O  O67  1  0.75002000  0.07732000  0.97608000  1.0
