# generated using pymatgen
data_ZnH32C34S2(N5O2)2
_symmetry_space_group_name_H-M   'P 1'
_cell_length_a   8.45601000
_cell_length_b   8.47692000
_cell_length_c   12.42110000
_cell_angle_alpha   93.88920000
_cell_angle_beta   97.30230000
_cell_angle_gamma   91.32610000
_symmetry_Int_Tables_number   1
_chemical_formula_structural   ZnH32C34S2(N5O2)2
_chemical_formula_sum   'Zn1 H32 C34 S2 N10 O4'
_cell_volume   880.64672475
_cell_formula_units_Z   1
loop_
 _symmetry_equiv_pos_site_id
 _symmetry_equiv_pos_as_xyz
  1  'x, y, z'
loop_
 _atom_site_type_symbol
 _atom_site_label
 _atom_site_symmetry_multiplicity
 _atom_site_fract_x
 _atom_site_fract_y
 _atom_site_fract_z
 _atom_site_occupancy
  Zn  Zn0  1  0.00000000  0.00000000  0.00000000  1.0
  H  H1  1  0.27760000  0.81376000  0.93234000  1.0
  H  H2  1  0.72239000  0.18624000  0.06766000  1.0
  H  H3  1  0.54133000  0.71706000  0.01442000  1.0
  H  H4  1  0.45867000  0.28294000  0.98558000  1.0
  H  H5  1  0.67077000  0.84703000  0.19375000  1.0
  H  H6  1  0.32922000  0.15297000  0.80625000  1.0
  H  H7  1  0.25995000  0.13922000  0.19320000  1.0
  H  H8  1  0.74005000  0.86078000  0.80680000  1.0
  H  H9  1  0.60938000  0.80963000  0.44409000  1.0
  H  H10  1  0.39063000  0.19037000  0.55592000  1.0
  H  H11  1  0.44778000  0.81717000  0.33792000  1.0
  H  H12  1  0.55222000  0.18282000  0.66208000  1.0
  H  H13  1  0.64103000  0.25021000  0.48464000  1.0
  H  H14  1  0.35897000  0.74978000  0.51536000  1.0
  H  H15  1  0.72987000  0.07708000  0.53621000  1.0
  H  H16  1  0.27013000  0.92292000  0.46379000  1.0
  H  H17  1  0.20010000  0.30744000  0.06963000  1.0
  H  H18  1  0.79989000  0.69256000  0.93037000  1.0
  H  H19  1  0.28204000  0.55535000  0.99227000  1.0
  H  H20  1  0.71795000  0.44465000  0.00774000  1.0
  H  H21  1  0.14772000  0.62140000  0.80930000  1.0
  H  H22  1  0.85228000  0.37860000  0.19070000  1.0
  H  H23  1  0.86730000  0.18881000  0.80017000  1.0
  H  H24  1  0.13271000  0.81119000  0.19983000  1.0
  H  H25  1  0.19130000  0.45005000  0.65764000  1.0
  H  H26  1  0.80870000  0.54993000  0.34236000  1.0
  H  H27  1  0.16703000  0.63553000  0.60067000  1.0
  H  H28  1  0.83298000  0.36446000  0.39933000  1.0
  H  H29  1  0.87929000  0.69702000  0.51812000  1.0
  H  H30  1  0.12071000  0.30297000  0.48188000  1.0
  H  H31  1  0.72685000  0.55106000  0.53130000  1.0
  H  H32  1  0.27315000  0.44894000  0.46869000  1.0
  C  C33  1  0.33679000  0.86331000  0.01082000  1.0
  C  C34  1  0.66321000  0.13670000  0.98918000  1.0
  C  C35  1  0.48347000  0.81164000  0.05671000  1.0
  C  C36  1  0.51653000  0.18837000  0.94329000  1.0
  C  C37  1  0.55514000  0.88363000  0.15570000  1.0
  C  C38  1  0.44485000  0.11638000  0.84431000  1.0
  C  C39  1  0.47653000  0.00666000  0.20501000  1.0
  C  C40  1  0.52346000  0.99334000  0.79499000  1.0
  C  C41  1  0.32744000  0.04803000  0.15483000  1.0
  C  C42  1  0.67255000  0.95197000  0.84517000  1.0
  C  C43  1  0.54759000  0.10510000  0.30523000  1.0
  C  C44  1  0.45240000  0.89490000  0.69477000  1.0
  C  C45  1  0.50298000  0.87547000  0.41528000  1.0
  C  C46  1  0.49702000  0.12452000  0.58472000  1.0
  C  C47  1  0.61678000  0.12818000  0.50269000  1.0
  C  C48  1  0.38322000  0.87181000  0.49731000  1.0
  C  C49  1  0.14700000  0.33760000  0.98937000  1.0
  C  C50  1  0.85300000  0.66241000  0.01063000  1.0
  C  C51  1  0.19163000  0.47580000  0.94576000  1.0
  C  C52  1  0.80836000  0.52420000  0.05424000  1.0
  C  C53  1  0.11663000  0.51202000  0.84410000  1.0
  C  C54  1  0.88337000  0.48798000  0.15590000  1.0
  C  C55  1  0.99620000  0.40865000  0.79030000  1.0
  C  C56  1  0.00380000  0.59135000  0.20970000  1.0
  C  C57  1  0.96041000  0.27143000  0.84015000  1.0
  C  C58  1  0.03959000  0.72857000  0.15985000  1.0
  C  C59  1  0.88832000  0.44495000  0.68976000  1.0
  C  C60  1  0.11168000  0.55506000  0.31024000  1.0
  C  C61  1  0.12307000  0.51156000  0.59327000  1.0
  C  C62  1  0.87694000  0.48844000  0.40673000  1.0
  C  C63  1  0.85101000  0.56892000  0.51680000  1.0
  C  C64  1  0.14901000  0.43107000  0.48320000  1.0
  C  C65  1  0.03652000  0.93332000  0.75673000  1.0
  C  C66  1  0.96348000  0.06669000  0.24327000  1.0
  S  S67  1  0.03857000  0.98879000  0.63533000  1.0
  S  S68  1  0.96143000  0.01122000  0.36467000  1.0
  N  N69  1  0.25807000  0.97760000  0.06011000  1.0
  N  N70  1  0.74193000  0.02241000  0.93989000  1.0
  N  N71  1  0.55296000  0.03826000  0.40167000  1.0
  N  N72  1  0.44704000  0.96174000  0.59833000  1.0
  N  N73  1  0.03524000  0.23484000  0.93640000  1.0
  N  N74  1  0.96476000  0.76516000  0.06360000  1.0
  N  N75  1  0.95365000  0.50561000  0.60622000  1.0
  N  N76  1  0.04636000  0.49438000  0.39377000  1.0
  N  N77  1  0.03340000  0.89487000  0.84717000  1.0
  N  N78  1  0.96661000  0.10514000  0.15282000  1.0
  O  O79  1  0.74176000  0.42373000  0.68916000  1.0
  O  O80  1  0.25824000  0.57629000  0.31085000  1.0
  O  O81  1  0.59267000  0.24343000  0.29489000  1.0
  O  O82  1  0.40732000  0.75656000  0.70511000  1.0
