# generated using pymatgen
data_Cu3H7C10S(IN)2
_symmetry_space_group_name_H-M   'P 1'
_cell_length_a   7.67886000
_cell_length_b   7.67883000
_cell_length_c   11.98670000
_cell_angle_alpha   76.77390000
_cell_angle_beta   76.77430000
_cell_angle_gamma   75.19390000
_symmetry_Int_Tables_number   1
_chemical_formula_structural   Cu3H7C10S(IN)2
_chemical_formula_sum   'Cu6 H14 C20 S2 I4 N4'
_cell_volume   654.21496906
_cell_formula_units_Z   2
loop_
 _symmetry_equiv_pos_site_id
 _symmetry_equiv_pos_as_xyz
  1  'x, y, z'
loop_
 _atom_site_type_symbol
 _atom_site_label
 _atom_site_symmetry_multiplicity
 _atom_site_fract_x
 _atom_site_fract_y
 _atom_site_fract_z
 _atom_site_occupancy
  Cu  Cu0  1  0.01316000  0.62219000  0.40028000  1.0
  Cu  Cu1  1  0.37781000  0.98684000  0.59972000  1.0
  Cu  Cu2  1  0.98684000  0.37781000  0.59972000  1.0
  Cu  Cu3  1  0.62219000  0.01316000  0.40028000  1.0
  Cu  Cu4  1  0.96626000  0.96626000  0.40776000  1.0
  Cu  Cu5  1  0.03374000  0.03375000  0.59224000  1.0
  H  H6  1  0.11368000  0.57610000  0.15929000  1.0
  H  H7  1  0.42390000  0.88632000  0.84071000  1.0
  H  H8  1  0.88632000  0.42389000  0.84071000  1.0
  H  H9  1  0.57610000  0.11368000  0.15929000  1.0
  H  H10  1  0.59489000  0.13182000  0.98952000  1.0
  H  H11  1  0.86820000  0.40511000  0.01048000  1.0
  H  H12  1  0.40510000  0.86818000  0.01048000  1.0
  H  H13  1  0.13180000  0.59489000  0.98952000  1.0
  H  H14  1  0.62629000  0.16650000  0.77857000  1.0
  H  H15  1  0.83351000  0.37372000  0.22142000  1.0
  H  H16  1  0.37371000  0.83350000  0.22143000  1.0
  H  H17  1  0.16649000  0.62628000  0.77858000  1.0
  H  H18  1  0.41107000  0.41108000  0.67055000  1.0
  H  H19  1  0.58893000  0.58892000  0.32945000  1.0
  C  C20  1  0.30176000  0.30176000  0.37285000  1.0
  C  C21  1  0.69824000  0.69824000  0.62715000  1.0
  C  C22  1  0.20760000  0.45956000  0.19966000  1.0
  C  C23  1  0.54044000  0.79239000  0.80033000  1.0
  C  C24  1  0.79240000  0.54044000  0.80034000  1.0
  C  C25  1  0.45957000  0.20761000  0.19966000  1.0
  C  C26  1  0.34033000  0.34032000  0.13507000  1.0
  C  C27  1  0.65967000  0.65967000  0.86493000  1.0
  C  C28  1  0.35807000  0.35807000  0.00825000  1.0
  C  C29  1  0.64193000  0.64192000  0.99175000  1.0
  C  C30  1  0.49705000  0.23921000  0.94560000  1.0
  C  C31  1  0.76079000  0.50295000  0.05440000  1.0
  C  C32  1  0.50295000  0.76078000  0.05440000  1.0
  C  C33  1  0.23921000  0.49704000  0.94561000  1.0
  C  C34  1  0.51526000  0.25794000  0.82536000  1.0
  C  C35  1  0.74207000  0.48474000  0.17464000  1.0
  C  C36  1  0.48474000  0.74206000  0.17464000  1.0
  C  C37  1  0.25793000  0.51526000  0.82536000  1.0
  C  C38  1  0.39560000  0.39560000  0.76475000  1.0
  C  C39  1  0.60440000  0.60440000  0.23525000  1.0
  S  S40  1  0.27337000  0.27337000  0.52263000  1.0
  S  S41  1  0.72663000  0.72663000  0.47737000  1.0
  I  I42  1  0.23947000  0.76053000  0.50000000  1.0
  I  I43  1  0.76053000  0.23947000  0.50000000  1.0
  I  I44  1  0.95515000  0.95515000  0.19757000  1.0
  I  I45  1  0.04486000  0.04485000  0.80243000  1.0
  N  N46  1  0.18782000  0.44160000  0.31574000  1.0
  N  N47  1  0.55840000  0.81218000  0.68425000  1.0
  N  N48  1  0.81218000  0.55840000  0.68425000  1.0
  N  N49  1  0.44160000  0.18782000  0.31575000  1.0
