# generated using pymatgen
data_HoH4(C3O4)2
_symmetry_space_group_name_H-M   'P 1'
_cell_length_a   6.73410000
_cell_length_b   7.13838000
_cell_length_c   16.69970000
_cell_angle_alpha   90.00000000
_cell_angle_beta   90.00010000
_cell_angle_gamma   100.22700000
_symmetry_Int_Tables_number   1
_chemical_formula_structural   HoH4(C3O4)2
_chemical_formula_sum   'Ho4 H16 C24 O32'
_cell_volume   790.00973541
_cell_formula_units_Z   4
loop_
 _symmetry_equiv_pos_site_id
 _symmetry_equiv_pos_as_xyz
  1  'x, y, z'
loop_
 _atom_site_type_symbol
 _atom_site_label
 _atom_site_symmetry_multiplicity
 _atom_site_fract_x
 _atom_site_fract_y
 _atom_site_fract_z
 _atom_site_occupancy
  Ho  Ho0  1  0.46999000  0.21488000  0.58519000  1.0
  Ho  Ho1  1  0.03000000  0.78512000  0.08519000  1.0
  Ho  Ho2  1  0.53000000  0.78512000  0.41481000  1.0
  Ho  Ho3  1  0.97000000  0.21489000  0.91481000  1.0
  H  H4  1  0.21008000  0.45614000  0.68303000  1.0
  H  H5  1  0.28992000  0.54386000  0.18303000  1.0
  H  H6  1  0.78992000  0.54386000  0.31697000  1.0
  H  H7  1  0.71008000  0.45614000  0.81697000  1.0
  H  H8  1  0.17192000  0.24784000  0.72131000  1.0
  H  H9  1  0.32808000  0.75216000  0.22131000  1.0
  H  H10  1  0.82808000  0.75216000  0.27869000  1.0
  H  H11  1  0.67192000  0.24784000  0.77869000  1.0
  H  H12  1  0.13649000  0.88857000  0.62215000  1.0
  H  H13  1  0.36351000  0.11143000  0.12215000  1.0
  H  H14  1  0.86351000  0.11142000  0.37785000  1.0
  H  H15  1  0.63649000  0.88857000  0.87785000  1.0
  H  H16  1  0.03477000  0.06426000  0.58972000  1.0
  H  H17  1  0.46523000  0.93574000  0.08972000  1.0
  H  H18  1  0.96523000  0.93574000  0.41028000  1.0
  H  H19  1  0.53477000  0.06426000  0.91028000  1.0
  C  C20  1  0.58734000  0.91595000  0.69695000  1.0
  C  C21  1  0.91266000  0.08406000  0.19695000  1.0
  C  C22  1  0.41266000  0.08405000  0.30305000  1.0
  C  C23  1  0.08734000  0.91595000  0.80305000  1.0
  C  C24  1  0.58195000  0.81473000  0.62193000  1.0
  C  C25  1  0.91805000  0.18527000  0.12193000  1.0
  C  C26  1  0.41805000  0.18527000  0.37807000  1.0
  C  C27  1  0.08195000  0.81473000  0.87807000  1.0
  C  C28  1  0.62834000  0.64560000  0.66327000  1.0
  C  C29  1  0.87166000  0.35439000  0.16327000  1.0
  C  C30  1  0.37166000  0.35440000  0.33673000  1.0
  C  C31  1  0.12834000  0.64561000  0.83673000  1.0
  C  C32  1  0.63056000  0.74927000  0.74115000  1.0
  C  C33  1  0.86943000  0.25073000  0.24115000  1.0
  C  C34  1  0.36943000  0.25073000  0.25885000  1.0
  C  C35  1  0.13057000  0.74927000  0.75885000  1.0
  C  C36  1  0.92515000  0.37713000  0.52897000  1.0
  C  C37  1  0.57485000  0.62287000  0.02897000  1.0
  C  C38  1  0.07486000  0.62287000  0.47103000  1.0
  C  C39  1  0.42515000  0.37713000  0.97103000  1.0
  C  C40  1  0.13628000  0.45903000  0.51106000  1.0
  C  C41  1  0.36372000  0.54097000  0.01106000  1.0
  C  C42  1  0.86372000  0.54098000  0.48894000  1.0
  C  C43  1  0.63628000  0.45903000  0.98894000  1.0
  O  O44  1  0.54533000  0.08057000  0.70937000  1.0
  O  O45  1  0.95466000  0.91943000  0.20937000  1.0
  O  O46  1  0.45466000  0.91943000  0.29063000  1.0
  O  O47  1  0.04534000  0.08058000  0.79063000  1.0
  O  O48  1  0.53376000  0.87463000  0.55385000  1.0
  O  O49  1  0.96624000  0.12537000  0.05385000  1.0
  O  O50  1  0.46624000  0.12537000  0.44615000  1.0
  O  O51  1  0.03376000  0.87463000  0.94615000  1.0
  O  O52  1  0.64593000  0.47918000  0.64601000  1.0
  O  O53  1  0.85407000  0.52083000  0.14601000  1.0
  O  O54  1  0.35407000  0.52082000  0.35399000  1.0
  O  O55  1  0.14594000  0.47918000  0.85399000  1.0
  O  O56  1  0.64679000  0.70244000  0.81301000  1.0
  O  O57  1  0.85321000  0.29756000  0.31301000  1.0
  O  O58  1  0.35321000  0.29756000  0.18700000  1.0
  O  O59  1  0.14679000  0.70244000  0.68699000  1.0
  O  O60  1  0.82918000  0.23009000  0.56296000  1.0
  O  O61  1  0.67081000  0.76992000  0.06296000  1.0
  O  O62  1  0.17082000  0.76992000  0.43704000  1.0
  O  O63  1  0.32918000  0.23008000  0.93704000  1.0
  O  O64  1  0.30753000  0.41706000  0.52241000  1.0
  O  O65  1  0.19247000  0.58294000  0.02241000  1.0
  O  O66  1  0.69247000  0.58294000  0.47759000  1.0
  O  O67  1  0.80753000  0.41706000  0.97759000  1.0
  O  O68  1  0.25147000  0.33029000  0.68094000  1.0
  O  O69  1  0.24854000  0.66971000  0.18093000  1.0
  O  O70  1  0.74853000  0.66971000  0.31906000  1.0
  O  O71  1  0.75147000  0.33029000  0.81906000  1.0
  O  O72  1  0.15692000  0.00594000  0.58818000  1.0
  O  O73  1  0.34308000  0.99406000  0.08818000  1.0
  O  O74  1  0.84308000  0.99406000  0.41182000  1.0
  O  O75  1  0.65692000  0.00594000  0.91182000  1.0
