# generated using pymatgen
data_CdH20C26(NO3)2
_symmetry_space_group_name_H-M   'P 1'
_cell_length_a   7.39779000
_cell_length_b   9.40480000
_cell_length_c   17.65900000
_cell_angle_alpha   99.96530000
_cell_angle_beta   90.00000000
_cell_angle_gamma   113.16000000
_symmetry_Int_Tables_number   1
_chemical_formula_structural   CdH20C26(NO3)2
_chemical_formula_sum   'Cd2 H40 C52 N4 O12'
_cell_volume   1109.41626732
_cell_formula_units_Z   2
loop_
 _symmetry_equiv_pos_site_id
 _symmetry_equiv_pos_as_xyz
  1  'x, y, z'
loop_
 _atom_site_type_symbol
 _atom_site_label
 _atom_site_symmetry_multiplicity
 _atom_site_fract_x
 _atom_site_fract_y
 _atom_site_fract_z
 _atom_site_occupancy
  Cd  Cd0  1  0.48682000  0.99990000  0.75008000  1.0
  Cd  Cd1  1  0.51318000  0.00010000  0.24992000  1.0
  H  H2  1  0.78373000  0.81646000  0.72836000  1.0
  H  H3  1  0.96753000  0.18276000  0.77177000  1.0
  H  H4  1  0.21626000  0.18353000  0.27164000  1.0
  H  H5  1  0.03246000  0.81724000  0.22823000  1.0
  H  H6  1  0.74203000  0.60884000  0.48794000  1.0
  H  H7  1  0.13295000  0.39161000  0.01208000  1.0
  H  H8  1  0.25797000  0.39116000  0.51206000  1.0
  H  H9  1  0.86705000  0.60839000  0.98792000  1.0
  H  H10  1  0.49208000  0.71755000  0.46414000  1.0
  H  H11  1  0.77434000  0.28299000  0.03584000  1.0
  H  H12  1  0.50792000  0.28245000  0.53586000  1.0
  H  H13  1  0.22567000  0.71701000  0.96416000  1.0
  H  H14  1  0.40605000  0.87951000  0.57677000  1.0
  H  H15  1  0.52649000  0.12054000  0.92319000  1.0
  H  H16  1  0.59395000  0.12049000  0.42323000  1.0
  H  H17  1  0.47351000  0.87946000  0.07680000  1.0
  H  H18  1  0.06459000  0.69655000  0.59294000  1.0
  H  H19  1  0.36835000  0.30348000  0.90711000  1.0
  H  H20  1  0.93540000  0.30344000  0.40706000  1.0
  H  H21  1  0.63165000  0.69652000  0.09289000  1.0
  H  H22  1  0.98958000  0.68220000  0.68789000  1.0
  H  H23  1  0.30764000  0.31812000  0.81223000  1.0
  H  H24  1  0.01042000  0.31780000  0.31211000  1.0
  H  H25  1  0.69236000  0.68188000  0.18776000  1.0
  H  H26  1  0.74909000  0.18035000  0.56049000  1.0
  H  H27  1  0.56877000  0.81978000  0.93997000  1.0
  H  H28  1  0.25091000  0.81964000  0.43952000  1.0
  H  H29  1  0.43122000  0.18022000  0.06003000  1.0
  H  H30  1  0.94505000  0.02551000  0.58336000  1.0
  H  H31  1  0.91954000  0.97455000  0.91702000  1.0
  H  H32  1  0.05495000  0.97448000  0.41664000  1.0
  H  H33  1  0.08045000  0.02545000  0.08299000  1.0
  H  H34  1  0.41124000  0.44866000  0.70163000  1.0
  H  H35  1  0.96235000  0.55153000  0.79850000  1.0
  H  H36  1  0.58876000  0.55134000  0.29836000  1.0
  H  H37  1  0.03765000  0.44848000  0.20151000  1.0
  H  H38  1  0.22073000  0.60432000  0.68009000  1.0
  H  H39  1  0.61616000  0.39585000  0.82002000  1.0
  H  H40  1  0.77926000  0.39568000  0.31991000  1.0
  H  H41  1  0.38384000  0.60415000  0.17998000  1.0
  C  C42  1  0.72313000  0.79270000  0.66892000  1.0
  C  C43  1  0.93067000  0.20678000  0.83119000  1.0
  C  C44  1  0.27687000  0.20729000  0.33108000  1.0
  C  C45  1  0.06932000  0.79321000  0.16881000  1.0
  C  C46  1  0.78253000  0.70431000  0.61014000  1.0
  C  C47  1  0.07834000  0.29546000  0.88999000  1.0
  C  C48  1  0.21746000  0.29569000  0.38986000  1.0
  C  C49  1  0.92165000  0.70454000  0.11001000  1.0
  C  C50  1  0.69894000  0.67717000  0.53527000  1.0
  C  C51  1  0.02161000  0.32294000  0.96477000  1.0
  C  C52  1  0.30105000  0.32282000  0.46473000  1.0
  C  C53  1  0.97840000  0.67706000  0.03523000  1.0
  C  C54  1  0.56140000  0.73880000  0.52171000  1.0
  C  C55  1  0.82239000  0.26138000  0.97829000  1.0
  C  C56  1  0.43860000  0.26121000  0.47829000  1.0
  C  C57  1  0.17762000  0.73862000  0.02171000  1.0
  C  C58  1  0.51233000  0.82744000  0.58331000  1.0
  C  C59  1  0.68487000  0.17249000  0.91669000  1.0
  C  C60  1  0.48767000  0.17256000  0.41669000  1.0
  C  C61  1  0.31513000  0.82750000  0.08331000  1.0
  C  C62  1  0.93727000  0.64624000  0.62665000  1.0
  C  C63  1  0.29118000  0.35381000  0.87350000  1.0
  C  C64  1  0.06272000  0.35376000  0.37335000  1.0
  C  C65  1  0.70882000  0.64619000  0.12650000  1.0
  C  C66  1  0.97178000  0.40180000  0.61799000  1.0
  C  C67  1  0.56979000  0.59833000  0.88227000  1.0
  C  C68  1  0.02822000  0.59820000  0.38201000  1.0
  C  C69  1  0.43021000  0.40167000  0.11773000  1.0
  C  C70  1  0.89490000  0.23810000  0.59095000  1.0
  C  C71  1  0.65671000  0.76202000  0.90941000  1.0
  C  C72  1  0.10510000  0.76190000  0.40905000  1.0
  C  C73  1  0.34329000  0.23798000  0.09059000  1.0
  C  C74  1  0.00327000  0.15225000  0.60424000  1.0
  C  C75  1  0.85092000  0.84784000  0.89609000  1.0
  C  C76  1  0.99673000  0.84775000  0.39576000  1.0
  C  C77  1  0.14908000  0.15216000  0.10391000  1.0
  C  C78  1  0.18941000  0.22664000  0.64530000  1.0
  C  C79  1  0.96262000  0.77344000  0.85498000  1.0
  C  C80  1  0.81059000  0.77336000  0.35470000  1.0
  C  C81  1  0.03738000  0.22657000  0.14502000  1.0
  C  C82  1  0.26617000  0.39028000  0.67048000  1.0
  C  C83  1  0.87564000  0.60985000  0.82969000  1.0
  C  C84  1  0.73383000  0.60972000  0.32951000  1.0
  C  C85  1  0.12436000  0.39016000  0.17032000  1.0
  C  C86  1  0.15989000  0.47853000  0.65719000  1.0
  C  C87  1  0.68111000  0.52163000  0.84297000  1.0
  C  C88  1  0.84011000  0.52147000  0.34281000  1.0
  C  C89  1  0.31890000  0.47837000  0.15703000  1.0
  C  C90  1  0.29649000  0.13204000  0.66640000  1.0
  C  C91  1  0.16434000  0.86808000  0.83392000  1.0
  C  C92  1  0.70351000  0.86796000  0.33360000  1.0
  C  C93  1  0.83566000  0.13192000  0.16608000  1.0
  N  N94  1  0.59210000  0.85394000  0.65574000  1.0
  N  N95  1  0.73834000  0.14571000  0.84431000  1.0
  N  N96  1  0.40790000  0.14606000  0.34426000  1.0
  N  N97  1  0.26166000  0.85429000  0.15569000  1.0
  O  O98  1  0.85384000  0.47654000  0.60403000  1.0
  O  O99  1  0.37716000  0.52348000  0.89623000  1.0
  O  O100  1  0.14616000  0.52346000  0.39597000  1.0
  O  O101  1  0.62284000  0.47652000  0.10377000  1.0
  O  O102  1  0.46245000  0.20720000  0.70726000  1.0
  O  O103  1  0.25528000  0.79294000  0.79310000  1.0
  O  O104  1  0.53755000  0.79280000  0.29274000  1.0
  O  O105  1  0.74473000  0.20706000  0.20690000  1.0
  O  O106  1  0.21938000  0.98307000  0.64745000  1.0
  O  O107  1  0.23603000  0.01703000  0.85281000  1.0
  O  O108  1  0.78063000  0.01693000  0.35255000  1.0
  O  O109  1  0.76397000  0.98297000  0.14719000  1.0
