# generated using pymatgen
data_EuH54C57(N2O5)3
_symmetry_space_group_name_H-M   'P 1'
_cell_length_a   10.94860000
_cell_length_b   19.74530000
_cell_length_c   19.74585002
_cell_angle_alpha   60.00276420
_cell_angle_beta   89.99990001
_cell_angle_gamma   89.99980000
_symmetry_Int_Tables_number   1
_chemical_formula_structural   EuH54C57(N2O5)3
_chemical_formula_sum   'Eu2 H108 C114 N12 O30'
_cell_volume   3696.92710931
_cell_formula_units_Z   2
loop_
 _symmetry_equiv_pos_site_id
 _symmetry_equiv_pos_as_xyz
  1  'x, y, z'
loop_
 _atom_site_type_symbol
 _atom_site_label
 _atom_site_symmetry_multiplicity
 _atom_site_fract_x
 _atom_site_fract_y
 _atom_site_fract_z
 _atom_site_occupancy
  Eu  Eu0  1  0.35754000  0.33333333  0.33333333  1.0
  Eu  Eu1  1  0.64246000  0.66666667  0.66666667  1.0
  H  H2  1  0.91670000  0.52464000  0.33326000  1.0
  H  H3  1  0.91670000  0.33327000  0.14210000  1.0
  H  H4  1  0.91670000  0.14210000  0.52463000  1.0
  H  H5  1  0.08330000  0.47536000  0.66674000  1.0
  H  H6  1  0.08330000  0.66673000  0.85790000  1.0
  H  H7  1  0.08330000  0.85789000  0.47537000  1.0
  H  H8  1  0.96241000  0.66435000  0.24284000  1.0
  H  H9  1  0.96241000  0.24284000  0.09281000  1.0
  H  H10  1  0.96241000  0.09281000  0.66435000  1.0
  H  H11  1  0.03759000  0.33565000  0.75716000  1.0
  H  H12  1  0.03759000  0.75716000  0.90719000  1.0
  H  H13  1  0.03759000  0.90719000  0.33565000  1.0
  H  H14  1  0.81874000  0.74618000  0.13399000  1.0
  H  H15  1  0.81873000  0.13399000  0.11982000  1.0
  H  H16  1  0.81873000  0.11983000  0.74618000  1.0
  H  H17  1  0.18126000  0.25382000  0.86601000  1.0
  H  H18  1  0.18127000  0.86602000  0.88017000  1.0
  H  H19  1  0.18127000  0.88017000  0.25382000  1.0
  H  H20  1  0.62821000  0.68654000  0.11700000  1.0
  H  H21  1  0.62821000  0.11700000  0.19645000  1.0
  H  H22  1  0.62821000  0.19646000  0.68655000  1.0
  H  H23  1  0.37179000  0.31346000  0.88300000  1.0
  H  H24  1  0.37179000  0.88300000  0.80355000  1.0
  H  H25  1  0.37179000  0.80354000  0.31345000  1.0
  H  H26  1  0.57994000  0.54747000  0.21045000  1.0
  H  H27  1  0.57995000  0.21045000  0.24208000  1.0
  H  H28  1  0.57995000  0.24208000  0.54747000  1.0
  H  H29  1  0.42006000  0.45253000  0.78955000  1.0
  H  H30  1  0.42005000  0.78955000  0.75792000  1.0
  H  H31  1  0.42005000  0.75792000  0.45253000  1.0
  H  H32  1  0.65213000  0.41863000  0.30865000  1.0
  H  H33  1  0.65213000  0.30865000  0.27272000  1.0
  H  H34  1  0.65214000  0.27273000  0.41863000  1.0
  H  H35  1  0.34787000  0.58137000  0.69135000  1.0
  H  H36  1  0.34787000  0.69135000  0.72728000  1.0
  H  H37  1  0.34786000  0.72727000  0.58137000  1.0
  H  H38  1  0.80030000  0.40700000  0.35097000  1.0
  H  H39  1  0.80030000  0.35097000  0.24203000  1.0
  H  H40  1  0.80030000  0.24203000  0.40701000  1.0
  H  H41  1  0.19971000  0.59299000  0.64904000  1.0
  H  H42  1  0.19970000  0.64903000  0.75797000  1.0
  H  H43  1  0.19970000  0.75797000  0.59299000  1.0
  H  H44  1  0.33348000  0.35323000  0.49057000  1.0
  H  H45  1  0.33348000  0.49058000  0.15619000  1.0
  H  H46  1  0.33348000  0.15620000  0.35323000  1.0
  H  H47  1  0.66652000  0.64677000  0.50943000  1.0
  H  H48  1  0.66652000  0.50942000  0.84381000  1.0
  H  H49  1  0.66652000  0.84380000  0.64677000  1.0
  H  H50  1  0.24442000  0.32966000  0.61658000  1.0
  H  H51  1  0.24442000  0.61658000  0.05376000  1.0
  H  H52  1  0.24442000  0.05376000  0.32966000  1.0
  H  H53  1  0.75558000  0.67034000  0.38342000  1.0
  H  H54  1  0.75558000  0.38342000  0.94624000  1.0
  H  H55  1  0.75558000  0.94624000  0.67034000  1.0
  H  H56  1  0.37316000  0.35305000  0.70737000  1.0
  H  H57  1  0.37315000  0.70737000  0.93958000  1.0
  H  H58  1  0.37315000  0.93957000  0.35305000  1.0
  H  H59  1  0.62684000  0.64695000  0.29263000  1.0
  H  H60  1  0.62685000  0.29263000  0.06042000  1.0
  H  H61  1  0.62685000  0.06043000  0.64695000  1.0
  H  H62  1  0.58247000  0.40529000  0.66965000  1.0
  H  H63  1  0.58247000  0.66964000  0.92507000  1.0
  H  H64  1  0.58247000  0.92506000  0.40529000  1.0
  H  H65  1  0.41753000  0.59471000  0.33035000  1.0
  H  H66  1  0.41753000  0.33036000  0.07493000  1.0
  H  H67  1  0.41753000  0.07494000  0.59471000  1.0
  H  H68  1  0.78547000  0.38122000  0.64093000  1.0
  H  H69  1  0.78547000  0.64094000  0.97785000  1.0
  H  H70  1  0.78547000  0.97784000  0.38122000  1.0
  H  H71  1  0.21453000  0.61878000  0.35907000  1.0
  H  H72  1  0.21453000  0.35906000  0.02215000  1.0
  H  H73  1  0.21453000  0.02216000  0.61878000  1.0
  H  H74  1  0.74191000  0.48032000  0.60792000  1.0
  H  H75  1  0.74191000  0.60791000  0.91177000  1.0
  H  H76  1  0.74191000  0.91176000  0.48032000  1.0
  H  H77  1  0.25809000  0.51968000  0.39208000  1.0
  H  H78  1  0.25809000  0.39209000  0.08823000  1.0
  H  H79  1  0.25809000  0.08824000  0.51968000  1.0
  H  H80  1  0.87482000  0.58239000  0.53471000  1.0
  H  H81  1  0.87483000  0.53470000  0.88291000  1.0
  H  H82  1  0.87482000  0.88290000  0.58239000  1.0
  H  H83  1  0.12518000  0.41761000  0.46529000  1.0
  H  H84  1  0.12517000  0.46530000  0.11709000  1.0
  H  H85  1  0.12518000  0.11710000  0.41761000  1.0
  H  H86  1  0.99922000  0.30986000  0.53387000  1.0
  H  H87  1  0.99921000  0.53387000  0.15627000  1.0
  H  H88  1  0.99922000  0.15627000  0.30986000  1.0
  H  H89  1  0.00078000  0.69014000  0.46613000  1.0
  H  H90  1  0.00079000  0.46613000  0.84373000  1.0
  H  H91  1  0.00078000  0.84373000  0.69014000  1.0
  H  H92  1  0.84154000  0.33249000  0.53190000  1.0
  H  H93  1  0.84154000  0.53190000  0.13561000  1.0
  H  H94  1  0.84155000  0.13560000  0.33250000  1.0
  H  H95  1  0.15846000  0.66751000  0.46810000  1.0
  H  H96  1  0.15846000  0.46810000  0.86439000  1.0
  H  H97  1  0.15846000  0.86439000  0.66750000  1.0
  H  H98  1  0.92688000  0.30271000  0.61756000  1.0
  H  H99  1  0.92688000  0.61756000  0.07973000  1.0
  H  H100  1  0.92689000  0.07972000  0.30272000  1.0
  H  H101  1  0.07312000  0.69729000  0.38244000  1.0
  H  H102  1  0.07312000  0.38244000  0.92027000  1.0
  H  H103  1  0.07312000  0.92028000  0.69728000  1.0
  H  H104  1  0.70113000  0.45702000  0.43474000  1.0
  H  H105  1  0.70113000  0.43474000  0.10825000  1.0
  H  H106  1  0.70112000  0.10824000  0.45702000  1.0
  H  H107  1  0.29887000  0.54298000  0.56526000  1.0
  H  H108  1  0.29887000  0.56526000  0.89175000  1.0
  H  H109  1  0.29888000  0.89176000  0.54298000  1.0
  C  C110  1  0.85248000  0.56035000  0.28648000  1.0
  C  C111  1  0.85249000  0.28647000  0.15318000  1.0
  C  C112  1  0.85249000  0.15317000  0.56035000  1.0
  C  C113  1  0.14752000  0.43965000  0.71352000  1.0
  C  C114  1  0.14751000  0.71353000  0.84682000  1.0
  C  C115  1  0.14751000  0.84683000  0.43965000  1.0
  C  C116  1  0.87838000  0.63913000  0.23535000  1.0
  C  C117  1  0.87838000  0.23535000  0.12552000  1.0
  C  C118  1  0.87838000  0.12552000  0.63913000  1.0
  C  C119  1  0.12162000  0.36087000  0.76465000  1.0
  C  C120  1  0.12162000  0.76465000  0.87448000  1.0
  C  C121  1  0.12162000  0.87448000  0.36087000  1.0
  C  C122  1  0.79803000  0.68476000  0.17423000  1.0
  C  C123  1  0.79803000  0.17423000  0.14101000  1.0
  C  C124  1  0.79803000  0.14101000  0.68476000  1.0
  C  C125  1  0.20197000  0.31525000  0.82576000  1.0
  C  C126  1  0.20197000  0.82577000  0.85899000  1.0
  C  C127  1  0.20197000  0.85899000  0.31524000  1.0
  C  C128  1  0.69129000  0.65147000  0.16467000  1.0
  C  C129  1  0.69129000  0.16466000  0.18386000  1.0
  C  C130  1  0.69129000  0.18386000  0.65147000  1.0
  C  C131  1  0.30871000  0.34853000  0.83533000  1.0
  C  C132  1  0.30871000  0.83534000  0.81614000  1.0
  C  C133  1  0.30871000  0.81614000  0.34853000  1.0
  C  C134  1  0.66457000  0.57297000  0.21670000  1.0
  C  C135  1  0.66457000  0.21670000  0.21033000  1.0
  C  C136  1  0.66457000  0.21034000  0.57297000  1.0
  C  C137  1  0.33543000  0.42703000  0.78330000  1.0
  C  C138  1  0.33543000  0.78330000  0.78967000  1.0
  C  C139  1  0.33543000  0.78966000  0.42703000  1.0
  C  C140  1  0.74532000  0.52682000  0.27763000  1.0
  C  C141  1  0.74532000  0.27763000  0.19556000  1.0
  C  C142  1  0.74532000  0.19556000  0.52681000  1.0
  C  C143  1  0.25468000  0.47318000  0.72237000  1.0
  C  C144  1  0.25468000  0.72237000  0.80444000  1.0
  C  C145  1  0.25468000  0.80444000  0.47319000  1.0
  C  C146  1  0.71582000  0.44216000  0.33449000  1.0
  C  C147  1  0.71582000  0.33450000  0.22335000  1.0
  C  C148  1  0.71582000  0.22336000  0.44215000  1.0
  C  C149  1  0.28418000  0.55784000  0.66551000  1.0
  C  C150  1  0.28418000  0.66550000  0.77665000  1.0
  C  C151  1  0.28418000  0.77664000  0.55785000  1.0
  C  C152  1  0.55395000  0.39551000  0.43576000  1.0
  C  C153  1  0.55395000  0.43576000  0.16873000  1.0
  C  C154  1  0.55396000  0.16873000  0.39551000  1.0
  C  C155  1  0.44604000  0.60449000  0.56424000  1.0
  C  C156  1  0.44605000  0.56424000  0.83127000  1.0
  C  C157  1  0.44604000  0.83127000  0.60449000  1.0
  C  C158  1  0.50732000  0.39049000  0.50873000  1.0
  C  C159  1  0.50732000  0.50873000  0.10078000  1.0
  C  C160  1  0.50732000  0.10078000  0.39049000  1.0
  C  C161  1  0.49268000  0.60951000  0.49127000  1.0
  C  C162  1  0.49268000  0.49127000  0.89922000  1.0
  C  C163  1  0.49268000  0.89922000  0.60951000  1.0
  C  C164  1  0.38745000  0.36335000  0.53087000  1.0
  C  C165  1  0.38745000  0.53087000  0.10578000  1.0
  C  C166  1  0.38745000  0.10577000  0.36335000  1.0
  C  C167  1  0.61255000  0.63665000  0.46913000  1.0
  C  C168  1  0.61255000  0.46913000  0.89422000  1.0
  C  C169  1  0.61255000  0.89423000  0.63665000  1.0
  C  C170  1  0.33816000  0.35020000  0.60125000  1.0
  C  C171  1  0.33815000  0.60125000  0.04855000  1.0
  C  C172  1  0.33816000  0.04855000  0.35020000  1.0
  C  C173  1  0.66184000  0.64980000  0.39875000  1.0
  C  C174  1  0.66185000  0.39875000  0.95145000  1.0
  C  C175  1  0.66184000  0.95145000  0.64980000  1.0
  C  C176  1  0.41008000  0.36379000  0.65167000  1.0
  C  C177  1  0.41008000  0.65167000  0.98455000  1.0
  C  C178  1  0.41008000  0.98454000  0.36378000  1.0
  C  C179  1  0.58992000  0.63621000  0.34833000  1.0
  C  C180  1  0.58992000  0.34833000  0.01545000  1.0
  C  C181  1  0.58992000  0.01546000  0.63622000  1.0
  C  C182  1  0.52880000  0.39247000  0.63096000  1.0
  C  C183  1  0.52879000  0.63095000  0.97658000  1.0
  C  C184  1  0.52879000  0.97657000  0.39247000  1.0
  C  C185  1  0.47120000  0.60753000  0.36904000  1.0
  C  C186  1  0.47121000  0.36905000  0.02342000  1.0
  C  C187  1  0.47121000  0.02343000  0.60753000  1.0
  C  C188  1  0.57745000  0.40670000  0.55943000  1.0
  C  C189  1  0.57745000  0.55943000  0.03387000  1.0
  C  C190  1  0.57745000  0.03386000  0.40671000  1.0
  C  C191  1  0.42255000  0.59330000  0.44057000  1.0
  C  C192  1  0.42255000  0.44058000  0.96613000  1.0
  C  C193  1  0.42255000  0.96614000  0.59329000  1.0
  C  C194  1  0.77715000  0.44014000  0.58935000  1.0
  C  C195  1  0.77715000  0.58935000  0.97052000  1.0
  C  C196  1  0.77715000  0.97052000  0.44013000  1.0
  C  C197  1  0.22284000  0.55986000  0.41065000  1.0
  C  C198  1  0.22285000  0.41065000  0.02948000  1.0
  C  C199  1  0.22285000  0.02948000  0.55987000  1.0
  C  C200  1  0.89451000  0.46909000  0.54508000  1.0
  C  C201  1  0.89450000  0.54508000  0.98583000  1.0
  C  C202  1  0.89451000  0.98583000  0.46909000  1.0
  C  C203  1  0.10549000  0.53091000  0.45492000  1.0
  C  C204  1  0.10550000  0.45492000  0.01417000  1.0
  C  C205  1  0.10549000  0.01417000  0.53091000  1.0
  C  C206  1  0.93025000  0.54621000  0.51916000  1.0
  C  C207  1  0.93025000  0.51916000  0.93464000  1.0
  C  C208  1  0.93025000  0.93464000  0.54620000  1.0
  C  C209  1  0.06975000  0.45379000  0.48084000  1.0
  C  C210  1  0.06975000  0.48084000  0.06536000  1.0
  C  C211  1  0.06975000  0.06536000  0.45380000  1.0
  C  C212  1  0.96492000  0.42112000  0.52608000  1.0
  C  C213  1  0.96492000  0.52608000  0.05280000  1.0
  C  C214  1  0.96492000  0.05279000  0.42113000  1.0
  C  C215  1  0.03508000  0.57888000  0.47392000  1.0
  C  C216  1  0.03508000  0.47392000  0.94720000  1.0
  C  C217  1  0.03508000  0.94721000  0.57887000  1.0
  C  C218  1  0.93178000  0.33754000  0.55332000  1.0
  C  C219  1  0.93177000  0.55333000  0.10914000  1.0
  C  C220  1  0.93178000  0.10914000  0.33754000  1.0
  C  C221  1  0.06822000  0.66246000  0.44668000  1.0
  C  C222  1  0.06823000  0.44667000  0.89086000  1.0
  C  C223  1  0.06822000  0.89086000  0.66246000  1.0
  N  N224  1  0.65857000  0.43378000  0.40494000  1.0
  N  N225  1  0.65857000  0.40494000  0.16128000  1.0
  N  N226  1  0.65857000  0.16128000  0.43378000  1.0
  N  N227  1  0.34143000  0.56622000  0.59506000  1.0
  N  N228  1  0.34143000  0.59506000  0.83872000  1.0
  N  N229  1  0.34143000  0.83872000  0.56622000  1.0
  N  N230  1  0.21933000  0.24641000  0.48012000  1.0
  N  N231  1  0.21932000  0.48013000  0.27347000  1.0
  N  N232  1  0.21932000  0.27347000  0.24640000  1.0
  N  N233  1  0.78067000  0.75359000  0.51988000  1.0
  N  N234  1  0.78068000  0.51987000  0.72653000  1.0
  N  N235  1  0.78068000  0.72653000  0.75360000  1.0
  O  O236  1  0.49694000  0.36167000  0.40512000  1.0
  O  O237  1  0.49694000  0.40513000  0.23321000  1.0
  O  O238  1  0.49695000  0.23322000  0.36166000  1.0
  O  O239  1  0.50305000  0.63833000  0.59488000  1.0
  O  O240  1  0.50306000  0.59487000  0.76679000  1.0
  O  O241  1  0.50305000  0.76678000  0.63834000  1.0
  O  O242  1  0.69167000  0.43585000  0.53516000  1.0
  O  O243  1  0.69167000  0.53516000  0.02899000  1.0
  O  O244  1  0.69167000  0.02899000  0.43586000  1.0
  O  O245  1  0.30833000  0.56415000  0.46484000  1.0
  O  O246  1  0.30833000  0.46484000  0.97101000  1.0
  O  O247  1  0.30833000  0.97101000  0.56414000  1.0
  O  O248  1  0.19136000  0.31711000  0.42803000  1.0
  O  O249  1  0.19136000  0.42802000  0.25486000  1.0
  O  O250  1  0.19136000  0.25486000  0.31711000  1.0
  O  O251  1  0.80864000  0.68289000  0.57197000  1.0
  O  O252  1  0.80864000  0.57198000  0.74514000  1.0
  O  O253  1  0.80864000  0.74514000  0.68289000  1.0
  O  O254  1  0.31625000  0.21852000  0.46589000  1.0
  O  O255  1  0.31625000  0.46589000  0.31559000  1.0
  O  O256  1  0.31625000  0.31558000  0.21852000  1.0
  O  O257  1  0.68375000  0.78148000  0.53411000  1.0
  O  O258  1  0.68375000  0.53411000  0.68441000  1.0
  O  O259  1  0.68375000  0.68442000  0.78148000  1.0
  O  O260  1  0.15790000  0.20817000  0.53977000  1.0
  O  O261  1  0.15790000  0.53978000  0.25206000  1.0
  O  O262  1  0.15789000  0.25205000  0.20817000  1.0
  O  O263  1  0.84210000  0.79183000  0.46023000  1.0
  O  O264  1  0.84210000  0.46023000  0.74794000  1.0
  O  O265  1  0.84211000  0.74794000  0.79184000  1.0
