# generated using pymatgen
data_CoH20C25(N3O2)2
_symmetry_space_group_name_H-M   'P 1'
_cell_length_a   11.88330000
_cell_length_b   13.33180000
_cell_length_c   15.58350000
_cell_angle_alpha   92.61110000
_cell_angle_beta   90.00000000
_cell_angle_gamma   89.99990000
_symmetry_Int_Tables_number   1
_chemical_formula_structural   CoH20C25(N3O2)2
_chemical_formula_sum   'Co4 H80 C100 N24 O16'
_cell_volume   2466.26489691
_cell_formula_units_Z   4
loop_
 _symmetry_equiv_pos_site_id
 _symmetry_equiv_pos_as_xyz
  1  'x, y, z'
loop_
 _atom_site_type_symbol
 _atom_site_label
 _atom_site_symmetry_multiplicity
 _atom_site_fract_x
 _atom_site_fract_y
 _atom_site_fract_z
 _atom_site_occupancy
  Co  Co0  1  0.67524000  0.05639000  0.10464000  1.0
  Co  Co1  1  0.67524000  0.44361000  0.39536000  1.0
  Co  Co2  1  0.32476000  0.94361000  0.89536000  1.0
  Co  Co3  1  0.32476000  0.55639000  0.60464000  1.0
  H  H4  1  0.97940000  0.73701000  0.90250000  1.0
  H  H5  1  0.97940000  0.76299000  0.59751000  1.0
  H  H6  1  0.02060000  0.26299000  0.09750000  1.0
  H  H7  1  0.02060000  0.23701000  0.40249000  1.0
  H  H8  1  0.62286000  0.69498000  0.86827000  1.0
  H  H9  1  0.62286000  0.80503000  0.63173000  1.0
  H  H10  1  0.37714000  0.30503000  0.13173000  1.0
  H  H11  1  0.37714000  0.19497000  0.36827000  1.0
  H  H12  1  0.85721000  0.53909000  0.69713000  1.0
  H  H13  1  0.85721000  0.96091000  0.80287000  1.0
  H  H14  1  0.14279000  0.46091000  0.30287000  1.0
  H  H15  1  0.14279000  0.03909000  0.19713000  1.0
  H  H16  1  0.04561000  0.56691000  0.62819000  1.0
  H  H17  1  0.04560000  0.93309000  0.87181000  1.0
  H  H18  1  0.95439000  0.43309000  0.37181000  1.0
  H  H19  1  0.95439000  0.06691000  0.12819000  1.0
  H  H20  1  0.31681000  0.64133000  0.79494000  1.0
  H  H21  1  0.31681000  0.85867000  0.70506000  1.0
  H  H22  1  0.68319000  0.35867000  0.20506000  1.0
  H  H23  1  0.68319000  0.14133000  0.29494000  1.0
  H  H24  1  0.63106000  0.88898000  0.94245000  1.0
  H  H25  1  0.63105000  0.61102000  0.55755000  1.0
  H  H26  1  0.36895000  0.11102000  0.05755000  1.0
  H  H27  1  0.36894000  0.38898000  0.44245000  1.0
  H  H28  1  0.86257000  0.89993000  0.14815000  1.0
  H  H29  1  0.86257000  0.60007000  0.35186000  1.0
  H  H30  1  0.13743000  0.10007000  0.85185000  1.0
  H  H31  1  0.13743000  0.39993000  0.64815000  1.0
  H  H32  1  0.49032000  0.67026000  0.74161000  1.0
  H  H33  1  0.49032000  0.82974000  0.75840000  1.0
  H  H34  1  0.50968000  0.32974000  0.25839000  1.0
  H  H35  1  0.50968000  0.17026000  0.24160000  1.0
  H  H36  1  0.52194000  0.39171000  0.60398000  1.0
  H  H37  1  0.52194000  0.10830000  0.89602000  1.0
  H  H38  1  0.47806000  0.60830000  0.39602000  1.0
  H  H39  1  0.47806000  0.89171000  0.10398000  1.0
  H  H40  1  0.48433000  0.42545000  0.09308000  1.0
  H  H41  1  0.48433000  0.07454000  0.40691000  1.0
  H  H42  1  0.51567000  0.57455000  0.90692000  1.0
  H  H43  1  0.51567000  0.92545000  0.59309000  1.0
  H  H44  1  0.53721000  0.58199000  0.17452000  1.0
  H  H45  1  0.53721000  0.91801000  0.32548000  1.0
  H  H46  1  0.46279000  0.41801000  0.82548000  1.0
  H  H47  1  0.46279000  0.08199000  0.67452000  1.0
  H  H48  1  0.72509000  0.66092000  0.14824000  1.0
  H  H49  1  0.72510000  0.83907000  0.35176000  1.0
  H  H50  1  0.27491000  0.33908000  0.85175000  1.0
  H  H51  1  0.27490000  0.16092000  0.64825000  1.0
  H  H52  1  0.85307000  0.58294000  0.03947000  1.0
  H  H53  1  0.85307000  0.91706000  0.46053000  1.0
  H  H54  1  0.14693000  0.41706000  0.96053000  1.0
  H  H55  1  0.14693000  0.08293000  0.53947000  1.0
  H  H56  1  0.64987000  0.29607000  0.92022000  1.0
  H  H57  1  0.64986000  0.20393000  0.57978000  1.0
  H  H58  1  0.35013000  0.70393000  0.07978000  1.0
  H  H59  1  0.35013000  0.79607000  0.42022000  1.0
  H  H60  1  0.51480000  0.31307000  0.96687000  1.0
  H  H61  1  0.51479000  0.18693000  0.53312000  1.0
  H  H62  1  0.48520000  0.68693000  0.03312000  1.0
  H  H63  1  0.48520000  0.81307000  0.46687000  1.0
  H  H64  1  0.87923000  0.47933000  0.91663000  1.0
  H  H65  1  0.87923000  0.02068000  0.58337000  1.0
  H  H66  1  0.12077000  0.52067000  0.08337000  1.0
  H  H67  1  0.12077000  0.97932000  0.41663000  1.0
  H  H68  1  0.77774000  0.39369000  0.87772000  1.0
  H  H69  1  0.77773000  0.10632000  0.62228000  1.0
  H  H70  1  0.22227000  0.60631000  0.12227000  1.0
  H  H71  1  0.22226000  0.89369000  0.37773000  1.0
  H  H72  1  0.92704000  0.75385000  0.05007000  1.0
  H  H73  1  0.92704000  0.74615000  0.44993000  1.0
  H  H74  1  0.07296000  0.24616000  0.94993000  1.0
  H  H75  1  0.07296000  0.25385000  0.55007000  1.0
  H  H76  1  0.14101000  0.67322000  0.88101000  1.0
  H  H77  1  0.14101000  0.82678000  0.61899000  1.0
  H  H78  1  0.85899000  0.32678000  0.11899000  1.0
  H  H79  1  0.85899000  0.17322000  0.38101000  1.0
  H  H80  1  0.70830000  0.42879000  0.67682000  1.0
  H  H81  1  0.70830000  0.07121000  0.82318000  1.0
  H  H82  1  0.29170000  0.57122000  0.32318000  1.0
  H  H83  1  0.29170000  0.92879000  0.17682000  1.0
  C  C84  1  0.93183000  0.63526000  0.79678000  1.0
  C  C85  1  0.93183000  0.86474000  0.70322000  1.0
  C  C86  1  0.06817000  0.36474000  0.20322000  1.0
  C  C87  1  0.06817000  0.13526000  0.29678000  1.0
  C  C88  1  0.90974000  0.70026000  0.86812000  1.0
  C  C89  1  0.90973000  0.79975000  0.63189000  1.0
  C  C90  1  0.09027000  0.29975000  0.13189000  1.0
  C  C91  1  0.09026000  0.20026000  0.36811000  1.0
  C  C92  1  0.79920000  0.72246000  0.89402000  1.0
  C  C93  1  0.79920000  0.77754000  0.60598000  1.0
  C  C94  1  0.20080000  0.27754000  0.10598000  1.0
  C  C95  1  0.20080000  0.22246000  0.39402000  1.0
  C  C96  1  0.70912000  0.67810000  0.84858000  1.0
  C  C97  1  0.70911000  0.82190000  0.65143000  1.0
  C  C98  1  0.29089000  0.32191000  0.15142000  1.0
  C  C99  1  0.29088000  0.17810000  0.34858000  1.0
  C  C100  1  0.72998000  0.61038000  0.77857000  1.0
  C  C101  1  0.72998000  0.88962000  0.72143000  1.0
  C  C102  1  0.27002000  0.38963000  0.22143000  1.0
  C  C103  1  0.27002000  0.11038000  0.27857000  1.0
  C  C104  1  0.84089000  0.58929000  0.75306000  1.0
  C  C105  1  0.84089000  0.91072000  0.74695000  1.0
  C  C106  1  0.15911000  0.41071000  0.24695000  1.0
  C  C107  1  0.15911000  0.08928000  0.25305000  1.0
  C  C108  1  0.04690000  0.62092000  0.76619000  1.0
  C  C109  1  0.04690000  0.87908000  0.73381000  1.0
  C  C110  1  0.95310000  0.37908000  0.23381000  1.0
  C  C111  1  0.95310000  0.12092000  0.26619000  1.0
  C  C112  1  0.09003000  0.58852000  0.68694000  1.0
  C  C113  1  0.09003000  0.91148000  0.81306000  1.0
  C  C114  1  0.90997000  0.41147000  0.31306000  1.0
  C  C115  1  0.90997000  0.08852000  0.18694000  1.0
  C  C116  1  0.23311000  0.62780000  0.76947000  1.0
  C  C117  1  0.23311000  0.87220000  0.73053000  1.0
  C  C118  1  0.76689000  0.37220000  0.23053000  1.0
  C  C119  1  0.76689000  0.12780000  0.26947000  1.0
  C  C120  1  0.78161000  0.79412000  0.96666000  1.0
  C  C121  1  0.78161000  0.70588000  0.53334000  1.0
  C  C122  1  0.21839000  0.20588000  0.03334000  1.0
  C  C123  1  0.21839000  0.29412000  0.46666000  1.0
  C  C124  1  0.70224000  0.86915000  0.98173000  1.0
  C  C125  1  0.70223000  0.63085000  0.51827000  1.0
  C  C126  1  0.29777000  0.13085000  0.01827000  1.0
  C  C127  1  0.29776000  0.36915000  0.48173000  1.0
  C  C128  1  0.82098000  0.87813000  0.08823000  1.0
  C  C129  1  0.82098000  0.62187000  0.41178000  1.0
  C  C130  1  0.17902000  0.12187000  0.91178000  1.0
  C  C131  1  0.17902000  0.37813000  0.58822000  1.0
  C  C132  1  0.63549000  0.56507000  0.73151000  1.0
  C  C133  1  0.63549000  0.93493000  0.76849000  1.0
  C  C134  1  0.36451000  0.43494000  0.26849000  1.0
  C  C135  1  0.36452000  0.06507000  0.23151000  1.0
  C  C136  1  0.52814000  0.60057000  0.71813000  1.0
  C  C137  1  0.52814000  0.89943000  0.78187000  1.0
  C  C138  1  0.47186000  0.39943000  0.28187000  1.0
  C  C139  1  0.47186000  0.10057000  0.21813000  1.0
  C  C140  1  0.53931000  0.45653000  0.64615000  1.0
  C  C141  1  0.53931000  0.04347000  0.85385000  1.0
  C  C142  1  0.46070000  0.54347000  0.35385000  1.0
  C  C143  1  0.46070000  0.95653000  0.14615000  1.0
  C  C144  1  0.56611000  0.45948000  0.08214000  1.0
  C  C145  1  0.56611000  0.04051000  0.41786000  1.0
  C  C146  1  0.43389000  0.54052000  0.91786000  1.0
  C  C147  1  0.43389000  0.95948000  0.58214000  1.0
  C  C148  1  0.59550000  0.54802000  0.12757000  1.0
  C  C149  1  0.59550000  0.95197000  0.37243000  1.0
  C  C150  1  0.40450000  0.45197000  0.87243000  1.0
  C  C151  1  0.40450000  0.04802000  0.62758000  1.0
  C  C152  1  0.69982000  0.59217000  0.11269000  1.0
  C  C153  1  0.69982000  0.90783000  0.38730000  1.0
  C  C154  1  0.30018000  0.40783000  0.88730000  1.0
  C  C155  1  0.30018000  0.09216000  0.61270000  1.0
  C  C156  1  0.77163000  0.54829000  0.05100000  1.0
  C  C157  1  0.77163000  0.95171000  0.44900000  1.0
  C  C158  1  0.22837000  0.45171000  0.94900000  1.0
  C  C159  1  0.22837000  0.04829000  0.55100000  1.0
  C  C160  1  0.74242000  0.45978000  0.00401000  1.0
  C  C161  1  0.74242000  0.04022000  0.49599000  1.0
  C  C162  1  0.25758000  0.54022000  0.99599000  1.0
  C  C163  1  0.25758000  0.95977000  0.50401000  1.0
  C  C164  1  0.63903000  0.41323000  0.02177000  1.0
  C  C165  1  0.63903000  0.08677000  0.47823000  1.0
  C  C166  1  0.36097000  0.58677000  0.97823000  1.0
  C  C167  1  0.36096000  0.91323000  0.52177000  1.0
  C  C168  1  0.60584000  0.31302000  0.98096000  1.0
  C  C169  1  0.60583000  0.18697000  0.51904000  1.0
  C  C170  1  0.39416000  0.68697000  0.01904000  1.0
  C  C171  1  0.39416000  0.81302000  0.48096000  1.0
  C  C172  1  0.62619000  0.22676000  0.04023000  1.0
  C  C173  1  0.62619000  0.27323000  0.45977000  1.0
  C  C174  1  0.37381000  0.77324000  0.95978000  1.0
  C  C175  1  0.37381000  0.72676000  0.54023000  1.0
  C  C176  1  0.82302000  0.41933000  0.93646000  1.0
  C  C177  1  0.82301000  0.08068000  0.56354000  1.0
  C  C178  1  0.17698000  0.58067000  0.06354000  1.0
  C  C179  1  0.17698000  0.91933000  0.43646000  1.0
  C  C180  1  0.89728000  0.33057000  0.96108000  1.0
  C  C181  1  0.89728000  0.16943000  0.53892000  1.0
  C  C182  1  0.10272000  0.66943000  0.03892000  1.0
  C  C183  1  0.10271000  0.83057000  0.46108000  1.0
  N  N184  1  0.72856000  0.92225000  0.05743000  1.0
  N  N185  1  0.72856000  0.57775000  0.44258000  1.0
  N  N186  1  0.27144000  0.07775000  0.94258000  1.0
  N  N187  1  0.27144000  0.42225000  0.55742000  1.0
  N  N188  1  0.85579000  0.80230000  0.03515000  1.0
  N  N189  1  0.85579000  0.69770000  0.46485000  1.0
  N  N190  1  0.14421000  0.19770000  0.96485000  1.0
  N  N191  1  0.14420000  0.30230000  0.53515000  1.0
  N  N192  1  0.14006000  0.64575000  0.81622000  1.0
  N  N193  1  0.14006000  0.85425000  0.68379000  1.0
  N  N194  1  0.85994000  0.35425000  0.18379000  1.0
  N  N195  1  0.85994000  0.14575000  0.31622000  1.0
  N  N196  1  0.20627000  0.59282000  0.69004000  1.0
  N  N197  1  0.20626000  0.90717000  0.80996000  1.0
  N  N198  1  0.79374000  0.40717000  0.30996000  1.0
  N  N199  1  0.79373000  0.09282000  0.19004000  1.0
  N  N200  1  0.63982000  0.47357000  0.68510000  1.0
  N  N201  1  0.63981000  0.02643000  0.81490000  1.0
  N  N202  1  0.36019000  0.52643000  0.31490000  1.0
  N  N203  1  0.36019000  0.97357000  0.18510000  1.0
  N  N204  1  0.46999000  0.53324000  0.66462000  1.0
  N  N205  1  0.46998000  0.96676000  0.83538000  1.0
  N  N206  1  0.53002000  0.46676000  0.33537000  1.0
  N  N207  1  0.53002000  0.03324000  0.16462000  1.0
  O  O208  1  0.61145000  0.23729000  0.11980000  1.0
  O  O209  1  0.61145000  0.26270000  0.38020000  1.0
  O  O210  1  0.38854000  0.76270000  0.88020000  1.0
  O  O211  1  0.38854000  0.73730000  0.61980000  1.0
  O  O212  1  0.65470000  0.14034000  0.00461000  1.0
  O  O213  1  0.65470000  0.35966000  0.49538000  1.0
  O  O214  1  0.34529000  0.85966000  0.99539000  1.0
  O  O215  1  0.34530000  0.64034000  0.50461000  1.0
  O  O216  1  0.86811000  0.27786000  0.02312000  1.0
  O  O217  1  0.86811000  0.22214000  0.47687000  1.0
  O  O218  1  0.13189000  0.72214000  0.97688000  1.0
  O  O219  1  0.13189000  0.77786000  0.52312000  1.0
  O  O220  1  0.98481000  0.31555000  0.91516000  1.0
  O  O221  1  0.98481000  0.18445000  0.58484000  1.0
  O  O222  1  0.01519000  0.68445000  0.08484000  1.0
  O  O223  1  0.01519000  0.81555000  0.41516000  1.0
