# generated using pymatgen
data_CdH20C22(NO)4
_symmetry_space_group_name_H-M   'P 1'
_cell_length_a   8.54659000
_cell_length_b   10.32750000
_cell_length_c   11.65430000
_cell_angle_alpha   85.68680000
_cell_angle_beta   88.13140000
_cell_angle_gamma   85.59740000
_symmetry_Int_Tables_number   1
_chemical_formula_structural   CdH20C22(NO)4
_chemical_formula_sum   'Cd2 H40 C44 N8 O8'
_cell_volume   1022.35307400
_cell_formula_units_Z   2
loop_
 _symmetry_equiv_pos_site_id
 _symmetry_equiv_pos_as_xyz
  1  'x, y, z'
loop_
 _atom_site_type_symbol
 _atom_site_label
 _atom_site_symmetry_multiplicity
 _atom_site_fract_x
 _atom_site_fract_y
 _atom_site_fract_z
 _atom_site_occupancy
  Cd  Cd0  1  0.74901000  0.76071000  0.26048000  1.0
  Cd  Cd1  1  0.25099000  0.23929000  0.73952000  1.0
  H  H2  1  0.51321000  0.50681000  0.23080000  1.0
  H  H3  1  0.48679000  0.49318000  0.76921000  1.0
  H  H4  1  0.13903000  0.55081000  0.57368000  1.0
  H  H5  1  0.86097000  0.44919000  0.42632000  1.0
  H  H6  1  0.16792000  0.73094000  0.69915000  1.0
  H  H7  1  0.83208000  0.26906000  0.30085000  1.0
  H  H8  1  0.36381000  0.89184000  0.65432000  1.0
  H  H9  1  0.63619000  0.10816000  0.34568000  1.0
  H  H10  1  0.55293000  0.87098000  0.48642000  1.0
  H  H11  1  0.44707000  0.12902000  0.51358000  1.0
  H  H12  1  0.12594000  0.46091000  0.34903000  1.0
  H  H13  1  0.87406000  0.53909000  0.65097000  1.0
  H  H14  1  0.25141000  0.35444000  0.43962000  1.0
  H  H15  1  0.74858000  0.64556000  0.56038000  1.0
  H  H16  1  0.42145000  0.30659000  0.26226000  1.0
  H  H17  1  0.57856000  0.69341000  0.73775000  1.0
  H  H18  1  0.28076000  0.40135000  0.17628000  1.0
  H  H19  1  0.71924000  0.59865000  0.82372000  1.0
  H  H20  1  0.21579000  0.16176000  0.33838000  1.0
  H  H21  1  0.78421000  0.83824000  0.66162000  1.0
  H  H22  1  0.07338000  0.25428000  0.25644000  1.0
  H  H23  1  0.92662000  0.74572000  0.74357000  1.0
  H  H24  1  0.15668000  0.05672000  0.16202000  1.0
  H  H25  1  0.84332000  0.94329000  0.83798000  1.0
  H  H26  1  0.20940000  0.19539000  0.07269000  1.0
  H  H27  1  0.79060000  0.80461000  0.92731000  1.0
  H  H28  1  0.37020000  0.90418000  0.25217000  1.0
  H  H29  1  0.62980000  0.09582000  0.74783000  1.0
  H  H30  1  0.43651000  0.31554000  0.99711000  1.0
  H  H31  1  0.56350000  0.68446000  0.00289000  1.0
  H  H32  1  0.70632000  0.35707000  0.91930000  1.0
  H  H33  1  0.29368000  0.64293000  0.08070000  1.0
  H  H34  1  0.93392000  0.20362000  0.96492000  1.0
  H  H35  1  0.06608000  0.79638000  0.03508000  1.0
  H  H36  1  0.90371000  0.00087000  0.09531000  1.0
  H  H37  1  0.09629000  0.99913000  0.90469000  1.0
  H  H38  1  0.02717000  0.38764000  0.09328000  1.0
  H  H39  1  0.97283000  0.61236000  0.90672000  1.0
  H  H40  1  0.15859000  0.97872000  0.43498000  1.0
  H  H41  1  0.84142000  0.02127000  0.56502000  1.0
  C  C42  1  0.47035000  0.56039000  0.30334000  1.0
  C  C43  1  0.52965000  0.43961000  0.69666000  1.0
  C  C44  1  0.44651000  0.70131000  0.43363000  1.0
  C  C45  1  0.55349000  0.29869000  0.56637000  1.0
  C  C46  1  0.32850000  0.61312000  0.45722000  1.0
  C  C47  1  0.67150000  0.38688000  0.54278000  1.0
  C  C48  1  0.22559000  0.62127000  0.55226000  1.0
  C  C49  1  0.77440000  0.37873000  0.44774000  1.0
  C  C50  1  0.24335000  0.72223000  0.62253000  1.0
  C  C51  1  0.75666000  0.27777000  0.37747000  1.0
  C  C52  1  0.35739000  0.81281000  0.59813000  1.0
  C  C53  1  0.64262000  0.18719000  0.40187000  1.0
  C  C54  1  0.46116000  0.80383000  0.50391000  1.0
  C  C55  1  0.53884000  0.19617000  0.49609000  1.0
  C  C56  1  0.24710000  0.41825000  0.35964000  1.0
  C  C57  1  0.75290000  0.58175000  0.64036000  1.0
  C  C58  1  0.29626000  0.33984000  0.25719000  1.0
  C  C59  1  0.70374000  0.66016000  0.74281000  1.0
  C  C60  1  0.19907000  0.22175000  0.25703000  1.0
  C  C61  1  0.80094000  0.77825000  0.74297000  1.0
  C  C62  1  0.23232000  0.13839000  0.15465000  1.0
  C  C63  1  0.76768000  0.86161000  0.84535000  1.0
  C  C64  1  0.44828000  0.96705000  0.20302000  1.0
  C  C65  1  0.55172000  0.03295000  0.79698000  1.0
  C  C66  1  0.65340000  0.04623000  0.11741000  1.0
  C  C67  1  0.34660000  0.95377000  0.88259000  1.0
  C  C68  1  0.52292000  0.13566000  0.09138000  1.0
  C  C69  1  0.47708000  0.86434000  0.90862000  1.0
  C  C70  1  0.53802000  0.24925000  0.01977000  1.0
  C  C71  1  0.46198000  0.75075000  0.98022000  1.0
  C  C72  1  0.68838000  0.27040000  0.97606000  1.0
  C  C73  1  0.31162000  0.72960000  0.02394000  1.0
  C  C74  1  0.81924000  0.18253000  0.00230000  1.0
  C  C75  1  0.18076000  0.81747000  0.99769000  1.0
  C  C76  1  0.80393000  0.06956000  0.07345000  1.0
  C  C77  1  0.19607000  0.93044000  0.92655000  1.0
  C  C78  1  0.89932000  0.57284000  0.13335000  1.0
  C  C79  1  0.10068000  0.42716000  0.86666000  1.0
  C  C80  1  0.98451000  0.48295000  0.05557000  1.0
  C  C81  1  0.01549000  0.51705000  0.94444000  1.0
  C  C82  1  0.94888000  0.88783000  0.38424000  1.0
  C  C83  1  0.05112000  0.11217000  0.61576000  1.0
  C  C84  1  0.03514000  0.96811000  0.45703000  1.0
  C  C85  1  0.96486000  0.03189000  0.54297000  1.0
  N  N86  1  0.53339000  0.66473000  0.33675000  1.0
  N  N87  1  0.46661000  0.33527000  0.66325000  1.0
  N  N88  1  0.34686000  0.52530000  0.37201000  1.0
  N  N89  1  0.65313000  0.47470000  0.62799000  1.0
  N  N90  1  0.60207000  0.94202000  0.18731000  1.0
  N  N91  1  0.39793000  0.05799000  0.81269000  1.0
  N  N92  1  0.39460000  0.08200000  0.14825000  1.0
  N  N93  1  0.60540000  0.91800000  0.85174000  1.0
  O  O94  1  0.81665000  0.67233000  0.08856000  1.0
  O  O95  1  0.18335000  0.32767000  0.91144000  1.0
  O  O96  1  0.91363000  0.54982000  0.24113000  1.0
  O  O97  1  0.08637000  0.45018000  0.75887000  1.0
  O  O98  1  0.82484000  0.83735000  0.42732000  1.0
  O  O99  1  0.17515000  0.16265000  0.57268000  1.0
  O  O100  1  0.99767000  0.87553000  0.28107000  1.0
  O  O101  1  0.00233000  0.12447000  0.71893000  1.0
