# generated using pymatgen
data_DyH5C4SN2O7
_symmetry_space_group_name_H-M   'P 1'
_cell_length_a   6.45960000
_cell_length_b   11.16970000
_cell_length_c   12.12650000
_cell_angle_alpha   108.27200000
_cell_angle_beta   90.00000000
_cell_angle_gamma   90.00000000
_symmetry_Int_Tables_number   1
_chemical_formula_structural   DyH5C4SN2O7
_chemical_formula_sum   'Dy4 H20 C16 S4 N8 O28'
_cell_volume   830.83277511
_cell_formula_units_Z   4
loop_
 _symmetry_equiv_pos_site_id
 _symmetry_equiv_pos_as_xyz
  1  'x, y, z'
loop_
 _atom_site_type_symbol
 _atom_site_label
 _atom_site_symmetry_multiplicity
 _atom_site_fract_x
 _atom_site_fract_y
 _atom_site_fract_z
 _atom_site_occupancy
  Dy  Dy0  1  0.86366000  0.84035000  0.39326000  1.0
  Dy  Dy1  1  0.36366000  0.15965000  0.10674000  1.0
  Dy  Dy2  1  0.13634000  0.15965000  0.60674000  1.0
  Dy  Dy3  1  0.63634000  0.84035000  0.89326000  1.0
  H  H4  1  0.72163000  0.43615000  0.55846000  1.0
  H  H5  1  0.22163000  0.56385000  0.94154000  1.0
  H  H6  1  0.27837000  0.56385000  0.44154000  1.0
  H  H7  1  0.77837000  0.43615000  0.05846000  1.0
  H  H8  1  0.77782000  0.48650000  0.22964000  1.0
  H  H9  1  0.27781000  0.51350000  0.27036000  1.0
  H  H10  1  0.22219000  0.51350000  0.77036000  1.0
  H  H11  1  0.72219000  0.48650000  0.72964000  1.0
  H  H12  1  0.72436000  0.33060000  0.34397000  1.0
  H  H13  1  0.22436000  0.66940000  0.15603000  1.0
  H  H14  1  0.27564000  0.66940000  0.65603000  1.0
  H  H15  1  0.77565000  0.33060000  0.84398000  1.0
  H  H16  1  0.04166000  0.91303000  0.19660000  1.0
  H  H17  1  0.54166000  0.08697000  0.30340000  1.0
  H  H18  1  0.95833000  0.08697000  0.80340000  1.0
  H  H19  1  0.45834000  0.91303000  0.69660000  1.0
  H  H20  1  0.06863000  0.03353000  0.31272000  1.0
  H  H21  1  0.56863000  0.96647000  0.18728000  1.0
  H  H22  1  0.93137000  0.96647000  0.68728000  1.0
  H  H23  1  0.43137000  0.03353000  0.81272000  1.0
  C  C24  1  0.73930000  0.48748000  0.49691000  1.0
  C  C25  1  0.23930000  0.51252000  0.00309000  1.0
  C  C26  1  0.26070000  0.51252000  0.50309000  1.0
  C  C27  1  0.76070000  0.48748000  0.99691000  1.0
  C  C28  1  0.77184000  0.51118000  0.32300000  1.0
  C  C29  1  0.27184000  0.48882000  0.17700000  1.0
  C  C30  1  0.22816000  0.48882000  0.67700000  1.0
  C  C31  1  0.72817000  0.51118000  0.82300000  1.0
  C  C32  1  0.76755000  0.61322000  0.50777000  1.0
  C  C33  1  0.26755000  0.38678000  0.99223000  1.0
  C  C34  1  0.23245000  0.38678000  0.49223000  1.0
  C  C35  1  0.73245000  0.61322000  0.00777000  1.0
  C  C36  1  0.77916000  0.72780000  0.60858000  1.0
  C  C37  1  0.27916000  0.27220000  0.89142000  1.0
  C  C38  1  0.22084000  0.27220000  0.39142000  1.0
  C  C39  1  0.72084000  0.72780000  0.10858000  1.0
  S  S40  1  0.32215000  0.83621000  0.46012000  1.0
  S  S41  1  0.82215000  0.16379000  0.03988000  1.0
  S  S42  1  0.67785000  0.16379000  0.53988000  1.0
  S  S43  1  0.17785000  0.83621000  0.96012000  1.0
  N  N44  1  0.74379000  0.42539000  0.38017000  1.0
  N  N45  1  0.24379000  0.57461000  0.11983000  1.0
  N  N46  1  0.25621000  0.57461000  0.61983000  1.0
  N  N47  1  0.75621000  0.42539000  0.88017000  1.0
  N  N48  1  0.78797000  0.62598000  0.39827000  1.0
  N  N49  1  0.28797000  0.37402000  0.10173000  1.0
  N  N50  1  0.21203000  0.37402000  0.60173000  1.0
  N  N51  1  0.71203000  0.62598000  0.89827000  1.0
  O  O52  1  0.72509000  0.72284000  0.70758000  1.0
  O  O53  1  0.22509000  0.27716000  0.79242000  1.0
  O  O54  1  0.27491000  0.27716000  0.29242000  1.0
  O  O55  1  0.77491000  0.72284000  0.20758000  1.0
  O  O56  1  0.84450000  0.82687000  0.58712000  1.0
  O  O57  1  0.34450000  0.17313000  0.91288000  1.0
  O  O58  1  0.15550000  0.17313000  0.41288000  1.0
  O  O59  1  0.65550000  0.82686000  0.08712000  1.0
  O  O60  1  0.51011000  0.86333000  0.40268000  1.0
  O  O61  1  0.01011000  0.13667000  0.09732000  1.0
  O  O62  1  0.48989000  0.13667000  0.59732000  1.0
  O  O63  1  0.98989000  0.86333000  0.90268000  1.0
  O  O64  1  0.37227000  0.80097000  0.56370000  1.0
  O  O65  1  0.87227000  0.19903000  0.93630000  1.0
  O  O66  1  0.62773000  0.19903000  0.43630000  1.0
  O  O67  1  0.12773000  0.80097000  0.06370000  1.0
  O  O68  1  0.19447000  0.73707000  0.37515000  1.0
  O  O69  1  0.69446000  0.26294000  0.12485000  1.0
  O  O70  1  0.80553000  0.26294000  0.62485000  1.0
  O  O71  1  0.30554000  0.73706000  0.87515000  1.0
  O  O72  1  0.18082000  0.94977000  0.49193000  1.0
  O  O73  1  0.68082000  0.05023000  0.00807000  1.0
  O  O74  1  0.81918000  0.05023000  0.50807000  1.0
  O  O75  1  0.31918000  0.94977000  0.99193000  1.0
  O  O76  1  0.99020000  0.95409000  0.27630000  1.0
  O  O77  1  0.49020000  0.04592000  0.22370000  1.0
  O  O78  1  0.00980000  0.04592000  0.72370000  1.0
  O  O79  1  0.50980000  0.95408000  0.77630000  1.0
