# generated using pymatgen
data_BaH30C18(N6O7)2
_symmetry_space_group_name_H-M   'P 1'
_cell_length_a   7.43075000
_cell_length_b   7.70298000
_cell_length_c   28.30560000
_cell_angle_alpha   86.14400000
_cell_angle_beta   82.53160000
_cell_angle_gamma   61.16270000
_symmetry_Int_Tables_number   1
_chemical_formula_structural   BaH30C18(N6O7)2
_chemical_formula_sum   'Ba2 H60 C36 N24 O28'
_cell_volume   1407.20837769
_cell_formula_units_Z   2
loop_
 _symmetry_equiv_pos_site_id
 _symmetry_equiv_pos_as_xyz
  1  'x, y, z'
loop_
 _atom_site_type_symbol
 _atom_site_label
 _atom_site_symmetry_multiplicity
 _atom_site_fract_x
 _atom_site_fract_y
 _atom_site_fract_z
 _atom_site_occupancy
  Ba  Ba0  1  0.55671000  0.24996000  0.74997000  1.0
  Ba  Ba1  1  0.44329000  0.75004000  0.25002000  1.0
  H  H2  1  0.25958000  0.12956000  0.86777000  1.0
  H  H3  1  0.74240000  0.62960000  0.36775000  1.0
  H  H4  1  0.74041000  0.87044000  0.13223000  1.0
  H  H5  1  0.25760000  0.37040000  0.63225000  1.0
  H  H6  1  0.91251000  0.05770000  0.88823000  1.0
  H  H7  1  0.14067000  0.55798000  0.38841000  1.0
  H  H8  1  0.08749000  0.94230000  0.11177000  1.0
  H  H9  1  0.85933000  0.44202000  0.61158000  1.0
  H  H10  1  0.03649000  0.07903000  0.83214000  1.0
  H  H11  1  0.05145000  0.57886000  0.33227000  1.0
  H  H12  1  0.96350000  0.92098000  0.16786000  1.0
  H  H13  1  0.94854000  0.42114000  0.66773000  1.0
  H  H14  1  0.85116000  0.52628000  0.88915000  1.0
  H  H15  1  0.73318000  0.02651000  0.38926000  1.0
  H  H16  1  0.14884000  0.47372000  0.11085000  1.0
  H  H17  1  0.26682000  0.97349000  0.61074000  1.0
  H  H18  1  0.50603000  0.78775000  0.89428000  1.0
  H  H19  1  0.81191000  0.28784000  0.39437000  1.0
  H  H20  1  0.49397000  0.21225000  0.10572000  1.0
  H  H21  1  0.18809000  0.71215000  0.60563000  1.0
  H  H22  1  0.45179000  0.67185000  0.84971000  1.0
  H  H23  1  0.02657000  0.17151000  0.34990000  1.0
  H  H24  1  0.54821000  0.32815000  0.15029000  1.0
  H  H25  1  0.97343000  0.82849000  0.65010000  1.0
  H  H26  1  0.40338000  0.26815000  0.89170000  1.0
  H  H27  1  0.43614000  0.76803000  0.39158000  1.0
  H  H28  1  0.59662000  0.73185000  0.10830000  1.0
  H  H29  1  0.56385000  0.23197000  0.60842000  1.0
  H  H30  1  0.54917000  0.02836000  0.91753000  1.0
  H  H31  1  0.50458000  0.52820000  0.41740000  1.0
  H  H32  1  0.45083000  0.97164000  0.08247000  1.0
  H  H33  1  0.49542000  0.47180000  0.58261000  1.0
  H  H34  1  0.52109000  0.24417000  0.94415000  1.0
  H  H35  1  0.29022000  0.74398000  0.44399000  1.0
  H  H36  1  0.47891000  0.75583000  0.05585000  1.0
  H  H37  1  0.70978000  0.25602000  0.55601000  1.0
  H  H38  1  0.60875000  0.27823000  0.01931000  1.0
  H  H39  1  0.09321000  0.77849000  0.51945000  1.0
  H  H40  1  0.39125000  0.72177000  0.98069000  1.0
  H  H41  1  0.90679000  0.22151000  0.48055000  1.0
  H  H42  1  0.71045000  0.32211000  0.06916000  1.0
  H  H43  1  0.89819000  0.82217000  0.56928000  1.0
  H  H44  1  0.28955000  0.67788000  0.93084000  1.0
  H  H45  1  0.10182000  0.17783000  0.43072000  1.0
  H  H46  1  0.55030000  0.96456000  0.66308000  1.0
  H  H47  1  0.82176000  0.46515000  0.16315000  1.0
  H  H48  1  0.44971000  0.03544000  0.33692000  1.0
  H  H49  1  0.17824000  0.53485000  0.83685000  1.0
  H  H50  1  0.39417000  0.94243000  0.70109000  1.0
  H  H51  1  0.96248000  0.44266000  0.20115000  1.0
  H  H52  1  0.60583000  0.05757000  0.29890000  1.0
  H  H53  1  0.03752000  0.55734000  0.79885000  1.0
  H  H54  1  0.74982000  0.59427000  0.75431000  1.0
  H  H55  1  0.90169000  0.09426000  0.25426000  1.0
  H  H56  1  0.25018000  0.40573000  0.24569000  1.0
  H  H57  1  0.09832000  0.90574000  0.74574000  1.0
  H  H58  1  0.58399000  0.61949000  0.72172000  1.0
  H  H59  1  0.07465000  0.11953000  0.22170000  1.0
  H  H60  1  0.41601000  0.38050000  0.27828000  1.0
  H  H61  1  0.92535000  0.88047000  0.77830000  1.0
  C  C62  1  0.09905000  0.20060000  0.93615000  1.0
  C  C63  1  0.76365000  0.70062000  0.43617000  1.0
  C  C64  1  0.90095000  0.79940000  0.06385000  1.0
  C  C65  1  0.23635000  0.29938000  0.56383000  1.0
  C  C66  1  0.96551000  0.15202000  0.86679000  1.0
  C  C67  1  0.01484000  0.65215000  0.36689000  1.0
  C  C68  1  0.03448000  0.84799000  0.13321000  1.0
  C  C69  1  0.98516000  0.34785000  0.63311000  1.0
  C  C70  1  0.77157000  0.34268000  0.85665000  1.0
  C  C71  1  0.02840000  0.84268000  0.35669000  1.0
  C  C72  1  0.22842000  0.65732000  0.14335000  1.0
  C  C73  1  0.97160000  0.15732000  0.64331000  1.0
  C  C74  1  0.56968000  0.70236000  0.86115000  1.0
  C  C75  1  0.86673000  0.20227000  0.36128000  1.0
  C  C76  1  0.43032000  0.29764000  0.13885000  1.0
  C  C77  1  0.13327000  0.79774000  0.63872000  1.0
  C  C78  1  0.61142000  0.83265000  0.82278000  1.0
  C  C79  1  0.73337000  0.33239000  0.32280000  1.0
  C  C80  1  0.38857000  0.16735000  0.17722000  1.0
  C  C81  1  0.26664000  0.66762000  0.67720000  1.0
  C  C82  1  0.44365000  0.18553000  0.92501000  1.0
  C  C83  1  0.44530000  0.68541000  0.42488000  1.0
  C  C84  1  0.55635000  0.81447000  0.07499000  1.0
  C  C85  1  0.55470000  0.31459000  0.57512000  1.0
  C  C86  1  0.24183000  0.24570000  0.00378000  1.0
  C  C87  1  0.50833000  0.74570000  0.50371000  1.0
  C  C88  1  0.75817000  0.75430000  0.99622000  1.0
  C  C89  1  0.49167000  0.25430000  0.49629000  1.0
  C  C90  1  0.04868000  0.28060000  0.03199000  1.0
  C  C91  1  0.63851000  0.78048000  0.53200000  1.0
  C  C92  1  0.95132000  0.71940000  0.96801000  1.0
  C  C93  1  0.36149000  0.21952000  0.46800000  1.0
  C  C94  1  0.89657000  0.26259000  0.00845000  1.0
  C  C95  1  0.83207000  0.76249000  0.50853000  1.0
  C  C96  1  0.10343000  0.73740000  0.99155000  1.0
  C  C97  1  0.16793000  0.23750000  0.49147000  1.0
  N  N98  1  0.92556000  0.22304000  0.96186000  1.0
  N  N99  1  0.88902000  0.72305000  0.46195000  1.0
  N  N100  1  0.07444000  0.77696000  0.03814000  1.0
  N  N101  1  0.11098000  0.27696000  0.53805000  1.0
  N  N102  1  0.12115000  0.16870000  0.88931000  1.0
  N  N103  1  0.82005000  0.66898000  0.38933000  1.0
  N  N104  1  0.87884000  0.83130000  0.11069000  1.0
  N  N105  1  0.17995000  0.33103000  0.61066000  1.0
  N  N106  1  0.74779000  0.51655000  0.87018000  1.0
  N  N107  1  0.86516000  0.01661000  0.37031000  1.0
  N  N108  1  0.25221000  0.48345000  0.12982000  1.0
  N  N109  1  0.13484000  0.98339000  0.62969000  1.0
  N  N110  1  0.25713000  0.21016000  0.95518000  1.0
  N  N111  1  0.57707000  0.71010000  0.45513000  1.0
  N  N112  1  0.74287000  0.78984000  0.04482000  1.0
  N  N113  1  0.42294000  0.28990000  0.54487000  1.0
  N  N114  1  0.02801000  0.33426000  0.07753000  1.0
  N  N115  1  0.56018000  0.83414000  0.57753000  1.0
  N  N116  1  0.97199000  0.66573000  0.92247000  1.0
  N  N117  1  0.43982000  0.16587000  0.42247000  1.0
  N  N118  1  0.72245000  0.28890000  0.03390000  1.0
  N  N119  1  0.95450000  0.78889000  0.53403000  1.0
  N  N120  1  0.27755000  0.71110000  0.96610000  1.0
  N  N121  1  0.04550000  0.21111000  0.46597000  1.0
  O  O122  1  0.64018000  0.32840000  0.83613000  1.0
  O  O123  1  0.19435000  0.82825000  0.33612000  1.0
  O  O124  1  0.35982000  0.67161000  0.16387000  1.0
  O  O125  1  0.80565000  0.17174000  0.66388000  1.0
  O  O126  1  0.77639000  0.75417000  0.79381000  1.0
  O  O127  1  0.67600000  0.25379000  0.29375000  1.0
  O  O128  1  0.22361000  0.24583000  0.20619000  1.0
  O  O129  1  0.32400000  0.74622000  0.70624000  1.0
  O  O130  1  0.47424000  0.01278000  0.82178000  1.0
  O  O131  1  0.69145000  0.51251000  0.32180000  1.0
  O  O132  1  0.52575000  0.98722000  0.17822000  1.0
  O  O133  1  0.30855000  0.48749000  0.67820000  1.0
  O  O134  1  0.38656000  0.24782000  0.02073000  1.0
  O  O135  1  0.34449000  0.74803000  0.52059000  1.0
  O  O136  1  0.61344000  0.75218000  0.97927000  1.0
  O  O137  1  0.65551000  0.25197000  0.47941000  1.0
  O  O138  1  0.86231000  0.36267000  0.10469000  1.0
  O  O139  1  0.67039000  0.86260000  0.60474000  1.0
  O  O140  1  0.13770000  0.63733000  0.89531000  1.0
  O  O141  1  0.32961000  0.13740000  0.39526000  1.0
  O  O142  1  0.47255000  0.01619000  0.69460000  1.0
  O  O143  1  0.81675000  0.51665000  0.19467000  1.0
  O  O144  1  0.52745000  0.98381000  0.30540000  1.0
  O  O145  1  0.18324000  0.48335000  0.80533000  1.0
  O  O146  1  0.71653000  0.52029000  0.73296000  1.0
  O  O147  1  0.03021000  0.02031000  0.23295000  1.0
  O  O148  1  0.28347000  0.47971000  0.26704000  1.0
  O  O149  1  0.96979000  0.97969000  0.76705000  1.0
