# generated using pymatgen
data_CaH16C20(N3O4)2
_symmetry_space_group_name_H-M   'P 1'
_cell_length_a   5.32412000
_cell_length_b   7.68348000
_cell_length_c   13.77340000
_cell_angle_alpha   96.05370000
_cell_angle_beta   100.87900000
_cell_angle_gamma   107.35700000
_symmetry_Int_Tables_number   1
_chemical_formula_structural   CaH16C20(N3O4)2
_chemical_formula_sum   'Ca1 H16 C20 N6 O8'
_cell_volume   520.19301346
_cell_formula_units_Z   1
loop_
 _symmetry_equiv_pos_site_id
 _symmetry_equiv_pos_as_xyz
  1  'x, y, z'
loop_
 _atom_site_type_symbol
 _atom_site_label
 _atom_site_symmetry_multiplicity
 _atom_site_fract_x
 _atom_site_fract_y
 _atom_site_fract_z
 _atom_site_occupancy
  Ca  Ca0  1  0.00002000  0.49999000  0.50000000  1.0
  H  H1  1  0.92451000  0.73218000  0.77874000  1.0
  H  H2  1  0.07548000  0.26783000  0.22126000  1.0
  H  H3  1  0.90538000  0.87996000  0.94577000  1.0
  H  H4  1  0.09459000  0.12004000  0.05423000  1.0
  H  H5  1  0.10325000  0.49503000  0.91154000  1.0
  H  H6  1  0.89675000  0.50494000  0.08845000  1.0
  H  H7  1  0.12006000  0.35517000  0.74136000  1.0
  H  H8  1  0.87996000  0.64483000  0.25863000  1.0
  H  H9  1  0.37608000  0.21747000  0.49438000  1.0
  H  H10  1  0.62394000  0.78255000  0.50563000  1.0
  H  H11  1  0.04004000  0.91936000  0.38297000  1.0
  H  H12  1  0.95998000  0.08066000  0.61703000  1.0
  H  H13  1  0.29647000  0.83456000  0.23467000  1.0
  H  H14  1  0.70353000  0.16546000  0.76533000  1.0
  H  H15  1  0.79159000  0.10270000  0.28694000  1.0
  H  H16  1  0.20842000  0.89733000  0.71306000  1.0
  C  C17  1  0.52375000  0.53521000  0.74987000  1.0
  C  C18  1  0.47626000  0.46479000  0.25013000  1.0
  C  C19  1  0.74549000  0.68176000  0.80812000  1.0
  C  C20  1  0.25450000  0.31824000  0.19188000  1.0
  C  C21  1  0.73561000  0.76421000  0.90143000  1.0
  C  C22  1  0.26438000  0.23580000  0.09857000  1.0
  C  C23  1  0.50167000  0.69548000  0.93621000  1.0
  C  C24  1  0.49830000  0.30451000  0.06379000  1.0
  C  C25  1  0.28020000  0.54622000  0.88110000  1.0
  C  C26  1  0.71980000  0.45376000  0.11889000  1.0
  C  C27  1  0.29226000  0.46781000  0.78717000  1.0
  C  C28  1  0.70776000  0.53218000  0.21283000  1.0
  C  C29  1  0.53253000  0.45537000  0.64653000  1.0
  C  C30  1  0.46750000  0.54461000  0.35347000  1.0
  C  C31  1  0.23962000  0.98770000  0.37142000  1.0
  C  C32  1  0.76039000  0.01232000  0.62858000  1.0
  C  C33  1  0.37225000  0.94562000  0.29884000  1.0
  C  C34  1  0.62775000  0.05440000  0.70116000  1.0
  C  C35  1  0.62710000  0.08351000  0.32492000  1.0
  C  C36  1  0.37291000  0.91651000  0.67508000  1.0
  N  N37  1  0.48546000  0.78295000  0.03357000  1.0
  N  N38  1  0.51453000  0.21704000  0.96643000  1.0
  N  N39  1  0.65116000  0.20289000  0.40785000  1.0
  N  N40  1  0.34885000  0.79713000  0.59215000  1.0
  N  N41  1  0.41170000  0.14120000  0.43445000  1.0
  N  N42  1  0.58832000  0.85881000  0.56555000  1.0
  O  O43  1  0.76020000  0.48663000  0.62477000  1.0
  O  O44  1  0.23983000  0.51337000  0.37523000  1.0
  O  O45  1  0.30548000  0.36113000  0.58571000  1.0
  O  O46  1  0.69455000  0.63884000  0.41430000  1.0
  O  O47  1  0.68296000  0.91543000  0.08273000  1.0
  O  O48  1  0.31697000  0.08455000  0.91726000  1.0
  O  O49  1  0.27375000  0.72059000  0.06252000  1.0
  O  O50  1  0.72619000  0.27938000  0.93747000  1.0
