# generated using pymatgen
data_Co2H18C25N2O9
_symmetry_space_group_name_H-M   'P 1'
_cell_length_a   10.22820000
_cell_length_b   11.02000000
_cell_length_c   12.18630000
_cell_angle_alpha   77.28680000
_cell_angle_beta   89.59400000
_cell_angle_gamma   82.79320000
_symmetry_Int_Tables_number   1
_chemical_formula_structural   Co2H18C25N2O9
_chemical_formula_sum   'Co4 H36 C50 N4 O18'
_cell_volume   1329.01678969
_cell_formula_units_Z   2
loop_
 _symmetry_equiv_pos_site_id
 _symmetry_equiv_pos_as_xyz
  1  'x, y, z'
loop_
 _atom_site_type_symbol
 _atom_site_label
 _atom_site_symmetry_multiplicity
 _atom_site_fract_x
 _atom_site_fract_y
 _atom_site_fract_z
 _atom_site_occupancy
  Co  Co0  1  0.20873000  0.52336000  0.58925000  1.0
  Co  Co1  1  0.79128000  0.47664000  0.41075000  1.0
  Co  Co2  1  0.51691000  0.34897000  0.49689000  1.0
  Co  Co3  1  0.48310000  0.65103000  0.50311000  1.0
  H  H4  1  0.34158000  0.02006000  0.54179000  1.0
  H  H5  1  0.65842000  0.97996000  0.45821000  1.0
  H  H6  1  0.36771000  0.29850000  0.75284000  1.0
  H  H7  1  0.63230000  0.70151000  0.24716000  1.0
  H  H8  1  0.70987000  0.21004000  0.05304000  1.0
  H  H9  1  0.29012000  0.78998000  0.94696000  1.0
  H  H10  1  0.01212000  0.83628000  0.68041000  1.0
  H  H11  1  0.98788000  0.16373000  0.31959000  1.0
  H  H12  1  0.43198000  0.24937000  0.95552000  1.0
  H  H13  1  0.56803000  0.75063000  0.04448000  1.0
  H  H14  1  0.62226000  0.30566000  0.85716000  1.0
  H  H15  1  0.37773000  0.69435000  0.14283000  1.0
  H  H16  1  0.91575000  0.03076000  0.74050000  1.0
  H  H17  1  0.08426000  0.96925000  0.25950000  1.0
  H  H18  1  0.13343000  0.54875000  0.99837000  1.0
  H  H19  1  0.86657000  0.45124000  0.00163000  1.0
  H  H20  1  0.14429000  0.39878000  0.18714000  1.0
  H  H21  1  0.85572000  0.60121000  0.81287000  1.0
  H  H22  1  0.23683000  0.37733000  0.37828000  1.0
  H  H23  1  0.76318000  0.62266000  0.62172000  1.0
  H  H24  1  0.61985000  0.35146000  0.26587000  1.0
  H  H25  1  0.38016000  0.64854000  0.73414000  1.0
  H  H26  1  0.54444000  0.36832000  0.06960000  1.0
  H  H27  1  0.45556000  0.63168000  0.93041000  1.0
  H  H28  1  0.09666000  0.14263000  0.91820000  1.0
  H  H29  1  0.90333000  0.85734000  0.08180000  1.0
  H  H30  1  0.08339000  0.58738000  0.79195000  1.0
  H  H31  1  0.91661000  0.41261000  0.20806000  1.0
  H  H32  1  0.94796000  0.12896000  0.08367000  1.0
  H  H33  1  0.05202000  0.87102000  0.91633000  1.0
  H  H34  1  0.45215000  0.45835000  0.64732000  1.0
  H  H35  1  0.54786000  0.54165000  0.35268000  1.0
  H  H36  1  0.95691000  0.46960000  0.61516000  1.0
  H  H37  1  0.04309000  0.53040000  0.38484000  1.0
  H  H38  1  0.95396000  0.60436000  0.54319000  1.0
  H  H39  1  0.04603000  0.39565000  0.45682000  1.0
  C  C40  1  0.26051000  0.24788000  0.57778000  1.0
  C  C41  1  0.73950000  0.75213000  0.42222000  1.0
  C  C42  1  0.80805000  0.27974000  0.77903000  1.0
  C  C43  1  0.19195000  0.72026000  0.22097000  1.0
  C  C44  1  0.24841000  0.79494000  0.58432000  1.0
  C  C45  1  0.75159000  0.20507000  0.41568000  1.0
  C  C46  1  0.19397000  0.13339000  0.61423000  1.0
  C  C47  1  0.80604000  0.86662000  0.38576000  1.0
  C  C48  1  0.94185000  0.23204000  0.79862000  1.0
  C  C49  1  0.05815000  0.76795000  0.20138000  1.0
  C  C50  1  0.07561000  0.13387000  0.67491000  1.0
  C  C51  1  0.92439000  0.86614000  0.32509000  1.0
  C  C52  1  0.24792000  0.02224000  0.58491000  1.0
  C  C53  1  0.75209000  0.97777000  0.41508000  1.0
  C  C54  1  0.29067000  0.39770000  0.99415000  1.0
  C  C55  1  0.70933000  0.60230000  0.00585000  1.0
  C  C56  1  0.31813000  0.35244000  0.80967000  1.0
  C  C57  1  0.68187000  0.64756000  0.19033000  1.0
  C  C58  1  0.74777000  0.33663000  0.66351000  1.0
  C  C59  1  0.25223000  0.66336000  0.33648000  1.0
  C  C60  1  0.77517000  0.21685000  0.98144000  1.0
  C  C61  1  0.22482000  0.78316000  0.01855000  1.0
  C  C62  1  0.06326000  0.91929000  0.66419000  1.0
  C  C63  1  0.93674000  0.08072000  0.33581000  1.0
  C  C64  1  0.18471000  0.91454000  0.61003000  1.0
  C  C65  1  0.81529000  0.08547000  0.38996000  1.0
  C  C66  1  0.35427000  0.32579000  0.92287000  1.0
  C  C67  1  0.64573000  0.67421000  0.07713000  1.0
  C  C68  1  0.33693000  0.38236000  0.11085000  1.0
  C  C69  1  0.66308000  0.61763000  0.88915000  1.0
  C  C70  1  0.72623000  0.27012000  0.87290000  1.0
  C  C71  1  0.27377000  0.72988000  0.12709000  1.0
  C  C72  1  0.00943000  0.02748000  0.69745000  1.0
  C  C73  1  0.99058000  0.97254000  0.30255000  1.0
  C  C74  1  0.18660000  0.48982000  0.94736000  1.0
  C  C75  1  0.81340000  0.51017000  0.05264000  1.0
  C  C76  1  0.25080000  0.38664000  0.20019000  1.0
  C  C77  1  0.74920000  0.61336000  0.79981000  1.0
  C  C78  1  0.30192000  0.37437000  0.30800000  1.0
  C  C79  1  0.69808000  0.62563000  0.69201000  1.0
  C  C80  1  0.51522000  0.35900000  0.24566000  1.0
  C  C81  1  0.48478000  0.64100000  0.75434000  1.0
  C  C82  1  0.47248000  0.36779000  0.13605000  1.0
  C  C83  1  0.52752000  0.63221000  0.86396000  1.0
  C  C84  1  0.99218000  0.17856000  0.90731000  1.0
  C  C85  1  0.00781000  0.82142000  0.09269000  1.0
  C  C86  1  0.15814000  0.51208000  0.83286000  1.0
  C  C87  1  0.84186000  0.48792000  0.16714000  1.0
  C  C88  1  0.90913000  0.17107000  0.99894000  1.0
  C  C89  1  0.09086000  0.82892000  0.00106000  1.0
  N  N90  1  0.43201000  0.36142000  0.33195000  1.0
  N  N91  1  0.56799000  0.63857000  0.66806000  1.0
  N  N92  1  0.22456000  0.44729000  0.76345000  1.0
  N  N93  1  0.77544000  0.55272000  0.23655000  1.0
  O  O94  1  0.40489000  0.49382000  0.57599000  1.0
  O  O95  1  0.59511000  0.50618000  0.42401000  1.0
  O  O96  1  0.18594000  0.35349000  0.55327000  1.0
  O  O97  1  0.81405000  0.64652000  0.44673000  1.0
  O  O98  1  0.38479000  0.23430000  0.56873000  1.0
  O  O99  1  0.61520000  0.76571000  0.43126000  1.0
  O  O100  1  0.82241000  0.38900000  0.58781000  1.0
  O  O101  1  0.17760000  0.61099000  0.41219000  1.0
  O  O102  1  0.00158000  0.54606000  0.60814000  1.0
  O  O103  1  0.99841000  0.45395000  0.39186000  1.0
  O  O104  1  0.35719000  0.79663000  0.53313000  1.0
  O  O105  1  0.64281000  0.20337000  0.46687000  1.0
  O  O106  1  0.02942000  0.24075000  0.71058000  1.0
  O  O107  1  0.97058000  0.75925000  0.28943000  1.0
  O  O108  1  0.19155000  0.69746000  0.62116000  1.0
  O  O109  1  0.80845000  0.30255000  0.37884000  1.0
  O  O110  1  0.62612000  0.32863000  0.65206000  1.0
  O  O111  1  0.37388000  0.67137000  0.34793000  1.0
