# generated using pymatgen
data_CoH6C12(NO2)2
_symmetry_space_group_name_H-M   'P 1'
_cell_length_a   10.65580000
_cell_length_b   12.51060000
_cell_length_c   13.68290000
_cell_angle_alpha   90.00060000
_cell_angle_beta   68.52200000
_cell_angle_gamma   90.00010000
_symmetry_Int_Tables_number   1
_chemical_formula_structural   CoH6C12(NO2)2
_chemical_formula_sum   'Co4 H24 C48 N8 O16'
_cell_volume   1697.40667096
_cell_formula_units_Z   4
loop_
 _symmetry_equiv_pos_site_id
 _symmetry_equiv_pos_as_xyz
  1  'x, y, z'
loop_
 _atom_site_type_symbol
 _atom_site_label
 _atom_site_symmetry_multiplicity
 _atom_site_fract_x
 _atom_site_fract_y
 _atom_site_fract_z
 _atom_site_occupancy
  Co  Co0  1  0.08556000  0.43940000  0.98160000  1.0
  Co  Co1  1  0.91440000  0.93933000  0.51845000  1.0
  Co  Co2  1  0.91457000  0.56055000  0.01840000  1.0
  Co  Co3  1  0.08544000  0.06051000  0.48165000  1.0
  H  H4  1  0.96278000  0.22101000  0.78522000  1.0
  H  H5  1  0.03726000  0.72102000  0.71479000  1.0
  H  H6  1  0.03725000  0.77897000  0.21480000  1.0
  H  H7  1  0.96280000  0.27897000  0.28521000  1.0
  H  H8  1  0.59152000  0.08057000  0.79260000  1.0
  H  H9  1  0.40852000  0.58059000  0.70741000  1.0
  H  H10  1  0.40850000  0.91943000  0.20739000  1.0
  H  H11  1  0.59155000  0.41945000  0.29262000  1.0
  H  H12  1  0.58547000  0.35391000  0.98835000  1.0
  H  H13  1  0.41453000  0.85386000  0.51160000  1.0
  H  H14  1  0.41452000  0.64617000  0.01156000  1.0
  H  H15  1  0.58550000  0.14613000  0.48840000  1.0
  H  H16  1  0.40145000  0.04375000  0.97652000  1.0
  H  H17  1  0.59858000  0.54375000  0.52342000  1.0
  H  H18  1  0.59858000  0.95627000  0.02338000  1.0
  H  H19  1  0.40143000  0.45626000  0.47655000  1.0
  H  H20  1  0.03962000  0.20460000  0.04120000  1.0
  H  H21  1  0.96038000  0.70465000  0.45877000  1.0
  H  H22  1  0.96036000  0.79537000  0.95878000  1.0
  H  H23  1  0.03964000  0.29538000  0.54120000  1.0
  H  H24  1  0.39011000  0.38225000  0.91624000  1.0
  H  H25  1  0.60986000  0.88224000  0.58370000  1.0
  H  H26  1  0.60982000  0.61778000  0.08367000  1.0
  H  H27  1  0.39018000  0.11775000  0.41633000  1.0
  C  C28  1  0.85715000  0.37225000  0.93139000  1.0
  C  C29  1  0.14279000  0.87220000  0.56867000  1.0
  C  C30  1  0.14282000  0.62778000  0.06864000  1.0
  C  C31  1  0.85714000  0.12773000  0.43138000  1.0
  C  C32  1  0.78122000  0.29369000  0.89251000  1.0
  C  C33  1  0.21878000  0.79365000  0.60750000  1.0
  C  C34  1  0.21879000  0.70634000  0.10747000  1.0
  C  C35  1  0.78122000  0.20631000  0.39253000  1.0
  C  C36  1  0.85307000  0.21909000  0.81694000  1.0
  C  C37  1  0.14695000  0.71906000  0.68310000  1.0
  C  C38  1  0.14694000  0.78093000  0.18308000  1.0
  C  C39  1  0.85310000  0.28092000  0.31693000  1.0
  C  C40  1  0.78449000  0.14389000  0.77972000  1.0
  C  C41  1  0.21558000  0.64386000  0.72028000  1.0
  C  C42  1  0.21555000  0.85612000  0.22028000  1.0
  C  C43  1  0.78455000  0.35610000  0.27971000  1.0
  C  C44  1  0.86237000  0.07695000  0.68701000  1.0
  C  C45  1  0.13765000  0.57699000  0.81305000  1.0
  C  C46  1  0.13761000  0.92298000  0.31307000  1.0
  C  C47  1  0.86242000  0.42303000  0.18698000  1.0
  C  C48  1  0.64362000  0.13986000  0.82235000  1.0
  C  C49  1  0.35644000  0.63986000  0.67762000  1.0
  C  C50  1  0.35643000  0.86016000  0.17760000  1.0
  C  C51  1  0.64365000  0.36015000  0.32236000  1.0
  C  C52  1  0.57039000  0.21547000  0.89747000  1.0
  C  C53  1  0.42964000  0.71549000  0.60250000  1.0
  C  C54  1  0.42962000  0.78455000  0.10247000  1.0
  C  C55  1  0.57044000  0.28457000  0.39749000  1.0
  C  C56  1  0.64012000  0.29387000  0.93065000  1.0
  C  C57  1  0.35990000  0.79383000  0.56929000  1.0
  C  C58  1  0.35989000  0.70619000  0.06926000  1.0
  C  C59  1  0.64014000  0.20616000  0.43069000  1.0
  C  C60  1  0.42166000  0.21310000  0.93903000  1.0
  C  C61  1  0.57834000  0.71307000  0.56093000  1.0
  C  C62  1  0.57831000  0.78695000  0.06090000  1.0
  C  C63  1  0.42171000  0.28693000  0.43907000  1.0
  C  C64  1  0.34862000  0.11857000  0.97569000  1.0
  C  C65  1  0.65141000  0.61855000  0.52426000  1.0
  C  C66  1  0.65140000  0.88147000  0.02423000  1.0
  C  C67  1  0.34862000  0.38146000  0.47573000  1.0
  C  C68  1  0.14940000  0.20557000  0.01247000  1.0
  C  C69  1  0.85059000  0.70558000  0.48751000  1.0
  C  C70  1  0.85057000  0.79445000  0.98750000  1.0
  C  C71  1  0.14942000  0.29444000  0.51249000  1.0
  C  C72  1  0.34387000  0.30450000  0.94346000  1.0
  C  C73  1  0.65609000  0.80449000  0.55651000  1.0
  C  C74  1  0.65606000  0.69554000  0.05648000  1.0
  C  C75  1  0.34392000  0.19551000  0.44352000  1.0
  N  N76  1  0.20891000  0.30063000  0.97957000  1.0
  N  N77  1  0.79102000  0.80061000  0.52039000  1.0
  N  N78  1  0.79100000  0.69941000  0.02037000  1.0
  N  N79  1  0.20897000  0.19940000  0.47962000  1.0
  N  N80  1  0.21376000  0.11405000  0.01234000  1.0
  N  N81  1  0.78626000  0.61405000  0.48761000  1.0
  N  N82  1  0.78625000  0.88598000  0.98759000  1.0
  N  N83  1  0.21375000  0.38598000  0.51236000  1.0
  O  O84  1  0.97472000  0.34454000  0.92636000  1.0
  O  O85  1  0.02519000  0.84444000  0.57378000  1.0
  O  O86  1  0.02523000  0.65555000  0.07378000  1.0
  O  O87  1  0.97467000  0.15548000  0.42633000  1.0
  O  O88  1  0.80182000  0.46149000  0.96775000  1.0
  O  O89  1  0.19807000  0.96142000  0.53224000  1.0
  O  O90  1  0.19806000  0.53853000  0.03217000  1.0
  O  O91  1  0.80183000  0.03848000  0.46777000  1.0
  O  O92  1  0.98021000  0.11050000  0.63182000  1.0
  O  O93  1  0.01976000  0.61058000  0.86828000  1.0
  O  O94  1  0.01972000  0.88940000  0.36831000  1.0
  O  O95  1  0.98029000  0.38952000  0.13175000  1.0
  O  O96  1  0.80677000  0.99524000  0.66419000  1.0
  O  O97  1  0.19313000  0.49525000  0.83592000  1.0
  O  O98  1  0.19315000  0.00468000  0.33589000  1.0
  O  O99  1  0.80680000  0.50474000  0.16421000  1.0
