# generated using pymatgen
data_NiH6C10N3
_symmetry_space_group_name_H-M   'P 1'
_cell_length_a   6.74336000
_cell_length_b   7.11048000
_cell_length_c   27.56520000
_cell_angle_alpha   89.99870000
_cell_angle_beta   92.44250000
_cell_angle_gamma   89.99960000
_symmetry_Int_Tables_number   1
_chemical_formula_structural   NiH6C10N3
_chemical_formula_sum   'Ni4 H24 C40 N12'
_cell_volume   1320.50993691
_cell_formula_units_Z   4
loop_
 _symmetry_equiv_pos_site_id
 _symmetry_equiv_pos_as_xyz
  1  'x, y, z'
loop_
 _atom_site_type_symbol
 _atom_site_label
 _atom_site_symmetry_multiplicity
 _atom_site_fract_x
 _atom_site_fract_y
 _atom_site_fract_z
 _atom_site_occupancy
  Ni  Ni0  1  0.99999000  0.45019000  0.25000000  1.0
  Ni  Ni1  1  0.49999000  0.95113000  0.25000000  1.0
  Ni  Ni2  1  0.00000000  0.54980000  0.75000000  1.0
  Ni  Ni3  1  0.50000000  0.04886000  0.75000000  1.0
  H  H4  1  0.58359000  0.46044000  0.28623000  1.0
  H  H5  1  0.41642000  0.53955000  0.71377000  1.0
  H  H6  1  0.80996000  0.31428000  0.49450000  1.0
  H  H7  1  0.19011000  0.68573000  0.50550000  1.0
  H  H8  1  0.58427000  0.51696000  0.63672000  1.0
  H  H9  1  0.13743000  0.43428000  0.35548000  1.0
  H  H10  1  0.41577000  0.48304000  0.36329000  1.0
  H  H11  1  0.86261000  0.56570000  0.64451000  1.0
  H  H12  1  0.64673000  0.33613000  0.57251000  1.0
  H  H13  1  0.35335000  0.66387000  0.42749000  1.0
  H  H14  1  0.00577000  0.54295000  0.56266000  1.0
  H  H15  1  0.99430000  0.45704000  0.43734000  1.0
  H  H16  1  0.41639000  0.46043000  0.21377000  1.0
  H  H17  1  0.58358000  0.53957000  0.78623000  1.0
  H  H18  1  0.19005000  0.31431000  0.00550000  1.0
  H  H19  1  0.80991000  0.68572000  0.99450000  1.0
  H  H20  1  0.41574000  0.51698000  0.86328000  1.0
  H  H21  1  0.86256000  0.43431000  0.14452000  1.0
  H  H22  1  0.58423000  0.48303000  0.13671000  1.0
  H  H23  1  0.13740000  0.56566000  0.85549000  1.0
  H  H24  1  0.35327000  0.33616000  0.92749000  1.0
  H  H25  1  0.64667000  0.66387000  0.07251000  1.0
  H  H26  1  0.99424000  0.54292000  0.93734000  1.0
  H  H27  1  0.00571000  0.45708000  0.06266000  1.0
  C  C28  1  0.31788000  0.13240000  0.26485000  1.0
  C  C29  1  0.67002000  0.46182000  0.32037000  1.0
  C  C30  1  0.33000000  0.53818000  0.67963000  1.0
  C  C31  1  0.67543000  0.39847000  0.49685000  1.0
  C  C32  1  0.59398000  0.48732000  0.45500000  1.0
  C  C33  1  0.32464000  0.60155000  0.50316000  1.0
  C  C34  1  0.40610000  0.51269000  0.54500000  1.0
  C  C35  1  0.68957000  0.47330000  0.40802000  1.0
  C  C36  1  0.42323000  0.52550000  0.63588000  1.0
  C  C37  1  0.31050000  0.52670000  0.59198000  1.0
  C  C38  1  0.97804000  0.44669000  0.35944000  1.0
  C  C39  1  0.57682000  0.47449000  0.36412000  1.0
  C  C40  1  0.02200000  0.55330000  0.64055000  1.0
  C  C41  1  0.58333000  0.41072000  0.54093000  1.0
  C  C42  1  0.41674000  0.58929000  0.45908000  1.0
  C  C43  1  0.10373000  0.54259000  0.59517000  1.0
  C  C44  1  0.89633000  0.45741000  0.40482000  1.0
  C  C45  1  0.68346000  0.77071000  0.23504000  1.0
  C  C46  1  0.31653000  0.77071000  0.26495000  1.0
  C  C47  1  0.68209000  0.13242000  0.23514000  1.0
  C  C48  1  0.32997000  0.46182000  0.17963000  1.0
  C  C49  1  0.67001000  0.53818000  0.82037000  1.0
  C  C50  1  0.32458000  0.39849000  0.00316000  1.0
  C  C51  1  0.40604000  0.48733000  0.04500000  1.0
  C  C52  1  0.67537000  0.60154000  0.99684000  1.0
  C  C53  1  0.59391000  0.51269000  0.95500000  1.0
  C  C54  1  0.31043000  0.47332000  0.09198000  1.0
  C  C55  1  0.57678000  0.52551000  0.86412000  1.0
  C  C56  1  0.68952000  0.52669000  0.90802000  1.0
  C  C57  1  0.02196000  0.44672000  0.14055000  1.0
  C  C58  1  0.42318000  0.47450000  0.13588000  1.0
  C  C59  1  0.97801000  0.55327000  0.85945000  1.0
  C  C60  1  0.41668000  0.41073000  0.95907000  1.0
  C  C61  1  0.58327000  0.58929000  0.04093000  1.0
  C  C62  1  0.89629000  0.54256000  0.90483000  1.0
  C  C63  1  0.10367000  0.45744000  0.09518000  1.0
  C  C64  1  0.68210000  0.86760000  0.73514000  1.0
  C  C65  1  0.31654000  0.22928000  0.76496000  1.0
  C  C66  1  0.68346000  0.22928000  0.73505000  1.0
  C  C67  1  0.31790000  0.86758000  0.76485000  1.0
  N  N68  1  0.19855000  0.24860000  0.27145000  1.0
  N  N69  1  0.13213000  0.54989000  0.68226000  1.0
  N  N70  1  0.19691000  0.65474000  0.27164000  1.0
  N  N71  1  0.86789000  0.45011000  0.31774000  1.0
  N  N72  1  0.80308000  0.65475000  0.22835000  1.0
  N  N73  1  0.80144000  0.24861000  0.22855000  1.0
  N  N74  1  0.86788000  0.54987000  0.81774000  1.0
  N  N75  1  0.13209000  0.45012000  0.18226000  1.0
  N  N76  1  0.80145000  0.75139000  0.72855000  1.0
  N  N77  1  0.80308000  0.34525000  0.72835000  1.0
  N  N78  1  0.19691000  0.34524000  0.77165000  1.0
  N  N79  1  0.19855000  0.75138000  0.77145000  1.0
