# generated using pymatgen
data_K2H29C20N2O
_symmetry_space_group_name_H-M   'P 1'
_cell_length_a   9.35747000
_cell_length_b   10.29540000
_cell_length_c   11.91080000
_cell_angle_alpha   74.58430000
_cell_angle_beta   69.77350000
_cell_angle_gamma   80.65100000
_symmetry_Int_Tables_number   1
_chemical_formula_structural   K2H29C20N2O
_chemical_formula_sum   'K4 H58 C40 N4 O2'
_cell_volume   1034.81374692
_cell_formula_units_Z   2
loop_
 _symmetry_equiv_pos_site_id
 _symmetry_equiv_pos_as_xyz
  1  'x, y, z'
loop_
 _atom_site_type_symbol
 _atom_site_label
 _atom_site_symmetry_multiplicity
 _atom_site_fract_x
 _atom_site_fract_y
 _atom_site_fract_z
 _atom_site_occupancy
  K  K0  1  0.00965000  0.36783000  0.90420000  1.0
  K  K1  1  0.99035000  0.63217000  0.09580000  1.0
  K  K2  1  0.82372000  0.61177000  0.63769000  1.0
  K  K3  1  0.17630000  0.38822000  0.36231000  1.0
  H  H4  1  0.14242000  0.49727000  0.64539000  1.0
  H  H5  1  0.85759000  0.50273000  0.35461000  1.0
  H  H6  1  0.41358000  0.43851000  0.54916000  1.0
  H  H7  1  0.58643000  0.56149000  0.45084000  1.0
  H  H8  1  0.50431000  0.21457000  0.49251000  1.0
  H  H9  1  0.49570000  0.78543000  0.50750000  1.0
  H  H10  1  0.30986000  0.05089000  0.53679000  1.0
  H  H11  1  0.69016000  0.94911000  0.46321000  1.0
  H  H12  1  0.03894000  0.10512000  0.63434000  1.0
  H  H13  1  0.96107000  0.89487000  0.36565000  1.0
  H  H14  1  0.84687000  0.14425000  0.76812000  1.0
  H  H15  1  0.15314000  0.85575000  0.23187000  1.0
  H  H16  1  0.70217000  0.27222000  0.92951000  1.0
  H  H17  1  0.29784000  0.72778000  0.07049000  1.0
  H  H18  1  0.57841000  0.20694000  0.87731000  1.0
  H  H19  1  0.42160000  0.79306000  0.12268000  1.0
  H  H20  1  0.61133000  0.38126000  0.82715000  1.0
  H  H21  1  0.38867000  0.61874000  0.17285000  1.0
  H  H22  1  0.84294000  0.23716000  0.55077000  1.0
  H  H23  1  0.15706000  0.76284000  0.44923000  1.0
  H  H24  1  0.69231000  0.35780000  0.60296000  1.0
  H  H25  1  0.30770000  0.64220000  0.39703000  1.0
  H  H26  1  0.66269000  0.18265000  0.65323000  1.0
  H  H27  1  0.33732000  0.81736000  0.34677000  1.0
  H  H28  1  0.81097000  0.58676000  0.96744000  1.0
  H  H29  1  0.18902000  0.41323000  0.03256000  1.0
  H  H30  1  0.58330000  0.71364000  0.92621000  1.0
  H  H31  1  0.41670000  0.28636000  0.07379000  1.0
  H  H32  1  0.60510000  0.91263000  0.74651000  1.0
  H  H33  1  0.39490000  0.08737000  0.25350000  1.0
  H  H34  1  0.86544000  0.97388000  0.60677000  1.0
  H  H35  1  0.13455000  0.02612000  0.39324000  1.0
  H  H36  1  0.09527000  0.84991000  0.64480000  1.0
  H  H37  1  0.90472000  0.15009000  0.35520000  1.0
  H  H38  1  0.25746000  0.68764000  0.66427000  1.0
  H  H39  1  0.74254000  0.31236000  0.33573000  1.0
  H  H40  1  0.34194000  0.45948000  0.77368000  1.0
  H  H41  1  0.65805000  0.54052000  0.22632000  1.0
  H  H42  1  0.37156000  0.53717000  0.88025000  1.0
  H  H43  1  0.62844000  0.46284000  0.11975000  1.0
  H  H44  1  0.48215000  0.57793000  0.72187000  1.0
  H  H45  1  0.51784000  0.42207000  0.27813000  1.0
  H  H46  1  0.20646000  0.88403000  0.77282000  1.0
  H  H47  1  0.79354000  0.11598000  0.22718000  1.0
  H  H48  1  0.40311000  0.83063000  0.71358000  1.0
  H  H49  1  0.59688000  0.16937000  0.28643000  1.0
  H  H50  1  0.30416000  0.77923000  0.87287000  1.0
  H  H51  1  0.69584000  0.22077000  0.12713000  1.0
  H  H52  1  0.06006000  0.03324000  0.09419000  1.0
  H  H53  1  0.93994000  0.96676000  0.90581000  1.0
  H  H54  1  0.14869000  0.91192000  0.00311000  1.0
  H  H55  1  0.85131000  0.08807000  0.99690000  1.0
  H  H56  1  0.36545000  0.01069000  0.86147000  1.0
  H  H57  1  0.63454000  0.98931000  0.13853000  1.0
  H  H58  1  0.33164000  0.12144000  0.96363000  1.0
  H  H59  1  0.66835000  0.87856000  0.03637000  1.0
  H  H60  1  0.35218000  0.18962000  0.80333000  1.0
  H  H61  1  0.64781000  0.81038000  0.19667000  1.0
  C  C62  1  0.17749000  0.39868000  0.62177000  1.0
  C  C63  1  0.82251000  0.60132000  0.37823000  1.0
  C  C64  1  0.33166000  0.36531000  0.56690000  1.0
  C  C65  1  0.66835000  0.63470000  0.43311000  1.0
  C  C66  1  0.38326000  0.24010000  0.53485000  1.0
  C  C67  1  0.61675000  0.75990000  0.46515000  1.0
  C  C68  1  0.27335000  0.14908000  0.56087000  1.0
  C  C69  1  0.72666000  0.85093000  0.43913000  1.0
  C  C70  1  0.11844000  0.18036000  0.61566000  1.0
  C  C71  1  0.88157000  0.81964000  0.38434000  1.0
  C  C72  1  0.06168000  0.30713000  0.65138000  1.0
  C  C73  1  0.93832000  0.69287000  0.34861000  1.0
  C  C74  1  0.80126000  0.24980000  0.74011000  1.0
  C  C75  1  0.19874000  0.75020000  0.25988000  1.0
  C  C76  1  0.66574000  0.27898000  0.84949000  1.0
  C  C77  1  0.33426000  0.72102000  0.15050000  1.0
  C  C78  1  0.74655000  0.25673000  0.63066000  1.0
  C  C79  1  0.25345000  0.74327000  0.36934000  1.0
  C  C80  1  0.82521000  0.67192000  0.88774000  1.0
  C  C81  1  0.17479000  0.32808000  0.11226000  1.0
  C  C82  1  0.69552000  0.74441000  0.86470000  1.0
  C  C83  1  0.30447000  0.25559000  0.13530000  1.0
  C  C84  1  0.70665000  0.85525000  0.76405000  1.0
  C  C85  1  0.29334000  0.14475000  0.23595000  1.0
  C  C86  1  0.85330000  0.88932000  0.68664000  1.0
  C  C87  1  0.14670000  0.11068000  0.31337000  1.0
  C  C88  1  0.98471000  0.81791000  0.70793000  1.0
  C  C89  1  0.01528000  0.18209000  0.29208000  1.0
  C  C90  1  0.97803000  0.70594000  0.81228000  1.0
  C  C91  1  0.02197000  0.29405000  0.18772000  1.0
  C  C92  1  0.24955000  0.67012000  0.76257000  1.0
  C  C93  1  0.75045000  0.32988000  0.23743000  1.0
  C  C94  1  0.36780000  0.55409000  0.78603000  1.0
  C  C95  1  0.63220000  0.44592000  0.21397000  1.0
  C  C96  1  0.29277000  0.79916000  0.78069000  1.0
  C  C97  1  0.70723000  0.20084000  0.21931000  1.0
  C  C98  1  0.07626000  0.00770000  0.00590000  1.0
  C  C99  1  0.92374000  0.99230000  0.99411000  1.0
  C  C100  1  0.30821000  0.10750000  0.88315000  1.0
  C  C101  1  0.69179000  0.89249000  0.11685000  1.0
  N  N102  1  0.91566000  0.34514000  0.71007000  1.0
  N  N103  1  0.08435000  0.65486000  0.28993000  1.0
  N  N104  1  0.09780000  0.63263000  0.84279000  1.0
  N  N105  1  0.90219000  0.36736000  0.15721000  1.0
  O  O106  1  0.14779000  0.11156000  0.90483000  1.0
  O  O107  1  0.85221000  0.88844000  0.09517000  1.0
