# generated using pymatgen
data_Al6H47C88(NO10)3
_symmetry_space_group_name_H-M   'P 1'
_cell_length_a   12.92850000
_cell_length_b   13.01290000
_cell_length_c   30.44170000
_cell_angle_alpha   81.77000000
_cell_angle_beta   81.25080000
_cell_angle_gamma   61.90280000
_symmetry_Int_Tables_number   1
_chemical_formula_structural   Al6H47C88(NO10)3
_chemical_formula_sum   'Al6 H47 C88 N3 O30'
_cell_volume   4450.25276292
_cell_formula_units_Z   1
loop_
 _symmetry_equiv_pos_site_id
 _symmetry_equiv_pos_as_xyz
  1  'x, y, z'
loop_
 _atom_site_type_symbol
 _atom_site_label
 _atom_site_symmetry_multiplicity
 _atom_site_fract_x
 _atom_site_fract_y
 _atom_site_fract_z
 _atom_site_occupancy
  Al  Al0  1  0.57099000  0.60106000  0.48953000  1.0
  Al  Al1  1  0.57679000  0.35014000  0.50470000  1.0
  Al  Al2  1  0.34190000  0.56473000  0.50681000  1.0
  Al  Al3  1  0.07268000  0.07569000  0.02328000  1.0
  Al  Al4  1  0.31765000  0.08619000  0.00472000  1.0
  Al  Al5  1  0.09439000  0.31357000  0.00579000  1.0
  H  H6  1  0.53223000  0.28632000  0.71283000  1.0
  H  H7  1  0.14839000  0.85501000  0.83690000  1.0
  H  H8  1  0.12830000  0.90484000  0.91540000  1.0
  H  H9  1  0.19545000  0.74728000  0.70402000  1.0
  H  H10  1  0.92148000  0.12496000  0.91432000  1.0
  H  H11  1  0.87406000  0.14476000  0.83570000  1.0
  H  H12  1  0.88885000  0.17014000  0.68120000  1.0
  H  H13  1  0.63934000  0.56937000  0.61504000  1.0
  H  H14  1  0.87469000  0.47938000  0.81451000  1.0
  H  H15  1  0.92647000  0.45584000  0.89256000  1.0
  H  H16  1  0.51127000  0.27558000  0.79575000  1.0
  H  H17  1  0.68883000  0.54135000  0.69345000  1.0
  H  H18  1  0.44831000  0.11026000  0.11076000  1.0
  H  H19  1  0.47337000  0.12888000  0.18853000  1.0
  H  H20  1  0.49540000  0.15976000  0.33115000  1.0
  H  H21  1  0.51876000  0.18993000  0.40767000  1.0
  H  H22  1  0.23498000  0.53912000  0.39611000  1.0
  H  H23  1  0.17199000  0.47033000  0.18601000  1.0
  H  H24  1  0.14674000  0.44941000  0.10852000  1.0
  H  H25  1  0.21562000  0.51246000  0.31868000  1.0
  H  H26  1  0.50708000  0.75009000  0.28843000  1.0
  H  H27  1  0.14816000  0.34997000  0.79752000  1.0
  H  H28  1  0.49448000  0.80104000  0.20638000  1.0
  H  H29  1  0.12912000  0.89308000  0.30804000  1.0
  H  H30  1  0.79191000  0.21927000  0.21993000  1.0
  H  H31  1  0.89978000  0.48961000  0.20739000  1.0
  H  H32  1  0.86086000  0.50125000  0.29018000  1.0
  H  H33  1  0.16903000  0.36111000  0.71457000  1.0
  H  H34  1  0.44501000  0.94215000  0.88763000  1.0
  H  H35  1  0.46603000  0.89350000  0.80908000  1.0
  H  H36  1  0.47914000  0.83827000  0.66852000  1.0
  H  H37  1  0.21428000  0.69877000  0.62563000  1.0
  H  H38  1  0.89705000  0.01512000  0.59538000  1.0
  H  H39  1  0.02380000  0.98271000  0.25074000  1.0
  H  H40  1  0.08652000  0.09409000  0.17595000  1.0
  H  H41  1  0.95782000  0.07462000  0.18529000  1.0
  H  H42  1  0.08514000  0.97414000  0.15477000  1.0
  H  H43  1  0.73262000  0.22253000  0.34206000  1.0
  H  H44  1  0.70473000  0.07615000  0.31986000  1.0
  H  H45  1  0.80727000  0.06415000  0.27240000  1.0
  H  H46  1  0.65609000  0.16803000  0.27007000  1.0
  H  H47  1  0.52739000  0.76686000  0.55274000  1.0
  H  H48  1  0.66168000  0.82155000  0.56482000  1.0
  H  H49  1  0.65370000  0.76855000  0.62196000  1.0
  H  H50  1  0.55710000  0.91663000  0.60481000  1.0
  H  H51  1  0.70064000  0.68150000  0.46214000  1.0
  H  H52  1  0.98327000  0.96755000  0.06452000  1.0
  C  C53  1  0.69160000  0.41115000  0.55945000  1.0
  C  C54  1  0.23177000  0.33660000  0.77879000  1.0
  C  C55  1  0.24345000  0.34251000  0.73256000  1.0
  C  C56  1  0.35195000  0.32426000  0.70824000  1.0
  C  C57  1  0.32838000  0.31235000  0.80207000  1.0
  C  C58  1  0.31660000  0.30463000  0.84927000  1.0
  C  C59  1  0.36404000  0.33263000  0.66105000  1.0
  C  C60  1  0.30577000  0.29633000  0.88995000  1.0
  C  C61  1  0.35486000  0.74175000  0.60249000  1.0
  C  C62  1  0.27060000  0.73101000  0.63548000  1.0
  C  C63  1  0.26013000  0.75721000  0.67880000  1.0
  C  C64  1  0.39966000  0.36888000  0.57377000  1.0
  C  C65  1  0.33705000  0.79630000  0.69056000  1.0
  C  C66  1  0.42161000  0.80787000  0.65855000  1.0
  C  C67  1  0.43394000  0.78095000  0.61393000  1.0
  C  C68  1  0.39274000  0.89528000  0.83255000  1.0
  C  C69  1  0.38145000  0.92186000  0.87612000  1.0
  C  C70  1  0.20209000  0.90091000  0.89172000  1.0
  C  C71  1  0.21325000  0.87373000  0.84826000  1.0
  C  C72  1  0.30863000  0.87096000  0.81785000  1.0
  C  C73  1  0.31931000  0.84491000  0.77337000  1.0
  C  C74  1  0.32844000  0.82281000  0.73488000  1.0
  C  C75  1  0.36488000  0.70434000  0.55844000  1.0
  C  C76  1  0.28602000  0.92518000  0.90598000  1.0
  C  C77  1  0.73579000  0.38730000  0.60419000  1.0
  C  C78  1  0.69477000  0.48256000  0.62998000  1.0
  C  C79  1  0.72209000  0.46680000  0.67359000  1.0
  C  C80  1  0.79185000  0.35355000  0.69283000  1.0
  C  C81  1  0.83339000  0.25768000  0.66687000  1.0
  C  C82  1  0.80706000  0.27410000  0.62284000  1.0
  C  C83  1  0.88446000  0.21311000  0.84845000  1.0
  C  C84  1  0.91066000  0.20190000  0.89197000  1.0
  C  C85  1  0.91307000  0.38936000  0.87983000  1.0
  C  C86  1  0.71372000  0.39501000  0.43407000  1.0
  C  C87  1  0.88521000  0.40185000  0.83645000  1.0
  C  C88  1  0.87104000  0.31349000  0.81999000  1.0
  C  C89  1  0.84391000  0.32569000  0.77559000  1.0
  C  C90  1  0.82022000  0.33709000  0.73728000  1.0
  C  C91  1  0.92556000  0.28961000  0.90792000  1.0
  C  C92  1  0.37776000  0.36602000  0.40648000  1.0
  C  C93  1  0.29132000  0.45643000  0.38151000  1.0
  C  C94  1  0.28072000  0.44155000  0.33847000  1.0
  C  C95  1  0.35516000  0.33455000  0.31952000  1.0
  C  C96  1  0.43974000  0.24305000  0.34535000  1.0
  C  C97  1  0.39559000  0.38817000  0.45048000  1.0
  C  C98  1  0.45197000  0.25929000  0.38798000  1.0
  C  C99  1  0.40283000  0.19939000  0.17073000  1.0
  C  C100  1  0.38937000  0.18908000  0.12746000  1.0
  C  C101  1  0.21884000  0.38078000  0.12618000  1.0
  C  C102  1  0.23246000  0.39188000  0.16934000  1.0
  C  C103  1  0.32435000  0.30093000  0.19248000  1.0
  C  C104  1  0.33655000  0.31109000  0.23687000  1.0
  C  C105  1  0.34567000  0.32048000  0.27531000  1.0
  C  C106  1  0.29710000  0.27939000  0.10489000  1.0
  C  C107  1  0.33937000  0.75391000  0.38853000  1.0
  C  C108  1  0.37506000  0.70192000  0.43205000  1.0
  C  C109  1  0.42267000  0.79256000  0.27443000  1.0
  C  C110  1  0.41511000  0.82120000  0.22923000  1.0
  C  C111  1  0.19924000  0.90458000  0.23930000  1.0
  C  C112  1  0.20898000  0.87304000  0.28539000  1.0
  C  C113  1  0.31767000  0.81774000  0.30304000  1.0
  C  C114  1  0.30604000  0.87499000  0.21040000  1.0
  C  C115  1  0.30742000  0.89377000  0.16367000  1.0
  C  C116  1  0.32523000  0.78550000  0.34929000  1.0
  C  C117  1  0.30955000  0.90802000  0.12304000  1.0
  C  C118  1  0.76330000  0.37470000  0.38888000  1.0
  C  C119  1  0.37596000  0.34168000  0.62036000  1.0
  C  C120  1  0.78801000  0.28292000  0.28255000  1.0
  C  C121  1  0.80818000  0.27904000  0.23600000  1.0
  C  C122  1  0.86812000  0.43349000  0.22859000  1.0
  C  C123  1  0.84695000  0.43932000  0.27438000  1.0
  C  C124  1  0.80787000  0.36545000  0.30203000  1.0
  C  C125  1  0.84892000  0.35229000  0.20918000  1.0
  C  C126  1  0.87464000  0.34010000  0.16278000  1.0
  C  C127  1  0.78583000  0.37212000  0.34844000  1.0
  C  C128  1  0.90171000  0.32213000  0.12346000  1.0
  C  C129  1  0.26817000  0.96318000  0.95140000  1.0
  C  C130  1  0.44858000  0.29985000  0.73155000  1.0
  C  C131  1  0.28098000  0.27225000  0.93674000  1.0
  C  C132  1  0.96348000  0.27126000  0.95334000  1.0
  C  C133  1  0.28148000  0.95291000  0.07841000  1.0
  C  C134  1  0.27617000  0.26232000  0.06054000  1.0
  C  C135  1  0.95412000  0.28613000  0.07958000  1.0
  C  C136  1  0.43690000  0.29403000  0.77777000  1.0
  C  C137  1  0.86675000  0.17167000  0.59511000  1.0
  C  C138  1  0.05415000  0.02830000  0.18297000  1.0
  C  C139  1  0.72854000  0.12625000  0.29184000  1.0
  C  C140  1  0.60140000  0.82637000  0.59481000  1.0
  N  N141  1  0.08861000  0.95955000  0.22525000  1.0
  N  N142  1  0.75127000  0.21055000  0.30903000  1.0
  N  N143  1  0.51884000  0.79048000  0.58421000  1.0
  O  O144  1  0.44579000  0.70624000  0.52900000  1.0
  O  O145  1  0.49071000  0.31643000  0.46787000  1.0
  O  O146  1  0.31649000  0.48200000  0.46741000  1.0
  O  O147  1  0.29932000  0.68530000  0.46106000  1.0
  O  O148  1  0.49664000  0.50302000  0.50028000  1.0
  O  O149  1  0.97524000  0.17905000  0.97697000  1.0
  O  O150  1  0.17392000  0.97859000  0.97531000  1.0
  O  O151  1  0.34935000  0.98267000  0.96287000  1.0
  O  O152  1  0.35401000  0.17541000  0.95521000  1.0
  O  O153  1  0.18421000  0.34662000  0.95576000  1.0
  O  O154  1  0.98666000  0.34945000  0.96490000  1.0
  O  O155  1  0.65660000  0.51410000  0.54151000  1.0
  O  O156  1  0.97915000  0.18371000  0.07202000  1.0
  O  O157  1  0.17810000  0.97957000  0.07017000  1.0
  O  O158  1  0.36030000  0.96777000  0.05054000  1.0
  O  O159  1  0.35013000  0.16798000  0.04280000  1.0
  O  O160  1  0.18226000  0.33959000  0.04363000  1.0
  O  O161  1  0.97554000  0.36092000  0.05216000  1.0
  O  O162  1  0.16240000  0.15972000  0.01125000  1.0
  O  O163  1  0.68561000  0.32758000  0.54361000  1.0
  O  O164  1  0.50169000  0.30197000  0.55525000  1.0
  O  O165  1  0.32095000  0.46039000  0.55483000  1.0
  O  O166  1  0.29318000  0.66624000  0.55073000  1.0
  O  O167  1  0.48047000  0.67345000  0.43768000  1.0
  O  O168  1  0.69313000  0.49014000  0.44840000  1.0
  O  O169  1  0.68941000  0.31499000  0.45605000  1.0
  O  O170  1  0.92813000  0.16837000  0.56026000  1.0
  O  O171  1  0.85055000  0.07872000  0.61487000  1.0
  O  O172  1  0.63306000  0.69818000  0.48384000  1.0
  O  O173  1  0.98742000  0.00102000  0.03425000  1.0
