# generated using pymatgen
data_BaH10C12(NO4)2
_symmetry_space_group_name_H-M   'P 1'
_cell_length_a   7.44861000
_cell_length_b   10.60110000
_cell_length_c   10.89881981
_cell_angle_alpha   119.08317294
_cell_angle_beta   109.97427404
_cell_angle_gamma   90.01330000
_symmetry_Int_Tables_number   1
_chemical_formula_structural   BaH10C12(NO4)2
_chemical_formula_sum   'Ba2 H20 C24 N4 O16'
_cell_volume   692.22086957
_cell_formula_units_Z   2
loop_
 _symmetry_equiv_pos_site_id
 _symmetry_equiv_pos_as_xyz
  1  'x, y, z'
loop_
 _atom_site_type_symbol
 _atom_site_label
 _atom_site_symmetry_multiplicity
 _atom_site_fract_x
 _atom_site_fract_y
 _atom_site_fract_z
 _atom_site_occupancy
  Ba  Ba0  1  0.82970000  0.37888000  0.49996000  1.0
  Ba  Ba1  1  0.32982000  0.62118000  0.50007000  1.0
  H  H2  1  0.33076000  0.82060000  0.91601000  1.0
  H  H3  1  0.41449000  0.17917000  0.08365000  1.0
  H  H4  1  0.83080000  0.59558000  0.91626000  1.0
  H  H5  1  0.91472000  0.40451000  0.08380000  1.0
  H  H6  1  0.31508000  0.99459000  0.17203000  1.0
  H  H7  1  0.14266000  0.00543000  0.82771000  1.0
  H  H8  1  0.81490000  0.67749000  0.17219000  1.0
  H  H9  1  0.64275000  0.32263000  0.82793000  1.0
  H  H10  1  0.25291000  0.88773000  0.31941000  1.0
  H  H11  1  0.93311000  0.11247000  0.68059000  1.0
  H  H12  1  0.75253000  0.93166000  0.31938000  1.0
  H  H13  1  0.43323000  0.06841000  0.68072000  1.0
  H  H14  1  0.20576000  0.24718000  0.58967000  1.0
  H  H15  1  0.61626000  0.75279000  0.41029000  1.0
  H  H16  1  0.70590000  0.84238000  0.58964000  1.0
  H  H17  1  0.11605000  0.15748000  0.41033000  1.0
  H  H18  1  0.43794000  0.35389000  0.59129000  1.0
  H  H19  1  0.84670000  0.64588000  0.40864000  1.0
  H  H20  1  0.93787000  0.73712000  0.59121000  1.0
  H  H21  1  0.34671000  0.26259000  0.40870000  1.0
  C  C22  1  0.26088000  0.57835000  0.02313000  1.0
  C  C23  1  0.23779000  0.42172000  0.97696000  1.0
  C  C24  1  0.76081000  0.94480000  0.02311000  1.0
  C  C25  1  0.73779000  0.05529000  0.97696000  1.0
  C  C26  1  0.29322000  0.63110000  0.93583000  1.0
  C  C27  1  0.35739000  0.36887000  0.06413000  1.0
  C  C28  1  0.79312000  0.80476000  0.93588000  1.0
  C  C29  1  0.85744000  0.19530000  0.06416000  1.0
  C  C30  1  0.30979000  0.78117000  0.98672000  1.0
  C  C31  1  0.32285000  0.21878000  0.01313000  1.0
  C  C32  1  0.80978000  0.70569000  0.98691000  1.0
  C  C33  1  0.82293000  0.29443000  0.01321000  1.0
  C  C34  1  0.30138000  0.87687000  0.12744000  1.0
  C  C35  1  0.17362000  0.12317000  0.87239000  1.0
  C  C36  1  0.80131000  0.75064000  0.12761000  1.0
  C  C37  1  0.67368000  0.24952000  0.87254000  1.0
  C  C38  1  0.26738000  0.82179000  0.21106000  1.0
  C  C39  1  0.05596000  0.17835000  0.78895000  1.0
  C  C40  1  0.76713000  0.88928000  0.21109000  1.0
  C  C41  1  0.55607000  0.11085000  0.78905000  1.0
  C  C42  1  0.30008000  0.52673000  0.78217000  1.0
  C  C43  1  0.51798000  0.47319000  0.21777000  1.0
  C  C44  1  0.80005000  0.75533000  0.78222000  1.0
  C  C45  1  0.01809000  0.24459000  0.21775000  1.0
  N  N46  1  0.24152000  0.67426000  0.15768000  1.0
  N  N47  1  0.08374000  0.32589000  0.84243000  1.0
  N  N48  1  0.74144000  0.98342000  0.15767000  1.0
  N  N49  1  0.58382000  0.01669000  0.84244000  1.0
  O  O50  1  0.38277000  0.41783000  0.76293000  1.0
  O  O51  1  0.61996000  0.58211000  0.23701000  1.0
  O  O52  1  0.88271000  0.84492000  0.76283000  1.0
  O  O53  1  0.11992000  0.15487000  0.23698000  1.0
  O  O54  1  0.21562000  0.55729000  0.67975000  1.0
  O  O55  1  0.53588000  0.44264000  0.32019000  1.0
  O  O56  1  0.71565000  0.62231000  0.67995000  1.0
  O  O57  1  0.03625000  0.37758000  0.32015000  1.0
  O  O58  1  0.19384000  0.62370000  0.23315000  1.0
  O  O59  1  0.96069000  0.37657000  0.76710000  1.0
  O  O60  1  0.69387000  0.10947000  0.23310000  1.0
  O  O61  1  0.46075000  0.89067000  0.76702000  1.0
  O  O62  1  0.09155000  0.17400000  0.50002000  1.0
  O  O63  1  0.59186000  0.82608000  0.49997000  1.0
  O  O64  1  0.46898000  0.31989000  0.50001000  1.0
  O  O65  1  0.96884000  0.67957000  0.49995000  1.0
