# generated using pymatgen
data_KCoH22C24N2O3
_symmetry_space_group_name_H-M   'P 1'
_cell_length_a   7.45658000
_cell_length_b   12.11680000
_cell_length_c   12.11690000
_cell_angle_alpha   79.52620000
_cell_angle_beta   87.42450000
_cell_angle_gamma   87.42600000
_symmetry_Int_Tables_number   1
_chemical_formula_structural   KCoH22C24N2O3
_chemical_formula_sum   'K2 Co2 H44 C48 N4 O6'
_cell_volume   1074.67994395
_cell_formula_units_Z   2
loop_
 _symmetry_equiv_pos_site_id
 _symmetry_equiv_pos_as_xyz
  1  'x, y, z'
loop_
 _atom_site_type_symbol
 _atom_site_label
 _atom_site_symmetry_multiplicity
 _atom_site_fract_x
 _atom_site_fract_y
 _atom_site_fract_z
 _atom_site_occupancy
  K  K0  1  0.84409000  0.45030000  0.46154000  1.0
  K  K1  1  0.34409000  0.46153000  0.45030000  1.0
  Co  Co2  1  0.61735000  0.27794000  0.65590000  1.0
  Co  Co3  1  0.11734000  0.65589000  0.27794000  1.0
  H  H4  1  0.67428000  0.34649000  0.94703000  1.0
  H  H5  1  0.17428000  0.94703000  0.34648000  1.0
  H  H6  1  0.70177000  0.96877000  0.63869000  1.0
  H  H7  1  0.20177000  0.63869000  0.96878000  1.0
  H  H8  1  0.63953000  0.53406000  0.96289000  1.0
  H  H9  1  0.13953000  0.96289000  0.53405000  1.0
  H  H10  1  0.75785000  0.90670000  0.79077000  1.0
  H  H11  1  0.25785000  0.79077000  0.90670000  1.0
  H  H12  1  0.49712000  0.79124000  0.68204000  1.0
  H  H13  1  0.99712000  0.68204000  0.79124000  1.0
  H  H14  1  0.65675000  0.91760000  0.46772000  1.0
  H  H15  1  0.15675000  0.46772000  0.91761000  1.0
  H  H16  1  0.72638000  0.19882000  0.03271000  1.0
  H  H17  1  0.22638000  0.03271000  0.19882000  1.0
  H  H18  1  0.50916000  0.31222000  0.28897000  1.0
  H  H19  1  0.00915000  0.28896000  0.31222000  1.0
  H  H20  1  0.57714000  0.96165000  0.26674000  1.0
  H  H21  1  0.07714000  0.26674000  0.96165000  1.0
  H  H22  1  0.49904000  0.64843000  0.56039000  1.0
  H  H23  1  0.99903000  0.56039000  0.64843000  1.0
  H  H24  1  0.57359000  0.73565000  0.88396000  1.0
  H  H25  1  0.07360000  0.88397000  0.73565000  1.0
  H  H26  1  0.50137000  0.16007000  0.17866000  1.0
  H  H27  1  0.00137000  0.17865000  0.16007000  1.0
  H  H28  1  0.06691000  0.17372000  0.82247000  1.0
  H  H29  1  0.56691000  0.82246000  0.17372000  1.0
  H  H30  1  0.29712000  0.20562000  0.79273000  1.0
  H  H31  1  0.79712000  0.79273000  0.20561000  1.0
  H  H32  1  0.97164000  0.34740000  0.72098000  1.0
  H  H33  1  0.47164000  0.72098000  0.34740000  1.0
  H  H34  1  0.20189000  0.38792000  0.70976000  1.0
  H  H35  1  0.70188000  0.70976000  0.38791000  1.0
  H  H36  1  0.16983000  0.19902000  0.48155000  1.0
  H  H37  1  0.66983000  0.48155000  0.19901000  1.0
  H  H38  1  0.95373000  0.19389000  0.55423000  1.0
  H  H39  1  0.45373000  0.55422000  0.19389000  1.0
  H  H40  1  0.82594000  0.85646000  0.99107000  1.0
  H  H41  1  0.32594000  0.99107000  0.85646000  1.0
  H  H42  1  0.31524000  0.10716000  0.64549000  1.0
  H  H43  1  0.81523000  0.64550000  0.10715000  1.0
  H  H44  1  0.09783000  0.05689000  0.68833000  1.0
  H  H45  1  0.59782000  0.68832000  0.05689000  1.0
  H  H46  1  0.80750000  0.00218000  0.11241000  1.0
  H  H47  1  0.30750000  0.11241000  0.00217000  1.0
  C  C48  1  0.56912000  0.50847000  0.69084000  1.0
  C  C49  1  0.06912000  0.69084000  0.50846000  1.0
  C  C50  1  0.64478000  0.36181000  0.85789000  1.0
  C  C51  1  0.14477000  0.85790000  0.36181000  1.0
  C  C52  1  0.60630000  0.47569000  0.80753000  1.0
  C  C53  1  0.10630000  0.80753000  0.47569000  1.0
  C  C54  1  0.58406000  0.20327000  0.44333000  1.0
  C  C55  1  0.08404000  0.44333000  0.20327000  1.0
  C  C56  1  0.62465000  0.08893000  0.49430000  1.0
  C  C57  1  0.12464000  0.49429000  0.08893000  1.0
  C  C58  1  0.66607000  0.05738000  0.60970000  1.0
  C  C59  1  0.16607000  0.60970000  0.05738000  1.0
  C  C60  1  0.69616000  0.16600000  0.86442000  1.0
  C  C61  1  0.19616000  0.86442000  0.16600000  1.0
  C  C62  1  0.60758000  0.55999000  0.87467000  1.0
  C  C63  1  0.10758000  0.87467000  0.55999000  1.0
  C  C64  1  0.75046000  0.97180000  0.84216000  1.0
  C  C65  1  0.25045000  0.84215000  0.97180000  1.0
  C  C66  1  0.70495000  0.08338000  0.79627000  1.0
  C  C67  1  0.20495000  0.79627000  0.08338000  1.0
  C  C68  1  0.52973000  0.70362000  0.71723000  1.0
  C  C69  1  0.02973000  0.71723000  0.70362000  1.0
  C  C70  1  0.62280000  0.00396000  0.42796000  1.0
  C  C71  1  0.12279000  0.42796000  0.00395000  1.0
  C  C72  1  0.73192000  0.13628000  0.97851000  1.0
  C  C73  1  0.23191000  0.97850000  0.13628000  1.0
  C  C74  1  0.54032000  0.22554000  0.32861000  1.0
  C  C75  1  0.04031000  0.32860000  0.22554000  1.0
  C  C76  1  0.57938000  0.02816000  0.31597000  1.0
  C  C77  1  0.07938000  0.31597000  0.02816000  1.0
  C  C78  1  0.52931000  0.62338000  0.64889000  1.0
  C  C79  1  0.02931000  0.64889000  0.62338000  1.0
  C  C80  1  0.57093000  0.67220000  0.83100000  1.0
  C  C81  1  0.07093000  0.83100000  0.67220000  1.0
  C  C82  1  0.53715000  0.14000000  0.26652000  1.0
  C  C83  1  0.03715000  0.26652000  0.14000000  1.0
  C  C84  1  0.16559000  0.20539000  0.75572000  1.0
  C  C85  1  0.66559000  0.75572000  0.20539000  1.0
  C  C86  1  0.11001000  0.32378000  0.69589000  1.0
  C  C87  1  0.61001000  0.69589000  0.32378000  1.0
  C  C88  1  0.09764000  0.20820000  0.56070000  1.0
  C  C89  1  0.59764000  0.56070000  0.20820000  1.0
  C  C90  1  0.78858000  0.94312000  0.95578000  1.0
  C  C91  1  0.28858000  0.95579000  0.94312000  1.0
  C  C92  1  0.17558000  0.13255000  0.66337000  1.0
  C  C93  1  0.67558000  0.66336000  0.13255000  1.0
  C  C94  1  0.77862000  0.02483000  0.02367000  1.0
  C  C95  1  0.27862000  0.02368000  0.02482000  1.0
  N  N96  1  0.66426000  0.12721000  0.68249000  1.0
  N  N97  1  0.16426000  0.68250000  0.12720000  1.0
  N  N98  1  0.65110000  0.27540000  0.80413000  1.0
  N  N99  1  0.15110000  0.80413000  0.27539000  1.0
  O  O100  1  0.58664000  0.28779000  0.49886000  1.0
  O  O101  1  0.08664000  0.49886000  0.28779000  1.0
  O  O102  1  0.57147000  0.43585000  0.62099000  1.0
  O  O103  1  0.07148000  0.62099000  0.43585000  1.0
  O  O104  1  0.11942000  0.32238000  0.57624000  1.0
  O  O105  1  0.61942000  0.57623000  0.32238000  1.0
