# generated using pymatgen
data_BaH14C14N2O11
_symmetry_space_group_name_H-M   'P 1'
_cell_length_a   8.27050000
_cell_length_b   8.33805000
_cell_length_c   13.83640000
_cell_angle_alpha   80.60820000
_cell_angle_beta   85.52340000
_cell_angle_gamma   70.88250000
_symmetry_Int_Tables_number   1
_chemical_formula_structural   BaH14C14N2O11
_chemical_formula_sum   'Ba2 H28 C28 N4 O22'
_cell_volume   889.13869511
_cell_formula_units_Z   2
loop_
 _symmetry_equiv_pos_site_id
 _symmetry_equiv_pos_as_xyz
  1  'x, y, z'
loop_
 _atom_site_type_symbol
 _atom_site_label
 _atom_site_symmetry_multiplicity
 _atom_site_fract_x
 _atom_site_fract_y
 _atom_site_fract_z
 _atom_site_occupancy
  Ba  Ba0  1  0.60188000  0.22720000  0.96347000  1.0
  Ba  Ba1  1  0.39812000  0.77280000  0.03653000  1.0
  H  H2  1  0.98268000  0.06521000  0.59867000  1.0
  H  H3  1  0.01732000  0.93479000  0.40133000  1.0
  H  H4  1  0.21674000  0.07901000  0.47313000  1.0
  H  H5  1  0.78326000  0.92099000  0.52687000  1.0
  H  H6  1  0.00507000  0.11227000  0.76635000  1.0
  H  H7  1  0.99493000  0.88773000  0.23365000  1.0
  H  H8  1  0.89625000  0.61399000  0.63478000  1.0
  H  H9  1  0.10375000  0.38601000  0.36522000  1.0
  H  H10  1  0.96964000  0.66070000  0.79553000  1.0
  H  H11  1  0.03036000  0.33930000  0.20447000  1.0
  H  H12  1  0.39692000  0.61074000  0.52008000  1.0
  H  H13  1  0.60308000  0.38926000  0.47992000  1.0
  H  H14  1  0.47071000  0.14262000  0.52263000  1.0
  H  H15  1  0.52929000  0.85738000  0.47737000  1.0
  H  H16  1  0.11234000  0.58637000  0.49550000  1.0
  H  H17  1  0.88766000  0.41363000  0.50450000  1.0
  H  H18  1  0.20412000  0.31993000  0.99720000  1.0
  H  H19  1  0.79588000  0.68007000  0.00280000  1.0
  H  H20  1  0.78521000  0.43724000  0.78516000  1.0
  H  H21  1  0.21479000  0.56276000  0.21484000  1.0
  H  H22  1  0.94295000  0.35867000  0.85691000  1.0
  H  H23  1  0.05706000  0.64133000  0.14309000  1.0
  H  H24  1  0.23735000  0.40997000  0.08640000  1.0
  H  H25  1  0.76265000  0.59003000  0.91360000  1.0
  H  H26  1  0.78093000  0.87631000  0.88688000  1.0
  H  H27  1  0.21907000  0.12368000  0.11312000  1.0
  H  H28  1  0.95378000  0.91410000  0.87933000  1.0
  H  H29  1  0.04622000  0.08590000  0.12067000  1.0
  C  C30  1  0.38101000  0.15642000  0.67145000  1.0
  C  C31  1  0.61899000  0.84358000  0.32855000  1.0
  C  C32  1  0.09576000  0.09164000  0.61790000  1.0
  C  C33  1  0.90424000  0.90837000  0.38210000  1.0
  C  C34  1  0.26243000  0.16725000  0.84934000  1.0
  C  C35  1  0.73757000  0.83275000  0.15067000  1.0
  C  C36  1  0.22586000  0.09868000  0.54815000  1.0
  C  C37  1  0.77414000  0.90132000  0.45185000  1.0
  C  C38  1  0.10781000  0.11965000  0.71337000  1.0
  C  C39  1  0.89219000  0.88035000  0.28663000  1.0
  C  C40  1  0.26718000  0.67087000  0.85358000  1.0
  C  C41  1  0.73282000  0.32913000  0.14642000  1.0
  C  C42  1  0.22458000  0.65897000  0.75136000  1.0
  C  C43  1  0.77542000  0.34103000  0.24864000  1.0
  C  C44  1  0.02288000  0.62194000  0.64451000  1.0
  C  C45  1  0.97711000  0.37806000  0.35548000  1.0
  C  C46  1  0.06345000  0.64929000  0.73522000  1.0
  C  C47  1  0.93656000  0.35071000  0.26478000  1.0
  C  C48  1  0.25141000  0.15145000  0.74285000  1.0
  C  C49  1  0.74859000  0.84855000  0.25715000  1.0
  C  C50  1  0.34188000  0.64368000  0.67177000  1.0
  C  C51  1  0.65812000  0.35632000  0.32823000  1.0
  C  C52  1  0.30348000  0.61759000  0.58031000  1.0
  C  C53  1  0.69652000  0.38241000  0.41969000  1.0
  C  C54  1  0.36852000  0.13235000  0.57514000  1.0
  C  C55  1  0.63148000  0.86765000  0.42486000  1.0
  C  C56  1  0.14303000  0.60592000  0.56688000  1.0
  C  C57  1  0.85697000  0.39408000  0.43312000  1.0
  N  N58  1  0.51088000  0.65801000  0.68209000  1.0
  N  N59  1  0.48912000  0.34199000  0.31791000  1.0
  N  N60  1  0.53404000  0.19319000  0.69332000  1.0
  N  N61  1  0.46596000  0.80681000  0.30668000  1.0
  O  O62  1  0.39859000  0.55867000  0.89278000  1.0
  O  O63  1  0.60141000  0.44133000  0.10722000  1.0
  O  O64  1  0.81403000  0.40788000  0.85422000  1.0
  O  O65  1  0.18597000  0.59212000  0.14578000  1.0
  O  O66  1  0.52362000  0.27819000  0.76102000  1.0
  O  O67  1  0.47638000  0.72181000  0.23898000  1.0
  O  O68  1  0.16630000  0.79115000  0.89624000  1.0
  O  O69  1  0.83370000  0.20885000  0.10376000  1.0
  O  O70  1  0.27290000  0.30303000  0.05616000  1.0
  O  O71  1  0.72710000  0.69697000  0.94384000  1.0
  O  O72  1  0.38793000  0.06205000  0.89716000  1.0
  O  O73  1  0.61207000  0.93795000  0.10284000  1.0
  O  O74  1  0.14214000  0.28406000  0.88457000  1.0
  O  O75  1  0.85786000  0.71594000  0.11543000  1.0
  O  O76  1  0.52498000  0.75785000  0.73551000  1.0
  O  O77  1  0.47502000  0.24215000  0.26449000  1.0
  O  O78  1  0.63350000  0.56779000  0.63533000  1.0
  O  O79  1  0.36650000  0.43221000  0.36467000  1.0
  O  O80  1  0.66519000  0.14339000  0.64180000  1.0
  O  O81  1  0.33481000  0.85661000  0.35820000  1.0
  O  O82  1  0.82868000  0.97303000  0.87313000  1.0
  O  O83  1  0.17132000  0.02697000  0.12687000  1.0
