# generated using pymatgen
data_Cd3H16C20(Br2N11)2
_symmetry_space_group_name_H-M   'P 1'
_cell_length_a   6.86207000
_cell_length_b   9.44366000
_cell_length_c   13.15650000
_cell_angle_alpha   82.09660000
_cell_angle_beta   81.95630000
_cell_angle_gamma   88.74740000
_symmetry_Int_Tables_number   1
_chemical_formula_structural   Cd3H16C20(Br2N11)2
_chemical_formula_sum   'Cd3 H16 C20 Br4 N22'
_cell_volume   836.17167835
_cell_formula_units_Z   1
loop_
 _symmetry_equiv_pos_site_id
 _symmetry_equiv_pos_as_xyz
  1  'x, y, z'
loop_
 _atom_site_type_symbol
 _atom_site_label
 _atom_site_symmetry_multiplicity
 _atom_site_fract_x
 _atom_site_fract_y
 _atom_site_fract_z
 _atom_site_occupancy
  Cd  Cd0  1  0.00000000  0.00000000  0.00000000  1.0
  Cd  Cd1  1  0.25023000  0.41762000  0.97733000  1.0
  Cd  Cd2  1  0.74977000  0.58238000  0.02267000  1.0
  H  H3  1  0.00699000  0.25984000  0.80708000  1.0
  H  H4  1  0.99301000  0.74016000  0.19292000  1.0
  H  H5  1  0.09147000  0.30608000  0.61432000  1.0
  H  H6  1  0.90853000  0.69392000  0.38568000  1.0
  H  H7  1  0.28831000  0.86628000  0.62383000  1.0
  H  H8  1  0.71170000  0.13372000  0.37617000  1.0
  H  H9  1  0.20768000  0.84130000  0.81550000  1.0
  H  H10  1  0.79232000  0.15870000  0.18450000  1.0
  H  H11  1  0.46017000  0.61116000  0.78148000  1.0
  H  H12  1  0.53984000  0.38884000  0.21853000  1.0
  H  H13  1  0.64317000  0.60499000  0.60452000  1.0
  H  H14  1  0.35683000  0.39501000  0.39548000  1.0
  H  H15  1  0.64392000  0.14252000  0.67313000  1.0
  H  H16  1  0.35607000  0.85748000  0.32687000  1.0
  H  H17  1  0.45831000  0.16824000  0.84540000  1.0
  H  H18  1  0.54169000  0.83177000  0.15460000  1.0
  C  C19  1  0.07213000  0.17600000  0.76353000  1.0
  C  C20  1  0.92787000  0.82400000  0.23647000  1.0
  C  C21  1  0.11753000  0.20129000  0.65606000  1.0
  C  C22  1  0.88247000  0.79871000  0.34394000  1.0
  C  C23  1  0.19525000  0.08837000  0.60484000  1.0
  C  C24  1  0.80475000  0.91163000  0.39516000  1.0
  C  C25  1  0.22970000  0.95670000  0.66143000  1.0
  C  C26  1  0.77030000  0.04330000  0.33857000  1.0
  C  C27  1  0.18341000  0.94273000  0.76866000  1.0
  C  C28  1  0.81659000  0.05727000  0.23134000  1.0
  C  C29  1  0.50016000  0.50965000  0.75344000  1.0
  C  C30  1  0.49983000  0.49035000  0.24656000  1.0
  C  C31  1  0.60333000  0.50601000  0.65528000  1.0
  C  C32  1  0.39667000  0.49399000  0.34472000  1.0
  C  C33  1  0.65214000  0.37281000  0.62447000  1.0
  C  C34  1  0.34786000  0.62719000  0.37553000  1.0
  C  C35  1  0.60426000  0.24847000  0.69300000  1.0
  C  C36  1  0.39573000  0.75152000  0.30700000  1.0
  C  C37  1  0.50014000  0.26271000  0.78988000  1.0
  C  C38  1  0.49985000  0.73729000  0.21011000  1.0
  Br  Br39  1  0.24983000  0.11055000  0.45812000  1.0
  Br  Br40  1  0.75017000  0.88945000  0.54188000  1.0
  Br  Br41  1  0.78302000  0.36473000  0.48875000  1.0
  Br  Br42  1  0.21699000  0.63527000  0.51125000  1.0
  N  N43  1  0.10493000  0.04936000  0.81925000  1.0
  N  N44  1  0.89507000  0.95064000  0.18075000  1.0
  N  N45  1  0.44597000  0.39047000  0.81942000  1.0
  N  N46  1  0.55402000  0.60953000  0.18058000  1.0
  N  N47  1  0.97317000  0.49280000  0.89001000  1.0
  N  N48  1  0.02683000  0.50720000  0.10999000  1.0
  N  N49  1  0.00187000  0.56305000  0.80515000  1.0
  N  N50  1  0.99813000  0.43694000  0.19485000  1.0
  N  N51  1  0.02800000  0.62986000  0.72320000  1.0
  N  N52  1  0.97200000  0.37014000  0.27680000  1.0
  N  N53  1  0.19373000  0.18332000  0.04754000  1.0
  N  N54  1  0.80627000  0.81668000  0.95246000  1.0
  N  N55  1  0.27181000  0.13951000  0.12326000  1.0
  N  N56  1  0.72818000  0.86049000  0.87674000  1.0
  N  N57  1  0.34503000  0.09516000  0.19563000  1.0
  N  N58  1  0.65498000  0.90483000  0.80438000  1.0
  N  N59  1  0.74386000  0.16135000  0.96993000  1.0
  N  N60  1  0.25614000  0.83864000  0.03006000  1.0
  N  N61  1  0.67338000  0.25965000  0.00726000  1.0
  N  N62  1  0.32662000  0.74035000  0.99274000  1.0
  N  N63  1  0.59376000  0.35834000  0.04338000  1.0
  N  N64  1  0.40624000  0.64165000  0.95662000  1.0
