# generated using pymatgen
data_CuH8(C4N7)2
_symmetry_space_group_name_H-M   'P 1'
_cell_length_a   6.14290000
_cell_length_b   9.79000000
_cell_length_c   10.05480000
_cell_angle_alpha   89.26830000
_cell_angle_beta   89.99970000
_cell_angle_gamma   89.99990000
_symmetry_Int_Tables_number   1
_chemical_formula_structural   CuH8(C4N7)2
_chemical_formula_sum   'Cu2 H16 C16 N28'
_cell_volume   604.63621902
_cell_formula_units_Z   2
loop_
 _symmetry_equiv_pos_site_id
 _symmetry_equiv_pos_as_xyz
  1  'x, y, z'
loop_
 _atom_site_type_symbol
 _atom_site_label
 _atom_site_symmetry_multiplicity
 _atom_site_fract_x
 _atom_site_fract_y
 _atom_site_fract_z
 _atom_site_occupancy
  Cu  Cu0  1  0.50000000  0.00000000  0.50000000  1.0
  Cu  Cu1  1  0.00000000  0.00000000  0.00000000  1.0
  H  H2  1  0.84741000  0.12562000  0.42869000  1.0
  H  H3  1  0.34741000  0.87437000  0.07131000  1.0
  H  H4  1  0.15260000  0.87438000  0.57131000  1.0
  H  H5  1  0.65258000  0.12562000  0.92869000  1.0
  H  H6  1  0.86978000  0.08104000  0.58802000  1.0
  H  H7  1  0.36978000  0.91896000  0.91198000  1.0
  H  H8  1  0.13023000  0.91896000  0.41198000  1.0
  H  H9  1  0.63022000  0.08105000  0.08802000  1.0
  H  H10  1  0.50334000  0.52881000  0.70493000  1.0
  H  H11  1  0.00333000  0.47119000  0.79507000  1.0
  H  H12  1  0.49668000  0.47119000  0.29508000  1.0
  H  H13  1  0.99666000  0.52882000  0.20493000  1.0
  H  H14  1  0.15547000  0.42591000  0.43183000  1.0
  H  H15  1  0.65545000  0.57410000  0.06817000  1.0
  H  H16  1  0.84454000  0.57409000  0.56817000  1.0
  H  H17  1  0.34453000  0.42590000  0.93183000  1.0
  C  C18  1  0.38580000  0.22446000  0.68997000  1.0
  C  C19  1  0.88580000  0.77554000  0.81002000  1.0
  C  C20  1  0.61421000  0.77554000  0.31003000  1.0
  C  C21  1  0.11420000  0.22446000  0.18997000  1.0
  C  C22  1  0.55980000  0.31008000  0.64167000  1.0
  C  C23  1  0.05979000  0.68992000  0.85834000  1.0
  C  C24  1  0.44022000  0.68992000  0.35834000  1.0
  C  C25  1  0.94020000  0.31008000  0.14166000  1.0
  C  C26  1  0.73095000  0.26616000  0.55807000  1.0
  C  C27  1  0.23094000  0.73384000  0.94194000  1.0
  C  C28  1  0.26906000  0.73384000  0.44193000  1.0
  C  C29  1  0.76905000  0.26616000  0.05806000  1.0
  C  C30  1  0.59332000  0.45034000  0.65368000  1.0
  C  C31  1  0.09331000  0.54965000  0.84632000  1.0
  C  C32  1  0.40670000  0.54966000  0.34633000  1.0
  C  C33  1  0.90667000  0.45034000  0.15367000  1.0
  N  N34  1  0.32849000  0.10736000  0.62903000  1.0
  N  N35  1  0.82849000  0.89264000  0.87097000  1.0
  N  N36  1  0.67151000  0.89264000  0.37097000  1.0
  N  N37  1  0.17150000  0.10736000  0.12903000  1.0
  N  N38  1  0.16005000  0.05532000  0.69846000  1.0
  N  N39  1  0.66005000  0.94468000  0.80154000  1.0
  N  N40  1  0.83995000  0.94468000  0.30154000  1.0
  N  N41  1  0.33994000  0.05533000  0.19846000  1.0
  N  N42  1  0.11718000  0.13826000  0.79784000  1.0
  N  N43  1  0.61718000  0.86174000  0.70217000  1.0
  N  N44  1  0.88282000  0.86174000  0.20216000  1.0
  N  N45  1  0.38281000  0.13827000  0.29783000  1.0
  N  N46  1  0.25651000  0.24476000  0.79590000  1.0
  N  N47  1  0.75651000  0.75524000  0.70411000  1.0
  N  N48  1  0.74350000  0.75524000  0.20411000  1.0
  N  N49  1  0.24348000  0.24477000  0.29589000  1.0
  N  N50  1  0.77048000  0.48044000  0.58004000  1.0
  N  N51  1  0.27046000  0.51955000  0.91996000  1.0
  N  N52  1  0.22953000  0.51955000  0.41997000  1.0
  N  N53  1  0.72953000  0.48044000  0.08003000  1.0
  N  N54  1  0.85957000  0.37000000  0.52100000  1.0
  N  N55  1  0.35956000  0.62999000  0.97900000  1.0
  N  N56  1  0.14044000  0.63000000  0.47901000  1.0
  N  N57  1  0.64042000  0.37001000  0.02099000  1.0
  N  N58  1  0.77024000  0.12932000  0.51926000  1.0
  N  N59  1  0.27023000  0.87067000  0.98074000  1.0
  N  N60  1  0.22977000  0.87068000  0.48074000  1.0
  N  N61  1  0.72976000  0.12933000  0.01925000  1.0
