# generated using pymatgen
data_CuH8C10(NO)4
_symmetry_space_group_name_H-M   'P 1'
_cell_length_a   4.93670000
_cell_length_b   13.20060000
_cell_length_c   17.31370000
_cell_angle_alpha   90.00170000
_cell_angle_beta   86.05930000
_cell_angle_gamma   90.00010000
_symmetry_Int_Tables_number   1
_chemical_formula_structural   CuH8C10(NO)4
_chemical_formula_sum   'Cu4 H32 C40 N16 O16'
_cell_volume   1125.62124867
_cell_formula_units_Z   4
loop_
 _symmetry_equiv_pos_site_id
 _symmetry_equiv_pos_as_xyz
  1  'x, y, z'
loop_
 _atom_site_type_symbol
 _atom_site_label
 _atom_site_symmetry_multiplicity
 _atom_site_fract_x
 _atom_site_fract_y
 _atom_site_fract_z
 _atom_site_occupancy
  Cu  Cu0  1  0.13038000  0.37761000  0.73114000  1.0
  Cu  Cu1  1  0.36965000  0.87761000  0.76886000  1.0
  Cu  Cu2  1  0.86968000  0.62239000  0.26887000  1.0
  Cu  Cu3  1  0.63030000  0.12239000  0.23113000  1.0
  H  H4  1  0.88986000  0.18611000  0.67340000  1.0
  H  H5  1  0.61017000  0.68612000  0.82660000  1.0
  H  H6  1  0.11017000  0.81392000  0.32662000  1.0
  H  H7  1  0.38981000  0.31392000  0.17339000  1.0
  H  H8  1  0.51474000  0.25602000  0.81465000  1.0
  H  H9  1  0.98528000  0.75601000  0.68535000  1.0
  H  H10  1  0.48534000  0.74397000  0.18536000  1.0
  H  H11  1  0.01464000  0.24397000  0.31466000  1.0
  H  H12  1  0.60444000  0.06916000  0.83181000  1.0
  H  H13  1  0.89558000  0.56915000  0.66819000  1.0
  H  H14  1  0.39556000  0.93082000  0.16818000  1.0
  H  H15  1  0.10442000  0.43083000  0.33183000  1.0
  H  H16  1  0.98144000  0.99967000  0.68969000  1.0
  H  H17  1  0.51860000  0.49968000  0.81031000  1.0
  H  H18  1  0.01856000  0.00036000  0.31030000  1.0
  H  H19  1  0.48144000  0.50034000  0.18971000  1.0
  H  H20  1  0.86807000  0.43697000  0.53798000  1.0
  H  H21  1  0.63194000  0.93697000  0.96202000  1.0
  H  H22  1  0.13193000  0.56303000  0.46202000  1.0
  H  H23  1  0.36804000  0.06303000  0.03798000  1.0
  H  H24  1  0.84925000  0.30373000  0.53791000  1.0
  H  H25  1  0.65077000  0.80374000  0.96209000  1.0
  H  H26  1  0.15076000  0.69627000  0.46208000  1.0
  H  H27  1  0.34923000  0.19627000  0.03792000  1.0
  H  H28  1  0.69319000  0.45031000  0.96557000  1.0
  H  H29  1  0.80684000  0.95030000  0.53443000  1.0
  H  H30  1  0.30680000  0.54968000  0.03443000  1.0
  H  H31  1  0.19318000  0.04967000  0.46555000  1.0
  H  H32  1  0.66645000  0.31813000  0.96178000  1.0
  H  H33  1  0.83359000  0.81813000  0.53821000  1.0
  H  H34  1  0.33356000  0.68186000  0.03822000  1.0
  H  H35  1  0.16639000  0.18184000  0.46178000  1.0
  C  C36  1  0.04983000  0.16029000  0.70892000  1.0
  C  C37  1  0.45021000  0.66030000  0.79107000  1.0
  C  C38  1  0.95019000  0.83973000  0.29108000  1.0
  C  C39  1  0.54978000  0.33972000  0.20893000  1.0
  C  C40  1  0.39631000  0.19833000  0.78708000  1.0
  C  C41  1  0.10371000  0.69832000  0.71292000  1.0
  C  C42  1  0.60373000  0.80167000  0.21292000  1.0
  C  C43  1  0.89624000  0.30167000  0.28709000  1.0
  C  C44  1  0.44544000  0.09524000  0.79600000  1.0
  C  C45  1  0.05458000  0.59524000  0.70400000  1.0
  C  C46  1  0.55457000  0.90475000  0.20400000  1.0
  C  C47  1  0.94541000  0.40475000  0.29601000  1.0
  C  C48  1  0.09946000  0.05721000  0.71763000  1.0
  C  C49  1  0.40057000  0.55721000  0.78236000  1.0
  C  C50  1  0.90053000  0.94281000  0.28236000  1.0
  C  C51  1  0.59945000  0.44280000  0.21765000  1.0
  C  C52  1  0.57075000  0.37529000  0.62222000  1.0
  C  C53  1  0.92927000  0.87530000  0.87778000  1.0
  C  C54  1  0.42927000  0.62470000  0.37778000  1.0
  C  C55  1  0.07070000  0.12470000  0.12222000  1.0
  C  C56  1  0.72566000  0.37299000  0.54182000  1.0
  C  C57  1  0.77436000  0.87300000  0.95817000  1.0
  C  C58  1  0.27435000  0.62701000  0.45817000  1.0
  C  C59  1  0.22564000  0.12701000  0.04183000  1.0
  C  C60  1  0.55003000  0.37628000  0.47826000  1.0
  C  C61  1  0.94997000  0.87630000  0.02174000  1.0
  C  C62  1  0.44998000  0.62371000  0.52174000  1.0
  C  C63  1  0.05003000  0.12372000  0.97826000  1.0
  C  C64  1  0.01362000  0.37909000  0.89270000  1.0
  C  C65  1  0.48642000  0.87908000  0.60730000  1.0
  C  C66  1  0.98639000  0.62091000  0.10730000  1.0
  C  C67  1  0.51357000  0.12092000  0.39269000  1.0
  C  C68  1  0.81304000  0.38018000  0.96530000  1.0
  C  C69  1  0.68700000  0.88018000  0.53469000  1.0
  C  C70  1  0.18696000  0.61981000  0.03470000  1.0
  C  C71  1  0.31300000  0.11980000  0.46529000  1.0
  C  C72  1  0.95430000  0.37280000  0.03544000  1.0
  C  C73  1  0.54573000  0.87279000  0.46456000  1.0
  C  C74  1  0.04569000  0.62720000  0.96456000  1.0
  C  C75  1  0.45427000  0.12719000  0.53543000  1.0
  N  N76  1  0.19787000  0.22987000  0.74347000  1.0
  N  N77  1  0.30215000  0.72987000  0.75653000  1.0
  N  N78  1  0.80217000  0.77014000  0.25654000  1.0
  N  N79  1  0.69780000  0.27014000  0.24347000  1.0
  N  N80  1  0.29840000  0.02566000  0.76101000  1.0
  N  N81  1  0.20162000  0.52566000  0.73899000  1.0
  N  N82  1  0.70158000  0.97434000  0.23899000  1.0
  N  N83  1  0.79840000  0.47434000  0.26102000  1.0
  N  N84  1  0.40507000  0.37901000  0.42792000  1.0
  N  N85  1  0.09495000  0.87903000  0.07208000  1.0
  N  N86  1  0.59492000  0.62099000  0.57208000  1.0
  N  N87  1  0.90507000  0.12099000  0.92792000  1.0
  N  N88  1  0.07480000  0.36688000  0.09081000  1.0
  N  N89  1  0.42520000  0.86688000  0.40919000  1.0
  N  N90  1  0.92517000  0.63312000  0.90919000  1.0
  N  N91  1  0.57480000  0.13311000  0.59080000  1.0
  O  O92  1  0.31078000  0.37553000  0.62313000  1.0
  O  O93  1  0.18924000  0.87553000  0.87687000  1.0
  O  O94  1  0.68925000  0.62447000  0.37687000  1.0
  O  O95  1  0.81074000  0.12447000  0.12313000  1.0
  O  O96  1  0.89288000  0.37976000  0.82908000  1.0
  O  O97  1  0.60716000  0.87975000  0.67092000  1.0
  O  O98  1  0.10714000  0.62025000  0.17092000  1.0
  O  O99  1  0.39283000  0.12025000  0.32907000  1.0
  O  O100  1  0.70594000  0.37643000  0.68064000  1.0
  O  O101  1  0.79409000  0.87645000  0.81935000  1.0
  O  O102  1  0.29411000  0.62355000  0.31935000  1.0
  O  O103  1  0.20586000  0.12356000  0.18064000  1.0
  O  O104  1  0.26260000  0.37807000  0.89956000  1.0
  O  O105  1  0.23743000  0.87807000  0.60044000  1.0
  O  O106  1  0.73740000  0.62192000  0.10044000  1.0
  O  O107  1  0.76256000  0.12193000  0.39955000  1.0
