# generated using pymatgen
data_Mg2H9C18N4O6F
_symmetry_space_group_name_H-M   'P 1'
_cell_length_a   6.73424000
_cell_length_b   28.59690000
_cell_length_c   28.60090000
_cell_angle_alpha   119.38700000
_cell_angle_beta   94.52810000
_cell_angle_gamma   94.47120000
_symmetry_Int_Tables_number   1
_chemical_formula_structural   Mg2H9C18N4O6F
_chemical_formula_sum   'Mg6 H27 C54 N12 O18 F3'
_cell_volume   4740.83093172
_cell_formula_units_Z   3
loop_
 _symmetry_equiv_pos_site_id
 _symmetry_equiv_pos_as_xyz
  1  'x, y, z'
loop_
 _atom_site_type_symbol
 _atom_site_label
 _atom_site_symmetry_multiplicity
 _atom_site_fract_x
 _atom_site_fract_y
 _atom_site_fract_z
 _atom_site_occupancy
  Mg  Mg0  1  0.98974000  0.37561000  0.69556000  1.0
  Mg  Mg1  1  0.55836000  0.69900000  0.37366000  1.0
  Mg  Mg2  1  0.29458000  0.30448000  0.68007000  1.0
  Mg  Mg3  1  0.18494000  0.62632000  0.32532000  1.0
  Mg  Mg4  1  0.61431000  0.31992000  0.62443000  1.0
  Mg  Mg5  1  0.85934000  0.67465000  0.30100000  1.0
  H  H6  1  0.70494000  0.49058000  0.56004000  1.0
  H  H7  1  0.68737000  0.43657000  0.59753000  1.0
  H  H8  1  0.31127000  0.36811000  0.52419000  1.0
  H  H9  1  0.14035000  0.42538000  0.49476000  1.0
  H  H10  1  0.33411000  0.48293000  0.44687000  1.0
  H  H11  1  0.21941000  0.60034000  0.43221000  1.0
  H  H12  1  0.84835000  0.52366000  0.37187000  1.0
  H  H13  1  0.62400000  0.48343000  0.41151000  1.0
  H  H14  1  0.85035000  0.63029000  0.52821000  1.0
  H  H15  1  0.14469000  0.43990000  0.93032000  1.0
  H  H16  1  0.09013000  0.40246000  0.83889000  1.0
  H  H17  1  0.78735000  0.47597000  0.84411000  1.0
  H  H18  1  0.64561000  0.50529000  0.93069000  1.0
  H  H19  1  0.88645000  0.55317000  0.03608000  1.0
  H  H20  1  0.78689000  0.56785000  0.16818000  1.0
  H  H21  1  0.47588000  0.62813000  0.15175000  1.0
  H  H22  1  0.21147000  0.58859000  0.07195000  1.0
  H  H23  1  0.32154000  0.47178000  0.10196000  1.0
  H  H24  1  0.21441000  0.06969000  0.50951000  1.0
  H  H25  1  0.25151000  0.16109000  0.56351000  1.0
  H  H26  1  0.94380000  0.15583000  0.63175000  1.0
  H  H27  1  0.71544000  0.06923000  0.57449000  1.0
  H  H28  1  0.85074000  0.96393000  0.51709000  1.0
  H  H29  1  0.61835000  0.83186000  0.39977000  1.0
  H  H30  1  0.32410000  0.84809000  0.47630000  1.0
  H  H31  1  0.13989000  0.92800000  0.51657000  1.0
  H  H32  1  0.21978000  0.89793000  0.36973000  1.0
  C  C33  1  0.82343000  0.55825000  0.53434000  1.0
  C  C34  1  0.90404000  0.50976000  0.52133000  1.0
  C  C35  1  0.90925000  0.43741000  0.54665000  1.0
  C  C36  1  0.82434000  0.42162000  0.58084000  1.0
  C  C37  1  0.91683000  0.38863000  0.59724000  1.0
  C  C38  1  0.10258000  0.37122000  0.57791000  1.0
  C  C39  1  0.17385000  0.38366000  0.53983000  1.0
  C  C40  1  0.08065000  0.41550000  0.52337000  1.0
  C  C41  1  0.23186000  0.34486000  0.59887000  1.0
  C  C42  1  0.13244000  0.53379000  0.47866000  1.0
  C  C43  1  0.40817000  0.54049000  0.42600000  1.0
  C  C44  1  0.35653000  0.58323000  0.41912000  1.0
  C  C45  1  0.47744000  0.60441000  0.39414000  1.0
  C  C46  1  0.66323000  0.58377000  0.37860000  1.0
  C  C47  1  0.70872000  0.53966000  0.38489000  1.0
  C  C48  1  0.58449000  0.51754000  0.40715000  1.0
  C  C49  1  0.80831000  0.60576000  0.35629000  1.0
  C  C50  1  0.90955000  0.59249000  0.51841000  1.0
  C  C51  1  0.28853000  0.46566000  0.02381000  1.0
  C  C52  1  0.38220000  0.47868000  0.98837000  1.0
  C  C53  1  0.36275000  0.45333000  0.89072000  1.0
  C  C54  1  0.24387000  0.41915000  0.84071000  1.0
  C  C55  1  0.32006000  0.40279000  0.79139000  1.0
  C  C56  1  0.52514000  0.42216000  0.79336000  1.0
  C  C57  1  0.63437000  0.46024000  0.84394000  1.0
  C  C58  1  0.55751000  0.47665000  0.89219000  1.0
  C  C59  1  0.63338000  0.40122000  0.74607000  1.0
  C  C60  1  0.65304000  0.52143000  0.05516000  1.0
  C  C61  1  0.98143000  0.57413000  0.11454000  1.0
  C  C62  1  0.93693000  0.58098000  0.16415000  1.0
  C  C63  1  0.08303000  0.60593000  0.21028000  1.0
  C  C64  1  0.28427000  0.62147000  0.20517000  1.0
  C  C65  1  0.32325000  0.61517000  0.15476000  1.0
  C  C66  1  0.17654000  0.59297000  0.11041000  1.0
  C  C67  1  0.45181000  0.64374000  0.24945000  1.0
  C  C68  1  0.39053000  0.48161000  0.07399000  1.0
  C  C69  1  0.26466000  0.97612000  0.44175000  1.0
  C  C70  1  0.39380000  0.01160000  0.49023000  1.0
  C  C71  1  0.47235000  0.10922000  0.56252000  1.0
  C  C72  1  0.40349000  0.15925000  0.57837000  1.0
  C  C73  1  0.52903000  0.20859000  0.61134000  1.0
  C  C74  1  0.73227000  0.20658000  0.62870000  1.0
  C  C75  1  0.79089000  0.15600000  0.61619000  1.0
  C  C76  1  0.66574000  0.10775000  0.58435000  1.0
  C  C77  1  0.88775000  0.25390000  0.65511000  1.0
  C  C78  1  0.59808000  0.94485000  0.46625000  1.0
  C  C79  1  0.86696000  0.88544000  0.45959000  1.0
  C  C80  1  0.77253000  0.83585000  0.41687000  1.0
  C  C81  1  0.87238000  0.78968000  0.39566000  1.0
  C  C82  1  0.07877000  0.79474000  0.41630000  1.0
  C  C83  1  0.16838000  0.84515000  0.46038000  1.0
  C  C84  1  0.06629000  0.88954000  0.48252000  1.0
  C  C85  1  0.20213000  0.75049000  0.39428000  1.0
  C  C86  1  0.31662000  0.92594000  0.40755000  1.0
  N  N87  1  0.82143000  0.47630000  0.53876000  1.0
  N  N88  1  0.05790000  0.49775000  0.49269000  1.0
  N  N89  1  0.29272000  0.51755000  0.44981000  1.0
  N  N90  1  0.06747000  0.58096000  0.49038000  1.0
  N  N91  1  0.28246000  0.46120000  0.93743000  1.0
  N  N92  1  0.56455000  0.50736000  0.00506000  1.0
  N  N93  1  0.84210000  0.55030000  0.06778000  1.0
  N  N94  1  0.57637000  0.50969000  0.09057000  1.0
  N  N95  1  0.34513000  0.06255000  0.52369000  1.0
  N  N96  1  0.55958000  0.99494000  0.50225000  1.0
  N  N97  1  0.77455000  0.93223000  0.48253000  1.0
  N  N98  1  0.48601000  0.90940000  0.41910000  1.0
  O  O99  1  0.39404000  0.32940000  0.57955000  1.0
  O  O100  1  0.18275000  0.34019000  0.63952000  1.0
  O  O101  1  0.83224000  0.37652000  0.63159000  1.0
  O  O102  1  0.97089000  0.58567000  0.34272000  1.0
  O  O103  1  0.77105000  0.64722000  0.35139000  1.0
  O  O104  1  0.40843000  0.64264000  0.38544000  1.0
  O  O105  1  0.81488000  0.42058000  0.74996000  1.0
  O  O106  1  0.54368000  0.36054000  0.70074000  1.0
  O  O107  1  0.20117000  0.36846000  0.74491000  1.0
  O  O108  1  0.62786000  0.65731000  0.24292000  1.0
  O  O109  1  0.41971000  0.64859000  0.29580000  1.0
  O  O110  1  0.02298000  0.61458000  0.25719000  1.0
  O  O111  1  0.06544000  0.25001000  0.67056000  1.0
  O  O112  1  0.84309000  0.29926000  0.65987000  1.0
  O  O113  1  0.45649000  0.25507000  0.62352000  1.0
  O  O114  1  0.38486000  0.75705000  0.41437000  1.0
  O  O115  1  0.12375000  0.70415000  0.35278000  1.0
  O  O116  1  0.76534000  0.74278000  0.35737000  1.0
  F  F117  1  0.66289000  0.57017000  0.56305000  1.0
  F  F118  1  0.09934000  0.43689000  0.00694000  1.0
  F  F119  1  0.09227000  0.99296000  0.42980000  1.0
