# generated using pymatgen
data_CdH18C22(NO)4
_symmetry_space_group_name_H-M   'P 1'
_cell_length_a   11.25390000
_cell_length_b   13.57080000
_cell_length_c   18.61200000
_cell_angle_alpha   70.65330000
_cell_angle_beta   81.09280000
_cell_angle_gamma   67.80620000
_symmetry_Int_Tables_number   1
_chemical_formula_structural   CdH18C22(NO)4
_chemical_formula_sum   'Cd4 H72 C88 N16 O16'
_cell_volume   2481.85418912
_cell_formula_units_Z   4
loop_
 _symmetry_equiv_pos_site_id
 _symmetry_equiv_pos_as_xyz
  1  'x, y, z'
loop_
 _atom_site_type_symbol
 _atom_site_label
 _atom_site_symmetry_multiplicity
 _atom_site_fract_x
 _atom_site_fract_y
 _atom_site_fract_z
 _atom_site_occupancy
  Cd  Cd0  1  0.21056000  0.42045000  0.30378000  1.0
  Cd  Cd1  1  0.78944000  0.57955000  0.69622000  1.0
  Cd  Cd2  1  0.29646000  0.07546000  0.69747000  1.0
  Cd  Cd3  1  0.70354000  0.92454000  0.30253000  1.0
  H  H4  1  0.95391000  0.18352000  0.30336000  1.0
  H  H5  1  0.04609000  0.81648000  0.69664000  1.0
  H  H6  1  0.14428000  0.85385000  0.28095000  1.0
  H  H7  1  0.85572000  0.14615000  0.71905000  1.0
  H  H8  1  0.35758000  0.87557000  0.27428000  1.0
  H  H9  1  0.64242000  0.12443000  0.72572000  1.0
  H  H10  1  0.36582000  0.05277000  0.27969000  1.0
  H  H11  1  0.63418000  0.94723000  0.72031000  1.0
  H  H12  1  0.54482000  0.31903000  0.69926000  1.0
  H  H13  1  0.45518000  0.68097000  0.30073000  1.0
  H  H14  1  0.34694000  0.64624000  0.72489000  1.0
  H  H15  1  0.65306000  0.35376000  0.27512000  1.0
  H  H16  1  0.13608000  0.62015000  0.73143000  1.0
  H  H17  1  0.86392000  0.37985000  0.26857000  1.0
  H  H18  1  0.13303000  0.44172000  0.72485000  1.0
  H  H19  1  0.86697000  0.55828000  0.27515000  1.0
  H  H20  1  0.96661000  0.35948000  0.41257000  1.0
  H  H21  1  0.03338000  0.64052000  0.58742000  1.0
  H  H22  1  0.26875000  0.41700000  0.48096000  1.0
  H  H23  1  0.73125000  0.58300000  0.51904000  1.0
  H  H24  1  0.12624000  0.34365000  0.61001000  1.0
  H  H25  1  0.87376000  0.65635000  0.39000000  1.0
  H  H26  1  0.85781000  0.37343000  0.60035000  1.0
  H  H27  1  0.14219000  0.62657000  0.39965000  1.0
  H  H28  1  0.96706000  0.23336000  0.62188000  1.0
  H  H29  1  0.03294000  0.76664000  0.37812000  1.0
  H  H30  1  0.98195000  0.13504000  0.51315000  1.0
  H  H31  1  0.01805000  0.86496000  0.48685000  1.0
  H  H32  1  0.83987000  0.09157000  0.44798000  1.0
  H  H33  1  0.16013000  0.90843000  0.55202000  1.0
  H  H34  1  0.51992000  0.37039000  0.48674000  1.0
  H  H35  1  0.48008000  0.62961000  0.51326000  1.0
  H  H36  1  0.66176000  0.41321000  0.55256000  1.0
  H  H37  1  0.33824000  0.58678000  0.44744000  1.0
  H  H38  1  0.53316000  0.27203000  0.37905000  1.0
  H  H39  1  0.46684000  0.72797000  0.62095000  1.0
  H  H40  1  0.64417000  0.13323000  0.39859000  1.0
  H  H41  1  0.35583000  0.86677000  0.60141000  1.0
  H  H42  1  0.53616000  0.14500000  0.58787000  1.0
  H  H43  1  0.46383000  0.85500000  0.41213000  1.0
  H  H44  1  0.24183000  0.07608000  0.52088000  1.0
  H  H45  1  0.75817000  0.92393000  0.47912000  1.0
  H  H46  1  0.38016000  0.15402000  0.39134000  1.0
  H  H47  1  0.61983000  0.84597000  0.60866000  1.0
  H  H48  1  0.09323000  0.70145000  0.24661000  1.0
  H  H49  1  0.90677000  0.29855000  0.75339000  1.0
  H  H50  1  0.05278000  0.48698000  0.13956000  1.0
  H  H51  1  0.94722000  0.51302000  0.86044000  1.0
  H  H52  1  0.90525000  0.70679000  0.06481000  1.0
  H  H53  1  0.09475000  0.29321000  0.93519000  1.0
  H  H54  1  0.92769000  0.87803000  0.18656000  1.0
  H  H55  1  0.07231000  0.12197000  0.81344000  1.0
  H  H56  1  0.81160000  0.87417000  0.13492000  1.0
  H  H57  1  0.18840000  0.12583000  0.86508000  1.0
  H  H58  1  0.78325000  0.06960000  0.05915000  1.0
  H  H59  1  0.21675000  0.93039000  0.94085000  1.0
  H  H60  1  0.36347000  0.62332000  0.88896000  1.0
  H  H61  1  0.63654000  0.37669000  0.11103000  1.0
  H  H62  1  0.72172000  0.49742000  0.00083000  1.0
  H  H63  1  0.27829000  0.50259000  0.99917000  1.0
  H  H64  1  0.14608000  0.80516000  0.05485000  1.0
  H  H65  1  0.85392000  0.19484000  0.94515000  1.0
  H  H66  1  0.70059000  0.62747000  0.87811000  1.0
  H  H67  1  0.29941000  0.37253000  0.12189000  1.0
  H  H68  1  0.59806000  0.61937000  0.81845000  1.0
  H  H69  1  0.40194000  0.38063000  0.18155000  1.0
  H  H70  1  0.43276000  0.79143000  0.75267000  1.0
  H  H71  1  0.56724000  0.20857000  0.24733000  1.0
  H  H72  1  0.43646000  0.01343000  0.86554000  1.0
  H  H73  1  0.56354000  0.98658000  0.13447000  1.0
  H  H74  1  0.58518000  0.79668000  0.94460000  1.0
  H  H75  1  0.41482000  0.20332000  0.05540000  1.0
  C  C76  1  0.16818000  0.23836000  0.28933000  1.0
  C  C77  1  0.83183000  0.76164000  0.71066000  1.0
  C  C78  1  0.16084000  0.13009000  0.29009000  1.0
  C  C79  1  0.83917000  0.86991000  0.70991000  1.0
  C  C80  1  0.04199000  0.11634000  0.29645000  1.0
  C  C81  1  0.95801000  0.88366000  0.70354000  1.0
  C  C82  1  0.03569000  0.01661000  0.29366000  1.0
  C  C83  1  0.96431000  0.98339000  0.70634000  1.0
  C  C84  1  0.14970000  0.93063000  0.28431000  1.0
  C  C85  1  0.85030000  0.06937000  0.71569000  1.0
  C  C86  1  0.26838000  0.94260000  0.27992000  1.0
  C  C87  1  0.73162000  0.05740000  0.72008000  1.0
  C  C88  1  0.27386000  0.04194000  0.28318000  1.0
  C  C89  1  0.72614000  0.95806000  0.71682000  1.0
  C  C90  1  0.90895000  0.00088000  0.30081000  1.0
  C  C91  1  0.09105000  0.99912000  0.69919000  1.0
  C  C92  1  0.33399000  0.25915000  0.71347000  1.0
  C  C93  1  0.66600000  0.74085000  0.28653000  1.0
  C  C94  1  0.33831000  0.36803000  0.71381000  1.0
  C  C95  1  0.66169000  0.63197000  0.28619000  1.0
  C  C96  1  0.45564000  0.38447000  0.70722000  1.0
  C  C97  1  0.54436000  0.61553000  0.29278000  1.0
  C  C98  1  0.45899000  0.48482000  0.71082000  1.0
  C  C99  1  0.54101000  0.51518000  0.28918000  1.0
  C  C100  1  0.34373000  0.56880000  0.72130000  1.0
  C  C101  1  0.65627000  0.43120000  0.27870000  1.0
  C  C102  1  0.22646000  0.55432000  0.72569000  1.0
  C  C103  1  0.77354000  0.44568000  0.27431000  1.0
  C  C104  1  0.22388000  0.45440000  0.72155000  1.0
  C  C105  1  0.77612000  0.54560000  0.27845000  1.0
  C  C106  1  0.58394000  0.50371000  0.70254000  1.0
  C  C107  1  0.41606000  0.49629000  0.29746000  1.0
  C  C108  1  0.02898000  0.36659000  0.44797000  1.0
  C  C109  1  0.97102000  0.63342000  0.55203000  1.0
  C  C110  1  0.18405000  0.39508000  0.48588000  1.0
  C  C111  1  0.81595000  0.60492000  0.51412000  1.0
  C  C112  1  0.11398000  0.36003000  0.54989000  1.0
  C  C113  1  0.88602000  0.63997000  0.45011000  1.0
  C  C114  1  0.91648000  0.30654000  0.57549000  1.0
  C  C115  1  0.08352000  0.69346000  0.42451000  1.0
  C  C116  1  0.83177000  0.27872000  0.53596000  1.0
  C  C117  1  0.16823000  0.72128000  0.46403000  1.0
  C  C118  1  0.88050000  0.18698000  0.50746000  1.0
  C  C119  1  0.11949000  0.81301000  0.49253000  1.0
  C  C120  1  0.80065000  0.16141000  0.47177000  1.0
  C  C121  1  0.19935000  0.83858000  0.52823000  1.0
  C  C122  1  0.66997000  0.22646000  0.46419000  1.0
  C  C123  1  0.33003000  0.77353000  0.53581000  1.0
  C  C124  1  0.62125000  0.31820000  0.49265000  1.0
  C  C125  1  0.37875000  0.68180000  0.50735000  1.0
  C  C126  1  0.70106000  0.34369000  0.52847000  1.0
  C  C127  1  0.29895000  0.65630000  0.47153000  1.0
  C  C128  1  0.58523000  0.19858000  0.42477000  1.0
  C  C129  1  0.41477000  0.80142000  0.57523000  1.0
  C  C130  1  0.47535000  0.13557000  0.55276000  1.0
  C  C131  1  0.52465000  0.86443000  0.44724000  1.0
  C  C132  1  0.32426000  0.10120000  0.51559000  1.0
  C  C133  1  0.67574000  0.89879000  0.48442000  1.0
  C  C134  1  0.39239000  0.13857000  0.45131000  1.0
  C  C135  1  0.60761000  0.86142000  0.54869000  1.0
  C  C136  1  0.06445000  0.67142000  0.20738000  1.0
  C  C137  1  0.93555000  0.32858000  0.79262000  1.0
  C  C138  1  0.04184000  0.56444000  0.14931000  1.0
  C  C139  1  0.95816000  0.43556000  0.85069000  1.0
  C  C140  1  0.96702000  0.67180000  0.11292000  1.0
  C  C141  1  0.03298000  0.32820000  0.88708000  1.0
  C  C142  1  0.91479000  0.85767000  0.13636000  1.0
  C  C143  1  0.08521000  0.14233000  0.86364000  1.0
  C  C144  1  0.95971000  0.92887000  0.06469000  1.0
  C  C145  1  0.04029000  0.07113000  0.93531000  1.0
  C  C146  1  0.87860000  0.03885000  0.03314000  1.0
  C  C147  1  0.12140000  0.96115000  0.96686000  1.0
  C  C148  1  0.42333000  0.56967000  0.93784000  1.0
  C  C149  1  0.57668000  0.43033000  0.06216000  1.0
  C  C150  1  0.54800000  0.56910000  0.93786000  1.0
  C  C151  1  0.45200000  0.43090000  0.06213000  1.0
  C  C152  1  0.62419000  0.49868000  0.00048000  1.0
  C  C153  1  0.37582000  0.50132000  0.99952000  1.0
  C  C154  1  0.08160000  0.89054000  0.03095000  1.0
  C  C155  1  0.91840000  0.10945000  0.96905000  1.0
  C  C156  1  0.60045000  0.64070000  0.87012000  1.0
  C  C157  1  0.39956000  0.35930000  0.12988000  1.0
  C  C158  1  0.45078000  0.82421000  0.79401000  1.0
  C  C159  1  0.54922000  0.17579000  0.20599000  1.0
  C  C160  1  0.45496000  0.93492000  0.85502000  1.0
  C  C161  1  0.54504000  0.06508000  0.14498000  1.0
  C  C162  1  0.53036000  0.82901000  0.89369000  1.0
  C  C163  1  0.46964000  0.17100000  0.10631000  1.0
  N  N164  1  0.13020000  0.39889000  0.42277000  1.0
  N  N165  1  0.86980000  0.60111000  0.57723000  1.0
  N  N166  1  0.01659000  0.34222000  0.52481000  1.0
  N  N167  1  0.98341000  0.65778000  0.47519000  1.0
  N  N168  1  0.37684000  0.09961000  0.57840000  1.0
  N  N169  1  0.62315000  0.90039000  0.42160000  1.0
  N  N170  1  0.48725000  0.16010000  0.47592000  1.0
  N  N171  1  0.51275000  0.83989000  0.52408000  1.0
  N  N172  1  0.10261000  0.56552000  0.20794000  1.0
  N  N173  1  0.89739000  0.43448000  0.79206000  1.0
  N  N174  1  0.98200000  0.73824000  0.15072000  1.0
  N  N175  1  0.01800000  0.26176000  0.84928000  1.0
  N  N176  1  0.40515000  0.93060000  0.79320000  1.0
  N  N177  1  0.59485000  0.06940000  0.20679000  1.0
  N  N178  1  0.52718000  0.76019000  0.85403000  1.0
  N  N179  1  0.47283000  0.23982000  0.14597000  1.0
  O  O180  1  0.06599000  0.32091000  0.28988000  1.0
  O  O181  1  0.93401000  0.67910000  0.71011000  1.0
  O  O182  1  0.28033000  0.24386000  0.28805000  1.0
  O  O183  1  0.71967000  0.75614000  0.71195000  1.0
  O  O184  1  0.80624000  0.07341000  0.31481000  1.0
  O  O185  1  0.19376000  0.92659000  0.68520000  1.0
  O  O186  1  0.91227000  0.90855000  0.29255000  1.0
  O  O187  1  0.08773000  0.09145000  0.70745000  1.0
  O  O188  1  0.22295000  0.25118000  0.71553000  1.0
  O  O189  1  0.77705000  0.74883000  0.28447000  1.0
  O  O190  1  0.43756000  0.17862000  0.71128000  1.0
  O  O191  1  0.56244000  0.82138000  0.28872000  1.0
  O  O192  1  0.57966000  0.59418000  0.71410000  1.0
  O  O193  1  0.42034000  0.40583000  0.28590000  1.0
  O  O194  1  0.68662000  0.43534000  0.68396000  1.0
  O  O195  1  0.31338000  0.56466000  0.31604000  1.0
