# generated using pymatgen
data_CuH12C11SN4O3
_symmetry_space_group_name_H-M   'P 1'
_cell_length_a   10.35850000
_cell_length_b   11.12220000
_cell_length_c   11.62910000
_cell_angle_alpha   89.99700000
_cell_angle_beta   104.23000000
_cell_angle_gamma   89.99960000
_symmetry_Int_Tables_number   1
_chemical_formula_structural   CuH12C11SN4O3
_chemical_formula_sum   'Cu4 H48 C44 S4 N16 O12'
_cell_volume   1298.67178016
_cell_formula_units_Z   4
loop_
 _symmetry_equiv_pos_site_id
 _symmetry_equiv_pos_as_xyz
  1  'x, y, z'
loop_
 _atom_site_type_symbol
 _atom_site_label
 _atom_site_symmetry_multiplicity
 _atom_site_fract_x
 _atom_site_fract_y
 _atom_site_fract_z
 _atom_site_occupancy
  Cu  Cu0  1  0.36564000  0.75735000  0.17089000  1.0
  Cu  Cu1  1  0.63438000  0.25740000  0.32908000  1.0
  Cu  Cu2  1  0.63443000  0.24264000  0.82907000  1.0
  Cu  Cu3  1  0.36562000  0.74262000  0.67093000  1.0
  H  H4  1  0.26960000  0.37476000  0.25838000  1.0
  H  H5  1  0.73037000  0.87479000  0.24159000  1.0
  H  H6  1  0.73042000  0.62528000  0.74163000  1.0
  H  H7  1  0.26952000  0.12522000  0.75841000  1.0
  H  H8  1  0.14194000  0.22238000  0.11864000  1.0
  H  H9  1  0.85798000  0.72239000  0.38135000  1.0
  H  H10  1  0.85807000  0.77763000  0.88139000  1.0
  H  H11  1  0.14190000  0.27760000  0.61864000  1.0
  H  H12  1  0.07171000  0.48138000  0.83611000  1.0
  H  H13  1  0.92822000  0.98137000  0.66388000  1.0
  H  H14  1  0.92829000  0.51859000  0.16389000  1.0
  H  H15  1  0.07175000  0.01861000  0.33612000  1.0
  H  H16  1  0.12658000  0.67926000  0.86664000  1.0
  H  H17  1  0.87328000  0.17925000  0.63338000  1.0
  H  H18  1  0.87327000  0.32075000  0.13341000  1.0
  H  H19  1  0.12664000  0.82074000  0.36666000  1.0
  H  H20  1  0.12658000  0.91706000  0.98392000  1.0
  H  H21  1  0.87338000  0.41710000  0.51611000  1.0
  H  H22  1  0.87342000  0.08289000  0.01610000  1.0
  H  H23  1  0.12664000  0.58290000  0.48390000  1.0
  H  H24  1  0.19596000  0.87307000  0.86481000  1.0
  H  H25  1  0.80396000  0.37307000  0.63519000  1.0
  H  H26  1  0.80403000  0.12694000  0.13518000  1.0
  H  H27  1  0.19604000  0.62694000  0.36483000  1.0
  H  H28  1  0.41941000  0.92619000  0.97470000  1.0
  H  H29  1  0.58054000  0.42618000  0.52527000  1.0
  H  H30  1  0.58059000  0.07382000  0.02532000  1.0
  H  H31  1  0.41948000  0.57381000  0.47473000  1.0
  H  H32  1  0.31598000  0.05178000  0.98705000  1.0
  H  H33  1  0.68394000  0.55180000  0.51294000  1.0
  H  H34  1  0.68400000  0.94822000  0.01295000  1.0
  H  H35  1  0.31607000  0.44820000  0.48706000  1.0
  H  H36  1  0.30326000  0.10493000  0.19162000  1.0
  H  H37  1  0.69670000  0.60497000  0.30835000  1.0
  H  H38  1  0.69673000  0.89509000  0.80836000  1.0
  H  H39  1  0.30330000  0.39503000  0.69164000  1.0
  H  H40  1  0.33240000  0.98954000  0.30122000  1.0
  H  H41  1  0.66763000  0.48955000  0.19878000  1.0
  H  H42  1  0.66756000  0.01051000  0.69878000  1.0
  H  H43  1  0.33238000  0.51045000  0.80121000  1.0
  H  H44  1  0.19213000  0.97914000  0.17603000  1.0
  H  H45  1  0.80787000  0.47918000  0.32401000  1.0
  H  H46  1  0.80783000  0.02090000  0.82396000  1.0
  H  H47  1  0.19214000  0.52082000  0.67598000  1.0
  H  H48  1  0.47638000  0.96593000  0.17332000  1.0
  H  H49  1  0.52358000  0.46596000  0.32664000  1.0
  H  H50  1  0.52358000  0.03412000  0.82668000  1.0
  H  H51  1  0.47644000  0.53407000  0.67337000  1.0
  C  C52  1  0.18860000  0.54597000  0.00480000  1.0
  C  C53  1  0.81137000  0.04601000  0.49517000  1.0
  C  C54  1  0.81141000  0.45401000  0.99517000  1.0
  C  C55  1  0.18860000  0.95399000  0.50484000  1.0
  C  C56  1  0.25196000  0.51469000  0.12637000  1.0
  C  C57  1  0.74808000  0.01476000  0.37360000  1.0
  C  C58  1  0.74810000  0.48530000  0.87360000  1.0
  C  C59  1  0.25194000  0.98528000  0.62641000  1.0
  C  C60  1  0.22823000  0.39657000  0.16522000  1.0
  C  C61  1  0.77176000  0.89661000  0.33477000  1.0
  C  C62  1  0.77180000  0.60345000  0.83479000  1.0
  C  C63  1  0.22818000  0.10340000  0.66524000  1.0
  C  C64  1  0.15899000  0.31201000  0.08828000  1.0
  C  C65  1  0.84096000  0.81203000  0.41171000  1.0
  C  C66  1  0.84103000  0.68798000  0.91174000  1.0
  C  C67  1  0.15897000  0.18797000  0.58829000  1.0
  C  C68  1  0.10741000  0.34190000  0.96790000  1.0
  C  C69  1  0.89256000  0.84192000  0.53208000  1.0
  C  C70  1  0.89263000  0.65808000  0.03212000  1.0
  C  C71  1  0.10741000  0.15808000  0.46791000  1.0
  C  C72  1  0.11862000  0.45842000  0.92798000  1.0
  C  C73  1  0.88134000  0.95843000  0.57202000  1.0
  C  C74  1  0.88140000  0.54155000  0.07202000  1.0
  C  C75  1  0.11863000  0.04157000  0.42799000  1.0
  C  C76  1  0.18510000  0.66634000  0.95844000  1.0
  C  C77  1  0.81485000  0.16635000  0.54154000  1.0
  C  C78  1  0.81486000  0.33366000  0.04155000  1.0
  C  C79  1  0.18512000  0.83365000  0.45848000  1.0
  C  C80  1  0.21566000  0.87917000  0.96182000  1.0
  C  C81  1  0.78431000  0.37918000  0.53818000  1.0
  C  C82  1  0.78435000  0.12081000  0.03818000  1.0
  C  C83  1  0.21570000  0.62082000  0.46182000  1.0
  C  C84  1  0.33718000  0.95672000  0.01127000  1.0
  C  C85  1  0.66277000  0.45674000  0.48872000  1.0
  C  C86  1  0.66280000  0.04327000  0.98874000  1.0
  C  C87  1  0.33725000  0.54327000  0.51127000  1.0
  C  C88  1  0.29639000  0.00771000  0.20628000  1.0
  C  C89  1  0.70360000  0.50774000  0.29373000  1.0
  C  C90  1  0.70357000  0.99232000  0.79372000  1.0
  C  C91  1  0.29641000  0.49226000  0.70627000  1.0
  C  C92  1  0.51395000  0.72070000  0.93593000  1.0
  C  C93  1  0.48608000  0.22068000  0.56408000  1.0
  C  C94  1  0.48605000  0.27932000  0.06408000  1.0
  C  C95  1  0.51395000  0.77928000  0.43591000  1.0
  S  S96  1  0.57934000  0.71366000  0.07728000  1.0
  S  S97  1  0.42074000  0.21356000  0.42272000  1.0
  S  S98  1  0.42081000  0.28648000  0.92272000  1.0
  S  S99  1  0.57923000  0.78651000  0.57726000  1.0
  N  N100  1  0.23920000  0.75975000  0.01709000  1.0
  N  N101  1  0.76081000  0.25978000  0.48291000  1.0
  N  N102  1  0.76086000  0.24023000  0.98289000  1.0
  N  N103  1  0.23919000  0.74023000  0.51711000  1.0
  N  N104  1  0.37878000  0.94114000  0.14139000  1.0
  N  N105  1  0.62119000  0.44117000  0.35859000  1.0
  N  N106  1  0.62118000  0.05887000  0.85861000  1.0
  N  N107  1  0.37884000  0.55884000  0.64141000  1.0
  N  N108  1  0.04363000  0.25190000  0.88578000  1.0
  N  N109  1  0.95638000  0.75191000  0.61419000  1.0
  N  N110  1  0.95642000  0.74806000  0.11423000  1.0
  N  N111  1  0.04363000  0.24808000  0.38579000  1.0
  N  N112  1  0.46537000  0.72699000  0.83272000  1.0
  N  N113  1  0.53460000  0.22702000  0.66730000  1.0
  N  N114  1  0.53444000  0.27290000  0.16733000  1.0
  N  N115  1  0.46551000  0.77279000  0.33267000  1.0
  O  O116  1  0.32639000  0.58691000  0.20171000  1.0
  O  O117  1  0.67374000  0.08701000  0.29821000  1.0
  O  O118  1  0.67371000  0.41305000  0.79823000  1.0
  O  O119  1  0.32638000  0.91306000  0.70178000  1.0
  O  O120  1  0.04440000  0.14498000  0.92026000  1.0
  O  O121  1  0.95564000  0.64498000  0.57970000  1.0
  O  O122  1  0.95566000  0.85500000  0.07977000  1.0
  O  O123  1  0.04436000  0.35503000  0.42027000  1.0
  O  O124  1  0.99045000  0.28286000  0.78101000  1.0
  O  O125  1  0.00956000  0.78287000  0.71895000  1.0
  O  O126  1  0.00959000  0.71709000  0.21900000  1.0
  O  O127  1  0.99050000  0.21714000  0.28102000  1.0
