# generated using pymatgen
data_ZnH22C18(N2O3)2
_symmetry_space_group_name_H-M   'P 1'
_cell_length_a   8.69554000
_cell_length_b   9.33954000
_cell_length_c   9.33956000
_cell_angle_alpha   88.67360000
_cell_angle_beta   64.39630000
_cell_angle_gamma   64.39550000
_symmetry_Int_Tables_number   1
_chemical_formula_structural   ZnH22C18(N2O3)2
_chemical_formula_sum   'Zn1 H22 C18 N4 O6'
_cell_volume   604.22586403
_cell_formula_units_Z   1
loop_
 _symmetry_equiv_pos_site_id
 _symmetry_equiv_pos_as_xyz
  1  'x, y, z'
loop_
 _atom_site_type_symbol
 _atom_site_label
 _atom_site_symmetry_multiplicity
 _atom_site_fract_x
 _atom_site_fract_y
 _atom_site_fract_z
 _atom_site_occupancy
  Zn  Zn0  1  0.00000000  0.66110000  0.33890000  1.0
  H  H1  1  0.28415000  0.17562000  0.53055000  1.0
  H  H2  1  0.71586000  0.46945000  0.82438000  1.0
  H  H3  1  0.99168000  0.55879000  0.60448000  1.0
  H  H4  1  0.00832000  0.39552000  0.44120000  1.0
  H  H5  1  0.24148000  0.68482000  0.01545000  1.0
  H  H6  1  0.75850000  0.98457000  0.31518000  1.0
  H  H7  1  0.23727000  0.75687000  0.75547000  1.0
  H  H8  1  0.76273000  0.24454000  0.24313000  1.0
  H  H9  1  0.69961000  0.73730000  0.93385000  1.0
  H  H10  1  0.30039000  0.06615000  0.26271000  1.0
  H  H11  1  0.71884000  0.67854000  0.18915000  1.0
  H  H12  1  0.28115000  0.81085000  0.32146000  1.0
  H  H13  1  0.82148000  0.84793000  0.67963000  1.0
  H  H14  1  0.17852000  0.32037000  0.15207000  1.0
  H  H15  1  0.04821000  0.84659000  0.60715000  1.0
  H  H16  1  0.95180000  0.39285000  0.15340000  1.0
  H  H17  1  0.32621000  0.59423000  0.52767000  1.0
  H  H18  1  0.67380000  0.47233000  0.40577000  1.0
  H  H19  1  0.48244000  0.29954000  0.49469000  1.0
  H  H20  1  0.51757000  0.50532000  0.70045000  1.0
  H  H21  1  0.25589000  0.39261000  0.67647000  1.0
  H  H22  1  0.74412000  0.32353000  0.60739000  1.0
  C  C23  1  0.12360000  0.69949000  0.99190000  1.0
  C  C24  1  0.87639000  0.00811000  0.30051000  1.0
  C  C25  1  0.12098000  0.73793000  0.84824000  1.0
  C  C26  1  0.87902000  0.15176000  0.26206000  1.0
  C  C27  1  0.96839000  0.75073000  0.82306000  1.0
  C  C28  1  0.03161000  0.17694000  0.24926000  1.0
  C  C29  1  0.82164000  0.72826000  0.94763000  1.0
  C  C30  1  0.17836000  0.05237000  0.27174000  1.0
  C  C31  1  0.83288000  0.69415000  0.08966000  1.0
  C  C32  1  0.16710000  0.91034000  0.30586000  1.0
  C  C33  1  0.96919000  0.77853000  0.66319000  1.0
  C  C34  1  0.03081000  0.33681000  0.22147000  1.0
  C  C35  1  0.27241000  0.52662000  0.48406000  1.0
  C  C36  1  0.72760000  0.51595000  0.47338000  1.0
  C  C37  1  0.38675000  0.49679000  0.29531000  1.0
  C  C38  1  0.61325000  0.70470000  0.50321000  1.0
  C  C39  1  0.32479000  0.36704000  0.54272000  1.0
  C  C40  1  0.67522000  0.45728000  0.63295000  1.0
  N  N41  1  0.98227000  0.67836000  0.11147000  1.0
  N  N42  1  0.01771000  0.88854000  0.32164000  1.0
  N  N43  1  0.06113000  0.62474000  0.54787000  1.0
  N  N44  1  0.93887000  0.45213000  0.37525000  1.0
  O  O45  1  0.29479000  0.52328000  0.21313000  1.0
  O  O46  1  0.70520000  0.78687000  0.47673000  1.0
  O  O47  1  0.56431000  0.45058000  0.23573000  1.0
  O  O48  1  0.43568000  0.76427000  0.54942000  1.0
  O  O49  1  0.25694000  0.27462000  0.48736000  1.0
  O  O50  1  0.74307000  0.51264000  0.72537000  1.0
