# generated using pymatgen
data_NaPH20C14(NO)2
_symmetry_space_group_name_H-M   'P 1'
_cell_length_a   8.30048000
_cell_length_b   8.66909000
_cell_length_c   12.42000000
_cell_angle_alpha   95.18160000
_cell_angle_beta   90.01430000
_cell_angle_gamma   118.58200000
_symmetry_Int_Tables_number   1
_chemical_formula_structural   NaPH20C14(NO)2
_chemical_formula_sum   'Na2 P2 H40 C28 N4 O4'
_cell_volume   780.62694158
_cell_formula_units_Z   2
loop_
 _symmetry_equiv_pos_site_id
 _symmetry_equiv_pos_as_xyz
  1  'x, y, z'
loop_
 _atom_site_type_symbol
 _atom_site_label
 _atom_site_symmetry_multiplicity
 _atom_site_fract_x
 _atom_site_fract_y
 _atom_site_fract_z
 _atom_site_occupancy
  Na  Na0  1  0.18570000  0.73512000  0.82423000  1.0
  Na  Na1  1  0.54963000  0.73538000  0.32422000  1.0
  P  P2  1  0.31208000  0.75422000  0.55017000  1.0
  P  P3  1  0.44158000  0.75371000  0.05029000  1.0
  H  H4  1  0.30693000  0.07585000  0.51545000  1.0
  H  H5  1  0.76876000  0.07532000  0.01580000  1.0
  H  H6  1  0.38112000  0.31854000  0.39746000  1.0
  H  H7  1  0.93679000  0.31806000  0.89777000  1.0
  H  H8  1  0.17792000  0.35689000  0.77607000  1.0
  H  H9  1  0.17898000  0.35652000  0.27627000  1.0
  H  H10  1  0.20640000  0.09518000  0.70094000  1.0
  H  H11  1  0.88902000  0.09469000  0.20125000  1.0
  H  H12  1  0.50934000  0.17799000  0.75763000  1.0
  H  H13  1  0.66927000  0.17854000  0.25760000  1.0
  H  H14  1  0.61579000  0.11899000  0.86025000  1.0
  H  H15  1  0.50344000  0.11956000  0.35995000  1.0
  H  H16  1  0.93620000  0.91446000  0.89333000  1.0
  H  H17  1  0.97863000  0.91471000  0.39330000  1.0
  H  H18  1  0.72268000  0.72727000  0.91587000  1.0
  H  H19  1  0.00484000  0.72727000  0.41560000  1.0
  H  H20  1  0.56152000  0.22595000  0.06696000  1.0
  H  H21  1  0.66422000  0.22614000  0.56691000  1.0
  H  H22  1  0.44928000  0.35809000  0.07367000  1.0
  H  H23  1  0.90853000  0.35810000  0.57384000  1.0
  H  H24  1  0.24814000  0.99586000  0.03158000  1.0
  H  H25  1  0.74752000  0.99590000  0.53163000  1.0
  H  H26  1  0.18754000  0.13720000  0.96494000  1.0
  H  H27  1  0.94952000  0.13726000  0.46511000  1.0
  H  H28  1  0.71262000  0.42565000  0.92609000  1.0
  H  H29  1  0.71316000  0.42605000  0.42607000  1.0
  H  H30  1  0.49927000  0.40685000  0.88160000  1.0
  H  H31  1  0.90773000  0.40715000  0.38182000  1.0
  H  H32  1  0.66185000  0.49521000  0.70128000  1.0
  H  H33  1  0.83371000  0.49554000  0.20124000  1.0
  H  H34  1  0.88475000  0.58239000  0.64569000  1.0
  H  H35  1  0.69797000  0.58266000  0.14549000  1.0
  H  H36  1  0.57141000  0.77148000  0.77241000  1.0
  H  H37  1  0.20046000  0.77191000  0.27228000  1.0
  H  H38  1  0.76799000  0.98052000  0.76591000  1.0
  H  H39  1  0.21262000  0.98087000  0.26575000  1.0
  H  H40  1  0.89612000  0.86412000  0.62793000  1.0
  H  H41  1  0.96823000  0.86437000  0.12769000  1.0
  H  H42  1  0.65831000  0.71769000  0.59473000  1.0
  H  H43  1  0.05960000  0.71783000  0.09461000  1.0
  C  C44  1  0.29476000  0.19198000  0.54504000  1.0
  C  C45  1  0.89703000  0.19147000  0.04534000  1.0
  C  C46  1  0.33618000  0.32638000  0.47940000  1.0
  C  C47  1  0.98978000  0.32585000  0.97968000  1.0
  C  C48  1  0.31927000  0.47509000  0.51978000  1.0
  C  C49  1  0.15535000  0.47462000  0.02000000  1.0
  C  C50  1  0.21960000  0.34762000  0.69341000  1.0
  C  C51  1  0.12791000  0.34720000  0.19363000  1.0
  C  C52  1  0.25952000  0.48545000  0.62806000  1.0
  C  C53  1  0.22561000  0.48505000  0.12827000  1.0
  C  C54  1  0.23661000  0.20241000  0.65111000  1.0
  C  C55  1  0.96578000  0.20194000  0.15140000  1.0
  C  C56  1  0.51744000  0.16705000  0.84471000  1.0
  C  C57  1  0.64985000  0.16745000  0.34464000  1.0
  C  C58  1  0.81765000  0.79657000  0.85346000  1.0
  C  C59  1  0.97923000  0.79683000  0.35330000  1.0
  C  C60  1  0.47498000  0.26433000  0.02129000  1.0
  C  C61  1  0.78918000  0.26445000  0.52136000  1.0
  C  C62  1  0.29697000  0.10269000  0.97869000  1.0
  C  C63  1  0.80559000  0.10279000  0.47878000  1.0
  C  C64  1  0.56422000  0.33640000  0.91624000  1.0
  C  C65  1  0.77227000  0.33671000  0.41630000  1.0
  C  C66  1  0.79457000  0.61553000  0.69561000  1.0
  C  C67  1  0.82128000  0.61587000  0.19545000  1.0
  C  C68  1  0.72061000  0.83839000  0.76391000  1.0
  C  C69  1  0.11804000  0.83873000  0.26374000  1.0
  C  C70  1  0.76749000  0.76419000  0.65848000  1.0
  C  C71  1  0.99694000  0.76443000  0.15830000  1.0
  N  N72  1  0.24816000  0.63689000  0.65545000  1.0
  N  N73  1  0.38832000  0.63651000  0.15563000  1.0
  N  N74  1  0.35519000  0.61942000  0.46665000  1.0
  N  N75  1  0.26359000  0.61893000  0.96684000  1.0
  O  O76  1  0.33680000  0.03782000  0.87492000  1.0
  O  O77  1  0.70099000  0.03803000  0.37496000  1.0
  O  O78  1  0.88642000  0.68394000  0.80170000  1.0
  O  O79  1  0.79787000  0.68442000  0.30151000  1.0
