# generated using pymatgen
data_AgH6C8SN7O3
_symmetry_space_group_name_H-M   'P 1'
_cell_length_a   3.88880000
_cell_length_b   12.97510000
_cell_length_c   23.18770000
_cell_angle_alpha   89.99960000
_cell_angle_beta   85.95420000
_cell_angle_gamma   89.99950000
_symmetry_Int_Tables_number   1
_chemical_formula_structural   AgH6C8SN7O3
_chemical_formula_sum   'Ag4 H24 C32 S4 N28 O12'
_cell_volume   1167.07930841
_cell_formula_units_Z   4
loop_
 _symmetry_equiv_pos_site_id
 _symmetry_equiv_pos_as_xyz
  1  'x, y, z'
loop_
 _atom_site_type_symbol
 _atom_site_label
 _atom_site_symmetry_multiplicity
 _atom_site_fract_x
 _atom_site_fract_y
 _atom_site_fract_z
 _atom_site_occupancy
  Ag  Ag0  1  0.58862000  0.16345000  0.26793000  1.0
  Ag  Ag1  1  0.91140000  0.66344000  0.23207000  1.0
  Ag  Ag2  1  0.41137000  0.83656000  0.73208000  1.0
  Ag  Ag3  1  0.08861000  0.33656000  0.76792000  1.0
  H  H4  1  0.17717000  0.37493000  0.23237000  1.0
  H  H5  1  0.32281000  0.87493000  0.26763000  1.0
  H  H6  1  0.82282000  0.62506000  0.76763000  1.0
  H  H7  1  0.67715000  0.12507000  0.73237000  1.0
  H  H8  1  0.36133000  0.10560000  0.13355000  1.0
  H  H9  1  0.13870000  0.60559000  0.36645000  1.0
  H  H10  1  0.63868000  0.89440000  0.86645000  1.0
  H  H11  1  0.86131000  0.39440000  0.63355000  1.0
  H  H12  1  0.00584000  0.07443000  0.04499000  1.0
  H  H13  1  0.49415000  0.57443000  0.45502000  1.0
  H  H14  1  0.99415000  0.92557000  0.95501000  1.0
  H  H15  1  0.50581000  0.42557000  0.54499000  1.0
  H  H16  1  0.78700000  0.11651000  0.94087000  1.0
  H  H17  1  0.71298000  0.61652000  0.55914000  1.0
  H  H18  1  0.21300000  0.88349000  0.05914000  1.0
  H  H19  1  0.28700000  0.38348000  0.44086000  1.0
  H  H20  1  0.39280000  0.52407000  0.85508000  1.0
  H  H21  1  0.10720000  0.02407000  0.64492000  1.0
  H  H22  1  0.60720000  0.47593000  0.14492000  1.0
  H  H23  1  0.89280000  0.97593000  0.35508000  1.0
  H  H24  1  0.39896000  0.20102000  0.87382000  1.0
  H  H25  1  0.10101000  0.70102000  0.62618000  1.0
  H  H26  1  0.60105000  0.79898000  0.12618000  1.0
  H  H27  1  0.89898000  0.29898000  0.37383000  1.0
  C  C28  1  0.17053000  0.31939000  0.19742000  1.0
  C  C29  1  0.32946000  0.81939000  0.30258000  1.0
  C  C30  1  0.82947000  0.68061000  0.80258000  1.0
  C  C31  1  0.67051000  0.18061000  0.69742000  1.0
  C  C32  1  0.26706000  0.18063000  0.14811000  1.0
  C  C33  1  0.23297000  0.68062000  0.35189000  1.0
  C  C34  1  0.73294000  0.81938000  0.85189000  1.0
  C  C35  1  0.76704000  0.31937000  0.64811000  1.0
  C  C36  1  0.96963000  0.23900000  0.06217000  1.0
  C  C37  1  0.53037000  0.73900000  0.43783000  1.0
  C  C38  1  0.03036000  0.76100000  0.93783000  1.0
  C  C39  1  0.46963000  0.26100000  0.56217000  1.0
  C  C40  1  0.94441000  0.15093000  0.02957000  1.0
  C  C41  1  0.55559000  0.65094000  0.47044000  1.0
  C  C42  1  0.05559000  0.84907000  0.97044000  1.0
  C  C43  1  0.44439000  0.34906000  0.52956000  1.0
  C  C44  1  0.82004000  0.17288000  0.97479000  1.0
  C  C45  1  0.67994000  0.67289000  0.52521000  1.0
  C  C46  1  0.17996000  0.82712000  0.02521000  1.0
  C  C47  1  0.32006000  0.32711000  0.47479000  1.0
  C  C48  1  0.75123000  0.27640000  0.96901000  1.0
  C  C49  1  0.74875000  0.77641000  0.53099000  1.0
  C  C50  1  0.24877000  0.72360000  0.03099000  1.0
  C  C51  1  0.25124000  0.22360000  0.46901000  1.0
  C  C52  1  0.44537000  0.44767000  0.87124000  1.0
  C  C53  1  0.05463000  0.94768000  0.62875000  1.0
  C  C54  1  0.55464000  0.55232000  0.12876000  1.0
  C  C55  1  0.94538000  0.05232000  0.37125000  1.0
  C  C56  1  0.44125000  0.28279000  0.87940000  1.0
  C  C57  1  0.05873000  0.78280000  0.62060000  1.0
  C  C58  1  0.55875000  0.71721000  0.12060000  1.0
  C  C59  1  0.94127000  0.21721000  0.37940000  1.0
  S  S60  1  0.84221000  0.34977000  0.02816000  1.0
  S  S61  1  0.65779000  0.84977000  0.47184000  1.0
  S  S62  1  0.15779000  0.65023000  0.97184000  1.0
  S  S63  1  0.34222000  0.15023000  0.52816000  1.0
  N  N64  1  0.32074000  0.22383000  0.19894000  1.0
  N  N65  1  0.17927000  0.72383000  0.30106000  1.0
  N  N66  1  0.67926000  0.77617000  0.80106000  1.0
  N  N67  1  0.82073000  0.27617000  0.69894000  1.0
  N  N68  1  0.02582000  0.33725000  0.14843000  1.0
  N  N69  1  0.47417000  0.83725000  0.35156000  1.0
  N  N70  1  0.97417000  0.66275000  0.85157000  1.0
  N  N71  1  0.52581000  0.16275000  0.64844000  1.0
  N  N72  1  0.08842000  0.24833000  0.11743000  1.0
  N  N73  1  0.41159000  0.74832000  0.38256000  1.0
  N  N74  1  0.91158000  0.75167000  0.88257000  1.0
  N  N75  1  0.58840000  0.25167000  0.61744000  1.0
  N  N76  1  0.60605000  0.32532000  0.92290000  1.0
  N  N77  1  0.89394000  0.82533000  0.57710000  1.0
  N  N78  1  0.39395000  0.67468000  0.07710000  1.0
  N  N79  1  0.10606000  0.17467000  0.42290000  1.0
  N  N80  1  0.60962000  0.43071000  0.91842000  1.0
  N  N81  1  0.89039000  0.93072000  0.58158000  1.0
  N  N82  1  0.39039000  0.56929000  0.08158000  1.0
  N  N83  1  0.10962000  0.06929000  0.41842000  1.0
  N  N84  1  0.33829000  0.35884000  0.84582000  1.0
  N  N85  1  0.16170000  0.85885000  0.65418000  1.0
  N  N86  1  0.66171000  0.64115000  0.15418000  1.0
  N  N87  1  0.83830000  0.14116000  0.34583000  1.0
  N  N88  1  0.90410000  0.95015000  0.18068000  1.0
  N  N89  1  0.59591000  0.45015000  0.31932000  1.0
  N  N90  1  0.09593000  0.04986000  0.81931000  1.0
  N  N91  1  0.40412000  0.54985000  0.68068000  1.0
  O  O92  1  0.87119000  0.99047000  0.23073000  1.0
  O  O93  1  0.62881000  0.49047000  0.26927000  1.0
  O  O94  1  0.12883000  0.00954000  0.76927000  1.0
  O  O95  1  0.37121000  0.50954000  0.73073000  1.0
  O  O96  1  0.77249000  0.99256000  0.13794000  1.0
  O  O97  1  0.72752000  0.49256000  0.36205000  1.0
  O  O98  1  0.22755000  0.00745000  0.86205000  1.0
  O  O99  1  0.27253000  0.50742000  0.63795000  1.0
  O  O100  1  0.07075000  0.86655000  0.17340000  1.0
  O  O101  1  0.42926000  0.36655000  0.32660000  1.0
  O  O102  1  0.92925000  0.13345000  0.82660000  1.0
  O  O103  1  0.57076000  0.63344000  0.67340000  1.0
