# generated using pymatgen
data_ZnH20C22SN4O7
_symmetry_space_group_name_H-M   'P 1'
_cell_length_a   10.29090000
_cell_length_b   11.32310000
_cell_length_c   11.72920000
_cell_angle_alpha   65.81390000
_cell_angle_beta   81.12340000
_cell_angle_gamma   76.87460000
_symmetry_Int_Tables_number   1
_chemical_formula_structural   ZnH20C22SN4O7
_chemical_formula_sum   'Zn2 H40 C44 S2 N8 O14'
_cell_volume   1211.30777370
_cell_formula_units_Z   2
loop_
 _symmetry_equiv_pos_site_id
 _symmetry_equiv_pos_as_xyz
  1  'x, y, z'
loop_
 _atom_site_type_symbol
 _atom_site_label
 _atom_site_symmetry_multiplicity
 _atom_site_fract_x
 _atom_site_fract_y
 _atom_site_fract_z
 _atom_site_occupancy
  Zn  Zn0  1  0.29037000  0.20063000  0.74158000  1.0
  Zn  Zn1  1  0.70963000  0.79937000  0.25842000  1.0
  H  H2  1  0.47360000  0.02939000  0.70688000  1.0
  H  H3  1  0.52640000  0.97060000  0.29313000  1.0
  H  H4  1  0.35507000  0.96160000  0.69600000  1.0
  H  H5  1  0.64493000  0.03840000  0.30400000  1.0
  H  H6  1  0.11091000  0.39641000  0.85353000  1.0
  H  H7  1  0.88908000  0.60360000  0.14648000  1.0
  H  H8  1  0.36610000  0.69163000  0.50336000  1.0
  H  H9  1  0.63389000  0.30837000  0.49665000  1.0
  H  H10  1  0.46318000  0.15519000  0.50843000  1.0
  H  H11  1  0.53683000  0.84481000  0.49158000  1.0
  H  H12  1  0.46263000  0.25935000  0.27758000  1.0
  H  H13  1  0.53738000  0.74064000  0.72243000  1.0
  H  H14  1  0.10214000  0.38808000  0.55382000  1.0
  H  H15  1  0.89786000  0.61192000  0.44618000  1.0
  H  H16  1  0.09094000  0.51224000  0.31996000  1.0
  H  H17  1  0.90907000  0.48775000  0.68004000  1.0
  H  H18  1  0.83526000  0.13402000  0.08604000  1.0
  H  H19  1  0.16473000  0.86598000  0.91396000  1.0
  H  H20  1  0.40170000  0.44711000  0.55905000  1.0
  H  H21  1  0.59829000  0.55289000  0.44095000  1.0
  H  H22  1  0.05776000  0.63629000  0.80842000  1.0
  H  H23  1  0.94223000  0.36372000  0.19159000  1.0
  H  H24  1  0.14290000  0.06050000  0.60818000  1.0
  H  H25  1  0.85709000  0.93951000  0.39182000  1.0
  H  H26  1  0.96849000  0.06096000  0.63958000  1.0
  H  H27  1  0.03150000  0.93904000  0.36042000  1.0
  H  H28  1  0.49704000  0.47552000  0.21770000  1.0
  H  H29  1  0.50296000  0.52448000  0.78230000  1.0
  H  H30  1  0.51739000  0.61765000  0.08164000  1.0
  H  H31  1  0.48261000  0.38235000  0.91836000  1.0
  H  H32  1  0.87720000  0.88137000  0.61887000  1.0
  H  H33  1  0.12279000  0.11864000  0.38113000  1.0
  H  H34  1  0.99290000  0.76640000  0.56824000  1.0
  H  H35  1  0.00709000  0.23360000  0.43176000  1.0
  H  H36  1  0.59479000  0.12625000  0.03625000  1.0
  H  H37  1  0.40521000  0.87375000  0.96374000  1.0
  H  H38  1  0.38672000  0.66988000  0.89459000  1.0
  H  H39  1  0.61328000  0.33012000  0.10541000  1.0
  H  H40  1  0.28401000  0.55543000  0.91166000  1.0
  H  H41  1  0.71599000  0.44457000  0.08835000  1.0
  C  C42  1  0.04144000  0.17894000  0.88214000  1.0
  C  C43  1  0.95856000  0.82106000  0.11786000  1.0
  C  C44  1  0.16343000  0.46523000  0.77542000  1.0
  C  C45  1  0.83657000  0.53477000  0.22459000  1.0
  C  C46  1  0.56044000  0.16578000  0.78069000  1.0
  C  C47  1  0.43957000  0.83422000  0.21930000  1.0
  C  C48  1  0.30885000  0.62833000  0.58193000  1.0
  C  C49  1  0.69115000  0.37166000  0.41807000  1.0
  C  C50  1  0.38046000  0.23227000  0.46388000  1.0
  C  C51  1  0.61955000  0.76773000  0.53613000  1.0
  C  C52  1  0.21004000  0.68230000  0.65232000  1.0
  C  C53  1  0.78995000  0.31770000  0.34769000  1.0
  C  C54  1  0.38067000  0.29332000  0.33397000  1.0
  C  C55  1  0.61934000  0.70667000  0.66604000  1.0
  C  C56  1  0.19681000  0.82467000  0.62879000  1.0
  C  C57  1  0.80319000  0.17533000  0.37120000  1.0
  C  C58  1  0.67315000  0.16836000  0.84309000  1.0
  C  C59  1  0.32686000  0.83165000  0.15690000  1.0
  C  C60  1  0.26871000  0.46840000  0.14085000  1.0
  C  C61  1  0.73130000  0.53159000  0.85915000  1.0
  C  C62  1  0.18030000  0.36515000  0.48794000  1.0
  C  C63  1  0.81971000  0.63485000  0.51206000  1.0
  C  C64  1  0.17415000  0.43290000  0.35940000  1.0
  C  C65  1  0.82585000  0.56709000  0.64060000  1.0
  C  C66  1  0.80670000  0.15118000  0.99425000  1.0
  C  C67  1  0.19330000  0.84882000  0.00574000  1.0
  C  C68  1  0.32769000  0.49386000  0.61235000  1.0
  C  C69  1  0.67230000  0.50614000  0.38765000  1.0
  C  C70  1  0.13542000  0.59970000  0.75019000  1.0
  C  C71  1  0.86457000  0.40030000  0.24982000  1.0
  C  C72  1  0.05635000  0.04191000  0.57890000  1.0
  C  C73  1  0.94365000  0.95810000  0.42110000  1.0
  C  C74  1  0.89758000  0.17340000  0.89094000  1.0
  C  C75  1  0.10242000  0.82660000  0.10906000  1.0
  C  C76  1  0.27791000  0.39858000  0.27997000  1.0
  C  C77  1  0.72210000  0.60141000  0.72003000  1.0
  C  C78  1  0.50295000  0.51489000  0.11537000  1.0
  C  C79  1  0.49705000  0.48511000  0.88463000  1.0
  C  C80  1  0.96782000  0.86920000  0.55805000  1.0
  C  C81  1  0.03218000  0.13080000  0.44195000  1.0
  C  C82  1  0.67865000  0.14829000  0.96715000  1.0
  C  C83  1  0.32135000  0.85172000  0.03284000  1.0
  C  C84  1  0.37918000  0.56484000  0.93441000  1.0
  C  C85  1  0.62082000  0.43516000  0.06560000  1.0
  S  S86  1  0.82518000  0.19021000  0.76099000  1.0
  S  S87  1  0.17483000  0.80980000  0.23901000  1.0
  N  N88  1  0.25697000  0.41351000  0.70690000  1.0
  N  N89  1  0.74303000  0.58649000  0.29310000  1.0
  N  N90  1  0.28327000  0.26837000  0.54013000  1.0
  N  N91  1  0.71673000  0.73163000  0.45988000  1.0
  N  N92  1  0.07758000  0.90390000  0.59682000  1.0
  N  N93  1  0.92242000  0.09610000  0.40318000  1.0
  N  N94  1  0.37846000  0.51415000  0.07040000  1.0
  N  N95  1  0.62154000  0.48585000  0.92960000  1.0
  O  O96  1  0.10209000  0.18493000  0.77318000  1.0
  O  O97  1  0.89791000  0.81506000  0.22681000  1.0
  O  O98  1  0.44390000  0.17948000  0.83727000  1.0
  O  O99  1  0.55611000  0.82054000  0.16271000  1.0
  O  O100  1  0.38668000  0.00241000  0.74418000  1.0
  O  O101  1  0.61332000  0.99760000  0.25582000  1.0
  O  O102  1  0.09458000  0.17933000  0.97010000  1.0
  O  O103  1  0.90543000  0.82067000  0.02990000  1.0
  O  O104  1  0.58327000  0.15052000  0.67728000  1.0
  O  O105  1  0.41674000  0.84947000  0.32271000  1.0
  O  O106  1  0.16266000  0.47867000  0.09645000  1.0
  O  O107  1  0.83735000  0.52129000  0.90355000  1.0
  O  O108  1  0.29665000  0.86181000  0.64329000  1.0
  O  O109  1  0.70335000  0.13820000  0.35670000  1.0
