# generated using pymatgen
data_CuH10C6(NO2)2
_symmetry_space_group_name_H-M   'P 1'
_cell_length_a   5.18949000
_cell_length_b   8.57978000
_cell_length_c   9.18172000
_cell_angle_alpha   89.99380000
_cell_angle_beta   94.91230000
_cell_angle_gamma   89.99990000
_symmetry_Int_Tables_number   1
_chemical_formula_structural   CuH10C6(NO2)2
_chemical_formula_sum   'Cu2 H20 C12 N4 O8'
_cell_volume   407.31156870
_cell_formula_units_Z   2
loop_
 _symmetry_equiv_pos_site_id
 _symmetry_equiv_pos_as_xyz
  1  'x, y, z'
loop_
 _atom_site_type_symbol
 _atom_site_label
 _atom_site_symmetry_multiplicity
 _atom_site_fract_x
 _atom_site_fract_y
 _atom_site_fract_z
 _atom_site_occupancy
  Cu  Cu0  1  0.01803000  0.38039000  0.34812000  1.0
  Cu  Cu1  1  0.98198000  0.88036000  0.65189000  1.0
  H  H2  1  0.39144000  0.90636000  0.40554000  1.0
  H  H3  1  0.60857000  0.40634000  0.59447000  1.0
  H  H4  1  0.10929000  0.10097000  0.25980000  1.0
  H  H5  1  0.89077000  0.60092000  0.74021000  1.0
  H  H6  1  0.95645000  0.21334000  0.13065000  1.0
  H  H7  1  0.04357000  0.71325000  0.86936000  1.0
  H  H8  1  0.34625000  0.22610000  0.03401000  1.0
  H  H9  1  0.65375000  0.72596000  0.96598000  1.0
  H  H10  1  0.49822000  0.15670000  0.20096000  1.0
  H  H11  1  0.50179000  0.65662000  0.79902000  1.0
  H  H12  1  0.58204000  0.63158000  0.38534000  1.0
  H  H13  1  0.41796000  0.13155000  0.61465000  1.0
  H  H14  1  0.46559000  0.74872000  0.14534000  1.0
  H  H15  1  0.53437000  0.24863000  0.85465000  1.0
  H  H16  1  0.05377000  0.87871000  0.08205000  1.0
  H  H17  1  0.94621000  0.37863000  0.91792000  1.0
  H  H18  1  0.94048000  0.83606000  0.25608000  1.0
  H  H19  1  0.05948000  0.33599000  0.74391000  1.0
  H  H20  1  0.98239000  0.68198000  0.13179000  1.0
  H  H21  1  0.01760000  0.18191000  0.86822000  1.0
  C  C22  1  0.35700000  0.24158000  0.15304000  1.0
  C  C23  1  0.64303000  0.74149000  0.84695000  1.0
  C  C24  1  0.45691000  0.40432000  0.19381000  1.0
  C  C25  1  0.54309000  0.90424000  0.80619000  1.0
  C  C26  1  0.37733000  0.63216000  0.34109000  1.0
  C  C27  1  0.62267000  0.13211000  0.65891000  1.0
  C  C28  1  0.34260000  0.77329000  0.23419000  1.0
  C  C29  1  0.65739000  0.27323000  0.76581000  1.0
  C  C30  1  0.06297000  0.79404000  0.17209000  1.0
  C  C31  1  0.93702000  0.29397000  0.82791000  1.0
  C  C32  1  0.20605000  0.65914000  0.46588000  1.0
  C  C33  1  0.79395000  0.15912000  0.53412000  1.0
  N  N34  1  0.10598000  0.20810000  0.21057000  1.0
  N  N35  1  0.89405000  0.70803000  0.78943000  1.0
  N  N36  1  0.30170000  0.48558000  0.27337000  1.0
  N  N37  1  0.69828000  0.98553000  0.72662000  1.0
  O  O38  1  0.67430000  0.44781000  0.15600000  1.0
  O  O39  1  0.32568000  0.94769000  0.84402000  1.0
  O  O40  1  0.02357000  0.56470000  0.48613000  1.0
  O  O41  1  0.97643000  0.06469000  0.51387000  1.0
  O  O42  1  0.24881000  0.78371000  0.54078000  1.0
  O  O43  1  0.75121000  0.28372000  0.45923000  1.0
  O  O44  1  0.44456000  0.91213000  0.30493000  1.0
  O  O45  1  0.55543000  0.41208000  0.69507000  1.0
