# generated using pymatgen
data_Ag3PH17AuC31(O3F7)2
_symmetry_space_group_name_H-M   'P 1'
_cell_length_a   9.57971000
_cell_length_b   13.40910000
_cell_length_c   15.68120000
_cell_angle_alpha   106.56200000
_cell_angle_beta   95.61290000
_cell_angle_gamma   96.14570000
_symmetry_Int_Tables_number   1
_chemical_formula_structural   Ag3PH17AuC31(O3F7)2
_chemical_formula_sum   'Ag6 P2 H34 Au2 C62 O12 F28'
_cell_volume   1902.18324408
_cell_formula_units_Z   2
loop_
 _symmetry_equiv_pos_site_id
 _symmetry_equiv_pos_as_xyz
  1  'x, y, z'
loop_
 _atom_site_type_symbol
 _atom_site_label
 _atom_site_symmetry_multiplicity
 _atom_site_fract_x
 _atom_site_fract_y
 _atom_site_fract_z
 _atom_site_occupancy
  Ag  Ag0  1  0.60974000  0.02065000  0.40580000  1.0
  Ag  Ag1  1  0.39026000  0.97936000  0.59420000  1.0
  Ag  Ag2  1  0.89508000  0.99138000  0.39517000  1.0
  Ag  Ag3  1  0.10491000  0.00862000  0.60484000  1.0
  Ag  Ag4  1  0.91389000  0.39859000  0.46540000  1.0
  Ag  Ag5  1  0.08610000  0.60142000  0.53460000  1.0
  P  P6  1  0.79282000  0.21558000  0.18009000  1.0
  P  P7  1  0.20718000  0.78442000  0.81991000  1.0
  H  H8  1  0.99601000  0.19494000  0.26601000  1.0
  H  H9  1  0.00399000  0.80506000  0.73399000  1.0
  H  H10  1  0.88301000  0.07203000  0.21606000  1.0
  H  H11  1  0.11699000  0.92797000  0.78394000  1.0
  H  H12  1  0.64180000  0.33396000  0.31955000  1.0
  H  H13  1  0.35820000  0.66604000  0.68045000  1.0
  H  H14  1  0.66495000  0.52399000  0.40124000  1.0
  H  H15  1  0.33505000  0.47601000  0.59876000  1.0
  H  H16  1  0.83384000  0.65275000  0.36084000  1.0
  H  H17  1  0.16616000  0.34724000  0.63916000  1.0
  H  H18  1  0.97662000  0.59036000  0.23700000  1.0
  H  H19  1  0.02337000  0.40964000  0.76300000  1.0
  H  H20  1  0.95741000  0.40041000  0.15649000  1.0
  H  H21  1  0.04259000  0.59959000  0.84351000  1.0
  H  H22  1  0.70829000  0.28464000  0.02420000  1.0
  H  H23  1  0.29171000  0.71536000  0.97580000  1.0
  H  H24  1  0.79822000  0.25930000  0.87814000  1.0
  H  H25  1  0.20179000  0.74070000  0.12186000  1.0
  H  H26  1  0.00323000  0.16049000  0.84497000  1.0
  H  H27  1  0.99677000  0.83950000  0.15503000  1.0
  H  H28  1  0.11446000  0.08634000  0.95799000  1.0
  H  H29  1  0.88554000  0.91365000  0.04201000  1.0
  H  H30  1  0.02705000  0.11310000  0.10605000  1.0
  H  H31  1  0.97296000  0.88690000  0.89395000  1.0
  H  H32  1  0.52725000  0.29601000  0.13852000  1.0
  H  H33  1  0.47274000  0.70399000  0.86148000  1.0
  H  H34  1  0.28340000  0.20453000  0.08307000  1.0
  H  H35  1  0.71659000  0.79547000  0.91693000  1.0
  H  H36  1  0.22722000  0.01242000  0.06497000  1.0
  H  H37  1  0.77277000  0.98758000  0.93504000  1.0
  H  H38  1  0.41649000  0.91383000  0.10256000  1.0
  H  H39  1  0.58351000  0.08617000  0.89744000  1.0
  H  H40  1  0.66184000  0.00419000  0.15644000  1.0
  H  H41  1  0.33815000  0.99581000  0.84356000  1.0
  Au  Au42  1  0.80317000  0.18031000  0.37287000  1.0
  Au  Au43  1  0.19684000  0.81969000  0.62712000  1.0
  C  C44  1  0.73847000  0.21287000  0.49859000  1.0
  C  C45  1  0.26154000  0.78714000  0.50141000  1.0
  C  C46  1  0.83254000  0.21513000  0.57344000  1.0
  C  C47  1  0.16746000  0.78487000  0.42655000  1.0
  C  C48  1  0.79939000  0.24494000  0.66049000  1.0
  C  C49  1  0.20061000  0.75506000  0.33950000  1.0
  C  C50  1  0.66787000  0.27688000  0.67601000  1.0
  C  C51  1  0.33213000  0.72312000  0.32399000  1.0
  C  C52  1  0.57051000  0.27619000  0.60374000  1.0
  C  C53  1  0.42950000  0.72381000  0.39625000  1.0
  C  C54  1  0.60799000  0.24577000  0.51744000  1.0
  C  C55  1  0.39201000  0.75423000  0.48256000  1.0
  C  C56  1  0.88568000  0.15610000  0.25077000  1.0
  C  C57  1  0.11432000  0.84390000  0.74923000  1.0
  C  C58  1  0.80024000  0.35455000  0.23358000  1.0
  C  C59  1  0.19976000  0.64545000  0.76642000  1.0
  C  C60  1  0.71798000  0.38963000  0.30288000  1.0
  C  C61  1  0.28202000  0.61036000  0.69712000  1.0
  C  C62  1  0.73087000  0.49688000  0.34882000  1.0
  C  C63  1  0.26913000  0.50312000  0.65118000  1.0
  C  C64  1  0.82492000  0.56909000  0.32563000  1.0
  C  C65  1  0.17508000  0.43091000  0.67437000  1.0
  C  C66  1  0.90546000  0.53411000  0.25625000  1.0
  C  C67  1  0.09453000  0.46589000  0.74375000  1.0
  C  C68  1  0.89380000  0.42715000  0.21035000  1.0
  C  C69  1  0.10620000  0.57285000  0.78965000  1.0
  C  C70  1  0.86265000  0.20096000  0.07489000  1.0
  C  C71  1  0.13735000  0.79904000  0.92511000  1.0
  C  C72  1  0.79837000  0.24202000  0.01041000  1.0
  C  C73  1  0.20164000  0.75798000  0.98959000  1.0
  C  C74  1  0.84879000  0.22760000  0.92798000  1.0
  C  C75  1  0.15121000  0.77240000  0.07202000  1.0
  C  C76  1  0.96277000  0.17156000  0.90908000  1.0
  C  C77  1  0.03724000  0.82843000  0.09092000  1.0
  C  C78  1  0.02579000  0.13003000  0.97291000  1.0
  C  C79  1  0.97421000  0.86996000  0.02710000  1.0
  C  C80  1  0.97691000  0.14490000  0.05601000  1.0
  C  C81  1  0.02309000  0.85510000  0.94399000  1.0
  C  C82  1  0.61068000  0.15566000  0.15032000  1.0
  C  C83  1  0.38932000  0.84434000  0.84968000  1.0
  C  C84  1  0.50380000  0.21203000  0.12971000  1.0
  C  C85  1  0.49620000  0.78797000  0.87029000  1.0
  C  C86  1  0.36607000  0.16030000  0.09874000  1.0
  C  C87  1  0.63393000  0.83970000  0.90126000  1.0
  C  C88  1  0.33492000  0.05311000  0.08847000  1.0
  C  C89  1  0.66507000  0.94689000  0.91153000  1.0
  C  C90  1  0.44121000  0.99701000  0.10933000  1.0
  C  C91  1  0.55878000  0.00299000  0.89066000  1.0
  C  C92  1  0.57897000  0.04793000  0.14003000  1.0
  C  C93  1  0.42102000  0.95207000  0.85997000  1.0
  C  C94  1  0.74745000  0.95911000  0.57305000  1.0
  C  C95  1  0.25255000  0.04088000  0.42695000  1.0
  C  C96  1  0.75754000  0.92708000  0.66117000  1.0
  C  C97  1  0.24245000  0.07292000  0.33883000  1.0
  C  C98  1  0.67492000  0.85012000  0.23820000  1.0
  C  C99  1  0.32508000  0.14989000  0.76180000  1.0
  C  C100  1  0.63392000  0.75776000  0.14900000  1.0
  C  C101  1  0.36608000  0.24224000  0.85101000  1.0
  C  C102  1  0.82163000  0.55969000  0.62153000  1.0
  C  C103  1  0.17837000  0.44032000  0.37847000  1.0
  C  C104  1  0.72185000  0.59520000  0.69372000  1.0
  C  C105  1  0.27815000  0.40480000  0.30629000  1.0
  O  O106  1  0.62681000  0.97070000  0.54115000  1.0
  O  O107  1  0.37319000  0.02931000  0.45885000  1.0
  O  O108  1  0.86302000  0.96828000  0.54134000  1.0
  O  O109  1  0.13697000  0.03171000  0.45865000  1.0
  O  O110  1  0.57340000  0.88399000  0.27717000  1.0
  O  O111  1  0.42661000  0.11601000  0.72283000  1.0
  O  O112  1  0.80713000  0.87729000  0.25917000  1.0
  O  O113  1  0.19287000  0.12271000  0.74083000  1.0
  O  O114  1  0.78858000  0.46613000  0.57214000  1.0
  O  O115  1  0.21140000  0.53389000  0.42785000  1.0
  O  O116  1  0.91940000  0.62997000  0.62084000  1.0
  O  O117  1  0.08062000  0.37003000  0.37919000  1.0
  F  F118  1  0.96594000  0.19010000  0.56328000  1.0
  F  F119  1  0.03406000  0.80990000  0.43671000  1.0
  F  F120  1  0.89414000  0.24612000  0.73121000  1.0
  F  F121  1  0.10587000  0.75388000  0.26878000  1.0
  F  F122  1  0.63884000  0.31207000  0.76059000  1.0
  F  F123  1  0.36116000  0.68792000  0.23940000  1.0
  F  F124  1  0.44334000  0.30790000  0.61860000  1.0
  F  F125  1  0.55667000  0.69210000  0.38141000  1.0
  F  F126  1  0.51207000  0.25235000  0.44985000  1.0
  F  F127  1  0.48793000  0.74766000  0.55015000  1.0
  F  F128  1  0.86086000  0.99315000  0.72490000  1.0
  F  F129  1  0.13913000  0.00686000  0.27510000  1.0
  F  F130  1  0.79186000  0.82814000  0.64480000  1.0
  F  F131  1  0.20815000  0.17186000  0.35521000  1.0
  F  F132  1  0.63530000  0.92922000  0.69791000  1.0
  F  F133  1  0.36469000  0.07078000  0.30209000  1.0
  F  F134  1  0.49611000  0.74748000  0.11286000  1.0
  F  F135  1  0.50389000  0.25252000  0.88715000  1.0
  F  F136  1  0.65628000  0.66493000  0.16354000  1.0
  F  F137  1  0.34372000  0.33507000  0.83646000  1.0
  F  F138  1  0.71379000  0.77118000  0.08456000  1.0
  F  F139  1  0.28620000  0.22882000  0.91544000  1.0
  F  F140  1  0.67652000  0.51708000  0.72817000  1.0
  F  F141  1  0.32348000  0.48291000  0.27182000  1.0
  F  F142  1  0.60496000  0.62499000  0.65607000  1.0
  F  F143  1  0.39503000  0.37501000  0.34393000  1.0
  F  F144  1  0.78571000  0.67815000  0.76410000  1.0
  F  F145  1  0.21428000  0.32185000  0.23591000  1.0
