# generated using pymatgen
data_AgH5C6(NO)2
_symmetry_space_group_name_H-M   'P 1'
_cell_length_a   9.44259000
_cell_length_b   10.12610000
_cell_length_c   13.69660000
_cell_angle_alpha   89.99980000
_cell_angle_beta   79.72200000
_cell_angle_gamma   89.99990000
_symmetry_Int_Tables_number   1
_chemical_formula_structural   AgH5C6(NO)2
_chemical_formula_sum   'Ag8 H40 C48 N16 O16'
_cell_volume   1288.60776962
_cell_formula_units_Z   8
loop_
 _symmetry_equiv_pos_site_id
 _symmetry_equiv_pos_as_xyz
  1  'x, y, z'
loop_
 _atom_site_type_symbol
 _atom_site_label
 _atom_site_symmetry_multiplicity
 _atom_site_fract_x
 _atom_site_fract_y
 _atom_site_fract_z
 _atom_site_occupancy
  Ag  Ag0  1  0.57120000  0.61956000  0.13402000  1.0
  Ag  Ag1  1  0.92881000  0.11957000  0.36598000  1.0
  Ag  Ag2  1  0.42880000  0.38043000  0.86598000  1.0
  Ag  Ag3  1  0.07119000  0.88043000  0.63402000  1.0
  Ag  Ag4  1  0.36862000  0.63663000  0.52650000  1.0
  Ag  Ag5  1  0.13139000  0.13663000  0.97351000  1.0
  Ag  Ag6  1  0.63138000  0.36338000  0.47351000  1.0
  Ag  Ag7  1  0.86861000  0.86337000  0.02649000  1.0
  H  H8  1  0.14240000  0.34004000  0.27143000  1.0
  H  H9  1  0.35761000  0.84005000  0.22858000  1.0
  H  H10  1  0.85760000  0.65996000  0.72857000  1.0
  H  H11  1  0.64239000  0.15995000  0.77143000  1.0
  H  H12  1  0.15163000  0.41623000  0.62052000  1.0
  H  H13  1  0.34837000  0.91623000  0.87948000  1.0
  H  H14  1  0.84837000  0.58377000  0.37948000  1.0
  H  H15  1  0.65163000  0.08377000  0.12052000  1.0
  H  H16  1  0.93158000  0.22637000  0.16108000  1.0
  H  H17  1  0.56843000  0.72636000  0.33892000  1.0
  H  H18  1  0.06842000  0.77363000  0.83892000  1.0
  H  H19  1  0.43157000  0.27364000  0.66108000  1.0
  H  H20  1  0.76606000  0.52266000  0.92566000  1.0
  H  H21  1  0.73394000  0.02266000  0.57434000  1.0
  H  H22  1  0.23395000  0.47734000  0.07434000  1.0
  H  H23  1  0.26606000  0.97734000  0.42565000  1.0
  H  H24  1  0.93275000  0.24424000  0.81434000  1.0
  H  H25  1  0.56725000  0.74424000  0.68565000  1.0
  H  H26  1  0.06725000  0.75576000  0.18566000  1.0
  H  H27  1  0.43275000  0.25576000  0.31434000  1.0
  H  H28  1  0.08438000  0.34124000  0.82596000  1.0
  H  H29  1  0.41563000  0.84124000  0.67404000  1.0
  H  H30  1  0.91563000  0.65876000  0.17404000  1.0
  H  H31  1  0.58437000  0.15876000  0.32596000  1.0
  H  H32  1  0.92657000  0.41786000  0.79381000  1.0
  H  H33  1  0.57342000  0.91786000  0.70619000  1.0
  H  H34  1  0.07343000  0.58214000  0.20619000  1.0
  H  H35  1  0.42657000  0.08214000  0.29381000  1.0
  H  H36  1  0.97126000  0.11343000  0.55966000  1.0
  H  H37  1  0.52874000  0.61343000  0.94034000  1.0
  H  H38  1  0.02875000  0.88657000  0.44034000  1.0
  H  H39  1  0.47126000  0.38657000  0.05966000  1.0
  H  H40  1  0.85112000  0.24764000  0.59413000  1.0
  H  H41  1  0.64888000  0.74763000  0.90587000  1.0
  H  H42  1  0.14888000  0.75236000  0.40587000  1.0
  H  H43  1  0.35112000  0.25237000  0.09413000  1.0
  H  H44  1  0.99450000  0.21879000  0.65899000  1.0
  H  H45  1  0.50550000  0.71879000  0.84101000  1.0
  H  H46  1  0.00550000  0.78120000  0.34101000  1.0
  H  H47  1  0.49450000  0.28121000  0.15899000  1.0
  C  C48  1  0.96600000  0.34125000  0.83861000  1.0
  C  C49  1  0.53400000  0.84124000  0.66139000  1.0
  C  C50  1  0.03400000  0.65876000  0.16139000  1.0
  C  C51  1  0.46600000  0.15876000  0.33861000  1.0
  C  C52  1  0.89518000  0.29394000  0.10898000  1.0
  C  C53  1  0.60483000  0.79394000  0.39102000  1.0
  C  C54  1  0.10482000  0.70606000  0.89102000  1.0
  C  C55  1  0.39517000  0.20607000  0.60898000  1.0
  C  C56  1  0.79604000  0.39390000  0.14160000  1.0
  C  C57  1  0.70397000  0.89390000  0.35840000  1.0
  C  C58  1  0.20397000  0.60610000  0.85840000  1.0
  C  C59  1  0.29603000  0.10610000  0.64159000  1.0
  C  C60  1  0.14518000  0.40085000  0.54259000  1.0
  C  C61  1  0.35482000  0.90085000  0.95741000  1.0
  C  C62  1  0.85481000  0.59915000  0.45741000  1.0
  C  C63  1  0.64518000  0.09914000  0.04259000  1.0
  C  C64  1  0.96458000  0.21631000  0.58552000  1.0
  C  C65  1  0.53542000  0.71631000  0.91448000  1.0
  C  C66  1  0.03542000  0.78369000  0.41447000  1.0
  C  C67  1  0.46458000  0.28369000  0.08552000  1.0
  C  C68  1  0.80477000  0.45847000  0.97926000  1.0
  C  C69  1  0.69523000  0.95847000  0.52074000  1.0
  C  C70  1  0.19523000  0.54153000  0.02074000  1.0
  C  C71  1  0.30477000  0.04154000  0.47926000  1.0
  C  C72  1  0.90636000  0.35992000  0.94586000  1.0
  C  C73  1  0.59364000  0.85992000  0.55414000  1.0
  C  C74  1  0.09364000  0.64008000  0.05414000  1.0
  C  C75  1  0.40636000  0.14009000  0.44586000  1.0
  C  C76  1  0.22369000  0.46230000  0.37977000  1.0
  C  C77  1  0.27632000  0.96231000  0.12024000  1.0
  C  C78  1  0.77631000  0.53769000  0.62024000  1.0
  C  C79  1  0.72369000  0.03769000  0.87976000  1.0
  C  C80  1  0.73838000  0.41305000  0.25169000  1.0
  C  C81  1  0.76162000  0.91305000  0.24831000  1.0
  C  C82  1  0.26162000  0.58695000  0.74831000  1.0
  C  C83  1  0.23838000  0.08695000  0.75168000  1.0
  C  C84  1  0.31229000  0.55267000  0.30358000  1.0
  C  C85  1  0.18772000  0.05267000  0.19642000  1.0
  C  C86  1  0.68771000  0.44733000  0.69642000  1.0
  C  C87  1  0.81228000  0.94733000  0.80358000  1.0
  C  C88  1  0.14037000  0.36098000  0.34975000  1.0
  C  C89  1  0.35964000  0.86099000  0.15025000  1.0
  C  C90  1  0.85963000  0.63902000  0.65025000  1.0
  C  C91  1  0.64036000  0.13901000  0.84975000  1.0
  C  C92  1  0.05803000  0.30175000  0.51324000  1.0
  C  C93  1  0.44197000  0.80175000  0.98676000  1.0
  C  C94  1  0.94197000  0.69825000  0.48676000  1.0
  C  C95  1  0.55803000  0.19825000  0.01324000  1.0
  N  N96  1  0.05797000  0.28272000  0.41556000  1.0
  N  N97  1  0.44204000  0.78272000  0.08444000  1.0
  N  N98  1  0.94203000  0.71728000  0.58443000  1.0
  N  N99  1  0.55796000  0.21728000  0.91557000  1.0
  N  N100  1  0.22570000  0.48043000  0.47703000  1.0
  N  N101  1  0.27430000  0.98043000  0.02297000  1.0
  N  N102  1  0.77429000  0.51957000  0.52297000  1.0
  N  N103  1  0.72570000  0.01957000  0.97703000  1.0
  N  N104  1  0.95119000  0.27818000  0.01221000  1.0
  N  N105  1  0.54881000  0.77818000  0.48779000  1.0
  N  N106  1  0.04881000  0.72183000  0.98779000  1.0
  N  N107  1  0.45118000  0.22183000  0.51220000  1.0
  N  N108  1  0.75119000  0.47595000  0.07580000  1.0
  N  N109  1  0.74882000  0.97596000  0.42420000  1.0
  N  N110  1  0.24881000  0.52405000  0.92420000  1.0
  N  N111  1  0.25119000  0.02405000  0.57579000  1.0
  O  O112  1  0.33620000  0.50851000  0.21558000  1.0
  O  O113  1  0.16380000  0.00851000  0.28442000  1.0
  O  O114  1  0.66380000  0.49149000  0.78442000  1.0
  O  O115  1  0.83620000  0.99149000  0.71558000  1.0
  O  O116  1  0.35130000  0.66241000  0.33380000  1.0
  O  O117  1  0.14870000  0.16242000  0.16620000  1.0
  O  O118  1  0.64870000  0.33758000  0.66620000  1.0
  O  O119  1  0.85130000  0.83758000  0.83380000  1.0
  O  O120  1  0.65098000  0.50625000  0.27761000  1.0
  O  O121  1  0.84902000  0.00626000  0.22239000  1.0
  O  O122  1  0.34902000  0.49374000  0.72239000  1.0
  O  O123  1  0.15098000  0.99375000  0.77761000  1.0
  O  O124  1  0.78475000  0.33219000  0.30978000  1.0
  O  O125  1  0.71525000  0.83219000  0.19022000  1.0
  O  O126  1  0.21525000  0.66781000  0.69022000  1.0
  O  O127  1  0.28475000  0.16781000  0.80978000  1.0
