# generated using pymatgen
data_Zn4H16C40Cl4O13
_symmetry_space_group_name_H-M   'P 1'
_cell_length_a   23.87227995
_cell_length_b   23.87240000
_cell_length_c   23.87060000
_cell_angle_alpha   66.84800000
_cell_angle_beta   72.33456154
_cell_angle_gamma   107.66265545
_symmetry_Int_Tables_number   1
_chemical_formula_structural   Zn4H16C40Cl4O13
_chemical_formula_sum   'Zn8 H32 C80 Cl8 O26'
_cell_volume   10439.09202142
_cell_formula_units_Z   2
loop_
 _symmetry_equiv_pos_site_id
 _symmetry_equiv_pos_as_xyz
  1  'x, y, z'
loop_
 _atom_site_type_symbol
 _atom_site_label
 _atom_site_symmetry_multiplicity
 _atom_site_fract_x
 _atom_site_fract_y
 _atom_site_fract_z
 _atom_site_occupancy
  Zn  Zn0  1  0.05764000  0.09955000  0.45807000  1.0
  Zn  Zn1  1  0.05763000  0.95808000  0.48428000  1.0
  Zn  Zn2  1  0.94236000  0.95807000  0.59956000  1.0
  Zn  Zn3  1  0.94238000  0.98430000  0.45807000  1.0
  Zn  Zn4  1  0.94237000  0.40046000  0.04192000  1.0
  Zn  Zn5  1  0.05764000  0.54192000  0.90044000  1.0
  Zn  Zn6  1  0.94237000  0.54192000  0.01571000  1.0
  Zn  Zn7  1  0.05762000  0.51571000  0.04193000  1.0
  H  H8  1  0.92387000  0.27169000  0.96355000  1.0
  H  H9  1  0.92353000  0.20859000  0.90124000  1.0
  H  H10  1  0.07646000  0.40124000  0.70855000  1.0
  H  H11  1  0.07613000  0.46355000  0.77166000  1.0
  H  H12  1  0.92353000  0.09876000  0.79144000  1.0
  H  H13  1  0.92387000  0.03645000  0.72834000  1.0
  H  H14  1  0.07608000  0.22832000  0.53644000  1.0
  H  H15  1  0.07641000  0.29143000  0.59875000  1.0
  H  H16  1  0.07614000  0.61262000  0.15216000  1.0
  H  H17  1  0.07648000  0.67527000  0.21492000  1.0
  H  H18  1  0.92354000  0.71498000  0.17521000  1.0
  H  H19  1  0.92388000  0.65221000  0.11256000  1.0
  H  H20  1  0.07642000  0.78499000  0.32482000  1.0
  H  H21  1  0.07608000  0.84776000  0.38747000  1.0
  H  H22  1  0.92387000  0.88742000  0.34781000  1.0
  H  H23  1  0.92354000  0.82478000  0.28503000  1.0
  H  H24  1  0.73523000  0.27169000  0.15221000  1.0
  H  H25  1  0.60981000  0.20858000  0.21499000  1.0
  H  H26  1  0.60981000  0.40124000  0.17521000  1.0
  H  H27  1  0.73522000  0.46355000  0.11257000  1.0
  H  H28  1  0.39019000  0.09875000  0.32481000  1.0
  H  H29  1  0.26478000  0.03645000  0.38744000  1.0
  H  H30  1  0.26478000  0.22830000  0.34785000  1.0
  H  H31  1  0.39019000  0.29140000  0.28509000  1.0
  H  H32  1  0.26478000  0.65224000  0.77168000  1.0
  H  H33  1  0.39020000  0.71502000  0.70857000  1.0
  H  H34  1  0.39018000  0.67521000  0.90126000  1.0
  H  H35  1  0.26477000  0.61257000  0.96356000  1.0
  H  H36  1  0.60982000  0.82480000  0.59874000  1.0
  H  H37  1  0.73524000  0.88745000  0.53643000  1.0
  H  H38  1  0.73521000  0.84782000  0.72831000  1.0
  H  H39  1  0.60980000  0.78506000  0.79141000  1.0
  C  C40  1  0.18256000  0.09127000  0.40873000  1.0
  C  C41  1  0.00000000  0.86334000  0.63666000  1.0
  C  C42  1  0.99999000  0.09127000  0.59128000  1.0
  C  C43  1  0.81744000  0.90873000  0.59127000  1.0
  C  C44  1  0.00001000  0.13667000  0.36333000  1.0
  C  C45  1  0.99999000  0.90871000  0.40873000  1.0
  C  C46  1  0.00000000  0.40873000  0.90871000  1.0
  C  C47  1  0.00000000  0.63666000  0.86334000  1.0
  C  C48  1  0.81744000  0.40873000  0.09128000  1.0
  C  C49  1  0.00000000  0.59129000  0.09127000  1.0
  C  C50  1  0.00000000  0.36334000  0.13666000  1.0
  C  C51  1  0.18256000  0.59128000  0.90873000  1.0
  C  C52  1  0.00000000  0.19474000  0.30526000  1.0
  C  C53  1  0.00000000  0.30526000  0.19474000  1.0
  C  C54  1  0.95707000  0.18010000  0.27698000  1.0
  C  C55  1  0.04293000  0.31990000  0.22302000  1.0
  C  C56  1  0.95707000  0.23404000  0.22303000  1.0
  C  C57  1  0.04293000  0.26596000  0.27697000  1.0
  C  C58  1  0.00000000  0.80526000  0.69474000  1.0
  C  C59  1  0.00000000  0.69473000  0.80526000  1.0
  C  C60  1  0.95707000  0.77696000  0.76596000  1.0
  C  C61  1  0.04293000  0.72303000  0.73403000  1.0
  C  C62  1  0.95707000  0.72302000  0.81991000  1.0
  C  C63  1  0.04293000  0.77698000  0.68009000  1.0
  C  C64  1  0.00000000  0.37133000  0.87131000  1.0
  C  C65  1  0.95698000  0.29941000  0.90778000  1.0
  C  C66  1  0.95682000  0.26440000  0.87316000  1.0
  C  C67  1  0.99999000  0.30080000  0.80079000  1.0
  C  C68  1  0.04317000  0.37317000  0.76438000  1.0
  C  C69  1  0.04301000  0.40778000  0.79939000  1.0
  C  C70  1  0.99999000  0.26534000  0.76531000  1.0
  C  C71  1  0.99998000  0.23469000  0.73467000  1.0
  C  C72  1  0.99997000  0.19921000  0.69921000  1.0
  C  C73  1  0.95681000  0.12683000  0.73562000  1.0
  C  C74  1  0.95697000  0.09222000  0.70061000  1.0
  C  C75  1  0.99997000  0.12867000  0.62869000  1.0
  C  C76  1  0.04298000  0.20060000  0.59221000  1.0
  C  C77  1  0.04313000  0.23561000  0.62682000  1.0
  C  C78  1  0.00001000  0.62871000  0.12865000  1.0
  C  C79  1  0.04303000  0.63527000  0.15755000  1.0
  C  C80  1  0.04319000  0.67005000  0.19240000  1.0
  C  C81  1  0.00001000  0.69924000  0.19918000  1.0
  C  C82  1  0.95684000  0.69246000  0.16998000  1.0
  C  C83  1  0.95699000  0.65760000  0.13521000  1.0
  C  C84  1  0.00000000  0.73470000  0.23466000  1.0
  C  C85  1  0.99999000  0.76532000  0.26533000  1.0
  C  C86  1  0.99998000  0.80077000  0.30081000  1.0
  C  C87  1  0.04313000  0.80752000  0.33004000  1.0
  C  C88  1  0.04298000  0.84238000  0.36481000  1.0
  C  C89  1  0.99997000  0.87129000  0.37135000  1.0
  C  C90  1  0.95697000  0.86475000  0.34243000  1.0
  C  C91  1  0.95682000  0.82999000  0.30757000  1.0
  C  C92  1  0.74264000  0.37133000  0.12868000  1.0
  C  C93  1  0.70719000  0.29941000  0.15759000  1.0
  C  C94  1  0.63756000  0.26440000  0.19245000  1.0
  C  C95  1  0.60159000  0.30080000  0.19921000  1.0
  C  C96  1  0.63756000  0.37317000  0.17000000  1.0
  C  C97  1  0.70718000  0.40779000  0.13523000  1.0
  C  C98  1  0.53065000  0.26532000  0.23469000  1.0
  C  C99  1  0.46936000  0.23466000  0.26535000  1.0
  C  C100  1  0.39842000  0.19919000  0.30083000  1.0
  C  C101  1  0.36244000  0.12682000  0.33003000  1.0
  C  C102  1  0.29282000  0.09221000  0.36480000  1.0
  C  C103  1  0.25736000  0.12866000  0.37136000  1.0
  C  C104  1  0.29282000  0.20058000  0.34246000  1.0
  C  C105  1  0.36244000  0.23558000  0.30762000  1.0
  C  C106  1  0.25736000  0.62870000  0.87133000  1.0
  C  C107  1  0.29282000  0.65762000  0.79940000  1.0
  C  C108  1  0.36245000  0.69248000  0.76439000  1.0
  C  C109  1  0.39841000  0.69922000  0.80080000  1.0
  C  C110  1  0.36244000  0.67001000  0.87318000  1.0
  C  C111  1  0.29281000  0.63523000  0.90780000  1.0
  C  C112  1  0.46935000  0.73469000  0.76533000  1.0
  C  C113  1  0.53064000  0.76535000  0.73466000  1.0
  C  C114  1  0.60158000  0.80081000  0.69919000  1.0
  C  C115  1  0.63756000  0.83002000  0.62681000  1.0
  C  C116  1  0.70719000  0.86479000  0.59220000  1.0
  C  C117  1  0.74264000  0.87134000  0.62866000  1.0
  C  C118  1  0.70718000  0.84244000  0.70058000  1.0
  C  C119  1  0.63755000  0.80758000  0.73559000  1.0
  Cl  Cl120  1  0.90218000  0.09667000  0.30552000  1.0
  Cl  Cl121  1  0.09782000  0.40333000  0.19448000  1.0
  Cl  Cl122  1  0.90218000  0.20769000  0.19449000  1.0
  Cl  Cl123  1  0.09782000  0.29231000  0.30551000  1.0
  Cl  Cl124  1  0.90218000  0.80550000  0.79233000  1.0
  Cl  Cl125  1  0.09782000  0.69449000  0.70767000  1.0
  Cl  Cl126  1  0.90218000  0.69447000  0.90335000  1.0
  Cl  Cl127  1  0.09781000  0.80552000  0.59665000  1.0
  O  O128  1  0.00000000  0.00000000  0.50000000  1.0
  O  O129  1  0.15342000  0.12743000  0.41346000  1.0
  O  O130  1  0.03991000  0.88570000  0.57440000  1.0
  O  O131  1  0.95909000  0.02597000  0.62745000  1.0
  O  O132  1  0.15342000  0.02598000  0.43311000  1.0
  O  O133  1  0.04090000  0.12743000  0.52599000  1.0
  O  O134  1  0.96008000  0.88568000  0.65422000  1.0
  O  O135  1  0.84657000  0.91346000  0.62744000  1.0
  O  O136  1  0.96011000  0.07441000  0.38568000  1.0
  O  O137  1  0.84658000  0.93312000  0.52597000  1.0
  O  O138  1  0.03991000  0.15421000  0.38569000  1.0
  O  O139  1  0.04089000  0.91346000  0.43312000  1.0
  O  O140  1  0.95910000  0.93312000  0.41345000  1.0
  O  O141  1  0.00000000  0.50000000  1.00000000  1.0
  O  O142  1  0.95910000  0.37258000  0.97401000  1.0
  O  O143  1  0.03992000  0.61432000  0.84577000  1.0
  O  O144  1  0.84657000  0.47401000  0.06690000  1.0
  O  O145  1  0.04091000  0.47403000  0.87255000  1.0
  O  O146  1  0.84658000  0.37257000  0.08655000  1.0
  O  O147  1  0.96009000  0.61430000  0.92560000  1.0
  O  O148  1  0.95909000  0.58654000  0.06689000  1.0
  O  O149  1  0.03989000  0.42559000  0.11432000  1.0
  O  O150  1  0.04089000  0.56688000  0.08654000  1.0
  O  O151  1  0.96009000  0.34578000  0.11431000  1.0
  O  O152  1  0.15343000  0.58655000  0.87256000  1.0
  O  O153  1  0.15342000  0.56688000  0.97403000  1.0
