# generated using pymatgen
data_ZnH5CN5OF2
_symmetry_space_group_name_H-M   'P 1'
_cell_length_a   6.21381000
_cell_length_b   6.91598000
_cell_length_c   13.50640000
_cell_angle_alpha   90.00000000
_cell_angle_beta   89.99990000
_cell_angle_gamma   90.00000000
_symmetry_Int_Tables_number   1
_chemical_formula_structural   ZnH5CN5OF2
_chemical_formula_sum   'Zn4 H20 C4 N20 O4 F8'
_cell_volume   580.43194408
_cell_formula_units_Z   4
loop_
 _symmetry_equiv_pos_site_id
 _symmetry_equiv_pos_as_xyz
  1  'x, y, z'
loop_
 _atom_site_type_symbol
 _atom_site_label
 _atom_site_symmetry_multiplicity
 _atom_site_fract_x
 _atom_site_fract_y
 _atom_site_fract_z
 _atom_site_occupancy
  Zn  Zn0  1  0.98633000  0.16102000  0.74829000  1.0
  Zn  Zn1  1  0.48633000  0.33898000  0.25171000  1.0
  Zn  Zn2  1  0.01367000  0.66102000  0.75171000  1.0
  Zn  Zn3  1  0.51367000  0.83898000  0.24829000  1.0
  H  H4  1  0.53516000  0.14334000  0.73998000  1.0
  H  H5  1  0.03516000  0.35666000  0.26002000  1.0
  H  H6  1  0.46485000  0.64334000  0.76002000  1.0
  H  H7  1  0.96484000  0.85666000  0.23998000  1.0
  H  H8  1  0.65439000  0.95047000  0.70170000  1.0
  H  H9  1  0.15438000  0.54953000  0.29830000  1.0
  H  H10  1  0.34562000  0.45047000  0.79830000  1.0
  H  H11  1  0.84561000  0.04953000  0.20170000  1.0
  H  H12  1  0.17648000  0.87581000  0.39900000  1.0
  H  H13  1  0.67648000  0.62419000  0.60100000  1.0
  H  H14  1  0.82352000  0.37580000  0.10100000  1.0
  H  H15  1  0.32352000  0.12420000  0.89900000  1.0
  H  H16  1  0.10472000  0.35407000  0.54776000  1.0
  H  H17  1  0.60471000  0.14593000  0.45224000  1.0
  H  H18  1  0.89529000  0.85407000  0.95225000  1.0
  H  H19  1  0.39528000  0.64593000  0.04775000  1.0
  H  H20  1  0.15721000  0.28651000  0.42375000  1.0
  H  H21  1  0.65722000  0.21349000  0.57625000  1.0
  H  H22  1  0.84278000  0.78651000  0.07625000  1.0
  H  H23  1  0.34278000  0.71349000  0.92375000  1.0
  C  C24  1  0.13434000  0.06904000  0.52867000  1.0
  C  C25  1  0.63434000  0.43096000  0.47133000  1.0
  C  C26  1  0.86566000  0.56904000  0.97133000  1.0
  C  C27  1  0.36566000  0.93096000  0.02867000  1.0
  N  N28  1  0.09803000  0.01327000  0.62338000  1.0
  N  N29  1  0.59803000  0.48673000  0.37662000  1.0
  N  N30  1  0.90197000  0.51327000  0.87662000  1.0
  N  N31  1  0.40197000  0.98673000  0.12338000  1.0
  N  N32  1  0.10171000  0.81784000  0.62320000  1.0
  N  N33  1  0.60171000  0.68216000  0.37680000  1.0
  N  N34  1  0.89829000  0.31783000  0.87680000  1.0
  N  N35  1  0.39829000  0.18217000  0.12320000  1.0
  N  N36  1  0.13671000  0.74903000  0.53590000  1.0
  N  N37  1  0.63670000  0.75097000  0.46410000  1.0
  N  N38  1  0.86330000  0.24903000  0.96410000  1.0
  N  N39  1  0.36330000  0.25097000  0.03590000  1.0
  N  N40  1  0.15754000  0.90343000  0.47555000  1.0
  N  N41  1  0.65754000  0.59657000  0.52445000  1.0
  N  N42  1  0.84246000  0.40342000  0.02445000  1.0
  N  N43  1  0.34246000  0.09658000  0.97555000  1.0
  N  N44  1  0.14883000  0.25044000  0.49742000  1.0
  N  N45  1  0.64883000  0.24956000  0.50258000  1.0
  N  N46  1  0.85117000  0.75044000  0.00258000  1.0
  N  N47  1  0.35117000  0.74956000  0.99741000  1.0
  O  O48  1  0.66300000  0.09534000  0.70181000  1.0
  O  O49  1  0.16299000  0.40466000  0.29819000  1.0
  O  O50  1  0.33701000  0.59534000  0.79819000  1.0
  O  O51  1  0.83700000  0.90466000  0.20181000  1.0
  F  F52  1  0.32384000  0.21925000  0.79472000  1.0
  F  F53  1  0.82384000  0.28075000  0.20528000  1.0
  F  F54  1  0.67616000  0.71925000  0.70528000  1.0
  F  F55  1  0.17616000  0.78075000  0.29472000  1.0
  F  F56  1  0.01270000  0.91392000  0.83001000  1.0
  F  F57  1  0.51270000  0.58608000  0.16999000  1.0
  F  F58  1  0.98730000  0.41392000  0.66999000  1.0
  F  F59  1  0.48730000  0.08608000  0.33001000  1.0
