# generated using pymatgen
data_ZnCuH26C16N4O9
_symmetry_space_group_name_H-M   'P 1'
_cell_length_a   6.43790000
_cell_length_b   10.91000000
_cell_length_c   13.70170000
_cell_angle_alpha   87.33550000
_cell_angle_beta   89.99960000
_cell_angle_gamma   89.99970000
_symmetry_Int_Tables_number   1
_chemical_formula_structural   ZnCuH26C16N4O9
_chemical_formula_sum   'Zn2 Cu2 H52 C32 N8 O18'
_cell_volume   961.33255267
_cell_formula_units_Z   2
loop_
 _symmetry_equiv_pos_site_id
 _symmetry_equiv_pos_as_xyz
  1  'x, y, z'
loop_
 _atom_site_type_symbol
 _atom_site_label
 _atom_site_symmetry_multiplicity
 _atom_site_fract_x
 _atom_site_fract_y
 _atom_site_fract_z
 _atom_site_occupancy
  Zn  Zn0  1  0.80197000  0.24999000  0.25000000  1.0
  Zn  Zn1  1  0.19803000  0.75001000  0.75000000  1.0
  Cu  Cu2  1  0.09920000  0.75000000  0.25000000  1.0
  Cu  Cu3  1  0.90079000  0.25001000  0.75000000  1.0
  H  H4  1  0.43836000  0.62479000  0.02824000  1.0
  H  H5  1  0.43836000  0.87522000  0.47175000  1.0
  H  H6  1  0.56164000  0.37521000  0.97176000  1.0
  H  H7  1  0.56164000  0.12479000  0.52824000  1.0
  H  H8  1  0.23010000  0.53311000  0.07163000  1.0
  H  H9  1  0.23010000  0.96689000  0.42836000  1.0
  H  H10  1  0.76990000  0.46688000  0.92837000  1.0
  H  H11  1  0.76990000  0.03311000  0.57164000  1.0
  H  H12  1  0.20879000  0.42216000  0.33633000  1.0
  H  H13  1  0.20877000  0.07784000  0.16367000  1.0
  H  H14  1  0.79122000  0.57785000  0.66368000  1.0
  H  H15  1  0.79124000  0.92216000  0.83633000  1.0
  H  H16  1  0.17474000  0.43458000  0.20975000  1.0
  H  H17  1  0.17473000  0.06541000  0.29024000  1.0
  H  H18  1  0.82527000  0.56542000  0.79025000  1.0
  H  H19  1  0.82526000  0.93458000  0.70976000  1.0
  H  H20  1  0.86823000  0.77039000  0.06961000  1.0
  H  H21  1  0.86824000  0.72961000  0.43040000  1.0
  H  H22  1  0.13176000  0.22960000  0.93039000  1.0
  H  H23  1  0.13177000  0.27039000  0.56961000  1.0
  H  H24  1  0.91386000  0.61163000  0.07251000  1.0
  H  H25  1  0.91386000  0.88837000  0.42749000  1.0
  H  H26  1  0.08614000  0.38836000  0.92749000  1.0
  H  H27  1  0.08614000  0.11163000  0.57251000  1.0
  H  H28  1  0.51764000  0.50366000  0.18386000  1.0
  H  H29  1  0.51763000  0.99634000  0.31613000  1.0
  H  H30  1  0.48236000  0.49634000  0.81614000  1.0
  H  H31  1  0.48235000  0.00366000  0.68386000  1.0
  H  H32  1  0.55788000  0.66164000  0.19398000  1.0
  H  H33  1  0.55790000  0.83837000  0.30602000  1.0
  H  H34  1  0.44212000  0.33836000  0.80602000  1.0
  H  H35  1  0.44210000  0.16163000  0.69398000  1.0
  H  H36  1  0.47296000  0.51944000  0.38960000  1.0
  H  H37  1  0.47293000  0.98057000  0.11038000  1.0
  H  H38  1  0.52707000  0.48057000  0.61040000  1.0
  H  H39  1  0.52706000  0.01943000  0.88962000  1.0
  H  H40  1  0.54473000  0.66766000  0.34883000  1.0
  H  H41  1  0.54474000  0.83235000  0.15115000  1.0
  H  H42  1  0.45528000  0.33235000  0.65117000  1.0
  H  H43  1  0.45525000  0.16765000  0.84885000  1.0
  H  H44  1  0.14495000  0.90369000  0.03882000  1.0
  H  H45  1  0.14496000  0.59631000  0.46117000  1.0
  H  H46  1  0.85504000  0.09631000  0.96118000  1.0
  H  H47  1  0.85505000  0.40369000  0.53882000  1.0
  H  H48  1  0.36662000  0.83385000  0.98965000  1.0
  H  H49  1  0.36663000  0.66614000  0.51034000  1.0
  H  H50  1  0.63337000  0.16614000  0.01035000  1.0
  H  H51  1  0.63337000  0.33386000  0.48966000  1.0
  H  H52  1  0.39525000  0.23984000  0.30785000  1.0
  H  H53  1  0.39526000  0.26016000  0.19215000  1.0
  H  H54  1  0.60475000  0.76016000  0.69216000  1.0
  H  H55  1  0.60474000  0.73984000  0.80785000  1.0
  C  C56  1  0.32169000  0.61486000  0.08713000  1.0
  C  C57  1  0.32168000  0.88514000  0.41287000  1.0
  C  C58  1  0.67831000  0.38514000  0.91288000  1.0
  C  C59  1  0.67831000  0.11486000  0.58713000  1.0
  C  C60  1  0.15990000  0.48621000  0.27637000  1.0
  C  C61  1  0.15988000  0.01379000  0.22362000  1.0
  C  C62  1  0.84012000  0.51379000  0.72363000  1.0
  C  C63  1  0.84011000  0.98621000  0.77638000  1.0
  C  C64  1  0.27268000  0.83939000  0.05674000  1.0
  C  C65  1  0.27269000  0.66061000  0.44325000  1.0
  C  C66  1  0.72731000  0.16061000  0.94326000  1.0
  C  C67  1  0.72733000  0.33939000  0.55675000  1.0
  C  C68  1  0.97529000  0.70044000  0.04376000  1.0
  C  C69  1  0.97530000  0.79956000  0.45624000  1.0
  C  C70  1  0.02470000  0.29956000  0.95624000  1.0
  C  C71  1  0.02471000  0.20043000  0.54376000  1.0
  C  C72  1  0.95518000  0.70273000  0.93238000  1.0
  C  C73  1  0.95522000  0.79728000  0.56762000  1.0
  C  C74  1  0.04481000  0.29727000  0.06762000  1.0
  C  C75  1  0.04478000  0.20272000  0.43238000  1.0
  C  C76  1  0.40959000  0.60904000  0.36375000  1.0
  C  C77  1  0.40958000  0.89097000  0.13624000  1.0
  C  C78  1  0.59043000  0.39097000  0.63625000  1.0
  C  C79  1  0.59041000  0.10903000  0.86376000  1.0
  C  C80  1  0.93211000  0.51558000  0.28875000  1.0
  C  C81  1  0.93213000  0.98439000  0.21125000  1.0
  C  C82  1  0.06789000  0.48442000  0.71125000  1.0
  C  C83  1  0.06787000  0.01561000  0.78875000  1.0
  C  C84  1  0.43704000  0.59274000  0.18441000  1.0
  C  C85  1  0.43703000  0.90726000  0.31558000  1.0
  C  C86  1  0.56297000  0.40726000  0.81559000  1.0
  C  C87  1  0.56296000  0.09274000  0.68442000  1.0
  N  N88  1  0.29669000  0.59558000  0.27032000  1.0
  N  N89  1  0.29669000  0.90442000  0.22967000  1.0
  N  N90  1  0.70333000  0.40442000  0.72968000  1.0
  N  N91  1  0.70330000  0.09558000  0.77033000  1.0
  N  N92  1  0.17965000  0.72038000  0.08616000  1.0
  N  N93  1  0.17965000  0.77962000  0.41383000  1.0
  N  N94  1  0.82035000  0.27962000  0.91384000  1.0
  N  N95  1  0.82035000  0.22038000  0.58617000  1.0
  O  O96  1  0.87746000  0.62861000  0.28162000  1.0
  O  O97  1  0.87745000  0.87137000  0.21838000  1.0
  O  O98  1  0.12255000  0.37139000  0.71837000  1.0
  O  O99  1  0.12253000  0.12863000  0.78162000  1.0
  O  O100  1  0.80429000  0.42945000  0.30522000  1.0
  O  O101  1  0.80424000  0.07055000  0.19478000  1.0
  O  O102  1  0.19573000  0.57056000  0.69478000  1.0
  O  O103  1  0.19575000  0.92946000  0.80522000  1.0
  O  O104  1  0.77530000  0.72288000  0.89885000  1.0
  O  O105  1  0.77534000  0.77711000  0.60116000  1.0
  O  O106  1  0.22468000  0.27710000  0.10115000  1.0
  O  O107  1  0.22468000  0.22290000  0.39884000  1.0
  O  O108  1  0.12010000  0.68207000  0.88334000  1.0
  O  O109  1  0.12012000  0.81797000  0.61665000  1.0
  O  O110  1  0.87989000  0.31794000  0.11666000  1.0
  O  O111  1  0.87989000  0.18203000  0.38335000  1.0
  O  O112  1  0.48812000  0.25000000  0.25000000  1.0
  O  O113  1  0.51188000  0.75000000  0.75000000  1.0
