# generated using pymatgen
data_CdH14C20(SN8)2
_symmetry_space_group_name_H-M   'P 1'
_cell_length_a   7.94618000
_cell_length_b   8.96173000
_cell_length_c   9.75874000
_cell_angle_alpha   71.98510000
_cell_angle_beta   87.31760000
_cell_angle_gamma   64.68370000
_symmetry_Int_Tables_number   1
_chemical_formula_structural   CdH14C20(SN8)2
_chemical_formula_sum   'Cd1 H14 C20 S2 N16'
_cell_volume   594.43891091
_cell_formula_units_Z   1
loop_
 _symmetry_equiv_pos_site_id
 _symmetry_equiv_pos_as_xyz
  1  'x, y, z'
loop_
 _atom_site_type_symbol
 _atom_site_label
 _atom_site_symmetry_multiplicity
 _atom_site_fract_x
 _atom_site_fract_y
 _atom_site_fract_z
 _atom_site_occupancy
  Cd  Cd0  1  0.00000000  0.00000000  0.50000000  1.0
  H  H1  1  0.28719000  0.25637000  0.65109000  1.0
  H  H2  1  0.71281000  0.74364000  0.34891000  1.0
  H  H3  1  0.77205000  0.77557000  0.73761000  1.0
  H  H4  1  0.22795000  0.22443000  0.26239000  1.0
  H  H5  1  0.19491000  0.14044000  0.87066000  1.0
  H  H6  1  0.80510000  0.85956000  0.12934000  1.0
  H  H7  1  0.13120000  0.98660000  0.11271000  1.0
  H  H8  1  0.86880000  0.01341000  0.88729000  1.0
  H  H9  1  0.35056000  0.67730000  0.24181000  1.0
  H  H10  1  0.64943000  0.32270000  0.75818000  1.0
  H  H11  1  0.59720000  0.41000000  0.35396000  1.0
  H  H12  1  0.40280000  0.59001000  0.64604000  1.0
  H  H13  1  0.83760000  0.44906000  0.95241000  1.0
  H  H14  1  0.16240000  0.55094000  0.04759000  1.0
  C  C15  1  0.42435000  0.15769000  0.64352000  1.0
  C  C16  1  0.57565000  0.84232000  0.35648000  1.0
  C  C17  1  0.67422000  0.91018000  0.68747000  1.0
  C  C18  1  0.32578000  0.08982000  0.31253000  1.0
  C  C19  1  0.44744000  0.91052000  0.86920000  1.0
  C  C20  1  0.55256000  0.08948000  0.13080000  1.0
  C  C21  1  0.28764000  0.00426000  0.92689000  1.0
  C  C22  1  0.71236000  0.99574000  0.07310000  1.0
  C  C23  1  0.25305000  0.91751000  0.06261000  1.0
  C  C24  1  0.74695000  0.08250000  0.93739000  1.0
  C  C25  1  0.37605000  0.74490000  0.13555000  1.0
  C  C26  1  0.62395000  0.25510000  0.86445000  1.0
  C  C27  1  0.53047000  0.66596000  0.06603000  1.0
  C  C28  1  0.46953000  0.33404000  0.93397000  1.0
  C  C29  1  0.68965000  0.38304000  0.27041000  1.0
  C  C30  1  0.31035000  0.61696000  0.72959000  1.0
  C  C31  1  0.81536000  0.40020000  0.06516000  1.0
  C  C32  1  0.18464000  0.59981000  0.93484000  1.0
  C  C33  1  0.04776000  0.68374000  0.34972000  1.0
  C  C34  1  0.95225000  0.31624000  0.65031000  1.0
  S  S35  1  0.03496000  0.53376000  0.29696000  1.0
  S  S36  1  0.96504000  0.46622000  0.70305000  1.0
  N  N37  1  0.53750000  0.18144000  0.54535000  1.0
  N  N38  1  0.46250000  0.81856000  0.45465000  1.0
  N  N39  1  0.69614000  0.02332000  0.57394000  1.0
  N  N40  1  0.30386000  0.97669000  0.42606000  1.0
  N  N41  1  0.50441000  0.98833000  0.73663000  1.0
  N  N42  1  0.49559000  0.01167000  0.26337000  1.0
  N  N43  1  0.56576000  0.74487000  0.93590000  1.0
  N  N44  1  0.43424000  0.25513000  0.06410000  1.0
  N  N45  1  0.66719000  0.49167000  0.13118000  1.0
  N  N46  1  0.33281000  0.50834000  0.86882000  1.0
  N  N47  1  0.84081000  0.23630000  0.28660000  1.0
  N  N48  1  0.15919000  0.76371000  0.71340000  1.0
  N  N49  1  0.92035000  0.24620000  0.15687000  1.0
  N  N50  1  0.07965000  0.75381000  0.84312000  1.0
  N  N51  1  0.05141000  0.79803000  0.38458000  1.0
  N  N52  1  0.94860000  0.20195000  0.61544000  1.0
