# generated using pymatgen
data_NiH8C5N2O7
_symmetry_space_group_name_H-M   'P 1'
_cell_length_a   7.55260000
_cell_length_b   7.74951000
_cell_length_c   14.61840000
_cell_angle_alpha   89.99990000
_cell_angle_beta   89.99990000
_cell_angle_gamma   90.00000000
_symmetry_Int_Tables_number   1
_chemical_formula_structural   NiH8C5N2O7
_chemical_formula_sum   'Ni4 H32 C20 N8 O28'
_cell_volume   855.59959136
_cell_formula_units_Z   4
loop_
 _symmetry_equiv_pos_site_id
 _symmetry_equiv_pos_as_xyz
  1  'x, y, z'
loop_
 _atom_site_type_symbol
 _atom_site_label
 _atom_site_symmetry_multiplicity
 _atom_site_fract_x
 _atom_site_fract_y
 _atom_site_fract_z
 _atom_site_occupancy
  Ni  Ni0  1  0.87647000  0.18324000  0.17797000  1.0
  Ni  Ni1  1  0.12353000  0.31676000  0.67797000  1.0
  Ni  Ni2  1  0.62353000  0.68324000  0.82203000  1.0
  Ni  Ni3  1  0.37647000  0.81676000  0.32203000  1.0
  H  H4  1  0.85609000  0.51219000  0.24001000  1.0
  H  H5  1  0.14391000  0.98780000  0.74001000  1.0
  H  H6  1  0.64391000  0.01219000  0.75999000  1.0
  H  H7  1  0.35609000  0.48780000  0.25999000  1.0
  H  H8  1  0.80589000  0.51423000  0.13174000  1.0
  H  H9  1  0.19411000  0.98576000  0.63174000  1.0
  H  H10  1  0.69411000  0.01423000  0.86826000  1.0
  H  H11  1  0.30589000  0.48576000  0.36826000  1.0
  H  H12  1  0.84594000  0.86264000  0.21895000  1.0
  H  H13  1  0.15406000  0.63736000  0.71895000  1.0
  H  H14  1  0.65406000  0.36264000  0.78105000  1.0
  H  H15  1  0.34594000  0.13736000  0.28105000  1.0
  H  H16  1  0.04848000  0.89043000  0.18904000  1.0
  H  H17  1  0.95153000  0.60957000  0.68904000  1.0
  H  H18  1  0.45153000  0.39044000  0.81096000  1.0
  H  H19  1  0.54847000  0.10957000  0.31096000  1.0
  H  H20  1  0.54945000  0.23365000  0.13825000  1.0
  H  H21  1  0.45055000  0.26635000  0.63825000  1.0
  H  H22  1  0.95055000  0.73365000  0.86175000  1.0
  H  H23  1  0.04945000  0.76635000  0.36175000  1.0
  H  H24  1  0.65241000  0.11994000  0.06404000  1.0
  H  H25  1  0.34759000  0.38005000  0.56404000  1.0
  H  H26  1  0.84759000  0.61995000  0.93596000  1.0
  H  H27  1  0.15241000  0.88005000  0.43596000  1.0
  H  H28  1  0.07813000  0.27736000  0.32957000  1.0
  H  H29  1  0.92187000  0.22265000  0.82957000  1.0
  H  H30  1  0.42187000  0.77736000  0.67043000  1.0
  H  H31  1  0.57813000  0.72264000  0.17043000  1.0
  H  H32  1  0.62546000  0.12257000  0.47749000  1.0
  H  H33  1  0.37453000  0.37744000  0.97749000  1.0
  H  H34  1  0.87454000  0.62257000  0.52251000  1.0
  H  H35  1  0.12547000  0.87743000  0.02251000  1.0
  C  C36  1  0.10022000  0.31121000  0.46950000  1.0
  C  C37  1  0.89978000  0.18880000  0.96951000  1.0
  C  C38  1  0.39978000  0.81120000  0.53049000  1.0
  C  C39  1  0.60022000  0.68879000  0.03050000  1.0
  C  C40  1  0.84410000  0.19572000  0.38780000  1.0
  C  C41  1  0.15590000  0.30429000  0.88780000  1.0
  C  C42  1  0.65590000  0.69571000  0.61220000  1.0
  C  C43  1  0.34410000  0.80428000  0.11220000  1.0
  C  C44  1  0.75955000  0.17270000  0.47397000  1.0
  C  C45  1  0.24044000  0.32730000  0.97398000  1.0
  C  C46  1  0.74045000  0.67270000  0.52603000  1.0
  C  C47  1  0.25956000  0.82730000  0.02603000  1.0
  C  C48  1  0.85324000  0.21615000  0.55127000  1.0
  C  C49  1  0.14675000  0.28386000  0.05127000  1.0
  C  C50  1  0.64676000  0.71615000  0.44873000  1.0
  C  C51  1  0.35325000  0.78385000  0.94873000  1.0
  C  C52  1  0.77359000  0.19709000  0.64538000  1.0
  C  C53  1  0.22641000  0.30291000  0.14538000  1.0
  C  C54  1  0.72641000  0.69708000  0.35462000  1.0
  C  C55  1  0.27359000  0.80292000  0.85462000  1.0
  N  N56  1  0.01906000  0.28320000  0.55080000  1.0
  N  N57  1  0.98094000  0.21680000  0.05080000  1.0
  N  N58  1  0.48094000  0.78319000  0.44920000  1.0
  N  N59  1  0.51906000  0.71680000  0.94920000  1.0
  N  N60  1  0.01209000  0.26324000  0.39091000  1.0
  N  N61  1  0.98790000  0.23676000  0.89091000  1.0
  N  N62  1  0.48791000  0.76324000  0.60909000  1.0
  N  N63  1  0.51209000  0.73675000  0.10909000  1.0
  O  O64  1  0.81609000  0.44085000  0.18764000  1.0
  O  O65  1  0.18391000  0.05914000  0.68764000  1.0
  O  O66  1  0.68391000  0.94086000  0.81236000  1.0
  O  O67  1  0.31608000  0.55914000  0.31236000  1.0
  O  O68  1  0.92316000  0.92040000  0.17451000  1.0
  O  O69  1  0.07685000  0.57960000  0.67451000  1.0
  O  O70  1  0.57685000  0.42040000  0.82549000  1.0
  O  O71  1  0.42315000  0.07960000  0.32549000  1.0
  O  O72  1  0.62493000  0.12996000  0.13119000  1.0
  O  O73  1  0.37507000  0.37004000  0.63119000  1.0
  O  O74  1  0.87507000  0.62996000  0.86881000  1.0
  O  O75  1  0.12492000  0.87004000  0.36881000  1.0
  O  O76  1  0.25254000  0.37886000  0.46339000  1.0
  O  O77  1  0.74746000  0.12114000  0.96339000  1.0
  O  O78  1  0.24746000  0.87886000  0.53661000  1.0
  O  O79  1  0.75254000  0.62114000  0.03661000  1.0
  O  O80  1  0.77399000  0.15756000  0.31110000  1.0
  O  O81  1  0.22601000  0.34245000  0.81110000  1.0
  O  O82  1  0.72602000  0.65756000  0.68890000  1.0
  O  O83  1  0.27399000  0.84244000  0.18890000  1.0
  O  O84  1  0.86220000  0.26261000  0.71195000  1.0
  O  O85  1  0.13780000  0.23739000  0.21195000  1.0
  O  O86  1  0.63780000  0.76261000  0.28805000  1.0
  O  O87  1  0.36220000  0.73739000  0.78805000  1.0
  O  O88  1  0.62604000  0.12324000  0.65509000  1.0
  O  O89  1  0.37396000  0.37676000  0.15509000  1.0
  O  O90  1  0.87396000  0.62324000  0.34491000  1.0
  O  O91  1  0.12604000  0.87676000  0.84491000  1.0
