# generated using pymatgen
data_CdH14C24S(NO)4
_symmetry_space_group_name_H-M   'P 1'
_cell_length_a   16.09860000
_cell_length_b   16.12700000
_cell_length_c   20.42900000
_cell_angle_alpha   90.00000000
_cell_angle_beta   89.99990000
_cell_angle_gamma   90.00000000
_symmetry_Int_Tables_number   1
_chemical_formula_structural   CdH14C24S(NO)4
_chemical_formula_sum   'Cd8 H112 C192 S8 N32 O32'
_cell_volume   5303.82033442
_cell_formula_units_Z   8
loop_
 _symmetry_equiv_pos_site_id
 _symmetry_equiv_pos_as_xyz
  1  'x, y, z'
loop_
 _atom_site_type_symbol
 _atom_site_label
 _atom_site_symmetry_multiplicity
 _atom_site_fract_x
 _atom_site_fract_y
 _atom_site_fract_z
 _atom_site_occupancy
  Cd  Cd0  1  0.91186000  0.61598000  0.32130000  1.0
  Cd  Cd1  1  0.58814000  0.38403000  0.32130000  1.0
  Cd  Cd2  1  0.41186000  0.38402000  0.17870000  1.0
  Cd  Cd3  1  0.08814000  0.61598000  0.17870000  1.0
  Cd  Cd4  1  0.08814000  0.38402000  0.67870000  1.0
  Cd  Cd5  1  0.41186000  0.61598000  0.67870000  1.0
  Cd  Cd6  1  0.58814000  0.61598000  0.82130000  1.0
  Cd  Cd7  1  0.91186000  0.38403000  0.82130000  1.0
  H  H8  1  0.80778000  0.46964000  0.27384000  1.0
  H  H9  1  0.69222000  0.53036000  0.27384000  1.0
  H  H10  1  0.30779000  0.53036000  0.22616000  1.0
  H  H11  1  0.19222000  0.46964000  0.22616000  1.0
  H  H12  1  0.19221000  0.53036000  0.72616000  1.0
  H  H13  1  0.30779000  0.46964000  0.72616000  1.0
  H  H14  1  0.69222000  0.46964000  0.77384000  1.0
  H  H15  1  0.80779000  0.53036000  0.77384000  1.0
  H  H16  1  0.79902000  0.31828000  0.26947000  1.0
  H  H17  1  0.70098000  0.68172000  0.26947000  1.0
  H  H18  1  0.29902000  0.68172000  0.23053000  1.0
  H  H19  1  0.20099000  0.31828000  0.23053000  1.0
  H  H20  1  0.20098000  0.68172000  0.73053000  1.0
  H  H21  1  0.29902000  0.31828000  0.73053000  1.0
  H  H22  1  0.70099000  0.31828000  0.76947000  1.0
  H  H23  1  0.79901000  0.68172000  0.76947000  1.0
  H  H24  1  0.04328000  0.30905000  0.35827000  1.0
  H  H25  1  0.45671000  0.69095000  0.35827000  1.0
  H  H26  1  0.54328000  0.69095000  0.14173000  1.0
  H  H27  1  0.95672000  0.30905000  0.14173000  1.0
  H  H28  1  0.95672000  0.69095000  0.64173000  1.0
  H  H29  1  0.54328000  0.30905000  0.64173000  1.0
  H  H30  1  0.45672000  0.30905000  0.85827000  1.0
  H  H31  1  0.04328000  0.69095000  0.85827000  1.0
  H  H32  1  0.04001000  0.46405000  0.36109000  1.0
  H  H33  1  0.45999000  0.53595000  0.36109000  1.0
  H  H34  1  0.54001000  0.53595000  0.13891000  1.0
  H  H35  1  0.95999000  0.46405000  0.13891000  1.0
  H  H36  1  0.95999000  0.53595000  0.63891000  1.0
  H  H37  1  0.54001000  0.46405000  0.63891000  1.0
  H  H38  1  0.46000000  0.46405000  0.86109000  1.0
  H  H39  1  0.04001000  0.53595000  0.86109000  1.0
  H  H40  1  0.97660000  0.03962000  0.40288000  1.0
  H  H41  1  0.52339000  0.96038000  0.40288000  1.0
  H  H42  1  0.47661000  0.96038000  0.09712000  1.0
  H  H43  1  0.02339000  0.03962000  0.09712000  1.0
  H  H44  1  0.02339000  0.96038000  0.59712000  1.0
  H  H45  1  0.47661000  0.03962000  0.59712000  1.0
  H  H46  1  0.52339000  0.03962000  0.90288000  1.0
  H  H47  1  0.97660000  0.96038000  0.90288000  1.0
  H  H48  1  0.97838000  0.19179000  0.40436000  1.0
  H  H49  1  0.52162000  0.80821000  0.40436000  1.0
  H  H50  1  0.47838000  0.80821000  0.09564000  1.0
  H  H51  1  0.02162000  0.19179000  0.09564000  1.0
  H  H52  1  0.02162000  0.80821000  0.59564000  1.0
  H  H53  1  0.47838000  0.19179000  0.59564000  1.0
  H  H54  1  0.52162000  0.19179000  0.90436000  1.0
  H  H55  1  0.97838000  0.80821000  0.90436000  1.0
  H  H56  1  0.03922000  0.92425000  0.35608000  1.0
  H  H57  1  0.46078000  0.07576000  0.35608000  1.0
  H  H58  1  0.53922000  0.07575000  0.14392000  1.0
  H  H59  1  0.96078000  0.92424000  0.14392000  1.0
  H  H60  1  0.96078000  0.07575000  0.64392000  1.0
  H  H61  1  0.53922000  0.92425000  0.64392000  1.0
  H  H62  1  0.46078000  0.92425000  0.85608000  1.0
  H  H63  1  0.03922000  0.07575000  0.85608000  1.0
  H  H64  1  0.79769000  0.91982000  0.26417000  1.0
  H  H65  1  0.70231000  0.08018000  0.26417000  1.0
  H  H66  1  0.29769000  0.08018000  0.23583000  1.0
  H  H67  1  0.20231000  0.91982000  0.23583000  1.0
  H  H68  1  0.20231000  0.08018000  0.73583000  1.0
  H  H69  1  0.29769000  0.91982000  0.73583000  1.0
  H  H70  1  0.70231000  0.91982000  0.76417000  1.0
  H  H71  1  0.79769000  0.08018000  0.76417000  1.0
  H  H72  1  0.80483000  0.76475000  0.26821000  1.0
  H  H73  1  0.69517000  0.23525000  0.26821000  1.0
  H  H74  1  0.30483000  0.23525000  0.23179000  1.0
  H  H75  1  0.19517000  0.76475000  0.23179000  1.0
  H  H76  1  0.19517000  0.23525000  0.73179000  1.0
  H  H77  1  0.30483000  0.76475000  0.73179000  1.0
  H  H78  1  0.69517000  0.76475000  0.76821000  1.0
  H  H79  1  0.80483000  0.23525000  0.76821000  1.0
  H  H80  1  0.03411000  0.76871000  0.35846000  1.0
  H  H81  1  0.46589000  0.23129000  0.35846000  1.0
  H  H82  1  0.53411000  0.23129000  0.14154000  1.0
  H  H83  1  0.96589000  0.76871000  0.14154000  1.0
  H  H84  1  0.96589000  0.23129000  0.64154000  1.0
  H  H85  1  0.53411000  0.76871000  0.64154000  1.0
  H  H86  1  0.46589000  0.76871000  0.85846000  1.0
  H  H87  1  0.03411000  0.23129000  0.85846000  1.0
  H  H88  1  0.30089000  0.62495000  0.33633000  1.0
  H  H89  1  0.19911000  0.37505000  0.33633000  1.0
  H  H90  1  0.80089000  0.37505000  0.16367000  1.0
  H  H91  1  0.69911000  0.62495000  0.16367000  1.0
  H  H92  1  0.69911000  0.37505000  0.66367000  1.0
  H  H93  1  0.80089000  0.62495000  0.66367000  1.0
  H  H94  1  0.19911000  0.62495000  0.83633000  1.0
  H  H95  1  0.30089000  0.37505000  0.83633000  1.0
  H  H96  1  0.38259000  0.62583000  0.44168000  1.0
  H  H97  1  0.11741000  0.37417000  0.44168000  1.0
  H  H98  1  0.88259000  0.37418000  0.05833000  1.0
  H  H99  1  0.61741000  0.62583000  0.05832000  1.0
  H  H100  1  0.61741000  0.37417000  0.55833000  1.0
  H  H101  1  0.88259000  0.62582000  0.55832000  1.0
  H  H102  1  0.11741000  0.62583000  0.94167000  1.0
  H  H103  1  0.38259000  0.37417000  0.94167000  1.0
  H  H104  1  0.15667000  0.60823000  0.55108000  1.0
  H  H105  1  0.34333000  0.39177000  0.55108000  1.0
  H  H106  1  0.65667000  0.39177000  0.94892000  1.0
  H  H107  1  0.84333000  0.60823000  0.94892000  1.0
  H  H108  1  0.84333000  0.39177000  0.44892000  1.0
  H  H109  1  0.65667000  0.60823000  0.44892000  1.0
  H  H110  1  0.34333000  0.60823000  0.05108000  1.0
  H  H111  1  0.15667000  0.39177000  0.05108000  1.0
  H  H112  1  0.07394000  0.60866000  0.44681000  1.0
  H  H113  1  0.42606000  0.39134000  0.44681000  1.0
  H  H114  1  0.57394000  0.39133000  0.05319000  1.0
  H  H115  1  0.92606000  0.60866000  0.05319000  1.0
  H  H116  1  0.92606000  0.39134000  0.55319000  1.0
  H  H117  1  0.57394000  0.60866000  0.55319000  1.0
  H  H118  1  0.42606000  0.60866000  0.94681000  1.0
  H  H119  1  0.07394000  0.39134000  0.94681000  1.0
  C  C120  1  0.85875000  0.43209000  0.29235000  1.0
  C  C121  1  0.64125000  0.56791000  0.29235000  1.0
  C  C122  1  0.35875000  0.56791000  0.20765000  1.0
  C  C123  1  0.14125000  0.43209000  0.20765000  1.0
  C  C124  1  0.14125000  0.56791000  0.70765000  1.0
  C  C125  1  0.35875000  0.43209000  0.70765000  1.0
  C  C126  1  0.64125000  0.43209000  0.79235000  1.0
  C  C127  1  0.85875000  0.56791000  0.79235000  1.0
  C  C128  1  0.85471000  0.34625000  0.28953000  1.0
  C  C129  1  0.64529000  0.65375000  0.28953000  1.0
  C  C130  1  0.35471000  0.65375000  0.21047000  1.0
  C  C131  1  0.14529000  0.34625000  0.21047000  1.0
  C  C132  1  0.14529000  0.65375000  0.71047000  1.0
  C  C133  1  0.35470000  0.34625000  0.71047000  1.0
  C  C134  1  0.64529000  0.34625000  0.78953000  1.0
  C  C135  1  0.85471000  0.65375000  0.78953000  1.0
  C  C136  1  0.92100000  0.29933000  0.31359000  1.0
  C  C137  1  0.57900000  0.70067000  0.31359000  1.0
  C  C138  1  0.42100000  0.70067000  0.18641000  1.0
  C  C139  1  0.07900000  0.29933000  0.18641000  1.0
  C  C140  1  0.07899000  0.70067000  0.68641000  1.0
  C  C141  1  0.42101000  0.29933000  0.68641000  1.0
  C  C142  1  0.57900000  0.29933000  0.81359000  1.0
  C  C143  1  0.92100000  0.70067000  0.81359000  1.0
  C  C144  1  0.98896000  0.34238000  0.34043000  1.0
  C  C145  1  0.51103000  0.65763000  0.34043000  1.0
  C  C146  1  0.48897000  0.65763000  0.15957000  1.0
  C  C147  1  0.01104000  0.34237000  0.15957000  1.0
  C  C148  1  0.01103000  0.65763000  0.65957000  1.0
  C  C149  1  0.48896000  0.34237000  0.65957000  1.0
  C  C150  1  0.51104000  0.34237000  0.84043000  1.0
  C  C151  1  0.98897000  0.65763000  0.84043000  1.0
  C  C152  1  0.98818000  0.42848000  0.34127000  1.0
  C  C153  1  0.51182000  0.57152000  0.34127000  1.0
  C  C154  1  0.48818000  0.57152000  0.15873000  1.0
  C  C155  1  0.01182000  0.42848000  0.15873000  1.0
  C  C156  1  0.01182000  0.57152000  0.65873000  1.0
  C  C157  1  0.48818000  0.42848000  0.65873000  1.0
  C  C158  1  0.51182000  0.42848000  0.84127000  1.0
  C  C159  1  0.98818000  0.57152000  0.84127000  1.0
  C  C160  1  0.91955000  0.20820000  0.31153000  1.0
  C  C161  1  0.58045000  0.79180000  0.31153000  1.0
  C  C162  1  0.41955000  0.79180000  0.18847000  1.0
  C  C163  1  0.08045000  0.20819000  0.18847000  1.0
  C  C164  1  0.08045000  0.79180000  0.68847000  1.0
  C  C165  1  0.41955000  0.20820000  0.68847000  1.0
  C  C166  1  0.58045000  0.20820000  0.81153000  1.0
  C  C167  1  0.91955000  0.79180000  0.81153000  1.0
  C  C168  1  0.88455000  0.16346000  0.25771000  1.0
  C  C169  1  0.61545000  0.83654000  0.25771000  1.0
  C  C170  1  0.38455000  0.83654000  0.24229000  1.0
  C  C171  1  0.11545000  0.16346000  0.24229000  1.0
  C  C172  1  0.11545000  0.83654000  0.74229000  1.0
  C  C173  1  0.38455000  0.16346000  0.74229000  1.0
  C  C174  1  0.61545000  0.16346000  0.75771000  1.0
  C  C175  1  0.88455000  0.83654000  0.75771000  1.0
  C  C176  1  0.88374000  0.07344000  0.25662000  1.0
  C  C177  1  0.61626000  0.92656000  0.25662000  1.0
  C  C178  1  0.38374000  0.92656000  0.24338000  1.0
  C  C179  1  0.11626000  0.07344000  0.24338000  1.0
  C  C180  1  0.11626000  0.92656000  0.74338000  1.0
  C  C181  1  0.38374000  0.07344000  0.74338000  1.0
  C  C182  1  0.61626000  0.07344000  0.75662000  1.0
  C  C183  1  0.88374000  0.92656000  0.75662000  1.0
  C  C184  1  0.91758000  0.02678000  0.30981000  1.0
  C  C185  1  0.58242000  0.97322000  0.30982000  1.0
  C  C186  1  0.41758000  0.97322000  0.19019000  1.0
  C  C187  1  0.08242000  0.02678000  0.19019000  1.0
  C  C188  1  0.08242000  0.97322000  0.69018000  1.0
  C  C189  1  0.41758000  0.02678000  0.69018000  1.0
  C  C190  1  0.58242000  0.02678000  0.80982000  1.0
  C  C191  1  0.91758000  0.97322000  0.80981000  1.0
  C  C192  1  0.95136000  0.07276000  0.36080000  1.0
  C  C193  1  0.54864000  0.92724000  0.36080000  1.0
  C  C194  1  0.45136000  0.92724000  0.13920000  1.0
  C  C195  1  0.04864000  0.07276000  0.13920000  1.0
  C  C196  1  0.04864000  0.92724000  0.63920000  1.0
  C  C197  1  0.45136000  0.07276000  0.63920000  1.0
  C  C198  1  0.54864000  0.07276000  0.86080000  1.0
  C  C199  1  0.95136000  0.92724000  0.86080000  1.0
  C  C200  1  0.95246000  0.16036000  0.36172000  1.0
  C  C201  1  0.54754000  0.83964000  0.36172000  1.0
  C  C202  1  0.45246000  0.83964000  0.13828000  1.0
  C  C203  1  0.04754000  0.16035000  0.13828000  1.0
  C  C204  1  0.04754000  0.83964000  0.63828000  1.0
  C  C205  1  0.45246000  0.16036000  0.63828000  1.0
  C  C206  1  0.54754000  0.16036000  0.86172000  1.0
  C  C207  1  0.95246000  0.83964000  0.86172000  1.0
  C  C208  1  0.98464000  0.89149000  0.33800000  1.0
  C  C209  1  0.51536000  0.10851000  0.33800000  1.0
  C  C210  1  0.48464000  0.10851000  0.16200000  1.0
  C  C211  1  0.01536000  0.89149000  0.16200000  1.0
  C  C212  1  0.01536000  0.10851000  0.66200000  1.0
  C  C213  1  0.48464000  0.89149000  0.66200000  1.0
  C  C214  1  0.51536000  0.89149000  0.83800000  1.0
  C  C215  1  0.98464000  0.10851000  0.83800000  1.0
  C  C216  1  0.91753000  0.93557000  0.31102000  1.0
  C  C217  1  0.58246000  0.06443000  0.31102000  1.0
  C  C218  1  0.41754000  0.06443000  0.18898000  1.0
  C  C219  1  0.08246000  0.93557000  0.18898000  1.0
  C  C220  1  0.08246000  0.06443000  0.68898000  1.0
  C  C221  1  0.41754000  0.93557000  0.68898000  1.0
  C  C222  1  0.58246000  0.93557000  0.81102000  1.0
  C  C223  1  0.91754000  0.06443000  0.81102000  1.0
  C  C224  1  0.85121000  0.88903000  0.28567000  1.0
  C  C225  1  0.64878000  0.11097000  0.28567000  1.0
  C  C226  1  0.35122000  0.11097000  0.21433000  1.0
  C  C227  1  0.14878000  0.88903000  0.21433000  1.0
  C  C228  1  0.14878000  0.11097000  0.71433000  1.0
  C  C229  1  0.35122000  0.88903000  0.71433000  1.0
  C  C230  1  0.64878000  0.88903000  0.78567000  1.0
  C  C231  1  0.85121000  0.11097000  0.78567000  1.0
  C  C232  1  0.85467000  0.80301000  0.28803000  1.0
  C  C233  1  0.64533000  0.19699000  0.28803000  1.0
  C  C234  1  0.35467000  0.19699000  0.21197000  1.0
  C  C235  1  0.14533000  0.80300000  0.21197000  1.0
  C  C236  1  0.14533000  0.19699000  0.71197000  1.0
  C  C237  1  0.35467000  0.80300000  0.71197000  1.0
  C  C238  1  0.64533000  0.80301000  0.78803000  1.0
  C  C239  1  0.85467000  0.19700000  0.78803000  1.0
  C  C240  1  0.98296000  0.80528000  0.33855000  1.0
  C  C241  1  0.51704000  0.19472000  0.33855000  1.0
  C  C242  1  0.48296000  0.19472000  0.16145000  1.0
  C  C243  1  0.01704000  0.80528000  0.16145000  1.0
  C  C244  1  0.01704000  0.19472000  0.66145000  1.0
  C  C245  1  0.48296000  0.80528000  0.66145000  1.0
  C  C246  1  0.51704000  0.80528000  0.83855000  1.0
  C  C247  1  0.98296000  0.19472000  0.83855000  1.0
  C  C248  1  0.13481000  0.61811000  0.32222000  1.0
  C  C249  1  0.36519000  0.38189000  0.32222000  1.0
  C  C250  1  0.63481000  0.38189000  0.17778000  1.0
  C  C251  1  0.86519000  0.61811000  0.17778000  1.0
  C  C252  1  0.86519000  0.38189000  0.67778000  1.0
  C  C253  1  0.63481000  0.61811000  0.67778000  1.0
  C  C254  1  0.36519000  0.61811000  0.82222000  1.0
  C  C255  1  0.13481000  0.38189000  0.82222000  1.0
  C  C256  1  0.18269000  0.61779000  0.38520000  1.0
  C  C257  1  0.31731000  0.38221000  0.38520000  1.0
  C  C258  1  0.68269000  0.38221000  0.11480000  1.0
  C  C259  1  0.81731000  0.61779000  0.11480000  1.0
  C  C260  1  0.81731000  0.38221000  0.61480000  1.0
  C  C261  1  0.68269000  0.61779000  0.61480000  1.0
  C  C262  1  0.31731000  0.61779000  0.88520000  1.0
  C  C263  1  0.18269000  0.38221000  0.88520000  1.0
  C  C264  1  0.26975000  0.62209000  0.38355000  1.0
  C  C265  1  0.23025000  0.37791000  0.38355000  1.0
  C  C266  1  0.76975000  0.37791000  0.11645000  1.0
  C  C267  1  0.73025000  0.62209000  0.11645000  1.0
  C  C268  1  0.73025000  0.37791000  0.61645000  1.0
  C  C269  1  0.76975000  0.62209000  0.61645000  1.0
  C  C270  1  0.23025000  0.62209000  0.88355000  1.0
  C  C271  1  0.26975000  0.37791000  0.88355000  1.0
  C  C272  1  0.31498000  0.62281000  0.44143000  1.0
  C  C273  1  0.18501000  0.37719000  0.44143000  1.0
  C  C274  1  0.81498000  0.37719000  0.05857000  1.0
  C  C275  1  0.68502000  0.62281000  0.05857000  1.0
  C  C276  1  0.68502000  0.37719000  0.55857000  1.0
  C  C277  1  0.81498000  0.62281000  0.55857000  1.0
  C  C278  1  0.18502000  0.62281000  0.94143000  1.0
  C  C279  1  0.31498000  0.37719000  0.94143000  1.0
  C  C280  1  0.27426000  0.61875000  0.50192000  1.0
  C  C281  1  0.22574000  0.38125000  0.50192000  1.0
  C  C282  1  0.77426000  0.38124000  0.99808000  1.0
  C  C283  1  0.72574000  0.61875000  0.99808000  1.0
  C  C284  1  0.72574000  0.38124000  0.49808000  1.0
  C  C285  1  0.77426000  0.61876000  0.49808000  1.0
  C  C286  1  0.22574000  0.61875000  0.00192000  1.0
  C  C287  1  0.27426000  0.38124000  0.00192000  1.0
  C  C288  1  0.18735000  0.61313000  0.50368000  1.0
  C  C289  1  0.31265000  0.38687000  0.50368000  1.0
  C  C290  1  0.68735000  0.38687000  0.99632000  1.0
  C  C291  1  0.81265000  0.61313000  0.99632000  1.0
  C  C292  1  0.81265000  0.38687000  0.49632000  1.0
  C  C293  1  0.68735000  0.61313000  0.49632000  1.0
  C  C294  1  0.31265000  0.61313000  0.00368000  1.0
  C  C295  1  0.18735000  0.38687000  0.00368000  1.0
  C  C296  1  0.14160000  0.61300000  0.44573000  1.0
  C  C297  1  0.35840000  0.38701000  0.44572000  1.0
  C  C298  1  0.64160000  0.38700000  0.05427000  1.0
  C  C299  1  0.85840000  0.61300000  0.05427000  1.0
  C  C300  1  0.85840000  0.38700000  0.55428000  1.0
  C  C301  1  0.64160000  0.61299000  0.55427000  1.0
  C  C302  1  0.35840000  0.61300000  0.94572000  1.0
  C  C303  1  0.14160000  0.38700000  0.94573000  1.0
  C  C304  1  0.32443000  0.61994000  0.56379000  1.0
  C  C305  1  0.17557000  0.38006000  0.56379000  1.0
  C  C306  1  0.82443000  0.38006000  0.93621000  1.0
  C  C307  1  0.67557000  0.61994000  0.93621000  1.0
  C  C308  1  0.67557000  0.38006000  0.43621000  1.0
  C  C309  1  0.82443000  0.61994000  0.43621000  1.0
  C  C310  1  0.17557000  0.61994000  0.06379000  1.0
  C  C311  1  0.32443000  0.38006000  0.06379000  1.0
  S  S312  1  0.82438000  0.12115000  0.15650000  1.0
  S  S313  1  0.67562000  0.87885000  0.15650000  1.0
  S  S314  1  0.32438000  0.87885000  0.34350000  1.0
  S  S315  1  0.17562000  0.12115000  0.34350000  1.0
  S  S316  1  0.17562000  0.87885000  0.84350000  1.0
  S  S317  1  0.32438000  0.12115000  0.84350000  1.0
  S  S318  1  0.67562000  0.12115000  0.65650000  1.0
  S  S319  1  0.82438000  0.87885000  0.65650000  1.0
  N  N320  1  0.85091000  0.04222000  0.20071000  1.0
  N  N321  1  0.64909000  0.95778000  0.20071000  1.0
  N  N322  1  0.35091000  0.95778000  0.29929000  1.0
  N  N323  1  0.14909000  0.04222000  0.29929000  1.0
  N  N324  1  0.14909000  0.95778000  0.79929000  1.0
  N  N325  1  0.35091000  0.04222000  0.79929000  1.0
  N  N326  1  0.64908000  0.04222000  0.70071000  1.0
  N  N327  1  0.85091000  0.95779000  0.70071000  1.0
  N  N328  1  0.85206000  0.19730000  0.20273000  1.0
  N  N329  1  0.64794000  0.80271000  0.20273000  1.0
  N  N330  1  0.35206000  0.80271000  0.29728000  1.0
  N  N331  1  0.14794000  0.19729000  0.29728000  1.0
  N  N332  1  0.14794000  0.80271000  0.79728000  1.0
  N  N333  1  0.35206000  0.19729000  0.79727000  1.0
  N  N334  1  0.64794000  0.19729000  0.70272000  1.0
  N  N335  1  0.85206000  0.80271000  0.70272000  1.0
  N  N336  1  0.92425000  0.47283000  0.31713000  1.0
  N  N337  1  0.57575000  0.52717000  0.31713000  1.0
  N  N338  1  0.42425000  0.52717000  0.18287000  1.0
  N  N339  1  0.07575000  0.47283000  0.18287000  1.0
  N  N340  1  0.07575000  0.52717000  0.68287000  1.0
  N  N341  1  0.42425000  0.47283000  0.68287000  1.0
  N  N342  1  0.57575000  0.47283000  0.81713000  1.0
  N  N343  1  0.92425000  0.52717000  0.81713000  1.0
  N  N344  1  0.91930000  0.76160000  0.31374000  1.0
  N  N345  1  0.58069000  0.23840000  0.31373000  1.0
  N  N346  1  0.41931000  0.23840000  0.18626000  1.0
  N  N347  1  0.08069000  0.76160000  0.18627000  1.0
  N  N348  1  0.08069000  0.23840000  0.68627000  1.0
  N  N349  1  0.41931000  0.76160000  0.68627000  1.0
  N  N350  1  0.58069000  0.76160000  0.81374000  1.0
  N  N351  1  0.91930000  0.23840000  0.81374000  1.0
  O  O352  1  0.05607000  0.62097000  0.32429000  1.0
  O  O353  1  0.44393000  0.37903000  0.32429000  1.0
  O  O354  1  0.55607000  0.37903000  0.17571000  1.0
  O  O355  1  0.94393000  0.62097000  0.17571000  1.0
  O  O356  1  0.94393000  0.37903000  0.67571000  1.0
  O  O357  1  0.55607000  0.62097000  0.67571000  1.0
  O  O358  1  0.44393000  0.62097000  0.82429000  1.0
  O  O359  1  0.05607000  0.37903000  0.82429000  1.0
  O  O360  1  0.17640000  0.61625000  0.26887000  1.0
  O  O361  1  0.32360000  0.38375000  0.26887000  1.0
  O  O362  1  0.67640000  0.38375000  0.23113000  1.0
  O  O363  1  0.82360000  0.61625000  0.23113000  1.0
  O  O364  1  0.82360000  0.38375000  0.73113000  1.0
  O  O365  1  0.67640000  0.61625000  0.73113000  1.0
  O  O366  1  0.32360000  0.61625000  0.76887000  1.0
  O  O367  1  0.17640000  0.38375000  0.76887000  1.0
  O  O368  1  0.40356000  0.62287000  0.55981000  1.0
  O  O369  1  0.09644000  0.37713000  0.55981000  1.0
  O  O370  1  0.90356000  0.37713000  0.94019000  1.0
  O  O371  1  0.59644000  0.62287000  0.94019000  1.0
  O  O372  1  0.59644000  0.37713000  0.44019000  1.0
  O  O373  1  0.90356000  0.62287000  0.44019000  1.0
  O  O374  1  0.09644000  0.62287000  0.05981000  1.0
  O  O375  1  0.40356000  0.37713000  0.05981000  1.0
  O  O376  1  0.28569000  0.61820000  0.61833000  1.0
  O  O377  1  0.21431000  0.38180000  0.61833000  1.0
  O  O378  1  0.78569000  0.38180000  0.88167000  1.0
  O  O379  1  0.71431000  0.61820000  0.88167000  1.0
  O  O380  1  0.71431000  0.38180000  0.38167000  1.0
  O  O381  1  0.78569000  0.61820000  0.38167000  1.0
  O  O382  1  0.21431000  0.61820000  0.11833000  1.0
  O  O383  1  0.28569000  0.38180000  0.11833000  1.0
