# generated using pymatgen
data_Cu5H20C12S4(Br2N)2
_symmetry_space_group_name_H-M   'P 1'
_cell_length_a   6.86882000
_cell_length_b   8.74590000
_cell_length_c   10.29630000
_cell_angle_alpha   78.69000000
_cell_angle_beta   89.94990000
_cell_angle_gamma   66.94200000
_symmetry_Int_Tables_number   1
_chemical_formula_structural   Cu5H20C12S4(Br2N)2
_chemical_formula_sum   'Cu5 H20 C12 S4 Br4 N2'
_cell_volume   556.09189111
_cell_formula_units_Z   1
loop_
 _symmetry_equiv_pos_site_id
 _symmetry_equiv_pos_as_xyz
  1  'x, y, z'
loop_
 _atom_site_type_symbol
 _atom_site_label
 _atom_site_symmetry_multiplicity
 _atom_site_fract_x
 _atom_site_fract_y
 _atom_site_fract_z
 _atom_site_occupancy
  Cu  Cu0  1  0.50001000  0.99999000  0.00000000  1.0
  Cu  Cu1  1  0.36725000  0.67152000  0.00222000  1.0
  Cu  Cu2  1  0.03784000  0.32893000  0.99766000  1.0
  Cu  Cu3  1  0.63275000  0.32845000  0.99777000  1.0
  Cu  Cu4  1  0.96216000  0.67106000  0.00234000  1.0
  H  H5  1  0.92492000  0.75932000  0.67197000  1.0
  H  H6  1  0.68273000  0.24032000  0.32858000  1.0
  H  H7  1  0.07509000  0.24068000  0.32803000  1.0
  H  H8  1  0.31727000  0.75969000  0.67141000  1.0
  H  H9  1  0.90350000  0.56676000  0.65927000  1.0
  H  H10  1  0.46927000  0.43310000  0.34094000  1.0
  H  H11  1  0.09649000  0.43325000  0.34073000  1.0
  H  H12  1  0.53073000  0.56691000  0.65906000  1.0
  H  H13  1  0.96242000  0.70671000  0.43802000  1.0
  H  H14  1  0.66628000  0.29306000  0.56250000  1.0
  H  H15  1  0.03757000  0.29328000  0.56197000  1.0
  H  H16  1  0.33371000  0.70695000  0.43749000  1.0
  H  H17  1  0.74766000  0.89827000  0.44417000  1.0
  H  H18  1  0.64238000  0.10160000  0.55603000  1.0
  H  H19  1  0.25235000  0.10172000  0.55582000  1.0
  H  H20  1  0.35761000  0.89841000  0.44396000  1.0
  H  H21  1  0.62971000  0.74447000  0.30592000  1.0
  H  H22  1  0.37028000  0.25553000  0.69407000  1.0
  H  H23  1  0.72192000  0.55883000  0.43247000  1.0
  H  H24  1  0.27807000  0.44117000  0.56753000  1.0
  C  C25  1  0.58048000  0.84036000  0.78286000  1.0
  C  C26  1  0.41950000  0.15965000  0.21716000  1.0
  C  C27  1  0.82806000  0.70643000  0.62653000  1.0
  C  C28  1  0.53272000  0.29347000  0.37373000  1.0
  C  C29  1  0.17194000  0.29358000  0.37346000  1.0
  C  C30  1  0.46727000  0.70654000  0.62628000  1.0
  C  C31  1  0.80466000  0.75912000  0.47517000  1.0
  C  C32  1  0.56093000  0.24079000  0.52511000  1.0
  C  C33  1  0.19534000  0.24089000  0.52484000  1.0
  C  C34  1  0.43907000  0.75921000  0.47489000  1.0
  C  C35  1  0.65210000  0.69892000  0.41427000  1.0
  C  C36  1  0.34790000  0.30109000  0.58573000  1.0
  S  S37  1  0.33909000  0.90365000  0.85332000  1.0
  S  S38  1  0.24168000  0.09663000  0.14618000  1.0
  S  S39  1  0.66092000  0.09633000  0.14670000  1.0
  S  S40  1  0.75834000  0.90336000  0.85383000  1.0
  Br  Br41  1  0.85818000  0.28344000  0.81631000  1.0
  Br  Br42  1  0.14184000  0.71654000  0.18369000  1.0
  Br  Br43  1  0.73674000  0.52610000  0.11314000  1.0
  Br  Br44  1  0.26324000  0.47391000  0.88686000  1.0
  N  N45  1  0.62002000  0.76167000  0.68173000  1.0
  N  N46  1  0.37998000  0.23833000  0.31826000  1.0
