# generated using pymatgen
data_UH14C16(NO4)2
_symmetry_space_group_name_H-M   'P 1'
_cell_length_a   9.66625000
_cell_length_b   10.16870000
_cell_length_c   10.77970000
_cell_angle_alpha   64.54890000
_cell_angle_beta   69.96860000
_cell_angle_gamma   74.76650000
_symmetry_Int_Tables_number   1
_chemical_formula_structural   UH14C16(NO4)2
_chemical_formula_sum   'U2 H28 C32 N4 O16'
_cell_volume   890.48660386
_cell_formula_units_Z   2
loop_
 _symmetry_equiv_pos_site_id
 _symmetry_equiv_pos_as_xyz
  1  'x, y, z'
loop_
 _atom_site_type_symbol
 _atom_site_label
 _atom_site_symmetry_multiplicity
 _atom_site_fract_x
 _atom_site_fract_y
 _atom_site_fract_z
 _atom_site_occupancy
  U  U0  1  0.54327000  0.09910000  0.67959000  1.0
  U  U1  1  0.45674000  0.90090000  0.32041000  1.0
  H  H2  1  0.75159000  0.91034000  0.87171000  1.0
  H  H3  1  0.24840000  0.08966000  0.12829000  1.0
  H  H4  1  0.58624000  0.87347000  0.97003000  1.0
  H  H5  1  0.41376000  0.12653000  0.02997000  1.0
  H  H6  1  0.35316000  0.45744000  0.44386000  1.0
  H  H7  1  0.64684000  0.54256000  0.55614000  1.0
  H  H8  1  0.18455000  0.68925000  0.36268000  1.0
  H  H9  1  0.81544000  0.31075000  0.63732000  1.0
  H  H10  1  0.95471000  0.47046000  0.24254000  1.0
  H  H11  1  0.04530000  0.52954000  0.75746000  1.0
  H  H12  1  0.12285000  0.23821000  0.32530000  1.0
  H  H13  1  0.87715000  0.76179000  0.67470000  1.0
  H  H14  1  0.84742000  0.73155000  0.27466000  1.0
  H  H15  1  0.15258000  0.26845000  0.72534000  1.0
  H  H16  1  0.98915000  0.82519000  0.25857000  1.0
  H  H17  1  0.01085000  0.17481000  0.74143000  1.0
  H  H18  1  0.21440000  0.82058000  0.05036000  1.0
  H  H19  1  0.78560000  0.17942000  0.94964000  1.0
  H  H20  1  0.14334000  0.91991000  0.89780000  1.0
  H  H21  1  0.85666000  0.08009000  0.10220000  1.0
  H  H22  1  0.31310000  0.55517000  0.11155000  1.0
  H  H23  1  0.68690000  0.44483000  0.88845000  1.0
  H  H24  1  0.42288000  0.34922000  0.02959000  1.0
  H  H25  1  0.57712000  0.65078000  0.97041000  1.0
  H  H26  1  0.28940000  0.60472000  0.64062000  1.0
  H  H27  1  0.71060000  0.39528000  0.35938000  1.0
  H  H28  1  0.17152000  0.80846000  0.72703000  1.0
  H  H29  1  0.82848000  0.19154000  0.27297000  1.0
  C  C30  1  0.35762000  0.19857000  0.42570000  1.0
  C  C31  1  0.64238000  0.80144000  0.57429000  1.0
  C  C32  1  0.24996000  0.33438000  0.38724000  1.0
  C  C33  1  0.75004000  0.66562000  0.61276000  1.0
  C  C34  1  0.26569000  0.46103000  0.39982000  1.0
  C  C35  1  0.73431000  0.53898000  0.60018000  1.0
  C  C36  1  0.17027000  0.59060000  0.35466000  1.0
  C  C37  1  0.82973000  0.40940000  0.64534000  1.0
  C  C38  1  0.05944000  0.59520000  0.29630000  1.0
  C  C39  1  0.94056000  0.40480000  0.70369000  1.0
  C  C40  1  0.04058000  0.46711000  0.28854000  1.0
  C  C41  1  0.95942000  0.53289000  0.71146000  1.0
  C  C42  1  0.13485000  0.33734000  0.33379000  1.0
  C  C43  1  0.86515000  0.66266000  0.66621000  1.0
  C  C44  1  0.96703000  0.73920000  0.23427000  1.0
  C  C45  1  0.03297000  0.26080000  0.76573000  1.0
  C  C46  1  0.15228000  0.81371000  0.98568000  1.0
  C  C47  1  0.84772000  0.18629000  0.01432000  1.0
  C  C48  1  0.22830000  0.69303000  0.92836000  1.0
  C  C49  1  0.77170000  0.30697000  0.07164000  1.0
  C  C50  1  0.30351000  0.56469000  0.01026000  1.0
  C  C51  1  0.69649000  0.43531000  0.98974000  1.0
  C  C52  1  0.35849000  0.46104000  0.83192000  1.0
  C  C53  1  0.64151000  0.53896000  0.16808000  1.0
  C  C54  1  0.36657000  0.44891000  0.96376000  1.0
  C  C55  1  0.63343000  0.55109000  0.03624000  1.0
  C  C56  1  0.29021000  0.59242000  0.74580000  1.0
  C  C57  1  0.70978000  0.40758000  0.25420000  1.0
  C  C58  1  0.42271000  0.33729000  0.78291000  1.0
  C  C59  1  0.57729000  0.66271000  0.21709000  1.0
  C  C60  1  0.22493000  0.70711000  0.79404000  1.0
  C  C61  1  0.77507000  0.29289000  0.20596000  1.0
  N  N62  1  0.00037000  0.78908000  0.07841000  1.0
  N  N63  1  0.99963000  0.21092000  0.92159000  1.0
  N  N64  1  0.88624000  0.82065000  0.02752000  1.0
  N  N65  1  0.11376000  0.17935000  0.97248000  1.0
  O  O66  1  0.37277000  0.01847000  0.77568000  1.0
  O  O67  1  0.62723000  0.98153000  0.22431000  1.0
  O  O68  1  0.71726000  0.17489000  0.58767000  1.0
  O  O69  1  0.28274000  0.82511000  0.41233000  1.0
  O  O70  1  0.41377000  0.34668000  0.66373000  1.0
  O  O71  1  0.58623000  0.65332000  0.33627000  1.0
  O  O72  1  0.49007000  0.21686000  0.85838000  1.0
  O  O73  1  0.50993000  0.78314000  0.14162000  1.0
  O  O74  1  0.45860000  0.19616000  0.47834000  1.0
  O  O75  1  0.54140000  0.80384000  0.52165000  1.0
  O  O76  1  0.34567000  0.08960000  0.40294000  1.0
  O  O77  1  0.65433000  0.91040000  0.59706000  1.0
  O  O78  1  0.64351000  0.92749000  0.87066000  1.0
  O  O79  1  0.35648000  0.07251000  0.12934000  1.0
  O  O80  1  0.91474000  0.87416000  0.89268000  1.0
  O  O81  1  0.08526000  0.12584000  0.10732000  1.0
