# generated using pymatgen
data_LiH6C4NO4
_symmetry_space_group_name_H-M   'P 1'
_cell_length_a   4.96394000
_cell_length_b   5.71403000
_cell_length_c   10.40510000
_cell_angle_alpha   86.73090000
_cell_angle_beta   89.99750000
_cell_angle_gamma   89.99820000
_symmetry_Int_Tables_number   1
_chemical_formula_structural   LiH6C4NO4
_chemical_formula_sum   'Li2 H12 C8 N2 O8'
_cell_volume   294.65105569
_cell_formula_units_Z   2
loop_
 _symmetry_equiv_pos_site_id
 _symmetry_equiv_pos_as_xyz
  1  'x, y, z'
loop_
 _atom_site_type_symbol
 _atom_site_label
 _atom_site_symmetry_multiplicity
 _atom_site_fract_x
 _atom_site_fract_y
 _atom_site_fract_z
 _atom_site_occupancy
  Li  Li0  1  0.27025000  0.96059000  0.41021000  1.0
  Li  Li1  1  0.77023000  0.03940000  0.58979000  1.0
  H  H2  1  0.72851000  0.67015000  0.05257000  1.0
  H  H3  1  0.22846000  0.32985000  0.94744000  1.0
  H  H4  1  0.89658000  0.86868000  0.13942000  1.0
  H  H5  1  0.39654000  0.13133000  0.86058000  1.0
  H  H6  1  0.99128000  0.59068000  0.14343000  1.0
  H  H7  1  0.49126000  0.40933000  0.85656000  1.0
  H  H8  1  0.45646000  0.76120000  0.23480000  1.0
  H  H9  1  0.95643000  0.23879000  0.76520000  1.0
  H  H10  1  0.74661000  0.28866000  0.27318000  1.0
  H  H11  1  0.24653000  0.71134000  0.72680000  1.0
  H  H12  1  0.50574000  0.37630000  0.38339000  1.0
  H  H13  1  0.00565000  0.62368000  0.61661000  1.0
  C  C14  1  0.78104000  0.74786000  0.37373000  1.0
  C  C15  1  0.28105000  0.25215000  0.62627000  1.0
  C  C16  1  0.63894000  0.65818000  0.25516000  1.0
  C  C17  1  0.13890000  0.34183000  0.74482000  1.0
  C  C18  1  0.56685000  0.40008000  0.28189000  1.0
  C  C19  1  0.06682000  0.59992000  0.71810000  1.0
  C  C20  1  0.33921000  0.30872000  0.19971000  1.0
  C  C21  1  0.83913000  0.69128000  0.80030000  1.0
  N  N22  1  0.82017000  0.70058000  0.14124000  1.0
  N  N23  1  0.32011000  0.29944000  0.85876000  1.0
  O  O24  1  0.63566000  0.85890000  0.45082000  1.0
  O  O25  1  0.13566000  0.14109000  0.54919000  1.0
  O  O26  1  0.02882000  0.70456000  0.38614000  1.0
  O  O27  1  0.52881000  0.29544000  0.61387000  1.0
  O  O28  1  0.23645000  0.11126000  0.23309000  1.0
  O  O29  1  0.73640000  0.88872000  0.76692000  1.0
  O  O30  1  0.26303000  0.43763000  0.10188000  1.0
  O  O31  1  0.76299000  0.56236000  0.89812000  1.0
