# generated using pymatgen
data_HgH7C9NCl2
_symmetry_space_group_name_H-M   'P 1'
_cell_length_a   7.32723000
_cell_length_b   7.53451000
_cell_length_c   9.65618000
_cell_angle_alpha   69.28590000
_cell_angle_beta   86.34370000
_cell_angle_gamma   87.87380000
_symmetry_Int_Tables_number   1
_chemical_formula_structural   HgH7C9NCl2
_chemical_formula_sum   'Hg2 H14 C18 N2 Cl4'
_cell_volume   497.55373013
_cell_formula_units_Z   2
loop_
 _symmetry_equiv_pos_site_id
 _symmetry_equiv_pos_as_xyz
  1  'x, y, z'
loop_
 _atom_site_type_symbol
 _atom_site_label
 _atom_site_symmetry_multiplicity
 _atom_site_fract_x
 _atom_site_fract_y
 _atom_site_fract_z
 _atom_site_occupancy
  Hg  Hg0  1  0.75269000  0.54528000  0.93479000  1.0
  Hg  Hg1  1  0.24730000  0.45473000  0.06522000  1.0
  H  H2  1  0.85867000  0.95235000  0.89383000  1.0
  H  H3  1  0.14130000  0.04767000  0.10617000  1.0
  H  H4  1  0.89828000  0.27433000  0.70279000  1.0
  H  H5  1  0.10171000  0.72568000  0.29721000  1.0
  H  H6  1  0.82894000  0.32610000  0.43774000  1.0
  H  H7  1  0.17107000  0.67387000  0.56226000  1.0
  H  H8  1  0.67561000  0.55496000  0.65910000  1.0
  H  H9  1  0.32440000  0.44502000  0.34090000  1.0
  H  H10  1  0.61068000  0.59450000  0.39995000  1.0
  H  H11  1  0.38931000  0.40551000  0.60005000  1.0
  H  H12  1  0.63013000  0.91030000  0.20059000  1.0
  H  H13  1  0.36989000  0.08970000  0.79941000  1.0
  H  H14  1  0.72515000  0.19023000  0.25597000  1.0
  H  H15  1  0.27490000  0.80975000  0.74404000  1.0
  C  C16  1  0.83110000  0.97864000  0.77841000  1.0
  C  C17  1  0.16887000  0.02136000  0.22159000  1.0
  C  C18  1  0.85089000  0.16067000  0.66984000  1.0
  C  C19  1  0.14910000  0.83933000  0.33016000  1.0
  C  C20  1  0.81352000  0.18768000  0.52574000  1.0
  C  C21  1  0.18648000  0.81232000  0.47424000  1.0
  C  C22  1  0.75625000  0.03302000  0.48917000  1.0
  C  C23  1  0.24377000  0.96698000  0.51083000  1.0
  C  C24  1  0.74137000  0.85083000  0.60470000  1.0
  C  C25  1  0.25862000  0.14919000  0.39530000  1.0
  C  C26  1  0.68777000  0.69335000  0.57043000  1.0
  C  C27  1  0.31223000  0.30665000  0.42956000  1.0
  C  C28  1  0.65019000  0.71602000  0.42685000  1.0
  C  C29  1  0.34980000  0.28399000  0.57314000  1.0
  C  C30  1  0.66249000  0.89566000  0.31264000  1.0
  C  C31  1  0.33752000  0.10434000  0.68735000  1.0
  C  C32  1  0.71452000  0.05114000  0.34334000  1.0
  C  C33  1  0.28550000  0.94886000  0.65665000  1.0
  N  N34  1  0.77937000  0.83061000  0.74694000  1.0
  N  N35  1  0.22062000  0.16940000  0.25308000  1.0
  Cl  Cl36  1  0.57319000  0.26779000  0.96129000  1.0
  Cl  Cl37  1  0.42680000  0.73221000  0.03874000  1.0
  Cl  Cl38  1  0.90576000  0.57854000  0.15377000  1.0
  Cl  Cl39  1  0.09422000  0.42146000  0.84625000  1.0
