# generated using pymatgen
data_KLiSb2H4(C2O3)4
_symmetry_space_group_name_H-M   'P 1'
_cell_length_a   6.37093000
_cell_length_b   8.86846000
_cell_length_c   12.51470000
_cell_angle_alpha   90.00000000
_cell_angle_beta   90.00000000
_cell_angle_gamma   90.00000000
_symmetry_Int_Tables_number   1
_chemical_formula_structural   KLiSb2H4(C2O3)4
_chemical_formula_sum   'K2 Li2 Sb4 H8 C16 O24'
_cell_volume   707.08477831
_cell_formula_units_Z   2
loop_
 _symmetry_equiv_pos_site_id
 _symmetry_equiv_pos_as_xyz
  1  'x, y, z'
loop_
 _atom_site_type_symbol
 _atom_site_label
 _atom_site_symmetry_multiplicity
 _atom_site_fract_x
 _atom_site_fract_y
 _atom_site_fract_z
 _atom_site_occupancy
  K  K0  1  0.50000000  0.24077000  0.50000000  1.0
  K  K1  1  0.00000000  0.75923000  0.00000000  1.0
  Li  Li2  1  0.50000000  0.71154000  0.50000000  1.0
  Li  Li3  1  0.00000000  0.28845000  0.00000000  1.0
  Sb  Sb4  1  0.02778000  0.22704000  0.29525000  1.0
  Sb  Sb5  1  0.97221000  0.22704000  0.70475000  1.0
  Sb  Sb6  1  0.52778000  0.77296000  0.20475000  1.0
  Sb  Sb7  1  0.47222000  0.77296000  0.79525000  1.0
  H  H8  1  0.08628000  0.85715000  0.58516000  1.0
  H  H9  1  0.91372000  0.85715000  0.41484000  1.0
  H  H10  1  0.58628000  0.14285000  0.91484000  1.0
  H  H11  1  0.41372000  0.14285000  0.08516000  1.0
  H  H12  1  0.08776000  0.60070000  0.41660000  1.0
  H  H13  1  0.91224000  0.60070000  0.58340000  1.0
  H  H14  1  0.58776000  0.39930000  0.08340000  1.0
  H  H15  1  0.41224000  0.39930000  0.91660000  1.0
  C  C16  1  0.21808000  0.95532000  0.39714000  1.0
  C  C17  1  0.78192000  0.95532000  0.60286000  1.0
  C  C18  1  0.71808000  0.04468000  0.10286000  1.0
  C  C19  1  0.28192000  0.04468000  0.89714000  1.0
  C  C20  1  0.00723000  0.96325000  0.56208000  1.0
  C  C21  1  0.99277000  0.96325000  0.43792000  1.0
  C  C22  1  0.50723000  0.03675000  0.93792000  1.0
  C  C23  1  0.49277000  0.03675000  0.06208000  1.0
  C  C24  1  0.20328000  0.48655000  0.61259000  1.0
  C  C25  1  0.79672000  0.48655000  0.38741000  1.0
  C  C26  1  0.70328000  0.51345000  0.88741000  1.0
  C  C27  1  0.29672000  0.51345000  0.11259000  1.0
  C  C28  1  0.01538000  0.49168000  0.43849000  1.0
  C  C29  1  0.98462000  0.49168000  0.56151000  1.0
  C  C30  1  0.51538000  0.50832000  0.06151000  1.0
  C  C31  1  0.48462000  0.50832000  0.93849000  1.0
  O  O32  1  0.66590000  0.58771000  0.40621000  1.0
  O  O33  1  0.33410000  0.58770000  0.59379000  1.0
  O  O34  1  0.16590000  0.41229000  0.09379000  1.0
  O  O35  1  0.83410000  0.41229000  0.90621000  1.0
  O  O36  1  0.28793000  0.07192000  0.34567000  1.0
  O  O37  1  0.71207000  0.07192000  0.65433000  1.0
  O  O38  1  0.78793000  0.92808000  0.15433000  1.0
  O  O39  1  0.21207000  0.92808000  0.84567000  1.0
  O  O40  1  0.12125000  0.08863000  0.59959000  1.0
  O  O41  1  0.87875000  0.08863000  0.40041000  1.0
  O  O42  1  0.62125000  0.91137000  0.90041000  1.0
  O  O43  1  0.37875000  0.91137000  0.09959000  1.0
  O  O44  1  0.24416000  0.37142000  0.67344000  1.0
  O  O45  1  0.75584000  0.37142000  0.32656000  1.0
  O  O46  1  0.74416000  0.62858000  0.82656000  1.0
  O  O47  1  0.25584000  0.62858000  0.17344000  1.0
  O  O48  1  0.14660000  0.37166000  0.40597000  1.0
  O  O49  1  0.85339000  0.37166000  0.59403000  1.0
  O  O50  1  0.64660000  0.62834000  0.09403000  1.0
  O  O51  1  0.35340000  0.62834000  0.90597000  1.0
  O  O52  1  0.67494000  0.84040000  0.58425000  1.0
  O  O53  1  0.32507000  0.84040000  0.41575000  1.0
  O  O54  1  0.17493000  0.15960000  0.91575000  1.0
  O  O55  1  0.82507000  0.15960000  0.08425000  1.0
