# generated using pymatgen
data_CuH14(C8O3)2
_symmetry_space_group_name_H-M   'P 1'
_cell_length_a   5.73143000
_cell_length_b   9.19418000
_cell_length_c   15.28778649
_cell_angle_alpha   104.68777779
_cell_angle_beta   100.76221390
_cell_angle_gamma   90.01100000
_symmetry_Int_Tables_number   1
_chemical_formula_structural   CuH14(C8O3)2
_chemical_formula_sum   'Cu2 H28 C32 O12'
_cell_volume   764.61105513
_cell_formula_units_Z   2
loop_
 _symmetry_equiv_pos_site_id
 _symmetry_equiv_pos_as_xyz
  1  'x, y, z'
loop_
 _atom_site_type_symbol
 _atom_site_label
 _atom_site_symmetry_multiplicity
 _atom_site_fract_x
 _atom_site_fract_y
 _atom_site_fract_z
 _atom_site_occupancy
  Cu  Cu0  1  0.14780000  0.82342000  0.51667000  1.0
  Cu  Cu1  1  0.63041000  0.17708000  0.48335000  1.0
  H  H2  1  0.99848000  0.79888000  0.75379000  1.0
  H  H3  1  0.24387000  0.20097000  0.24645000  1.0
  H  H4  1  0.47939000  0.43538000  0.72816000  1.0
  H  H5  1  0.74986000  0.56449000  0.27145000  1.0
  H  H6  1  0.66197000  0.06053000  0.20294000  1.0
  H  H7  1  0.45883000  0.93964000  0.79781000  1.0
  H  H8  1  0.38751000  0.69093000  0.99668000  1.0
  H  H9  1  0.39034000  0.30801000  0.00319000  1.0
  H  H10  1  0.92798000  0.00133000  0.33500000  1.0
  H  H11  1  0.59132000  0.99913000  0.66540000  1.0
  H  H12  1  0.21986000  0.64626000  0.14905000  1.0
  H  H13  1  0.06968000  0.35413000  0.85070000  1.0
  H  H14  1  0.58097000  0.48565000  0.89802000  1.0
  H  H15  1  0.68151000  0.51373000  0.10154000  1.0
  H  H16  1  0.67172000  0.91196000  0.04251000  1.0
  H  H17  1  0.63060000  0.08793000  0.95813000  1.0
  H  H18  1  0.09659000  0.84731000  0.92303000  1.0
  H  H19  1  0.17329000  0.15179000  0.07716000  1.0
  H  H20  1  0.94860000  0.70431000  0.01579000  1.0
  H  H21  1  0.93343000  0.29577000  0.98431000  1.0
  H  H22  1  0.19993000  0.46448000  0.59322000  1.0
  H  H23  1  0.60523000  0.53558000  0.40662000  1.0
  H  H24  1  0.38148000  0.70377000  0.30743000  1.0
  H  H25  1  0.07271000  0.29647000  0.69242000  1.0
  H  H26  1  0.50086000  0.63035000  0.59925000  1.0
  H  H27  1  0.90034000  0.36993000  0.40062000  1.0
  H  H28  1  0.13849000  0.60312000  0.37556000  1.0
  H  H29  1  0.76248000  0.39705000  0.62423000  1.0
  C  C30  1  0.18156000  0.58517000  0.62522000  1.0
  C  C31  1  0.55511000  0.41487000  0.37467000  1.0
  C  C32  1  0.92612000  0.61885000  0.58809000  1.0
  C  C33  1  0.33666000  0.38113000  0.41183000  1.0
  C  C34  1  0.23167000  0.61314000  0.72930000  1.0
  C  C35  1  0.50124000  0.38674000  0.27061000  1.0
  C  C36  1  0.38397000  0.92088000  0.39953000  1.0
  C  C37  1  0.98337000  0.07929000  0.60023000  1.0
  C  C38  1  0.24804000  0.78249000  0.33148000  1.0
  C  C39  1  0.91532000  0.21766000  0.66838000  1.0
  C  C40  1  0.12566000  0.72936000  0.78492000  1.0
  C  C41  1  0.33995000  0.27030000  0.21516000  1.0
  C  C42  1  0.39537000  0.52590000  0.77089000  1.0
  C  C43  1  0.62319000  0.47387000  0.22886000  1.0
  C  C44  1  0.09198000  0.82058000  0.25023000  1.0
  C  C45  1  0.84036000  0.17979000  0.74977000  1.0
  C  C46  1  0.78475000  0.97047000  0.19061000  1.0
  C  C47  1  0.59354000  0.02987000  0.80991000  1.0
  C  C48  1  0.34452000  0.66936000  0.92182000  1.0
  C  C49  1  0.42180000  0.32989000  0.07807000  1.0
  C  C50  1  0.93500000  0.93719000  0.26505000  1.0
  C  C51  1  0.66859000  0.06325000  0.73528000  1.0
  C  C52  1  0.09741000  0.73716000  0.16038000  1.0
  C  C53  1  0.93602000  0.26323000  0.83956000  1.0
  C  C54  1  0.45263000  0.55443000  0.86683000  1.0
  C  C55  1  0.58452000  0.44507000  0.13291000  1.0
  C  C56  1  0.79045000  0.88699000  0.10088000  1.0
  C  C57  1  0.68995000  0.11314000  0.89958000  1.0
  C  C58  1  0.18147000  0.75705000  0.88065000  1.0
  C  C59  1  0.30019000  0.24226000  0.11942000  1.0
  C  C60  1  0.94595000  0.77017000  0.08576000  1.0
  C  C61  1  0.86023000  0.23007000  0.91439000  1.0
  O  O62  1  0.33976000  0.67437000  0.59568000  1.0
  O  O63  1  0.74283000  0.32586000  0.40423000  1.0
  O  O64  1  0.88428000  0.70823000  0.53657000  1.0
  O  O65  1  0.34632000  0.29171000  0.46335000  1.0
  O  O66  1  0.75875000  0.55410000  0.61064000  1.0
  O  O67  1  0.14687000  0.44591000  0.38933000  1.0
  O  O68  1  0.38117000  0.94240000  0.48541000  1.0
  O  O69  1  0.89507000  0.05794000  0.51438000  1.0
  O  O70  1  0.49573000  0.01032000  0.36967000  1.0
  O  O71  1  0.12497000  0.98991000  0.63010000  1.0
  O  O72  1  0.10591000  0.71454000  0.38090000  1.0
  O  O73  1  0.72391000  0.28571000  0.61903000  1.0
