# generated using pymatgen
data_Zn2PH13C21O8
_symmetry_space_group_name_H-M   'P 1'
_cell_length_a   13.65720000
_cell_length_b   14.85630000
_cell_length_c   19.95940000
_cell_angle_alpha   89.99990000
_cell_angle_beta   107.61000000
_cell_angle_gamma   90.00000000
_symmetry_Int_Tables_number   1
_chemical_formula_structural   Zn2PH13C21O8
_chemical_formula_sum   'Zn8 P4 H52 C84 O32'
_cell_volume   3859.89545169
_cell_formula_units_Z   4
loop_
 _symmetry_equiv_pos_site_id
 _symmetry_equiv_pos_as_xyz
  1  'x, y, z'
loop_
 _atom_site_type_symbol
 _atom_site_label
 _atom_site_symmetry_multiplicity
 _atom_site_fract_x
 _atom_site_fract_y
 _atom_site_fract_z
 _atom_site_occupancy
  Zn  Zn0  1  0.60301000  0.97236000  0.56285000  1.0
  Zn  Zn1  1  0.35687000  0.90258000  0.54991000  1.0
  Zn  Zn2  1  0.39699000  0.47236000  0.93715000  1.0
  Zn  Zn3  1  0.64313000  0.40258000  0.95009000  1.0
  Zn  Zn4  1  0.39699000  0.02764000  0.43714000  1.0
  Zn  Zn5  1  0.64313000  0.09742000  0.45009000  1.0
  Zn  Zn6  1  0.60301000  0.52764000  0.06286000  1.0
  Zn  Zn7  1  0.35687000  0.59742000  0.04991000  1.0
  P  P8  1  0.27664000  0.97374000  0.69478000  1.0
  P  P9  1  0.72336000  0.47374000  0.80522000  1.0
  P  P10  1  0.72336000  0.02626000  0.30522000  1.0
  P  P11  1  0.27664000  0.52626000  0.19478000  1.0
  H  H12  1  0.55583000  0.17268000  0.82323000  1.0
  H  H13  1  0.25740000  0.25423000  0.82902000  1.0
  H  H14  1  0.43260000  0.05549000  0.57378000  1.0
  H  H15  1  0.47863000  0.04146000  0.74671000  1.0
  H  H16  1  0.33725000  0.79100000  0.68437000  1.0
  H  H17  1  0.15868000  0.09655000  0.59051000  1.0
  H  H18  1  0.97029000  0.11143000  0.52983000  1.0
  H  H19  1  0.17836000  0.12169000  0.75422000  1.0
  H  H20  1  0.26762000  0.95813000  0.84092000  1.0
  H  H21  1  0.36534000  0.65990000  0.76767000  1.0
  H  H22  1  0.30254000  0.82793000  0.92431000  1.0
  H  H23  1  0.90883000  0.89105000  0.64973000  1.0
  H  H24  1  0.09707000  0.87548000  0.71242000  1.0
  H  H25  1  0.44418000  0.67268000  0.67677000  1.0
  H  H26  1  0.74261000  0.75423000  0.67098000  1.0
  H  H27  1  0.56740000  0.55549000  0.92623000  1.0
  H  H28  1  0.52136000  0.54146000  0.75329000  1.0
  H  H29  1  0.66275000  0.29100000  0.81563000  1.0
  H  H30  1  0.84132000  0.59655000  0.90949000  1.0
  H  H31  1  0.02972000  0.61142000  0.97016000  1.0
  H  H32  1  0.82164000  0.62169000  0.74579000  1.0
  H  H33  1  0.73237000  0.45813000  0.65908000  1.0
  H  H34  1  0.63466000  0.15990000  0.73233000  1.0
  H  H35  1  0.69747000  0.32793000  0.57569000  1.0
  H  H36  1  0.09117000  0.39104000  0.85027000  1.0
  H  H37  1  0.90293000  0.37547000  0.78758000  1.0
  H  H38  1  0.44418000  0.82732000  0.17677000  1.0
  H  H39  1  0.74261000  0.74577000  0.17098000  1.0
  H  H40  1  0.56740000  0.94451000  0.42623000  1.0
  H  H41  1  0.52137000  0.95854000  0.25329000  1.0
  H  H42  1  0.66275000  0.20900000  0.31563000  1.0
  H  H43  1  0.84132000  0.90345000  0.40949000  1.0
  H  H44  1  0.02972000  0.88858000  0.47017000  1.0
  H  H45  1  0.82164000  0.87831000  0.24579000  1.0
  H  H46  1  0.73238000  0.04187000  0.15908000  1.0
  H  H47  1  0.63466000  0.34010000  0.23233000  1.0
  H  H48  1  0.69747000  0.17207000  0.07569000  1.0
  H  H49  1  0.09117000  0.10896000  0.35027000  1.0
  H  H50  1  0.90293000  0.12453000  0.28758000  1.0
  H  H51  1  0.55583000  0.32732000  0.32323000  1.0
  H  H52  1  0.25740000  0.24577000  0.32902000  1.0
  H  H53  1  0.43260000  0.44451000  0.07378000  1.0
  H  H54  1  0.47863000  0.45854000  0.24671000  1.0
  H  H55  1  0.33725000  0.70900000  0.18437000  1.0
  H  H56  1  0.15868000  0.40345000  0.09051000  1.0
  H  H57  1  0.97029000  0.38858000  0.02983000  1.0
  H  H58  1  0.17836000  0.37831000  0.25422000  1.0
  H  H59  1  0.26762000  0.54187000  0.34092000  1.0
  H  H60  1  0.36534000  0.84010000  0.26767000  1.0
  H  H61  1  0.30253000  0.67207000  0.42431000  1.0
  H  H62  1  0.90883000  0.60895000  0.14973000  1.0
  H  H63  1  0.09707000  0.62453000  0.21242000  1.0
  C  C64  1  0.29826000  0.88182000  0.75683000  1.0
  C  C65  1  0.13969000  0.98550000  0.65592000  1.0
  C  C66  1  0.32388000  0.07322000  0.74628000  1.0
  C  C67  1  0.41097000  0.22092000  0.83008000  1.0
  C  C68  1  0.45863000  0.30105000  0.87402000  1.0
  C  C69  1  0.47340000  0.16079000  0.80736000  1.0
  C  C70  1  0.30469000  0.20665000  0.81091000  1.0
  C  C71  1  0.92919000  0.00225000  0.58658000  1.0
  C  C72  1  0.43043000  0.08761000  0.76541000  1.0
  C  C73  1  0.81598000  0.01126000  0.54935000  1.0
  C  C74  1  0.32651000  0.79808000  0.73607000  1.0
  C  C75  1  0.10406000  0.05224000  0.60437000  1.0
  C  C76  1  0.99943000  0.06054000  0.57020000  1.0
  C  C77  1  0.26115000  0.13277000  0.76932000  1.0
  C  C78  1  0.28864000  0.89275000  0.82449000  1.0
  C  C79  1  0.34374000  0.72574000  0.78258000  1.0
  C  C80  1  0.30777000  0.82050000  0.87116000  1.0
  C  C81  1  0.96468000  0.93570000  0.63784000  1.0
  C  C82  1  0.06949000  0.92738000  0.67257000  1.0
  C  C83  1  0.33516000  0.73650000  0.85024000  1.0
  C  C84  1  0.35715000  0.65844000  0.90052000  1.0
  C  C85  1  0.70174000  0.38182000  0.74317000  1.0
  C  C86  1  0.86031000  0.48550000  0.84408000  1.0
  C  C87  1  0.67612000  0.57322000  0.75372000  1.0
  C  C88  1  0.58904000  0.72093000  0.66992000  1.0
  C  C89  1  0.54137000  0.80105000  0.62599000  1.0
  C  C90  1  0.52661000  0.66079000  0.69265000  1.0
  C  C91  1  0.69532000  0.70665000  0.68909000  1.0
  C  C92  1  0.07081000  0.50224000  0.91341000  1.0
  C  C93  1  0.56957000  0.58761000  0.73459000  1.0
  C  C94  1  0.18402000  0.51125000  0.95065000  1.0
  C  C95  1  0.67348000  0.29807000  0.76393000  1.0
  C  C96  1  0.89594000  0.55224000  0.89562000  1.0
  C  C97  1  0.00057000  0.56053000  0.92980000  1.0
  C  C98  1  0.73885000  0.63277000  0.73068000  1.0
  C  C99  1  0.71136000  0.39275000  0.67551000  1.0
  C  C100  1  0.65626000  0.22574000  0.71742000  1.0
  C  C101  1  0.69223000  0.32050000  0.62884000  1.0
  C  C102  1  0.03531000  0.43569000  0.86216000  1.0
  C  C103  1  0.93050000  0.42737000  0.82743000  1.0
  C  C104  1  0.66484000  0.23650000  0.64976000  1.0
  C  C105  1  0.64284000  0.15844000  0.59948000  1.0
  C  C106  1  0.70174000  0.11818000  0.24317000  1.0
  C  C107  1  0.86031000  0.01451000  0.34408000  1.0
  C  C108  1  0.67613000  0.92678000  0.25372000  1.0
  C  C109  1  0.58903000  0.77907000  0.16992000  1.0
  C  C110  1  0.54137000  0.69895000  0.12599000  1.0
  C  C111  1  0.52660000  0.83921000  0.19265000  1.0
  C  C112  1  0.69532000  0.79335000  0.18909000  1.0
  C  C113  1  0.07081000  0.99776000  0.41341000  1.0
  C  C114  1  0.56958000  0.91239000  0.23459000  1.0
  C  C115  1  0.18402000  0.98875000  0.45065000  1.0
  C  C116  1  0.67348000  0.20192000  0.26393000  1.0
  C  C117  1  0.89594000  0.94776000  0.39563000  1.0
  C  C118  1  0.00057000  0.93947000  0.42980000  1.0
  C  C119  1  0.73885000  0.86723000  0.23068000  1.0
  C  C120  1  0.71136000  0.10724000  0.17551000  1.0
  C  C121  1  0.65626000  0.27426000  0.21742000  1.0
  C  C122  1  0.69223000  0.17950000  0.12884000  1.0
  C  C123  1  0.03531000  0.06431000  0.36216000  1.0
  C  C124  1  0.93051000  0.07262000  0.32743000  1.0
  C  C125  1  0.66484000  0.26350000  0.14976000  1.0
  C  C126  1  0.64285000  0.34156000  0.09948000  1.0
  C  C127  1  0.29826000  0.61818000  0.25683000  1.0
  C  C128  1  0.13969000  0.51451000  0.15592000  1.0
  C  C129  1  0.32387000  0.42678000  0.24628000  1.0
  C  C130  1  0.41097000  0.27908000  0.33008000  1.0
  C  C131  1  0.45863000  0.19895000  0.37401000  1.0
  C  C132  1  0.47340000  0.33921000  0.30736000  1.0
  C  C133  1  0.30468000  0.29335000  0.31091000  1.0
  C  C134  1  0.92919000  0.49776000  0.08658000  1.0
  C  C135  1  0.43043000  0.41239000  0.26541000  1.0
  C  C136  1  0.81598000  0.48875000  0.04935000  1.0
  C  C137  1  0.32651000  0.70193000  0.23607000  1.0
  C  C138  1  0.10407000  0.44776000  0.10437000  1.0
  C  C139  1  0.99943000  0.43947000  0.07020000  1.0
  C  C140  1  0.26115000  0.36723000  0.26932000  1.0
  C  C141  1  0.28864000  0.60724000  0.32449000  1.0
  C  C142  1  0.34374000  0.77426000  0.28258000  1.0
  C  C143  1  0.30777000  0.67950000  0.37116000  1.0
  C  C144  1  0.96469000  0.56431000  0.13784000  1.0
  C  C145  1  0.06949000  0.57262000  0.17257000  1.0
  C  C146  1  0.33515000  0.76350000  0.35024000  1.0
  C  C147  1  0.35715000  0.84156000  0.40052000  1.0
  O  O148  1  0.33275000  0.96099000  0.64086000  1.0
  O  O149  1  0.55549000  0.30926000  0.88794000  1.0
  O  O150  1  0.79000000  0.07578000  0.50495000  1.0
  O  O151  1  0.35958000  0.58049000  0.87354000  1.0
  O  O152  1  0.39746000  0.35310000  0.89253000  1.0
  O  O153  1  0.75648000  0.95477000  0.56474000  1.0
  O  O154  1  0.37272000  0.67567000  0.96503000  1.0
  O  O155  1  0.44506000  0.00835000  0.54354000  1.0
  O  O156  1  0.66725000  0.46099000  0.85914000  1.0
  O  O157  1  0.44451000  0.80927000  0.61206000  1.0
  O  O158  1  0.21000000  0.57577000  0.99505000  1.0
  O  O159  1  0.64043000  0.08049000  0.62646000  1.0
  O  O160  1  0.60255000  0.85310000  0.60748000  1.0
  O  O161  1  0.24352000  0.45477000  0.93526000  1.0
  O  O162  1  0.62728000  0.17567000  0.53497000  1.0
  O  O163  1  0.55494000  0.50835000  0.95646000  1.0
  O  O164  1  0.66725000  0.03901000  0.35914000  1.0
  O  O165  1  0.44451000  0.69074000  0.11206000  1.0
  O  O166  1  0.21000000  0.92423000  0.49505000  1.0
  O  O167  1  0.64042000  0.41951000  0.12646000  1.0
  O  O168  1  0.60255000  0.64690000  0.10748000  1.0
  O  O169  1  0.24352000  0.04523000  0.43526000  1.0
  O  O170  1  0.62728000  0.32433000  0.03497000  1.0
  O  O171  1  0.55494000  0.99165000  0.45646000  1.0
  O  O172  1  0.33275000  0.53901000  0.14086000  1.0
  O  O173  1  0.55549000  0.19074000  0.38794000  1.0
  O  O174  1  0.79000000  0.42422000  0.00495000  1.0
  O  O175  1  0.35957000  0.91951000  0.37354000  1.0
  O  O176  1  0.39745000  0.14690000  0.39252000  1.0
  O  O177  1  0.75648000  0.54523000  0.06474000  1.0
  O  O178  1  0.37272000  0.82433000  0.46503000  1.0
  O  O179  1  0.44506000  0.49165000  0.04354000  1.0
