# generated using pymatgen
data_MgH14C6O11
_symmetry_space_group_name_H-M   'P 1'
_cell_length_a   5.79444000
_cell_length_b   10.42890000
_cell_length_c   17.97630000
_cell_angle_alpha   90.00000000
_cell_angle_beta   90.00000000
_cell_angle_gamma   90.00000000
_symmetry_Int_Tables_number   1
_chemical_formula_structural   MgH14C6O11
_chemical_formula_sum   'Mg4 H56 C24 O44'
_cell_volume   1086.30125333
_cell_formula_units_Z   4
loop_
 _symmetry_equiv_pos_site_id
 _symmetry_equiv_pos_as_xyz
  1  'x, y, z'
loop_
 _atom_site_type_symbol
 _atom_site_label
 _atom_site_symmetry_multiplicity
 _atom_site_fract_x
 _atom_site_fract_y
 _atom_site_fract_z
 _atom_site_occupancy
  Mg  Mg0  1  0.33935000  0.67580000  0.14723000  1.0
  Mg  Mg1  1  0.16065000  0.32420000  0.64722000  1.0
  Mg  Mg2  1  0.66064000  0.17580000  0.35278000  1.0
  Mg  Mg3  1  0.83935000  0.82420000  0.85277000  1.0
  H  H4  1  0.20653000  0.59282000  0.28494000  1.0
  H  H5  1  0.29347000  0.40718000  0.78494000  1.0
  H  H6  1  0.79347000  0.09283000  0.21506000  1.0
  H  H7  1  0.70653000  0.90718000  0.71506000  1.0
  H  H8  1  0.36639000  0.71510000  0.29346000  1.0
  H  H9  1  0.13361000  0.28490000  0.79346000  1.0
  H  H10  1  0.63361000  0.21510000  0.20654000  1.0
  H  H11  1  0.86639000  0.78490000  0.70654000  1.0
  H  H12  1  0.79908000  0.69053000  0.15513000  1.0
  H  H13  1  0.70092000  0.30947000  0.65513000  1.0
  H  H14  1  0.20092000  0.19053000  0.34487000  1.0
  H  H15  1  0.29907000  0.80947000  0.84487000  1.0
  H  H16  1  0.75152000  0.54293000  0.15117000  1.0
  H  H17  1  0.74848000  0.45707000  0.65117000  1.0
  H  H18  1  0.24848000  0.04293000  0.34883000  1.0
  H  H19  1  0.25152000  0.95707000  0.84883000  1.0
  H  H20  1  0.50065000  0.63420000  0.00780000  1.0
  H  H21  1  0.99935000  0.36580000  0.50780000  1.0
  H  H22  1  0.49935000  0.13420000  0.49220000  1.0
  H  H23  1  0.00065000  0.86580000  0.99220000  1.0
  H  H24  1  0.40721000  0.77639000  0.01387000  1.0
  H  H25  1  0.09279000  0.22361000  0.51387000  1.0
  H  H26  1  0.59279000  0.27639000  0.48613000  1.0
  H  H27  1  0.90721000  0.72361000  0.98613000  1.0
  H  H28  1  0.59186000  0.90632000  0.15763000  1.0
  H  H29  1  0.90815000  0.09368000  0.65763000  1.0
  H  H30  1  0.40814000  0.40632000  0.34237000  1.0
  H  H31  1  0.09185000  0.59368000  0.84237000  1.0
  H  H32  1  0.29074000  0.02167000  0.97281000  1.0
  H  H33  1  0.20926000  0.97833000  0.47281000  1.0
  H  H34  1  0.70926000  0.52166000  0.52719000  1.0
  H  H35  1  0.79075000  0.47834000  0.02719000  1.0
  H  H36  1  0.05938000  0.23482000  0.97928000  1.0
  H  H37  1  0.44061000  0.76518000  0.47928000  1.0
  H  H38  1  0.94061000  0.73482000  0.52072000  1.0
  H  H39  1  0.55939000  0.26518000  0.02072000  1.0
  H  H40  1  0.47713000  0.37257000  0.14235000  1.0
  H  H41  1  0.02287000  0.62744000  0.64234000  1.0
  H  H42  1  0.52287000  0.87256000  0.35766000  1.0
  H  H43  1  0.97713000  0.12744000  0.85766000  1.0
  H  H44  1  0.26163000  0.02728000  0.20116000  1.0
  H  H45  1  0.23837000  0.97272000  0.70116000  1.0
  H  H46  1  0.73838000  0.52727000  0.29884000  1.0
  H  H47  1  0.76163000  0.47272000  0.79884000  1.0
  H  H48  1  0.47089000  0.07752000  0.08074000  1.0
  H  H49  1  0.02911000  0.92249000  0.58074000  1.0
  H  H50  1  0.52911000  0.57751000  0.41926000  1.0
  H  H51  1  0.97089000  0.42248000  0.91926000  1.0
  H  H52  1  0.95711000  0.15126000  0.08201000  1.0
  H  H53  1  0.54289000  0.84874000  0.58201000  1.0
  H  H54  1  0.04289000  0.65126000  0.41799000  1.0
  H  H55  1  0.45711000  0.34874000  0.91799000  1.0
  H  H56  1  0.14310000  0.22829000  0.19640000  1.0
  H  H57  1  0.35690000  0.77172000  0.69640000  1.0
  H  H58  1  0.85690000  0.72828000  0.30359000  1.0
  H  H59  1  0.64310000  0.27172000  0.80359000  1.0
  C  C60  1  0.02349000  0.89644000  0.14993000  1.0
  C  C61  1  0.47652000  0.10356000  0.64993000  1.0
  C  C62  1  0.97653000  0.39644000  0.35007000  1.0
  C  C63  1  0.52349000  0.60356000  0.85007000  1.0
  C  C64  1  0.25626000  0.96528000  0.15147000  1.0
  C  C65  1  0.24375000  0.03472000  0.65147000  1.0
  C  C66  1  0.74375000  0.46527000  0.34853000  1.0
  C  C67  1  0.75625000  0.53472000  0.84853000  1.0
  C  C68  1  0.28769000  0.04889000  0.08175000  1.0
  C  C69  1  0.21231000  0.95111000  0.58175000  1.0
  C  C70  1  0.71232000  0.54889000  0.41825000  1.0
  C  C71  1  0.78768000  0.45111000  0.91825000  1.0
  C  C72  1  0.14224000  0.17313000  0.07950000  1.0
  C  C73  1  0.35776000  0.82687000  0.57950000  1.0
  C  C74  1  0.85777000  0.67313000  0.42049000  1.0
  C  C75  1  0.64223000  0.32687000  0.92050000  1.0
  C  C76  1  0.20599000  0.26524000  0.14259000  1.0
  C  C77  1  0.29401000  0.73476000  0.64259000  1.0
  C  C78  1  0.79401000  0.76524000  0.35741000  1.0
  C  C79  1  0.70599000  0.23476000  0.85741000  1.0
  C  C80  1  0.09893000  0.39940000  0.13175000  1.0
  C  C81  1  0.40107000  0.60060000  0.63175000  1.0
  C  C82  1  0.90107000  0.89940000  0.36825000  1.0
  C  C83  1  0.59893000  0.10060000  0.86825000  1.0
  O  O84  1  0.25899000  0.67094000  0.25852000  1.0
  O  O85  1  0.24100000  0.32906000  0.75852000  1.0
  O  O86  1  0.74100000  0.17094000  0.24148000  1.0
  O  O87  1  0.75899000  0.82906000  0.74148000  1.0
  O  O88  1  0.67805000  0.62529000  0.16732000  1.0
  O  O89  1  0.82196000  0.37471000  0.66732000  1.0
  O  O90  1  0.32196000  0.12529000  0.33268000  1.0
  O  O91  1  0.17804000  0.87471000  0.83268000  1.0
  O  O92  1  0.38194000  0.68870000  0.03149000  1.0
  O  O93  1  0.11806000  0.31130000  0.53149000  1.0
  O  O94  1  0.61806000  0.18870000  0.46851000  1.0
  O  O95  1  0.88194000  0.81130000  0.96851000  1.0
  O  O96  1  0.02492000  0.77753000  0.13474000  1.0
  O  O97  1  0.47508000  0.22247000  0.63474000  1.0
  O  O98  1  0.97508000  0.27753000  0.36526000  1.0
  O  O99  1  0.52492000  0.72247000  0.86526000  1.0
  O  O100  1  0.84348000  0.96214000  0.16229000  1.0
  O  O101  1  0.65653000  0.03786000  0.66229000  1.0
  O  O102  1  0.15654000  0.46213000  0.33771000  1.0
  O  O103  1  0.34347000  0.53786000  0.83771000  1.0
  O  O104  1  0.43015000  0.86892000  0.15633000  1.0
  O  O105  1  0.06985000  0.13108000  0.65633000  1.0
  O  O106  1  0.56985000  0.36892000  0.34367000  1.0
  O  O107  1  0.93014000  0.63107000  0.84367000  1.0
  O  O108  1  0.24325000  0.97127000  0.01694000  1.0
  O  O109  1  0.25675000  0.02874000  0.51694000  1.0
  O  O110  1  0.75675000  0.47126000  0.48306000  1.0
  O  O111  1  0.74325000  0.52873000  0.98306000  1.0
  O  O112  1  0.19749000  0.23490000  0.01064000  1.0
  O  O113  1  0.30251000  0.76510000  0.51064000  1.0
  O  O114  1  0.80251000  0.73490000  0.48936000  1.0
  O  O115  1  0.69749000  0.26510000  0.98936000  1.0
  O  O116  1  0.45231000  0.27881000  0.14406000  1.0
  O  O117  1  0.04769000  0.72120000  0.64406000  1.0
  O  O118  1  0.54769000  0.77880000  0.35594000  1.0
  O  O119  1  0.95231000  0.22120000  0.85594000  1.0
  O  O120  1  0.24431000  0.49080000  0.13470000  1.0
  O  O121  1  0.25569000  0.50920000  0.63470000  1.0
  O  O122  1  0.75570000  0.99080000  0.36530000  1.0
  O  O123  1  0.74431000  0.00920000  0.86530000  1.0
  O  O124  1  0.88401000  0.40983000  0.12243000  1.0
  O  O125  1  0.61599000  0.59017000  0.62243000  1.0
  O  O126  1  0.11600000  0.90982000  0.37757000  1.0
  O  O127  1  0.38400000  0.09017000  0.87757000  1.0
