# generated using pymatgen
data_Cu4H48C47(N2O9)2
_symmetry_space_group_name_H-M   'P 1'
_cell_length_a   9.73787000
_cell_length_b   14.45250000
_cell_length_c   20.95730000
_cell_angle_alpha   90.09290000
_cell_angle_beta   76.80600000
_cell_angle_gamma   90.01130000
_symmetry_Int_Tables_number   1
_chemical_formula_structural   Cu4H48C47(N2O9)2
_chemical_formula_sum   'Cu8 H96 C94 N8 O36'
_cell_volume   2871.59720469
_cell_formula_units_Z   2
loop_
 _symmetry_equiv_pos_site_id
 _symmetry_equiv_pos_as_xyz
  1  'x, y, z'
loop_
 _atom_site_type_symbol
 _atom_site_label
 _atom_site_symmetry_multiplicity
 _atom_site_fract_x
 _atom_site_fract_y
 _atom_site_fract_z
 _atom_site_occupancy
  Cu  Cu0  1  0.06766000  0.66084000  0.06026000  1.0
  Cu  Cu1  1  0.93322000  0.66220000  0.43870000  1.0
  Cu  Cu2  1  0.93234000  0.33917000  0.93974000  1.0
  Cu  Cu3  1  0.06679000  0.33780000  0.56131000  1.0
  Cu  Cu4  1  0.85681000  0.49948000  0.05103000  1.0
  Cu  Cu5  1  0.13982000  0.50037000  0.44953000  1.0
  Cu  Cu6  1  0.14321000  0.50051000  0.94897000  1.0
  Cu  Cu7  1  0.86017000  0.49963000  0.55047000  1.0
  H  H8  1  0.94992000  0.63834000  0.97510000  1.0
  H  H9  1  0.05000000  0.63893000  0.52506000  1.0
  H  H10  1  0.05010000  0.36165000  0.02488000  1.0
  H  H11  1  0.95002000  0.36107000  0.47494000  1.0
  H  H12  1  0.90765000  0.37647000  0.15576000  1.0
  H  H13  1  0.09445000  0.37760000  0.34307000  1.0
  H  H14  1  0.09234000  0.62352000  0.84424000  1.0
  H  H15  1  0.90556000  0.62241000  0.65692000  1.0
  H  H16  1  0.41542000  0.01555000  0.16393000  1.0
  H  H17  1  0.58465000  0.01528000  0.33654000  1.0
  H  H18  1  0.58459000  0.98444000  0.83606000  1.0
  H  H19  1  0.41535000  0.98473000  0.66346000  1.0
  H  H20  1  0.55158000  0.93456000  0.16921000  1.0
  H  H21  1  0.44781000  0.93472000  0.33134000  1.0
  H  H22  1  0.44843000  0.06544000  0.83079000  1.0
  H  H23  1  0.55219000  0.06528000  0.66866000  1.0
  H  H24  1  0.41450000  0.90447000  0.09396000  1.0
  H  H25  1  0.58478000  0.90383000  0.40617000  1.0
  H  H26  1  0.58552000  0.09552000  0.90605000  1.0
  H  H27  1  0.41522000  0.09618000  0.59384000  1.0
  H  H28  1  0.65391000  0.13639000  0.25499000  1.0
  H  H29  1  0.34757000  0.13714000  0.24542000  1.0
  H  H30  1  0.34608000  0.86360000  0.74501000  1.0
  H  H31  1  0.65242000  0.86286000  0.75458000  1.0
  H  H32  1  0.71597000  0.05067000  0.19268000  1.0
  H  H33  1  0.28358000  0.05194000  0.30760000  1.0
  H  H34  1  0.28402000  0.94933000  0.80732000  1.0
  H  H35  1  0.71640000  0.94805000  0.69241000  1.0
  H  H36  1  0.81028000  0.22596000  0.20230000  1.0
  H  H37  1  0.19169000  0.22661000  0.29733000  1.0
  H  H38  1  0.18969000  0.77404000  0.79772000  1.0
  H  H39  1  0.80831000  0.77341000  0.70266000  1.0
  H  H40  1  0.07120000  0.66994000  0.19800000  1.0
  H  H41  1  0.92844000  0.66961000  0.30132000  1.0
  H  H42  1  0.92880000  0.33006000  0.80199000  1.0
  H  H43  1  0.07155000  0.33037000  0.69867000  1.0
  H  H44  1  0.17734000  0.77203000  0.27128000  1.0
  H  H45  1  0.82210000  0.77193000  0.22840000  1.0
  H  H46  1  0.82266000  0.22798000  0.72872000  1.0
  H  H47  1  0.17790000  0.22809000  0.77160000  1.0
  H  H48  1  0.29441000  0.79854000  0.03079000  1.0
  H  H49  1  0.70525000  0.79786000  0.46899000  1.0
  H  H50  1  0.70561000  0.20146000  0.96921000  1.0
  H  H51  1  0.29476000  0.20213000  0.53101000  1.0
  H  H52  1  0.48090000  0.25859000  0.09555000  1.0
  H  H53  1  0.51827000  0.25958000  0.40574000  1.0
  H  H54  1  0.51907000  0.74141000  0.90445000  1.0
  H  H55  1  0.48171000  0.74042000  0.59426000  1.0
  H  H56  1  0.22450000  0.08527000  0.93919000  1.0
  H  H57  1  0.77514000  0.08526000  0.56123000  1.0
  H  H58  1  0.77548000  0.91473000  0.06082000  1.0
  H  H59  1  0.22485000  0.91474000  0.43876000  1.0
  H  H60  1  0.59690000  0.40841000  0.05158000  1.0
  H  H61  1  0.40261000  0.40996000  0.44884000  1.0
  H  H62  1  0.40309000  0.59158000  0.94841000  1.0
  H  H63  1  0.59738000  0.59004000  0.55116000  1.0
  H  H64  1  0.18792000  0.92583000  0.98641000  1.0
  H  H65  1  0.81218000  0.92587000  0.51370000  1.0
  H  H66  1  0.81207000  0.07417000  0.01360000  1.0
  H  H67  1  0.18781000  0.07413000  0.48630000  1.0
  H  H68  1  0.89268000  0.86758000  0.86820000  1.0
  H  H69  1  0.10836000  0.86818000  0.63143000  1.0
  H  H70  1  0.10734000  0.13241000  0.13180000  1.0
  H  H71  1  0.89163000  0.13183000  0.36856000  1.0
  H  H72  1  0.61736000  0.77473000  0.18213000  1.0
  H  H73  1  0.38346000  0.77553000  0.31870000  1.0
  H  H74  1  0.38265000  0.22528000  0.81788000  1.0
  H  H75  1  0.61653000  0.22446000  0.68129000  1.0
  H  H76  1  0.53704000  0.66261000  0.19430000  1.0
  H  H77  1  0.46309000  0.66346000  0.30530000  1.0
  H  H78  1  0.46300000  0.33740000  0.80569000  1.0
  H  H79  1  0.53690000  0.33654000  0.69469000  1.0
  H  H80  1  0.53647000  0.72338000  0.12164000  1.0
  H  H81  1  0.46414000  0.72268000  0.37858000  1.0
  H  H82  1  0.46355000  0.27662000  0.87837000  1.0
  H  H83  1  0.53586000  0.27732000  0.62141000  1.0
  H  H84  1  0.09380000  0.13649000  0.85773000  1.0
  H  H85  1  0.90664000  0.13704000  0.64235000  1.0
  H  H86  1  0.90619000  0.86351000  0.14227000  1.0
  H  H87  1  0.09333000  0.86296000  0.35765000  1.0
  H  H88  1  0.93039000  0.02678000  0.81933000  1.0
  H  H89  1  0.07071000  0.02754000  0.68047000  1.0
  H  H90  1  0.06962000  0.97321000  0.18067000  1.0
  H  H91  1  0.92926000  0.97246000  0.31952000  1.0
  H  H92  1  0.16053000  0.42802000  0.18537000  1.0
  H  H93  1  0.83872000  0.42825000  0.31378000  1.0
  H  H94  1  0.83949000  0.57197000  0.81462000  1.0
  H  H95  1  0.16129000  0.57174000  0.68621000  1.0
  H  H96  1  0.33948000  0.43282000  0.13872000  1.0
  H  H97  1  0.66041000  0.43397000  0.36114000  1.0
  H  H98  1  0.66054000  0.56717000  0.86127000  1.0
  H  H99  1  0.33960000  0.56604000  0.63887000  1.0
  H  H100  1  0.21671000  0.35861000  0.11297000  1.0
  H  H101  1  0.78274000  0.35875000  0.38607000  1.0
  H  H102  1  0.78329000  0.64139000  0.88702000  1.0
  H  H103  1  0.21727000  0.64125000  0.61394000  1.0
  C  C104  1  0.81232000  0.34816000  0.14431000  1.0
  C  C105  1  0.18904000  0.34924000  0.35521000  1.0
  C  C106  1  0.18766000  0.65184000  0.85569000  1.0
  C  C107  1  0.81096000  0.65077000  0.64478000  1.0
  C  C108  1  0.30065000  0.84921000  0.18840000  1.0
  C  C109  1  0.69851000  0.84877000  0.31155000  1.0
  C  C110  1  0.69936000  0.15078000  0.81160000  1.0
  C  C111  1  0.30148000  0.15124000  0.68845000  1.0
  C  C112  1  0.45826000  0.97134000  0.19746000  1.0
  C  C113  1  0.54120000  0.97126000  0.30302000  1.0
  C  C114  1  0.54174000  0.02866000  0.80254000  1.0
  C  C115  1  0.45880000  0.02874000  0.69698000  1.0
  C  C116  1  0.49987000  0.03080000  0.25030000  1.0
  C  C117  1  0.50012000  0.96920000  0.74971000  1.0
  C  C118  1  0.33739000  0.85517000  0.11985000  1.0
  C  C119  1  0.66196000  0.85461000  0.38012000  1.0
  C  C120  1  0.66263000  0.14483000  0.88015000  1.0
  C  C121  1  0.33804000  0.14540000  0.61989000  1.0
  C  C122  1  0.62459000  0.09210000  0.21755000  1.0
  C  C123  1  0.37584000  0.09273000  0.28296000  1.0
  C  C124  1  0.37541000  0.90789000  0.78246000  1.0
  C  C125  1  0.62416000  0.90726000  0.71704000  1.0
  C  C126  1  0.75672000  0.26431000  0.17057000  1.0
  C  C127  1  0.24456000  0.26503000  0.32939000  1.0
  C  C128  1  0.24328000  0.73569000  0.82943000  1.0
  C  C129  1  0.75544000  0.73498000  0.67061000  1.0
  C  C130  1  0.73676000  0.66396000  0.12422000  1.0
  C  C131  1  0.26340000  0.66421000  0.37538000  1.0
  C  C132  1  0.26324000  0.33604000  0.87578000  1.0
  C  C133  1  0.73660000  0.33579000  0.62462000  1.0
  C  C134  1  0.01128000  0.79248000  0.96054000  1.0
  C  C135  1  0.98961000  0.79299000  0.53919000  1.0
  C  C136  1  0.98872000  0.20751000  0.03946000  1.0
  C  C137  1  0.01042000  0.20701000  0.46081000  1.0
  C  C138  1  0.14579000  0.72456000  0.17822000  1.0
  C  C139  1  0.85377000  0.72421000  0.32122000  1.0
  C  C140  1  0.85422000  0.27544000  0.82178000  1.0
  C  C141  1  0.14621000  0.27579000  0.67879000  1.0
  C  C142  1  0.20413000  0.78145000  0.21818000  1.0
  C  C143  1  0.79511000  0.78109000  0.28151000  1.0
  C  C144  1  0.79588000  0.21855000  0.78181000  1.0
  C  C145  1  0.20490000  0.21891000  0.71848000  1.0
  C  C146  1  0.63769000  0.22998000  0.15154000  1.0
  C  C147  1  0.36286000  0.23068000  0.34900000  1.0
  C  C148  1  0.36229000  0.77002000  0.84846000  1.0
  C  C149  1  0.63714000  0.76933000  0.65100000  1.0
  C  C150  1  0.27236000  0.79545000  0.08404000  1.0
  C  C151  1  0.72719000  0.79493000  0.41572000  1.0
  C  C152  1  0.72766000  0.20454000  0.91595000  1.0
  C  C153  1  0.27281000  0.20506000  0.58428000  1.0
  C  C154  1  0.57563000  0.28296000  0.10963000  1.0
  C  C155  1  0.42405000  0.28394000  0.39119000  1.0
  C  C156  1  0.42434000  0.71704000  0.89036000  1.0
  C  C157  1  0.57593000  0.71607000  0.60880000  1.0
  C  C158  1  0.15413000  0.03682000  0.92243000  1.0
  C  C159  1  0.84601000  0.03703000  0.57776000  1.0
  C  C160  1  0.84585000  0.96317000  0.07757000  1.0
  C  C161  1  0.15398000  0.96296000  0.42224000  1.0
  C  C162  1  0.03864000  0.88702000  0.92980000  1.0
  C  C163  1  0.96190000  0.88743000  0.57012000  1.0
  C  C164  1  0.96136000  0.11298000  0.07020000  1.0
  C  C165  1  0.03810000  0.11258000  0.42988000  1.0
  C  C166  1  0.63800000  0.36564000  0.08578000  1.0
  C  C167  1  0.36182000  0.36702000  0.41452000  1.0
  C  C168  1  0.36200000  0.63436000  0.91421000  1.0
  C  C169  1  0.63816000  0.63298000  0.58547000  1.0
  C  C170  1  0.19324000  0.50194000  0.09259000  1.0
  C  C171  1  0.80828000  0.50172000  0.40701000  1.0
  C  C172  1  0.80675000  0.49806000  0.90741000  1.0
  C  C173  1  0.19172000  0.49827000  0.59300000  1.0
  C  C174  1  0.13399000  0.94803000  0.94889000  1.0
  C  C175  1  0.86625000  0.94823000  0.55117000  1.0
  C  C176  1  0.86601000  0.05197000  0.05112000  1.0
  C  C177  1  0.13376000  0.05178000  0.44883000  1.0
  C  C178  1  0.96641000  0.91582000  0.88255000  1.0
  C  C179  1  0.03438000  0.91637000  0.61727000  1.0
  C  C180  1  0.03360000  0.08417000  0.11745000  1.0
  C  C181  1  0.96561000  0.08365000  0.38273000  1.0
  C  C182  1  0.59907000  0.71007000  0.15804000  1.0
  C  C183  1  0.40128000  0.71037000  0.34216000  1.0
  C  C184  1  0.40096000  0.28995000  0.84197000  1.0
  C  C185  1  0.59871000  0.28962000  0.65784000  1.0
  C  C186  1  0.08030000  0.06578000  0.87612000  1.0
  C  C187  1  0.92025000  0.06626000  0.62392000  1.0
  C  C188  1  0.91970000  0.93421000  0.12389000  1.0
  C  C189  1  0.07972000  0.93375000  0.37608000  1.0
  C  C190  1  0.98756000  0.00454000  0.85572000  1.0
  C  C191  1  0.01331000  0.00517000  0.64414000  1.0
  C  C192  1  0.01244000  0.99546000  0.14428000  1.0
  C  C193  1  0.98667000  0.99485000  0.35585000  1.0
  C  C194  1  0.22875000  0.42571000  0.13592000  1.0
  C  C195  1  0.77133000  0.42609000  0.36342000  1.0
  C  C196  1  0.77127000  0.57428000  0.86406000  1.0
  C  C197  1  0.22868000  0.57391000  0.63658000  1.0
  N  N198  1  0.75640000  0.39678000  0.10197000  1.0
  N  N199  1  0.24422000  0.39837000  0.39768000  1.0
  N  N200  1  0.24358000  0.60321000  0.89803000  1.0
  N  N201  1  0.75577000  0.60164000  0.60231000  1.0
  N  N202  1  0.17715000  0.73215000  0.11236000  1.0
  N  N203  1  0.82264000  0.73184000  0.38709000  1.0
  N  N204  1  0.82286000  0.26784000  0.88763000  1.0
  N  N205  1  0.17734000  0.26815000  0.61291000  1.0
  O  O206  1  0.98895000  0.58648000  0.99847000  1.0
  O  O207  1  0.00835000  0.58902000  0.50100000  1.0
  O  O208  1  0.01106000  0.41352000  0.00153000  1.0
  O  O209  1  0.99166000  0.41097000  0.49901000  1.0
  O  O210  1  0.35382000  0.90562000  0.22863000  1.0
  O  O211  1  0.64507000  0.90521000  0.27157000  1.0
  O  O212  1  0.64619000  0.09438000  0.77137000  1.0
  O  O213  1  0.35493000  0.09479000  0.72844000  1.0
  O  O214  1  0.57557000  0.14765000  0.17033000  1.0
  O  O215  1  0.42491000  0.14812000  0.33039000  1.0
  O  O216  1  0.42443000  0.85235000  0.82968000  1.0
  O  O217  1  0.57508000  0.85188000  0.66961000  1.0
  O  O218  1  0.71790000  0.58826000  0.09507000  1.0
  O  O219  1  0.28130000  0.58918000  0.40522000  1.0
  O  O220  1  0.28210000  0.41174000  0.90494000  1.0
  O  O221  1  0.71871000  0.41083000  0.59478000  1.0
  O  O222  1  0.08754000  0.77181000  0.00118000  1.0
  O  O223  1  0.91468000  0.77286000  0.49781000  1.0
  O  O224  1  0.91248000  0.22818000  0.99882000  1.0
  O  O225  1  0.08535000  0.22716000  0.50219000  1.0
  O  O226  1  0.07902000  0.54875000  0.11634000  1.0
  O  O227  1  0.92199000  0.54894000  0.38306000  1.0
  O  O228  1  0.92098000  0.45125000  0.88365000  1.0
  O  O229  1  0.07800000  0.45104000  0.61694000  1.0
  O  O230  1  0.85266000  0.70095000  0.12675000  1.0
  O  O231  1  0.14778000  0.70077000  0.37163000  1.0
  O  O232  1  0.14734000  0.29908000  0.87325000  1.0
  O  O233  1  0.85222000  0.29924000  0.62837000  1.0
  O  O234  1  0.91978000  0.74044000  0.94499000  1.0
  O  O235  1  0.08016000  0.74069000  0.55517000  1.0
  O  O236  1  0.08020000  0.25956000  0.05502000  1.0
  O  O237  1  0.91988000  0.25932000  0.44484000  1.0
  O  O238  1  0.27183000  0.51549000  0.03705000  1.0
  O  O239  1  0.73097000  0.51439000  0.46298000  1.0
  O  O240  1  0.72816000  0.48450000  0.96295000  1.0
  O  O241  1  0.26903000  0.48562000  0.53703000  1.0
