# generated using pymatgen
data_RbH11C18N4O3
_symmetry_space_group_name_H-M   'P 1'
_cell_length_a   7.86993000
_cell_length_b   13.42900000
_cell_length_c   18.79300000
_cell_angle_alpha   107.71800000
_cell_angle_beta   90.00000000
_cell_angle_gamma   107.03900000
_symmetry_Int_Tables_number   1
_chemical_formula_structural   RbH11C18N4O3
_chemical_formula_sum   'Rb4 H44 C72 N16 O12'
_cell_volume   1800.19529573
_cell_formula_units_Z   4
loop_
 _symmetry_equiv_pos_site_id
 _symmetry_equiv_pos_as_xyz
  1  'x, y, z'
loop_
 _atom_site_type_symbol
 _atom_site_label
 _atom_site_symmetry_multiplicity
 _atom_site_fract_x
 _atom_site_fract_y
 _atom_site_fract_z
 _atom_site_occupancy
  Rb  Rb0  1  0.65853000  0.57844000  0.91273000  1.0
  Rb  Rb1  1  0.92024000  0.57866000  0.41267000  1.0
  Rb  Rb2  1  0.20104000  0.65874000  0.92957000  1.0
  Rb  Rb3  1  0.45796000  0.65864000  0.42955000  1.0
  H  H4  1  0.71030000  0.96917000  0.96308000  1.0
  H  H5  1  0.25893000  0.96977000  0.46318000  1.0
  H  H6  1  0.53148000  0.98909000  0.86227000  1.0
  H  H7  1  0.45763000  0.98901000  0.36225000  1.0
  H  H8  1  0.60135000  0.92942000  0.72978000  1.0
  H  H9  1  0.32789000  0.92894000  0.22975000  1.0
  H  H10  1  0.85270000  0.85334000  0.69865000  1.0
  H  H11  1  0.00050000  0.85309000  0.19873000  1.0
  H  H12  1  0.08196000  0.88576000  0.07610000  1.0
  H  H13  1  0.80384000  0.88642000  0.57625000  1.0
  H  H14  1  0.15155000  0.13649000  0.12912000  1.0
  H  H15  1  0.98510000  0.13713000  0.62926000  1.0
  H  H16  1  0.16144000  0.05931000  0.18995000  1.0
  H  H17  1  0.89801000  0.05995000  0.69008000  1.0
  H  H18  1  0.95506000  0.03820000  0.14020000  1.0
  H  H19  1  0.08321000  0.03879000  0.64031000  1.0
  H  H20  1  0.36230000  0.92660000  0.01460000  1.0
  H  H21  1  0.56427000  0.92708000  0.51479000  1.0
  H  H22  1  0.41037000  0.99283000  0.11315000  1.0
  H  H23  1  0.58247000  0.99337000  0.61333000  1.0
  H  H24  1  0.39615000  0.07024000  0.05338000  1.0
  H  H25  1  0.67372000  0.07077000  0.55350000  1.0
  H  H26  1  0.84888000  0.27617000  0.81530000  1.0
  H  H27  1  0.42752000  0.27617000  0.31532000  1.0
  H  H28  1  0.64432000  0.25756000  0.70814000  1.0
  H  H29  1  0.61364000  0.25781000  0.20825000  1.0
  H  H30  1  0.76857000  0.31342000  0.59924000  1.0
  H  H31  1  0.54517000  0.31356000  0.09932000  1.0
  H  H32  1  0.09596000  0.38144000  0.59611000  1.0
  H  H33  1  0.28530000  0.38109000  0.09603000  1.0
  H  H34  1  0.30892000  0.34533000  0.95699000  1.0
  H  H35  1  0.03652000  0.34523000  0.45696000  1.0
  H  H36  1  0.47849000  0.18921000  0.84717000  1.0
  H  H37  1  0.71059000  0.18934000  0.34718000  1.0
  H  H38  1  0.56784000  0.26939000  0.94171000  1.0
  H  H39  1  0.70158000  0.26967000  0.44171000  1.0
  H  H40  1  0.55556000  0.33478000  0.87348000  1.0
  H  H41  1  0.77964000  0.33492000  0.37344000  1.0
  H  H42  1  0.19362000  0.09238000  0.89253000  1.0
  H  H43  1  0.89832000  0.09229000  0.39264000  1.0
  H  H44  1  0.06462000  0.16959000  0.94898000  1.0
  H  H45  1  0.10462000  0.16942000  0.44906000  1.0
  H  H46  1  0.27033000  0.17009000  0.98767000  1.0
  H  H47  1  0.89948000  0.17017000  0.48776000  1.0
  C  C48  1  0.08637000  0.83401000  0.79505000  1.0
  C  C49  1  0.74752000  0.83418000  0.29510000  1.0
  C  C50  1  0.92462000  0.86731000  0.81302000  1.0
  C  C51  1  0.94260000  0.86749000  0.31313000  1.0
  C  C52  1  0.88093000  0.89852000  0.88796000  1.0
  C  C53  1  0.01752000  0.89890000  0.38808000  1.0
  C  C54  1  0.74079000  0.94291000  0.90507000  1.0
  C  C55  1  0.20210000  0.94325000  0.40516000  1.0
  C  C56  1  0.64092000  0.95457000  0.84827000  1.0
  C  C57  1  0.31359000  0.95457000  0.34830000  1.0
  C  C58  1  0.67977000  0.92088000  0.77399000  1.0
  C  C59  1  0.24100000  0.92066000  0.27400000  1.0
  C  C60  1  0.82059000  0.87755000  0.75651000  1.0
  C  C61  1  0.05683000  0.87745000  0.25659000  1.0
  C  C62  1  0.97192000  0.87860000  0.94988000  1.0
  C  C63  1  0.90663000  0.87916000  0.45004000  1.0
  C  C64  1  0.14081000  0.96870000  0.07222000  1.0
  C  C65  1  0.82789000  0.96935000  0.57236000  1.0
  C  C66  1  0.09917000  0.05547000  0.13654000  1.0
  C  C67  1  0.95640000  0.05610000  0.63667000  1.0
  C  C68  1  0.33844000  0.99056000  0.06236000  1.0
  C  C69  1  0.65206000  0.99113000  0.56252000  1.0
  C  C70  1  0.09878000  0.77468000  0.71256000  1.0
  C  C71  1  0.67591000  0.77491000  0.21257000  1.0
  C  C72  1  0.01344000  0.66063000  0.68898000  1.0
  C  C73  1  0.64706000  0.66084000  0.18897000  1.0
  C  C74  1  0.19133000  0.83892000  0.66994000  1.0
  C  C75  1  0.64773000  0.83918000  0.16995000  1.0
  C  C76  1  0.28400000  0.95205000  0.70388000  1.0
  C  C77  1  0.66780000  0.95224000  0.20398000  1.0
  C  C78  1  0.20318000  0.79760000  0.59206000  1.0
  C  C79  1  0.59487000  0.79794000  0.09205000  1.0
  C  C80  1  0.94084000  0.61082000  0.74304000  1.0
  C  C81  1  0.66983000  0.61102000  0.24304000  1.0
  C  C82  1  0.00119000  0.58933000  0.61506000  1.0
  C  C83  1  0.58793000  0.58950000  0.11508000  1.0
  C  C84  1  0.35395000  0.39909000  0.69883000  1.0
  C  C85  1  0.04490000  0.39856000  0.19868000  1.0
  C  C86  1  0.15917000  0.36678000  0.70360000  1.0
  C  C87  1  0.20742000  0.36636000  0.20351000  1.0
  C  C88  1  0.08782000  0.33760000  0.76617000  1.0
  C  C89  1  0.24969000  0.33733000  0.26612000  1.0
  C  C90  1  0.90321000  0.29841000  0.76695000  1.0
  C  C91  1  0.39533000  0.29834000  0.26695000  1.0
  C  C92  1  0.78816000  0.28879000  0.70683000  1.0
  C  C93  1  0.50086000  0.28887000  0.20688000  1.0
  C  C94  1  0.85789000  0.31995000  0.64584000  1.0
  C  C95  1  0.46224000  0.31993000  0.14586000  1.0
  C  C96  1  0.04196000  0.35869000  0.64428000  1.0
  C  C97  1  0.31666000  0.35843000  0.14423000  1.0
  C  C98  1  0.20439000  0.35566000  0.83486000  1.0
  C  C99  1  0.15111000  0.35544000  0.33479000  1.0
  C  C100  1  0.30196000  0.26730000  0.91382000  1.0
  C  C101  1  0.96528000  0.26721000  0.41382000  1.0
  C  C102  1  0.48729000  0.26522000  0.89260000  1.0
  C  C103  1  0.77799000  0.26533000  0.39260000  1.0
  C  C104  1  0.20073000  0.16927000  0.93682000  1.0
  C  C105  1  0.96825000  0.16920000  0.43688000  1.0
  C  C106  1  0.42656000  0.45779000  0.64193000  1.0
  C  C107  1  0.03133000  0.45722000  0.14174000  1.0
  C  C108  1  0.44927000  0.39282000  0.57058000  1.0
  C  C109  1  0.94359000  0.39230000  0.07041000  1.0
  C  C110  1  0.46566000  0.57273000  0.66935000  1.0
  C  C111  1  0.10778000  0.57211000  0.16916000  1.0
  C  C112  1  0.44938000  0.62304000  0.74579000  1.0
  C  C113  1  0.17407000  0.62241000  0.24564000  1.0
  C  C114  1  0.52969000  0.64460000  0.62720000  1.0
  C  C115  1  0.11618000  0.64408000  0.12705000  1.0
  C  C116  1  0.50981000  0.43535000  0.51183000  1.0
  C  C117  1  0.92585000  0.43492000  0.01168000  1.0
  C  C118  1  0.41881000  0.27837000  0.55447000  1.0
  C  C119  1  0.85913000  0.27790000  0.05431000  1.0
  N  N120  1  0.88729000  0.57232000  0.78996000  1.0
  N  N121  1  0.68491000  0.57254000  0.28997000  1.0
  N  N122  1  0.98687000  0.52752000  0.55432000  1.0
  N  N123  1  0.54044000  0.52757000  0.05436000  1.0
  N  N124  1  0.36725000  0.04491000  0.72989000  1.0
  N  N125  1  0.67698000  0.04502000  0.23010000  1.0
  N  N126  1  0.21291000  0.76641000  0.52726000  1.0
  N  N127  1  0.55423000  0.76679000  0.02722000  1.0
  N  N128  1  0.55807000  0.46836000  0.46196000  1.0
  N  N129  1  0.91076000  0.46807000  0.96187000  1.0
  N  N130  1  0.40022000  0.18439000  0.54073000  1.0
  N  N131  1  0.78331000  0.18397000  0.04056000  1.0
  N  N132  1  0.43956000  0.66216000  0.80991000  1.0
  N  N133  1  0.22271000  0.66169000  0.30978000  1.0
  N  N134  1  0.58111000  0.70707000  0.59409000  1.0
  N  N135  1  0.12758000  0.70670000  0.09405000  1.0
  O  O136  1  0.20867000  0.85114000  0.84239000  1.0
  O  O137  1  0.64215000  0.85121000  0.34236000  1.0
  O  O138  1  0.96136000  0.78589000  0.95162000  1.0
  O  O139  1  0.82440000  0.78646000  0.45182000  1.0
  O  O140  1  0.05159000  0.97218000  0.00402000  1.0
  O  O141  1  0.92055000  0.97276000  0.50414000  1.0
  O  O142  1  0.45991000  0.38357000  0.73923000  1.0
  O  O143  1  0.92335000  0.38313000  0.23907000  1.0
  O  O144  1  0.28743000  0.44811000  0.87706000  1.0
  O  O145  1  0.16038000  0.44785000  0.37693000  1.0
  O  O146  1  0.19533000  0.26158000  0.84677000  1.0
  O  O147  1  0.06614000  0.26136000  0.34676000  1.0
