# generated using pymatgen
data_Mo2H11C9N7O8
_symmetry_space_group_name_H-M   'P 1'
_cell_length_a   7.67630000
_cell_length_b   9.31227000
_cell_length_c   21.96200000
_cell_angle_alpha   90.00010000
_cell_angle_beta   90.00010000
_cell_angle_gamma   99.95260000
_symmetry_Int_Tables_number   1
_chemical_formula_structural   Mo2H11C9N7O8
_chemical_formula_sum   'Mo8 H44 C36 N28 O32'
_cell_volume   1546.30102353
_cell_formula_units_Z   4
loop_
 _symmetry_equiv_pos_site_id
 _symmetry_equiv_pos_as_xyz
  1  'x, y, z'
loop_
 _atom_site_type_symbol
 _atom_site_label
 _atom_site_symmetry_multiplicity
 _atom_site_fract_x
 _atom_site_fract_y
 _atom_site_fract_z
 _atom_site_occupancy
  Mo  Mo0  1  0.49895000  0.85228000  0.79025000  1.0
  Mo  Mo1  1  0.00105000  0.64772000  0.29025000  1.0
  Mo  Mo2  1  0.50105000  0.14772000  0.20975000  1.0
  Mo  Mo3  1  0.99894000  0.35228000  0.70975000  1.0
  Mo  Mo4  1  0.76650000  0.57127000  0.79726000  1.0
  Mo  Mo5  1  0.73349000  0.92873000  0.29726000  1.0
  Mo  Mo6  1  0.23349000  0.42873000  0.20274000  1.0
  Mo  Mo7  1  0.26650000  0.07127000  0.70274000  1.0
  H  H8  1  0.28321000  0.64958000  0.86706000  1.0
  H  H9  1  0.21678000  0.85042000  0.36706000  1.0
  H  H10  1  0.71678000  0.35042000  0.13294000  1.0
  H  H11  1  0.78321000  0.14958000  0.63294000  1.0
  H  H12  1  0.21342000  0.61344000  0.79987000  1.0
  H  H13  1  0.28658000  0.88656000  0.29987000  1.0
  H  H14  1  0.78658000  0.38656000  0.20013000  1.0
  H  H15  1  0.71341000  0.11344000  0.70013000  1.0
  H  H16  1  0.45181000  0.39542000  0.86272000  1.0
  H  H17  1  0.04819000  0.10458000  0.36272000  1.0
  H  H18  1  0.54819000  0.60458000  0.13728000  1.0
  H  H19  1  0.95181000  0.89542000  0.63728000  1.0
  H  H20  1  0.48946000  0.31849000  0.79932000  1.0
  H  H21  1  0.01054000  0.18151000  0.29932000  1.0
  H  H22  1  0.51054000  0.68151000  0.20068000  1.0
  H  H23  1  0.98946000  0.81849000  0.70068000  1.0
  H  H24  1  0.32237000  0.04004000  0.56607000  1.0
  H  H25  1  0.17763000  0.45996000  0.06607000  1.0
  H  H26  1  0.67763000  0.95996000  0.43394000  1.0
  H  H27  1  0.82238000  0.54004000  0.93394000  1.0
  H  H28  1  0.27145000  0.71938000  0.64933000  1.0
  H  H29  1  0.22855000  0.78062000  0.14933000  1.0
  H  H30  1  0.72854000  0.28062000  0.35067000  1.0
  H  H31  1  0.77146000  0.21939000  0.85067000  1.0
  H  H32  1  0.59521000  0.39020000  0.65465000  1.0
  H  H33  1  0.90478000  0.10979000  0.15465000  1.0
  H  H34  1  0.40478000  0.60980000  0.34535000  1.0
  H  H35  1  0.09522000  0.89020000  0.84535000  1.0
  H  H36  1  0.37033000  0.26640000  0.58854000  1.0
  H  H37  1  0.12967000  0.23360000  0.08854000  1.0
  H  H38  1  0.62967000  0.73361000  0.41146000  1.0
  H  H39  1  0.87034000  0.76640000  0.91146000  1.0
  H  H40  1  0.12794000  0.35917000  0.41801000  1.0
  H  H41  1  0.37207000  0.14083000  0.91801000  1.0
  H  H42  1  0.87207000  0.64083000  0.58199000  1.0
  H  H43  1  0.62793000  0.85917000  0.08199000  1.0
  H  H44  1  0.16092000  0.61734000  0.44705000  1.0
  H  H45  1  0.33909000  0.88265000  0.94705000  1.0
  H  H46  1  0.83910000  0.38266000  0.55294000  1.0
  H  H47  1  0.66090000  0.11734000  0.05294000  1.0
  H  H48  1  0.29965000  0.70438000  0.54464000  1.0
  H  H49  1  0.20035000  0.79562000  0.04464000  1.0
  H  H50  1  0.70035000  0.29563000  0.45536000  1.0
  H  H51  1  0.79965000  0.20438000  0.95536000  1.0
  C  C52  1  0.37049000  0.65486000  0.66235000  1.0
  C  C53  1  0.12951000  0.84514000  0.16235000  1.0
  C  C54  1  0.62951000  0.34514000  0.33765000  1.0
  C  C55  1  0.87049000  0.15486000  0.83765000  1.0
  C  C56  1  0.53425000  0.48419000  0.66537000  1.0
  C  C57  1  0.96575000  0.01580000  0.16537000  1.0
  C  C58  1  0.46575000  0.51581000  0.33463000  1.0
  C  C59  1  0.03426000  0.98420000  0.83463000  1.0
  C  C60  1  0.23618000  0.14333000  0.48357000  1.0
  C  C61  1  0.26381000  0.35667000  0.98357000  1.0
  C  C62  1  0.76382000  0.85668000  0.51644000  1.0
  C  C63  1  0.73618000  0.64332000  0.01643000  1.0
  C  C64  1  0.34068000  0.48909000  0.57281000  1.0
  C  C65  1  0.15932000  0.01091000  0.07281000  1.0
  C  C66  1  0.65932000  0.51092000  0.42719000  1.0
  C  C67  1  0.84068000  0.98909000  0.92719000  1.0
  C  C68  1  0.32610000  0.34303000  0.55708000  1.0
  C  C69  1  0.17390000  0.15697000  0.05708000  1.0
  C  C70  1  0.67390000  0.65697000  0.44292000  1.0
  C  C71  1  0.82610000  0.84303000  0.94292000  1.0
  C  C72  1  0.25062000  0.29585000  0.50075000  1.0
  C  C73  1  0.24938000  0.20414000  0.00075000  1.0
  C  C74  1  0.74939000  0.70415000  0.49925000  1.0
  C  C75  1  0.75062000  0.79585000  0.99925000  1.0
  C  C76  1  0.19022000  0.39503000  0.46123000  1.0
  C  C77  1  0.30978000  0.10497000  0.96123000  1.0
  C  C78  1  0.80979000  0.60497000  0.53877000  1.0
  C  C79  1  0.69021000  0.89503000  0.03877000  1.0
  C  C80  1  0.20849000  0.54108000  0.47780000  1.0
  C  C81  1  0.29151000  0.95892000  0.97780000  1.0
  C  C82  1  0.79152000  0.45893000  0.52219000  1.0
  C  C83  1  0.70848000  0.04108000  0.02219000  1.0
  C  C84  1  0.28469000  0.58923000  0.53324000  1.0
  C  C85  1  0.21531000  0.91077000  0.03324000  1.0
  C  C86  1  0.71532000  0.41078000  0.46676000  1.0
  C  C87  1  0.78468000  0.08923000  0.96676000  1.0
  N  N88  1  0.46363000  0.67108000  0.71281000  1.0
  N  N89  1  0.03637000  0.82891000  0.21281000  1.0
  N  N90  1  0.53636000  0.32892000  0.28719000  1.0
  N  N91  1  0.96364000  0.17109000  0.78719000  1.0
  N  N92  1  0.56596000  0.56480000  0.71483000  1.0
  N  N93  1  0.93404000  0.93519000  0.21483000  1.0
  N  N94  1  0.43404000  0.43519000  0.28517000  1.0
  N  N95  1  0.06596000  0.06481000  0.78517000  1.0
  N  N96  1  0.41214000  0.53861000  0.63057000  1.0
  N  N97  1  0.08786000  0.96138000  0.13057000  1.0
  N  N98  1  0.58786000  0.46139000  0.36942000  1.0
  N  N99  1  0.91214000  0.03862000  0.86942000  1.0
  N  N100  1  0.28005000  0.03678000  0.51929000  1.0
  N  N101  1  0.21995000  0.46322000  0.01929000  1.0
  N  N102  1  0.71995000  0.96323000  0.48072000  1.0
  N  N103  1  0.78005000  0.53678000  0.98071000  1.0
  N  N104  1  0.25502000  0.91106000  0.48833000  1.0
  N  N105  1  0.24498000  0.58893000  0.98833000  1.0
  N  N106  1  0.74497000  0.08894000  0.51168000  1.0
  N  N107  1  0.75502000  0.41106000  0.01168000  1.0
  N  N108  1  0.19641000  0.93998000  0.43477000  1.0
  N  N109  1  0.30359000  0.56002000  0.93477000  1.0
  N  N110  1  0.80358000  0.06002000  0.56523000  1.0
  N  N111  1  0.69641000  0.43998000  0.06523000  1.0
  N  N112  1  0.18275000  0.08215000  0.42989000  1.0
  N  N113  1  0.31725000  0.41785000  0.92989000  1.0
  N  N114  1  0.81725000  0.91785000  0.57011000  1.0
  N  N115  1  0.68275000  0.58215000  0.07011000  1.0
  O  O116  1  0.61213000  0.69880000  0.82290000  1.0
  O  O117  1  0.88787000  0.80120000  0.32290000  1.0
  O  O118  1  0.38787000  0.30120000  0.17710000  1.0
  O  O119  1  0.11213000  0.19880000  0.67710000  1.0
  O  O120  1  0.30341000  0.90054000  0.74462000  1.0
  O  O121  1  0.19659000  0.59946000  0.24462000  1.0
  O  O122  1  0.69659000  0.09946000  0.25538000  1.0
  O  O123  1  0.80341000  0.40054000  0.75538000  1.0
  O  O124  1  0.66902000  0.94552000  0.74637000  1.0
  O  O125  1  0.83098000  0.55448000  0.24637000  1.0
  O  O126  1  0.33098000  0.05448000  0.25363000  1.0
  O  O127  1  0.16902000  0.44552000  0.75363000  1.0
  O  O128  1  0.49462000  0.95776000  0.85442000  1.0
  O  O129  1  0.00538000  0.54224000  0.35442000  1.0
  O  O130  1  0.50538000  0.04224000  0.14558000  1.0
  O  O131  1  0.99462000  0.45776000  0.64558000  1.0
  O  O132  1  0.25622000  0.69557000  0.82774000  1.0
  O  O133  1  0.24377000  0.80443000  0.32774000  1.0
  O  O134  1  0.74377000  0.30443000  0.17227000  1.0
  O  O135  1  0.75622000  0.19557000  0.67227000  1.0
  O  O136  1  0.91291000  0.69755000  0.75713000  1.0
  O  O137  1  0.58708000  0.80245000  0.25712000  1.0
  O  O138  1  0.08708000  0.30245000  0.24288000  1.0
  O  O139  1  0.41292000  0.19755000  0.74288000  1.0
  O  O140  1  0.87368000  0.55282000  0.86683000  1.0
  O  O141  1  0.62632000  0.94718000  0.36683000  1.0
  O  O142  1  0.12632000  0.44718000  0.13318000  1.0
  O  O143  1  0.37369000  0.05282000  0.63317000  1.0
  O  O144  1  0.54429000  0.38513000  0.83214000  1.0
  O  O145  1  0.95571000  0.11487000  0.33214000  1.0
  O  O146  1  0.45571000  0.61487000  0.16786000  1.0
  O  O147  1  0.04429000  0.88512000  0.66786000  1.0
