# generated using pymatgen
data_CoH14C20(NO)5
_symmetry_space_group_name_H-M   'P 1'
_cell_length_a   7.79625000
_cell_length_b   10.56691863
_cell_length_c   12.50820000
_cell_angle_alpha   106.59237297
_cell_angle_beta   99.00120000
_cell_angle_gamma   111.12216294
_symmetry_Int_Tables_number   1
_chemical_formula_structural   CoH14C20(NO)5
_chemical_formula_sum   'Co2 H28 C40 N10 O10'
_cell_volume   881.57766654
_cell_formula_units_Z   2
loop_
 _symmetry_equiv_pos_site_id
 _symmetry_equiv_pos_as_xyz
  1  'x, y, z'
loop_
 _atom_site_type_symbol
 _atom_site_label
 _atom_site_symmetry_multiplicity
 _atom_site_fract_x
 _atom_site_fract_y
 _atom_site_fract_z
 _atom_site_occupancy
  Co  Co0  1  0.99999000  0.00000000  0.00000000  1.0
  Co  Co1  1  0.49999000  0.50000000  0.00000000  1.0
  H  H2  1  0.56132000  0.73431000  0.95765000  1.0
  H  H3  1  0.43867000  0.26570000  0.04235000  1.0
  H  H4  1  0.38421000  0.72968000  0.00275000  1.0
  H  H5  1  0.61577000  0.27032000  0.99725000  1.0
  H  H6  1  0.72474000  0.44913000  0.22741000  1.0
  H  H7  1  0.27526000  0.55089000  0.77260000  1.0
  H  H8  1  0.09107000  0.40047000  0.97699000  1.0
  H  H9  1  0.90891000  0.59954000  0.02300000  1.0
  H  H10  1  0.58824000  0.63026000  0.25472000  1.0
  H  H11  1  0.41176000  0.36973000  0.74526000  1.0
  H  H12  1  0.40359000  0.67055000  0.39579000  1.0
  H  H13  1  0.59642000  0.32944000  0.60421000  1.0
  H  H14  1  0.88907000  0.42455000  0.10481000  1.0
  H  H15  1  0.11092000  0.57545000  0.89519000  1.0
  H  H16  1  0.24358000  0.78878000  0.66979000  1.0
  H  H17  1  0.75644000  0.21123000  0.33022000  1.0
  H  H18  1  0.26190000  0.91424000  0.87830000  1.0
  H  H19  1  0.73812000  0.08579000  0.12171000  1.0
  H  H20  1  0.67201000  0.77190000  0.79434000  1.0
  H  H21  1  0.32800000  0.22811000  0.20567000  1.0
  H  H22  1  0.62682000  0.63494000  0.58588000  1.0
  H  H23  1  0.37319000  0.36505000  0.41413000  1.0
  H  H24  1  0.54869000  0.97759000  0.62785000  1.0
  H  H25  1  0.45131000  0.02238000  0.37214000  1.0
  H  H26  1  0.66045000  0.92350000  0.45650000  1.0
  H  H27  1  0.33955000  0.07647000  0.54350000  1.0
  H  H28  1  0.24374000  0.12933000  0.67873000  1.0
  H  H29  1  0.75626000  0.87067000  0.32127000  1.0
  C  C30  1  0.15692000  0.45819000  0.07002000  1.0
  C  C31  1  0.84306000  0.54181000  0.92998000  1.0
  C  C32  1  0.43329000  0.58802000  0.22519000  1.0
  C  C33  1  0.56671000  0.41198000  0.77481000  1.0
  C  C34  1  0.32977000  0.61077000  0.30316000  1.0
  C  C35  1  0.67022000  0.38922000  0.69684000  1.0
  C  C36  1  0.12952000  0.55420000  0.26181000  1.0
  C  C37  1  0.87048000  0.44581000  0.73819000  1.0
  C  C38  1  0.04369000  0.47417000  0.14247000  1.0
  C  C39  1  0.95630000  0.52584000  0.85753000  1.0
  C  C40  1  0.01583000  0.57543000  0.34033000  1.0
  C  C41  1  0.98417000  0.42458000  0.65968000  1.0
  C  C42  1  0.92372000  0.63733000  0.48942000  1.0
  C  C43  1  0.07629000  0.36267000  0.51059000  1.0
  C  C44  1  0.93417000  0.70536000  0.61054000  1.0
  C  C45  1  0.06583000  0.29463000  0.38947000  1.0
  C  C46  1  0.11430000  0.78276000  0.69509000  1.0
  C  C47  1  0.88572000  0.21725000  0.30492000  1.0
  C  C48  1  0.12549000  0.85239000  0.80966000  1.0
  C  C49  1  0.87453000  0.14763000  0.19035000  1.0
  C  C50  1  0.79466000  0.77120000  0.76308000  1.0
  C  C51  1  0.20535000  0.22880000  0.23692000  1.0
  C  C52  1  0.77066000  0.69685000  0.64687000  1.0
  C  C53  1  0.22936000  0.30315000  0.35314000  1.0
  C  C54  1  0.75358000  0.10589000  0.85872000  1.0
  C  C55  1  0.24641000  0.89411000  0.14127000  1.0
  C  C56  1  0.82859000  0.07880000  0.75312000  1.0
  C  C57  1  0.17140000  0.92119000  0.24688000  1.0
  C  C58  1  0.70207000  0.00958000  0.63962000  1.0
  C  C59  1  0.29792000  0.99040000  0.36038000  1.0
  C  C60  1  0.76692000  0.97883000  0.54179000  1.0
  C  C61  1  0.23308000  0.02114000  0.45821000  1.0
  C  C62  1  0.96351000  0.01733000  0.55134000  1.0
  C  C63  1  0.03649000  0.98264000  0.44866000  1.0
  C  C64  1  0.08952000  0.09290000  0.66465000  1.0
  C  C65  1  0.91049000  0.90710000  0.33535000  1.0
  C  C66  1  0.02538000  0.12252000  0.76339000  1.0
  C  C67  1  0.97462000  0.87748000  0.23661000  1.0
  C  C68  1  0.17836000  0.21471000  0.87764000  1.0
  C  C69  1  0.82164000  0.78530000  0.12236000  1.0
  N  N70  1  0.82012000  0.51556000  0.30907000  1.0
  N  N71  1  0.17987000  0.48444000  0.69094000  1.0
  N  N72  1  0.75810000  0.55345000  0.40274000  1.0
  N  N73  1  0.24191000  0.44656000  0.59727000  1.0
  N  N74  1  0.08481000  0.65335000  0.45454000  1.0
  N  N75  1  0.91521000  0.34665000  0.54547000  1.0
  N  N76  1  0.35034000  0.51446000  0.10890000  1.0
  N  N77  1  0.64965000  0.48554000  0.89109000  1.0
  N  N78  1  0.96831000  0.85029000  0.84292000  1.0
  N  N79  1  0.03172000  0.14973000  0.15709000  1.0
  O  O80  1  0.28401000  0.34183000  0.88031000  1.0
  O  O81  1  0.71599000  0.65819000  0.11968000  1.0
  O  O82  1  0.19986000  0.17126000  0.96121000  1.0
  O  O83  1  0.80012000  0.82875000  0.03878000  1.0
  O  O84  1  0.66845000  0.18800000  0.87064000  1.0
  O  O85  1  0.33151000  0.81198000  0.12935000  1.0
  O  O86  1  0.77745000  0.04135000  0.92879000  1.0
  O  O87  1  0.22254000  0.95865000  0.07121000  1.0
  O  O88  1  0.42077000  0.67343000  0.93774000  1.0
  O  O89  1  0.57921000  0.32657000  0.06226000  1.0
