# generated using pymatgen
data_CoH16C23N4O5
_symmetry_space_group_name_H-M   'P 1'
_cell_length_a   9.43419000
_cell_length_b   10.56310000
_cell_length_c   12.20120000
_cell_angle_alpha   107.83500000
_cell_angle_beta   103.75800000
_cell_angle_gamma   106.98800000
_symmetry_Int_Tables_number   1
_chemical_formula_structural   CoH16C23N4O5
_chemical_formula_sum   'Co2 H32 C46 N8 O10'
_cell_volume   1032.95017412
_cell_formula_units_Z   2
loop_
 _symmetry_equiv_pos_site_id
 _symmetry_equiv_pos_as_xyz
  1  'x, y, z'
loop_
 _atom_site_type_symbol
 _atom_site_label
 _atom_site_symmetry_multiplicity
 _atom_site_fract_x
 _atom_site_fract_y
 _atom_site_fract_z
 _atom_site_occupancy
  Co  Co0  1  0.58379000  0.33201000  0.13628000  1.0
  Co  Co1  1  0.41620000  0.66798000  0.86372000  1.0
  H  H2  1  0.09967000  0.50572000  0.13453000  1.0
  H  H3  1  0.90034000  0.49430000  0.86548000  1.0
  H  H4  1  0.27617000  0.47020000  0.01631000  1.0
  H  H5  1  0.72384000  0.52981000  0.98369000  1.0
  H  H6  1  0.32593000  0.28358000  0.25541000  1.0
  H  H7  1  0.67406000  0.71642000  0.74458000  1.0
  H  H8  1  0.18705000  0.02032000  0.27000000  1.0
  H  H9  1  0.81295000  0.97968000  0.73000000  1.0
  H  H10  1  0.56496000  0.01544000  0.14022000  1.0
  H  H11  1  0.43504000  0.98456000  0.85978000  1.0
  H  H12  1  0.43354000  0.80269000  0.17872000  1.0
  H  H13  1  0.56646000  0.19731000  0.82129000  1.0
  H  H14  1  0.23123000  0.75681000  0.10422000  1.0
  H  H15  1  0.76877000  0.24319000  0.89578000  1.0
  H  H16  1  0.04504000  0.75996000  0.21082000  1.0
  H  H17  1  0.95496000  0.24004000  0.78918000  1.0
  H  H18  1  0.96437000  0.71926000  0.37921000  1.0
  H  H19  1  0.03563000  0.28074000  0.62079000  1.0
  H  H20  1  0.16433000  0.73150000  0.56313000  1.0
  H  H21  1  0.83568000  0.26849000  0.43688000  1.0
  H  H22  1  0.44264000  0.78528000  0.57301000  1.0
  H  H23  1  0.55736000  0.21471000  0.42699000  1.0
  H  H24  1  0.61363000  0.89673000  0.35573000  1.0
  H  H25  1  0.38638000  0.10327000  0.64427000  1.0
  H  H26  1  0.65441000  0.91698000  0.51036000  1.0
  H  H27  1  0.34559000  0.08301000  0.48964000  1.0
  H  H28  1  0.76189000  0.74390000  0.56449000  1.0
  H  H29  1  0.23811000  0.25609000  0.43551000  1.0
  H  H30  1  0.49480000  0.61472000  0.18876000  1.0
  H  H31  1  0.50520000  0.38528000  0.81123000  1.0
  H  H32  1  0.76935000  0.48476000  0.42487000  1.0
  H  H33  1  0.23064000  0.51523000  0.57512000  1.0
  C  C34  1  0.31288000  0.22931000  0.90458000  1.0
  C  C35  1  0.68711000  0.77069000  0.09542000  1.0
  C  C36  1  0.88604000  0.31111000  0.17134000  1.0
  C  C37  1  0.11396000  0.68890000  0.82866000  1.0
  C  C38  1  0.99640000  0.28156000  0.10433000  1.0
  C  C39  1  0.00361000  0.71846000  0.89568000  1.0
  C  C40  1  0.10027000  0.39863000  0.09327000  1.0
  C  C41  1  0.89974000  0.60138000  0.90674000  1.0
  C  C42  1  0.20104000  0.37913000  0.02874000  1.0
  C  C43  1  0.79896000  0.62088000  0.97126000  1.0
  C  C44  1  0.20553000  0.24274000  0.97745000  1.0
  C  C45  1  0.79447000  0.75726000  0.02255000  1.0
  C  C46  1  0.10527000  0.12509000  0.99068000  1.0
  C  C47  1  0.89472000  0.87492000  0.00932000  1.0
  C  C48  1  0.99682000  0.14336000  0.05035000  1.0
  C  C49  1  0.00318000  0.85666000  0.94966000  1.0
  C  C50  1  0.12126000  0.98423000  0.94892000  1.0
  C  C51  1  0.87873000  0.01578000  0.05108000  1.0
  C  C52  1  0.35510000  0.18905000  0.23383000  1.0
  C  C53  1  0.64490000  0.81095000  0.76617000  1.0
  C  C54  1  0.28603000  0.06025000  0.24224000  1.0
  C  C55  1  0.71397000  0.93974000  0.75776000  1.0
  C  C56  1  0.48212000  0.05427000  0.17331000  1.0
  C  C57  1  0.51788000  0.94573000  0.82669000  1.0
  C  C58  1  0.33177000  0.82676000  0.19149000  1.0
  C  C59  1  0.66823000  0.17324000  0.80851000  1.0
  C  C60  1  0.29174000  0.80166000  0.29752000  1.0
  C  C61  1  0.70826000  0.19834000  0.70248000  1.0
  C  C62  1  0.13382000  0.76823000  0.29163000  1.0
  C  C63  1  0.86619000  0.23177000  0.70837000  1.0
  C  C64  1  0.08742000  0.74421000  0.38614000  1.0
  C  C65  1  0.91258000  0.25579000  0.61386000  1.0
  C  C66  1  0.19899000  0.75063000  0.48847000  1.0
  C  C67  1  0.80101000  0.24935000  0.51153000  1.0
  C  C68  1  0.35546000  0.78204000  0.49427000  1.0
  C  C69  1  0.64454000  0.21794000  0.50573000  1.0
  C  C70  1  0.40473000  0.80944000  0.40100000  1.0
  C  C71  1  0.59527000  0.19056000  0.59900000  1.0
  C  C72  1  0.57721000  0.84387000  0.41488000  1.0
  C  C73  1  0.42279000  0.15613000  0.58512000  1.0
  C  C74  1  0.70524000  0.67654000  0.46674000  1.0
  C  C75  1  0.29476000  0.32345000  0.53326000  1.0
  C  C76  1  0.56319000  0.61012000  0.27122000  1.0
  C  C77  1  0.43680000  0.38988000  0.72877000  1.0
  C  C78  1  0.70776000  0.54822000  0.39704000  1.0
  C  C79  1  0.29223000  0.45177000  0.60295000  1.0
  N  N80  1  0.47630000  0.18364000  0.18968000  1.0
  N  N81  1  0.52370000  0.81636000  0.81032000  1.0
  N  N82  1  0.36864000  0.97726000  0.20481000  1.0
  N  N83  1  0.63136000  0.02274000  0.79519000  1.0
  N  N84  1  0.61831000  0.50799000  0.27458000  1.0
  N  N85  1  0.38168000  0.49201000  0.72542000  1.0
  N  N86  1  0.61303000  0.71377000  0.38593000  1.0
  N  N87  1  0.38696000  0.28622000  0.61407000  1.0
  O  O88  1  0.46547000  0.29509000  0.96763000  1.0
  O  O89  1  0.53453000  0.70491000  0.03237000  1.0
  O  O90  1  0.25424000  0.17009000  0.79029000  1.0
  O  O91  1  0.74575000  0.82992000  0.20971000  1.0
  O  O92  1  0.76989000  0.32695000  0.10190000  1.0
  O  O93  1  0.23011000  0.67306000  0.89810000  1.0
  O  O94  1  0.91439000  0.32620000  0.27999000  1.0
  O  O95  1  0.08561000  0.67380000  0.72001000  1.0
  O  O96  1  0.23675000  0.97532000  0.92073000  1.0
  O  O97  1  0.76324000  0.02469000  0.07927000  1.0
