# generated using pymatgen
data_CdH18C32Br4N8O7
_symmetry_space_group_name_H-M   'P 1'
_cell_length_a   10.65450000
_cell_length_b   12.22340000
_cell_length_c   15.16380000
_cell_angle_alpha   79.91810000
_cell_angle_beta   71.11520000
_cell_angle_gamma   67.00010000
_symmetry_Int_Tables_number   1
_chemical_formula_structural   CdH18C32Br4N8O7
_chemical_formula_sum   'Cd2 H36 C64 Br8 N16 O14'
_cell_volume   1717.32462452
_cell_formula_units_Z   2
loop_
 _symmetry_equiv_pos_site_id
 _symmetry_equiv_pos_as_xyz
  1  'x, y, z'
loop_
 _atom_site_type_symbol
 _atom_site_label
 _atom_site_symmetry_multiplicity
 _atom_site_fract_x
 _atom_site_fract_y
 _atom_site_fract_z
 _atom_site_occupancy
  Cd  Cd0  1  0.45243000  0.82307000  0.67863000  1.0
  Cd  Cd1  1  0.54757000  0.17693000  0.32137000  1.0
  H  H2  1  0.72641000  0.85448000  0.62572000  1.0
  H  H3  1  0.27359000  0.14552000  0.37428000  1.0
  H  H4  1  0.63740000  0.95150000  0.56266000  1.0
  H  H5  1  0.36260000  0.04851000  0.43734000  1.0
  H  H6  1  0.06398000  0.15477000  0.92078000  1.0
  H  H7  1  0.93603000  0.84523000  0.07922000  1.0
  H  H8  1  0.23169000  0.95266000  0.86991000  1.0
  H  H9  1  0.76832000  0.04735000  0.13009000  1.0
  H  H10  1  0.40966000  0.08863000  0.61050000  1.0
  H  H11  1  0.59035000  0.91138000  0.38950000  1.0
  H  H12  1  0.24870000  0.29705000  0.65005000  1.0
  H  H13  1  0.75131000  0.70296000  0.34995000  1.0
  H  H14  1  0.84656000  0.40274000  0.07575000  1.0
  H  H15  1  0.15344000  0.59726000  0.92425000  1.0
  H  H16  1  0.69292000  0.51077000  0.21887000  1.0
  H  H17  1  0.30708000  0.48923000  0.78113000  1.0
  H  H18  1  0.58726000  0.83439000  0.06786000  1.0
  H  H19  1  0.41274000  0.16561000  0.93214000  1.0
  H  H20  1  0.72967000  0.73817000  0.91629000  1.0
  H  H21  1  0.27032000  0.26183000  0.08371000  1.0
  H  H22  1  0.63881000  0.50663000  0.40757000  1.0
  H  H23  1  0.36119000  0.49337000  0.59243000  1.0
  H  H24  1  0.46724000  0.67799000  0.50624000  1.0
  H  H25  1  0.53276000  0.32201000  0.49377000  1.0
  H  H26  1  0.74289000  0.62423000  0.66270000  1.0
  H  H27  1  0.25712000  0.37577000  0.33731000  1.0
  H  H28  1  0.92483000  0.44879000  0.57298000  1.0
  H  H29  1  0.07517000  0.55120000  0.42703000  1.0
  H  H30  1  0.27553000  0.07831000  0.24388000  1.0
  H  H31  1  0.72445000  0.92171000  0.75612000  1.0
  H  H32  1  0.33329000  0.96616000  0.10530000  1.0
  H  H33  1  0.66666667  0.03385000  0.89470000  1.0
  H  H34  1  0.93071000  0.14727000  0.07107000  1.0
  H  H35  1  0.06929000  0.85272000  0.92892000  1.0
  H  H36  1  0.85247000  0.26225000  0.21011000  1.0
  H  H37  1  0.14753000  0.73774000  0.78989000  1.0
  C  C38  1  0.13806000  0.14410000  0.85133000  1.0
  C  C39  1  0.86194000  0.85590000  0.14867000  1.0
  C  C40  1  0.23146000  0.03127000  0.82308000  1.0
  C  C41  1  0.76854000  0.96873000  0.17692000  1.0
  C  C42  1  0.33138000  0.10729000  0.67829000  1.0
  C  C43  1  0.66862000  0.89271000  0.32171000  1.0
  C  C44  1  0.24185000  0.22278000  0.70027000  1.0
  C  C45  1  0.75815000  0.77723000  0.29973000  1.0
  C  C46  1  0.14158000  0.24207000  0.78816000  1.0
  C  C47  1  0.85842000  0.75794000  0.21184000  1.0
  C  C48  1  0.04542000  0.36190000  0.81199000  1.0
  C  C49  1  0.95457000  0.63810000  0.18801000  1.0
  C  C50  1  0.89439000  0.50495000  0.89855000  1.0
  C  C51  1  0.10561000  0.49504000  0.10145000  1.0
  C  C52  1  0.80339000  0.56308000  0.98433000  1.0
  C  C53  1  0.19661000  0.43691000  0.01567000  1.0
  C  C54  1  0.79154000  0.49861000  0.07084000  1.0
  C  C55  1  0.20845000  0.50139000  0.92916000  1.0
  C  C56  1  0.70537000  0.55992000  0.15105000  1.0
  C  C57  1  0.29463000  0.44008000  0.84895000  1.0
  C  C58  1  0.64587000  0.73838000  0.06709000  1.0
  C  C59  1  0.35413000  0.26162000  0.93291000  1.0
  C  C60  1  0.72675000  0.68607000  0.98243000  1.0
  C  C61  1  0.27326000  0.31392000  0.01757000  1.0
  C  C62  1  0.66560000  0.52968000  0.46359000  1.0
  C  C63  1  0.33440000  0.47032000  0.53641000  1.0
  C  C64  1  0.57049000  0.62502000  0.51799000  1.0
  C  C65  1  0.42951000  0.37499000  0.48202000  1.0
  C  C66  1  0.72476000  0.59535000  0.60536000  1.0
  C  C67  1  0.27524000  0.40464000  0.39465000  1.0
  C  C68  1  0.82509000  0.49811000  0.55574000  1.0
  C  C69  1  0.17491000  0.50188000  0.44427000  1.0
  C  C70  1  0.79637000  0.46481000  0.48254000  1.0
  C  C71  1  0.20363000  0.53519000  0.51746000  1.0
  C  C72  1  0.90582000  0.36629000  0.42927000  1.0
  C  C73  1  0.09418000  0.63371000  0.57073000  1.0
  C  C74  1  0.02170000  0.24299000  0.32102000  1.0
  C  C75  1  0.97829000  0.75702000  0.67898000  1.0
  C  C76  1  0.05857000  0.18064000  0.23810000  1.0
  C  C77  1  0.94142000  0.81936000  0.76189000  1.0
  C  C78  1  0.19598000  0.09613000  0.20748000  1.0
  C  C79  1  0.80401000  0.90388000  0.79251000  1.0
  C  C80  1  0.22820000  0.03418000  0.12955000  1.0
  C  C81  1  0.77180000  0.96583000  0.87046000  1.0
  C  C82  1  0.00553000  0.13345000  0.11074000  1.0
  C  C83  1  0.99447000  0.86654000  0.88926000  1.0
  C  C84  1  0.96125000  0.20010000  0.18821000  1.0
  C  C85  1  0.03875000  0.79990000  0.81179000  1.0
  C  C86  1  0.47721000  0.66974000  0.83760000  1.0
  C  C87  1  0.52279000  0.33027000  0.16241000  1.0
  C  C88  1  0.48886000  0.58131000  0.92117000  1.0
  C  C89  1  0.51114000  0.41870000  0.07883000  1.0
  C  C90  1  0.42346000  0.53887000  0.08950000  1.0
  C  C91  1  0.57654000  0.46113000  0.91050000  1.0
  C  C92  1  0.41206000  0.61906000  0.01157000  1.0
  C  C93  1  0.58793000  0.38095000  0.98843000  1.0
  C  C94  1  0.25477000  0.91627000  0.56541000  1.0
  C  C95  1  0.74523000  0.08373000  0.43459000  1.0
  C  C96  1  0.12409000  0.96232000  0.52995000  1.0
  C  C97  1  0.87592000  0.03768000  0.47005000  1.0
  C  C98  1  0.99636000  0.04548000  0.57937000  1.0
  C  C99  1  0.00364000  0.95452000  0.42063000  1.0
  C  C100  1  0.87333000  0.08191000  0.55006000  1.0
  C  C101  1  0.12668000  0.91809000  0.44994000  1.0
  Br  Br102  1  0.29250000  0.78194000  0.02707000  1.0
  Br  Br103  1  0.70749000  0.21807000  0.97292000  1.0
  Br  Br104  1  0.32182000  0.59286000  0.21135000  1.0
  Br  Br105  1  0.67817000  0.40714000  0.78865000  1.0
  Br  Br106  1  0.99240000  0.11026000  0.68511000  1.0
  Br  Br107  1  0.00760000  0.88973000  0.31489000  1.0
  Br  Br108  1  0.69948000  0.19078000  0.62004000  1.0
  Br  Br109  1  0.30053000  0.80922000  0.37997000  1.0
  N  N110  1  0.32496000  0.01267000  0.73803000  1.0
  N  N111  1  0.67504000  0.98734000  0.26196000  1.0
  N  N112  1  0.02176000  0.45905000  0.75707000  1.0
  N  N113  1  0.97824000  0.54095000  0.24293000  1.0
  N  N114  1  0.92456000  0.55133000  0.81291000  1.0
  N  N115  1  0.07543000  0.44867000  0.18709000  1.0
  N  N116  1  0.63417000  0.67799000  0.15069000  1.0
  N  N117  1  0.36584000  0.32200000  0.84931000  1.0
  N  N118  1  0.59975000  0.65814000  0.58688000  1.0
  N  N119  1  0.40026000  0.34186000  0.41312000  1.0
  N  N120  1  0.02753000  0.30169000  0.44636000  1.0
  N  N121  1  0.97247000  0.69831000  0.55363000  1.0
  N  N122  1  0.10138000  0.22317000  0.37679000  1.0
  N  N123  1  0.89862000  0.77682000  0.62320000  1.0
  N  N124  1  0.13584000  0.05095000  0.08113000  1.0
  N  N125  1  0.86417000  0.94905000  0.91887000  1.0
  O  O126  1  0.96728000  0.38421000  0.90275000  1.0
  O  O127  1  0.03272000  0.61579000  0.09725000  1.0
  O  O128  1  0.89460000  0.33300000  0.35124000  1.0
  O  O129  1  0.10540000  0.66700000  0.64876000  1.0
  O  O130  1  0.37118000  0.69356000  0.80669000  1.0
  O  O131  1  0.62882000  0.30644000  0.19331000  1.0
  O  O132  1  0.57264000  0.71469000  0.80437000  1.0
  O  O133  1  0.42736000  0.28532000  0.19563000  1.0
  O  O134  1  0.25721000  0.83443000  0.62975000  1.0
  O  O135  1  0.74280000  0.16557000  0.37025000  1.0
  O  O136  1  0.35142000  0.95986000  0.53118000  1.0
  O  O137  1  0.64858000  0.04014000  0.46882000  1.0
  O  O138  1  0.62718000  0.90336000  0.62349000  1.0
  O  O139  1  0.37282000  0.09664000  0.37651000  1.0
