# generated using pymatgen
data_PH10Pb2C6NCl2O5
_symmetry_space_group_name_H-M   'P 1'
_cell_length_a   9.98270000
_cell_length_b   10.43690000
_cell_length_c   11.98510000
_cell_angle_alpha   90.00000000
_cell_angle_beta   98.05840000
_cell_angle_gamma   90.00000000
_symmetry_Int_Tables_number   1
_chemical_formula_structural   PH10Pb2C6NCl2O5
_chemical_formula_sum   'P4 H40 Pb8 C24 N4 Cl8 O20'
_cell_volume   1236.37876442
_cell_formula_units_Z   4
loop_
 _symmetry_equiv_pos_site_id
 _symmetry_equiv_pos_as_xyz
  1  'x, y, z'
loop_
 _atom_site_type_symbol
 _atom_site_label
 _atom_site_symmetry_multiplicity
 _atom_site_fract_x
 _atom_site_fract_y
 _atom_site_fract_z
 _atom_site_occupancy
  P  P0  1  0.74924000  0.62691000  0.38176000  1.0
  P  P1  1  0.24924000  0.87309000  0.38176000  1.0
  P  P2  1  0.25076000  0.37309000  0.61824000  1.0
  P  P3  1  0.75077000  0.12691000  0.61824000  1.0
  H  H4  1  0.84729000  0.48098000  0.18549000  1.0
  H  H5  1  0.34729000  0.01902000  0.18549000  1.0
  H  H6  1  0.15272000  0.51902000  0.81451000  1.0
  H  H7  1  0.65271000  0.98098000  0.81451000  1.0
  H  H8  1  0.60492000  0.54297000  0.02741000  1.0
  H  H9  1  0.10492000  0.95703000  0.02741000  1.0
  H  H10  1  0.39508000  0.45703000  0.97259000  1.0
  H  H11  1  0.89507000  0.04298000  0.97259000  1.0
  H  H12  1  0.78068000  0.55075000  0.00893000  1.0
  H  H13  1  0.28068000  0.94925000  0.00892000  1.0
  H  H14  1  0.21932000  0.44925000  0.99107000  1.0
  H  H15  1  0.71932000  0.05075000  0.99107000  1.0
  H  H16  1  0.64082000  0.33925000  0.92948000  1.0
  H  H17  1  0.14082000  0.16075000  0.92948000  1.0
  H  H18  1  0.35918000  0.66075000  0.07052000  1.0
  H  H19  1  0.85918000  0.83925000  0.07052000  1.0
  H  H20  1  0.80233000  0.32083000  0.00944000  1.0
  H  H21  1  0.30233000  0.17917000  0.00944000  1.0
  H  H22  1  0.19767000  0.67917000  0.99056000  1.0
  H  H23  1  0.69766000  0.82083000  0.99056000  1.0
  H  H24  1  0.67133000  0.19104000  0.12433000  1.0
  H  H25  1  0.17133000  0.30896000  0.12434000  1.0
  H  H26  1  0.32867000  0.80896000  0.87567000  1.0
  H  H27  1  0.82867000  0.69104000  0.87567000  1.0
  H  H28  1  0.52503000  0.28406000  0.08810000  1.0
  H  H29  1  0.02503000  0.21594000  0.08810000  1.0
  H  H30  1  0.47497000  0.71594000  0.91190000  1.0
  H  H31  1  0.97497000  0.78406000  0.91190000  1.0
  H  H32  1  0.58340000  0.40986000  0.24594000  1.0
  H  H33  1  0.08339000  0.09014000  0.24594000  1.0
  H  H34  1  0.41661000  0.59014000  0.75406000  1.0
  H  H35  1  0.91661000  0.90986000  0.75406000  1.0
  H  H36  1  0.60258000  0.63458000  0.20555000  1.0
  H  H37  1  0.10258000  0.86542000  0.20555000  1.0
  H  H38  1  0.39742000  0.36542000  0.79445000  1.0
  H  H39  1  0.89742000  0.13458000  0.79445000  1.0
  H  H40  1  0.76844000  0.69198000  0.19215000  1.0
  H  H41  1  0.26844000  0.80802000  0.19215000  1.0
  H  H42  1  0.23156000  0.30802000  0.80785000  1.0
  H  H43  1  0.73155000  0.19198000  0.80784000  1.0
  Pb  Pb44  1  0.99752000  0.82458000  0.52415000  1.0
  Pb  Pb45  1  0.49752000  0.67542000  0.52414000  1.0
  Pb  Pb46  1  0.00248000  0.17542000  0.47585000  1.0
  Pb  Pb47  1  0.50248000  0.32458000  0.47586000  1.0
  Pb  Pb48  1  0.12528000  0.52515000  0.35734000  1.0
  Pb  Pb49  1  0.62528000  0.97485000  0.35734000  1.0
  Pb  Pb50  1  0.87472000  0.47485000  0.64266000  1.0
  Pb  Pb51  1  0.37472000  0.02515000  0.64266000  1.0
  C  C52  1  0.70386000  0.49556000  0.04495000  1.0
  C  C53  1  0.20386000  0.00444000  0.04495000  1.0
  C  C54  1  0.29614000  0.50444000  0.95505000  1.0
  C  C55  1  0.79614000  0.99556000  0.95505000  1.0
  C  C56  1  0.69877000  0.35466000  0.01308000  1.0
  C  C57  1  0.19877000  0.14534000  0.01308000  1.0
  C  C58  1  0.30123000  0.64534000  0.98692000  1.0
  C  C59  1  0.80122000  0.85466000  0.98692000  1.0
  C  C60  1  0.63559000  0.28956000  0.10799000  1.0
  C  C61  1  0.13559000  0.21044000  0.10799000  1.0
  C  C62  1  0.36441000  0.71044000  0.89201000  1.0
  C  C63  1  0.86441000  0.78957000  0.89201000  1.0
  C  C64  1  0.67393000  0.37599000  0.21259000  1.0
  C  C65  1  0.17393000  0.12401000  0.21260000  1.0
  C  C66  1  0.32607000  0.62401000  0.78741000  1.0
  C  C67  1  0.82607000  0.87599000  0.78741000  1.0
  C  C68  1  0.71120000  0.61548000  0.22693000  1.0
  C  C69  1  0.21120000  0.88452000  0.22693000  1.0
  C  C70  1  0.28880000  0.38452000  0.77307000  1.0
  C  C71  1  0.78879000  0.11548000  0.77307000  1.0
  C  C72  1  0.76537000  0.30742000  0.30609000  1.0
  C  C73  1  0.26536000  0.19259000  0.30609000  1.0
  C  C74  1  0.23464000  0.69259000  0.69391000  1.0
  C  C75  1  0.73465000  0.80740000  0.69391000  1.0
  N  N76  1  0.74179000  0.49298000  0.17138000  1.0
  N  N77  1  0.24179000  0.00702000  0.17138000  1.0
  N  N78  1  0.25821000  0.50702000  0.82862000  1.0
  N  N79  1  0.75821000  0.99298000  0.82862000  1.0
  Cl  Cl80  1  0.38479000  0.53926000  0.29306000  1.0
  Cl  Cl81  1  0.88479000  0.96074000  0.29306000  1.0
  Cl  Cl82  1  0.61521000  0.46073000  0.70694000  1.0
  Cl  Cl83  1  0.11521000  0.03927000  0.70694000  1.0
  Cl  Cl84  1  0.02963000  0.58050000  0.13949000  1.0
  Cl  Cl85  1  0.52963000  0.91950000  0.13949000  1.0
  Cl  Cl86  1  0.97037000  0.41949000  0.86051000  1.0
  Cl  Cl87  1  0.47037000  0.08049000  0.86051000  1.0
  O  O88  1  0.90392000  0.63898000  0.41461000  1.0
  O  O89  1  0.40392000  0.86102000  0.41462000  1.0
  O  O90  1  0.09608000  0.36102000  0.58538000  1.0
  O  O91  1  0.59608000  0.13898000  0.58538000  1.0
  O  O92  1  0.67284000  0.75132000  0.40427000  1.0
  O  O93  1  0.17284000  0.74868000  0.40428000  1.0
  O  O94  1  0.32716000  0.24868000  0.59573000  1.0
  O  O95  1  0.82716000  0.25132000  0.59572000  1.0
  O  O96  1  0.69168000  0.51270000  0.43953000  1.0
  O  O97  1  0.19167000  0.98730000  0.43953000  1.0
  O  O98  1  0.30833000  0.48731000  0.56047000  1.0
  O  O99  1  0.80833000  0.01269000  0.56047000  1.0
  O  O100  1  0.89164000  0.33127000  0.31982000  1.0
  O  O101  1  0.39165000  0.16874000  0.31983000  1.0
  O  O102  1  0.10835000  0.66873000  0.68018000  1.0
  O  O103  1  0.60835000  0.83127000  0.68018000  1.0
  O  O104  1  0.70728000  0.22564000  0.36086000  1.0
  O  O105  1  0.20727000  0.27436000  0.36086000  1.0
  O  O106  1  0.29272000  0.77436000  0.63914000  1.0
  O  O107  1  0.79272000  0.72564000  0.63914000  1.0
