# generated using pymatgen
data_KH8AuC10(NCl2)2
_symmetry_space_group_name_H-M   'P 1'
_cell_length_a   7.94517000
_cell_length_b   10.57483301
_cell_length_c   10.57483301
_cell_angle_alpha   74.10339412
_cell_angle_beta   67.95461215
_cell_angle_gamma   67.95461215
_symmetry_Int_Tables_number   1
_chemical_formula_structural   KH8AuC10(NCl2)2
_chemical_formula_sum   'K2 H16 Au2 C20 N4 Cl8'
_cell_volume   754.10944757
_cell_formula_units_Z   2
loop_
 _symmetry_equiv_pos_site_id
 _symmetry_equiv_pos_as_xyz
  1  'x, y, z'
loop_
 _atom_site_type_symbol
 _atom_site_label
 _atom_site_symmetry_multiplicity
 _atom_site_fract_x
 _atom_site_fract_y
 _atom_site_fract_z
 _atom_site_occupancy
  K  K0  1  0.75000000  0.25000000  0.25000000  1.0
  K  K1  1  0.25000000  0.75000000  0.75000000  1.0
  H  H2  1  0.50273000  0.95678000  0.80660000  1.0
  H  H3  1  0.26610000  0.19336000  0.04319000  1.0
  H  H4  1  0.00273000  0.30660000  0.45678000  1.0
  H  H5  1  0.23390000  0.45681000  0.30664000  1.0
  H  H6  1  0.49727000  0.04322000  0.19340000  1.0
  H  H7  1  0.73389000  0.80664000  0.95682000  1.0
  H  H8  1  0.99727000  0.69340000  0.54322000  1.0
  H  H9  1  0.76610000  0.54319000  0.69336000  1.0
  H  H10  1  0.50582000  0.14319000  0.60478000  1.0
  H  H11  1  0.25370000  0.39521000  0.85674000  1.0
  H  H12  1  0.00582000  0.10478000  0.64319000  1.0
  H  H13  1  0.24630000  0.64326000  0.10479000  1.0
  H  H14  1  0.49418000  0.85681000  0.39522000  1.0
  H  H15  1  0.74630000  0.60479000  0.14326000  1.0
  H  H16  1  0.99418000  0.89522000  0.35681000  1.0
  H  H17  1  0.75370000  0.35674000  0.89521000  1.0
  Au  Au18  1  0.00000000  0.00000000  0.00000000  1.0
  Au  Au19  1  0.50000000  0.50000000  0.50000000  1.0
  C  C20  1  0.75000000  0.80808000  0.69192000  1.0
  C  C21  1  0.25000000  0.30813000  0.19187000  1.0
  C  C22  1  0.25000000  0.19192000  0.30808000  1.0
  C  C23  1  0.74999000  0.69188000  0.80813000  1.0
  C  C24  1  0.61277000  0.93788000  0.70808000  1.0
  C  C25  1  0.25866000  0.29192000  0.06208000  1.0
  C  C26  1  0.11278000  0.20808000  0.43787000  1.0
  C  C27  1  0.24134000  0.43792000  0.20808000  1.0
  C  C28  1  0.38722000  0.06213000  0.29192000  1.0
  C  C29  1  0.74134000  0.70808000  0.93792000  1.0
  C  C30  1  0.88722000  0.79192000  0.56213000  1.0
  C  C31  1  0.75867000  0.56208000  0.79192000  1.0
  C  C32  1  0.61595000  0.04318000  0.59494000  1.0
  C  C33  1  0.25392000  0.40507000  0.95681000  1.0
  C  C34  1  0.11595000  0.09494000  0.54318000  1.0
  C  C35  1  0.24608000  0.54319000  0.09493000  1.0
  C  C36  1  0.38405000  0.95682000  0.40506000  1.0
  C  C37  1  0.74608000  0.59493000  0.04319000  1.0
  C  C38  1  0.88405000  0.90506000  0.45682000  1.0
  C  C39  1  0.75392000  0.45681000  0.90507000  1.0
  N  N40  1  0.75000000  0.02914000  0.47086000  1.0
  N  N41  1  0.25000000  0.52915000  0.97085000  1.0
  N  N42  1  0.25000000  0.97086000  0.52914000  1.0
  N  N43  1  0.75000000  0.47085000  0.02915000  1.0
  Cl  Cl44  1  0.13842000  0.15897000  0.84097000  1.0
  Cl  Cl45  1  0.63843000  0.34096000  0.65897000  1.0
  Cl  Cl46  1  0.36158000  0.65903000  0.34103000  1.0
  Cl  Cl47  1  0.86158000  0.84103000  0.15903000  1.0
  Cl  Cl48  1  0.74454000  0.08554000  0.91443000  1.0
  Cl  Cl49  1  0.24454000  0.41443000  0.58554000  1.0
  Cl  Cl50  1  0.75546000  0.58557000  0.41446000  1.0
  Cl  Cl51  1  0.25546000  0.91446000  0.08557000  1.0
