# generated using pymatgen
data_BaH14C10O13
_symmetry_space_group_name_H-M   'P 1'
_cell_length_a   6.59594000
_cell_length_b   6.66233000
_cell_length_c   19.15510000
_cell_angle_alpha   90.00000000
_cell_angle_beta   90.00010000
_cell_angle_gamma   116.15500000
_symmetry_Int_Tables_number   1
_chemical_formula_structural   BaH14C10O13
_chemical_formula_sum   'Ba2 H28 C20 O26'
_cell_volume   755.56607771
_cell_formula_units_Z   2
loop_
 _symmetry_equiv_pos_site_id
 _symmetry_equiv_pos_as_xyz
  1  'x, y, z'
loop_
 _atom_site_type_symbol
 _atom_site_label
 _atom_site_symmetry_multiplicity
 _atom_site_fract_x
 _atom_site_fract_y
 _atom_site_fract_z
 _atom_site_occupancy
  Ba  Ba0  1  0.60432000  0.41759000  0.75000000  1.0
  Ba  Ba1  1  0.39568000  0.58241000  0.25000000  1.0
  H  H2  1  0.11758000  0.57716000  0.62246000  1.0
  H  H3  1  0.11757000  0.57716000  0.87754000  1.0
  H  H4  1  0.88242000  0.42284000  0.37754000  1.0
  H  H5  1  0.88242000  0.42284000  0.12246000  1.0
  H  H6  1  0.74180000  0.88356000  0.50494000  1.0
  H  H7  1  0.74180000  0.88356000  0.99506000  1.0
  H  H8  1  0.25820000  0.11645000  0.49506000  1.0
  H  H9  1  0.25820000  0.11644000  0.00494000  1.0
  H  H10  1  0.67447000  0.03057000  0.62713000  1.0
  H  H11  1  0.67447000  0.03057000  0.87287000  1.0
  H  H12  1  0.32553000  0.96943000  0.37287000  1.0
  H  H13  1  0.32553000  0.96943000  0.12713000  1.0
  H  H14  1  0.47084000  0.08607000  0.61406000  1.0
  H  H15  1  0.47084000  0.08606000  0.88594000  1.0
  H  H16  1  0.52916000  0.91393000  0.38594000  1.0
  H  H17  1  0.52916000  0.91394000  0.11406000  1.0
  H  H18  1  0.15022000  0.53858000  0.75000000  1.0
  H  H19  1  0.84978000  0.46142000  0.25000000  1.0
  H  H20  1  0.03830000  0.27596000  0.75000000  1.0
  H  H21  1  0.96170000  0.72404000  0.25000000  1.0
  H  H22  1  0.45428000  0.84065000  0.70921000  1.0
  H  H23  1  0.45428000  0.84065000  0.79079000  1.0
  H  H24  1  0.54572000  0.15935000  0.29079000  1.0
  H  H25  1  0.54572000  0.15935000  0.20921000  1.0
  H  H26  1  0.06832000  0.97974000  0.70983000  1.0
  H  H27  1  0.06832000  0.97974000  0.79017000  1.0
  H  H28  1  0.93168000  0.02027000  0.29017000  1.0
  H  H29  1  0.93168000  0.02026000  0.20983000  1.0
  C  C30  1  0.92626000  0.63352000  0.54129000  1.0
  C  C31  1  0.92626000  0.63352000  0.95871000  1.0
  C  C32  1  0.07374000  0.36648000  0.45871000  1.0
  C  C33  1  0.07374000  0.36648000  0.04129000  1.0
  C  C34  1  0.85659000  0.58667000  0.47064000  1.0
  C  C35  1  0.85658000  0.58667000  0.02936000  1.0
  C  C36  1  0.14342000  0.41333000  0.52936000  1.0
  C  C37  1  0.14341000  0.41332000  0.97064000  1.0
  C  C38  1  0.06671000  0.54445000  0.56804000  1.0
  C  C39  1  0.06670000  0.54445000  0.93196000  1.0
  C  C40  1  0.93329000  0.45555000  0.43196000  1.0
  C  C41  1  0.93329000  0.45555000  0.06804000  1.0
  C  C42  1  0.87261000  0.77601000  0.59286000  1.0
  C  C43  1  0.87261000  0.77601000  0.90714000  1.0
  C  C44  1  0.12739000  0.22399000  0.40714000  1.0
  C  C45  1  0.12739000  0.22398000  0.09286000  1.0
  C  C46  1  0.70520000  0.65990000  0.42953000  1.0
  C  C47  1  0.70519000  0.65990000  0.07047000  1.0
  C  C48  1  0.29480000  0.34010000  0.57047000  1.0
  C  C49  1  0.29480000  0.34010000  0.92953000  1.0
  O  O50  1  0.90266000  0.75509000  0.65674000  1.0
  O  O51  1  0.90266000  0.75509000  0.84326000  1.0
  O  O52  1  0.09734000  0.24491000  0.34326000  1.0
  O  O53  1  0.09734000  0.24491000  0.15674000  1.0
  O  O54  1  0.80795000  0.92061000  0.56996000  1.0
  O  O55  1  0.80795000  0.92061000  0.93004000  1.0
  O  O56  1  0.19205000  0.07939000  0.43004000  1.0
  O  O57  1  0.19205000  0.07939000  0.06996000  1.0
  O  O58  1  0.67023000  0.82902000  0.45213000  1.0
  O  O59  1  0.67023000  0.82902000  0.04787000  1.0
  O  O60  1  0.32977000  0.17098000  0.54787000  1.0
  O  O61  1  0.32977000  0.17098000  0.95213000  1.0
  O  O62  1  0.61850000  0.56391000  0.37428000  1.0
  O  O63  1  0.61850000  0.56391000  0.12572000  1.0
  O  O64  1  0.38150000  0.43609000  0.62572000  1.0
  O  O65  1  0.38150000  0.43609000  0.87428000  1.0
  O  O66  1  0.56301000  0.06773000  0.65188000  1.0
  O  O67  1  0.56301000  0.06773000  0.84812000  1.0
  O  O68  1  0.43699000  0.93227000  0.34812000  1.0
  O  O69  1  0.43700000  0.93227000  0.15188000  1.0
  O  O70  1  0.00067000  0.40467000  0.75000000  1.0
  O  O71  1  0.99933000  0.59533000  0.25000000  1.0
  O  O72  1  0.42339000  0.73874000  0.75000000  1.0
  O  O73  1  0.57661000  0.26126000  0.25000000  1.0
  O  O74  1  0.14399000  0.07887000  0.75000000  1.0
  O  O75  1  0.85601000  0.92113000  0.25000000  1.0
