# generated using pymatgen
data_CaH6C10(NO)4
_symmetry_space_group_name_H-M   'P 1'
_cell_length_a   6.56661000
_cell_length_b   6.56661000
_cell_length_c   13.71430000
_cell_angle_alpha   103.77600000
_cell_angle_beta   103.77700000
_cell_angle_gamma   90.08270000
_symmetry_Int_Tables_number   1
_chemical_formula_structural   CaH6C10(NO)4
_chemical_formula_sum   'Ca2 H12 C20 N8 O8'
_cell_volume   556.76927724
_cell_formula_units_Z   2
loop_
 _symmetry_equiv_pos_site_id
 _symmetry_equiv_pos_as_xyz
  1  'x, y, z'
loop_
 _atom_site_type_symbol
 _atom_site_label
 _atom_site_symmetry_multiplicity
 _atom_site_fract_x
 _atom_site_fract_y
 _atom_site_fract_z
 _atom_site_occupancy
  Ca  Ca0  1  0.87548000  0.12452000  0.25000000  1.0
  Ca  Ca1  1  0.12452000  0.87548000  0.75000000  1.0
  H  H2  1  0.18210000  0.26078000  0.52109000  1.0
  H  H3  1  0.81790000  0.73922000  0.47891000  1.0
  H  H4  1  0.83932000  0.26035000  0.52103000  1.0
  H  H5  1  0.16068000  0.73966000  0.47897000  1.0
  H  H6  1  0.73966000  0.16068000  0.97897000  1.0
  H  H7  1  0.26079000  0.18211000  0.02110000  1.0
  H  H8  1  0.26034000  0.83932000  0.02102000  1.0
  H  H9  1  0.73922000  0.81790000  0.97891000  1.0
  H  H10  1  0.56106000  0.31114000  0.62202000  1.0
  H  H11  1  0.43895000  0.68887000  0.37798000  1.0
  H  H12  1  0.68887000  0.43895000  0.87798000  1.0
  H  H13  1  0.31113000  0.56106000  0.12202000  1.0
  C  C14  1  0.35664000  0.10561000  0.21205000  1.0
  C  C15  1  0.64335000  0.89438000  0.78795000  1.0
  C  C16  1  0.89438000  0.64335000  0.28795000  1.0
  C  C17  1  0.10561000  0.35664000  0.71205000  1.0
  C  C18  1  0.41566000  0.16490000  0.33047000  1.0
  C  C19  1  0.58433000  0.83511000  0.66953000  1.0
  C  C20  1  0.83511000  0.58433000  0.16953000  1.0
  C  C21  1  0.16490000  0.41566000  0.83047000  1.0
  C  C22  1  0.30978000  0.24095000  0.48188000  1.0
  C  C23  1  0.69022000  0.75906000  0.51812000  1.0
  C  C24  1  0.67260000  0.24066000  0.48180000  1.0
  C  C25  1  0.32741000  0.75934000  0.51820000  1.0
  C  C26  1  0.75934000  0.32741000  0.01820000  1.0
  C  C27  1  0.24095000  0.30979000  0.98188000  1.0
  C  C28  1  0.24065000  0.67260000  0.98179000  1.0
  C  C29  1  0.75905000  0.69022000  0.01812000  1.0
  C  C30  1  0.51907000  0.26881000  0.53772000  1.0
  C  C31  1  0.48093000  0.73120000  0.46227000  1.0
  C  C32  1  0.73120000  0.48093000  0.96228000  1.0
  C  C33  1  0.26881000  0.51908000  0.03772000  1.0
  N  N34  1  0.25731000  0.18866000  0.37780000  1.0
  N  N35  1  0.74268000  0.81134000  0.62221000  1.0
  N  N36  1  0.62118000  0.18846000  0.37771000  1.0
  N  N37  1  0.37882000  0.81154000  0.62228000  1.0
  N  N38  1  0.81154000  0.37882000  0.12229000  1.0
  N  N39  1  0.18866000  0.25732000  0.87780000  1.0
  N  N40  1  0.18846000  0.62118000  0.87771000  1.0
  N  N41  1  0.81134000  0.74268000  0.12221000  1.0
  O  O42  1  0.16261000  0.08376000  0.16758000  1.0
  O  O43  1  0.83738000  0.91623000  0.83242000  1.0
  O  O44  1  0.50626000  0.08293000  0.16754000  1.0
  O  O45  1  0.49373000  0.91708000  0.83246000  1.0
  O  O46  1  0.91707000  0.49372000  0.33246000  1.0
  O  O47  1  0.08375000  0.16262000  0.66758000  1.0
  O  O48  1  0.08293000  0.50626000  0.66754000  1.0
  O  O49  1  0.91623000  0.83737000  0.33242000  1.0
