# generated using pymatgen
data_Cu4H24C37N8
_symmetry_space_group_name_H-M   'P 1'
_cell_length_a   24.17890000
_cell_length_b   24.71390000
_cell_length_c   26.41250000
_cell_angle_alpha   89.71380000
_cell_angle_beta   90.34500000
_cell_angle_gamma   89.55410000
_symmetry_Int_Tables_number   1
_chemical_formula_structural   Cu4H24C37N8
_chemical_formula_sum   'Cu12 H72 C111 N24'
_cell_volume   15781.95454962
_cell_formula_units_Z   3
loop_
 _symmetry_equiv_pos_site_id
 _symmetry_equiv_pos_as_xyz
  1  'x, y, z'
loop_
 _atom_site_type_symbol
 _atom_site_label
 _atom_site_symmetry_multiplicity
 _atom_site_fract_x
 _atom_site_fract_y
 _atom_site_fract_z
 _atom_site_occupancy
  Cu  Cu0  1  0.76545000  0.85942000  0.75965000  1.0
  Cu  Cu1  1  0.75516000  0.75780000  0.83183000  1.0
  Cu  Cu2  1  0.86142000  0.77128000  0.76181000  1.0
  Cu  Cu3  1  0.23990000  0.15079000  0.75859000  1.0
  Cu  Cu4  1  0.24745000  0.24691000  0.83766000  1.0
  Cu  Cu5  1  0.14131000  0.23337000  0.76688000  1.0
  Cu  Cu6  1  0.74879000  0.15664000  0.24183000  1.0
  Cu  Cu7  1  0.76404000  0.22890000  0.14464000  1.0
  Cu  Cu8  1  0.84150000  0.24745000  0.23991000  1.0
  Cu  Cu9  1  0.24517000  0.84305000  0.24806000  1.0
  Cu  Cu10  1  0.25565000  0.74201000  0.17451000  1.0
  Cu  Cu11  1  0.14624000  0.76294000  0.24033000  1.0
  H  H12  1  0.67189000  0.93498000  0.80553000  1.0
  H  H13  1  0.64787000  0.78901000  0.89382000  1.0
  H  H14  1  0.93729000  0.81479000  0.67250000  1.0
  H  H15  1  0.80471000  0.93376000  0.66923000  1.0
  H  H16  1  0.79103000  0.65709000  0.89792000  1.0
  H  H17  1  0.94081000  0.68338000  0.81236000  1.0
  H  H18  1  0.32734000  0.06939000  0.80596000  1.0
  H  H19  1  0.34465000  0.20427000  0.90868000  1.0
  H  H20  1  0.06194000  0.19029000  0.67951000  1.0
  H  H21  1  0.20500000  0.08601000  0.65966000  1.0
  H  H22  1  0.21382000  0.35317000  0.89798000  1.0
  H  H23  1  0.06079000  0.31747000  0.81942000  1.0
  H  H24  1  0.64076000  0.09005000  0.21063000  1.0
  H  H25  1  0.67893000  0.17180000  0.07010000  1.0
  H  H26  1  0.91757000  0.20826000  0.33103000  1.0
  H  H27  1  0.79414000  0.08211000  0.33001000  1.0
  H  H28  1  0.81485000  0.31319000  0.06788000  1.0
  H  H29  1  0.90642000  0.35269000  0.20403000  1.0
  H  H30  1  0.33461000  0.91925000  0.20091000  1.0
  H  H31  1  0.35910000  0.77730000  0.10837000  1.0
  H  H32  1  0.06341000  0.81436000  0.32118000  1.0
  H  H33  1  0.20455000  0.92020000  0.33654000  1.0
  H  H34  1  0.21814000  0.63995000  0.11096000  1.0
  H  H35  1  0.06580000  0.68032000  0.18784000  1.0
  H  H36  1  0.62373000  0.98211000  0.87005000  1.0
  H  H37  1  0.56165000  0.82899000  0.92281000  1.0
  H  H38  1  0.50127000  0.87634000  0.98250000  1.0
  H  H39  1  0.56146000  0.02910000  0.92830000  1.0
  H  H40  1  0.43521000  0.15847000  0.93340000  1.0
  H  H41  1  0.35595000  0.01403000  0.87954000  1.0
  H  H42  1  0.41657000  0.95896000  0.93469000  1.0
  H  H43  1  0.49361000  0.10335000  0.99043000  1.0
  H  H44  1  0.52738000  0.11516000  0.13094000  1.0
  H  H45  1  0.67076000  0.04206000  0.06337000  1.0
  H  H46  1  0.61095000  0.98757000  0.00816000  1.0
  H  H47  1  0.46713000  0.05995000  0.07600000  1.0
  H  H48  1  0.47588000  0.85053000  0.12194000  1.0
  H  H49  1  0.33057000  0.94487000  0.08617000  1.0
  H  H50  1  0.38381000  0.99851000  0.02480000  1.0
  H  H51  1  0.53009000  0.90638000  0.06270000  1.0
  H  H52  1  0.84956000  0.97993000  0.60516000  1.0
  H  H53  1  0.98075000  0.86065000  0.60711000  1.0
  H  H54  1  0.02817000  0.91062000  0.54028000  1.0
  H  H55  1  0.89733000  0.02953000  0.53837000  1.0
  H  H56  1  0.14997000  0.97842000  0.38622000  1.0
  H  H57  1  0.02309000  0.85684000  0.39067000  1.0
  H  H58  1  0.97362000  0.90933000  0.45454000  1.0
  H  H59  1  0.10028000  0.03049000  0.45035000  1.0
  H  H60  1  0.02242000  0.15354000  0.60696000  1.0
  H  H61  1  0.15438000  0.03536000  0.60133000  1.0
  H  H62  1  0.10457000  0.98675000  0.53500000  1.0
  H  H63  1  0.97268000  0.10433000  0.54099000  1.0
  H  H64  1  0.96822000  0.15960000  0.39116000  1.0
  H  H65  1  0.84449000  0.03478000  0.39044000  1.0
  H  H66  1  0.89841000  0.98362000  0.45323000  1.0
  H  H67  1  0.02161000  0.10817000  0.45423000  1.0
  H  H68  1  0.97633000  0.60091000  0.84951000  1.0
  H  H69  1  0.84746000  0.61372000  0.96094000  1.0
  H  H70  1  0.89830000  0.55076000  0.01594000  1.0
  H  H71  1  0.02701000  0.53823000  0.90471000  1.0
  H  H72  1  0.84296000  0.39827000  0.03416000  1.0
  H  H73  1  0.97088000  0.39919000  0.14845000  1.0
  H  H74  1  0.02293000  0.46439000  0.09826000  1.0
  H  H75  1  0.89675000  0.46110000  0.98278000  1.0
  H  H76  1  0.15955000  0.54197000  0.10187000  1.0
  H  H77  1  0.02825000  0.66046000  0.09690000  1.0
  H  H78  1  0.97611000  0.60328000  0.03874000  1.0
  H  H79  1  0.10650000  0.48385000  0.04455000  1.0
  H  H80  1  0.15996000  0.45220000  0.90639000  1.0
  H  H81  1  0.02199000  0.34318000  0.90667000  1.0
  H  H82  1  0.97159000  0.40405000  0.96266000  1.0
  H  H83  1  0.10874000  0.51403000  0.96185000  1.0
  C  C84  1  0.67274000  0.89501000  0.82268000  1.0
  C  C85  1  0.64031000  0.87363000  0.86185000  1.0
  C  C86  1  0.66005000  0.82028000  0.86724000  1.0
  C  C87  1  0.90059000  0.83954000  0.67804000  1.0
  C  C88  1  0.88309000  0.88680000  0.65253000  1.0
  C  C89  1  0.83303000  0.90025000  0.67636000  1.0
  C  C90  1  0.82334000  0.67002000  0.87231000  1.0
  C  C91  1  0.87844000  0.65213000  0.86852000  1.0
  C  C92  1  0.89954000  0.68301000  0.82829000  1.0
  C  C93  1  0.32525000  0.10736000  0.82635000  1.0
  C  C94  1  0.35323000  0.12320000  0.87054000  1.0
  C  C95  1  0.33485000  0.17656000  0.87824000  1.0
  C  C96  1  0.10134000  0.16902000  0.68103000  1.0
  C  C97  1  0.12126000  0.12645000  0.65088000  1.0
  C  C98  1  0.17415000  0.11559000  0.67107000  1.0
  C  C99  1  0.18113000  0.33828000  0.87350000  1.0
  C  C100  1  0.12512000  0.35344000  0.87117000  1.0
  C  C101  1  0.10276000  0.31924000  0.83414000  1.0
  C  C102  1  0.65651000  0.11571000  0.18065000  1.0
  C  C103  1  0.64181000  0.11766000  0.12931000  1.0
  C  C104  1  0.67671000  0.15701000  0.10879000  1.0
  C  C105  1  0.88243000  0.18199000  0.32491000  1.0
  C  C106  1  0.86959000  0.13221000  0.34782000  1.0
  C  C107  1  0.81946000  0.11769000  0.32449000  1.0
  C  C108  1  0.83231000  0.31660000  0.10566000  1.0
  C  C109  1  0.87297000  0.35188000  0.12401000  1.0
  C  C110  1  0.87962000  0.33627000  0.17493000  1.0
  C  C111  1  0.33402000  0.87966000  0.18334000  1.0
  C  C112  1  0.36406000  0.86075000  0.14175000  1.0
  C  C113  1  0.34730000  0.80687000  0.13665000  1.0
  C  C114  1  0.10260000  0.83536000  0.31917000  1.0
  C  C115  1  0.12090000  0.88120000  0.34560000  1.0
  C  C116  1  0.17445000  0.88956000  0.32678000  1.0
  C  C117  1  0.18577000  0.65564000  0.13525000  1.0
  C  C118  1  0.12933000  0.64286000  0.13635000  1.0
  C  C119  1  0.10779000  0.67714000  0.17374000  1.0
  C  C120  1  0.00165000  0.50264000  0.00131000  1.0
  C  C121  1  0.49536000  0.98955000  0.00092000  1.0
  C  C122  1  0.99976000  0.00792000  0.49573000  1.0
  C  C123  1  0.59681000  0.95836000  0.89441000  1.0
  C  C124  1  0.59932000  0.90144000  0.89296000  1.0
  C  C125  1  0.56289000  0.87306000  0.92438000  1.0
  C  C126  1  0.52842000  0.90003000  0.95839000  1.0
  C  C127  1  0.52884000  0.95640000  0.96221000  1.0
  C  C128  1  0.56203000  0.98497000  0.92780000  1.0
  C  C129  1  0.42994000  0.11467000  0.93420000  1.0
  C  C130  1  0.39038000  0.09078000  0.90254000  1.0
  C  C131  1  0.38651000  0.03394000  0.90344000  1.0
  C  C132  1  0.42018000  0.00294000  0.93507000  1.0
  C  C133  1  0.45853000  0.02703000  0.96802000  1.0
  C  C134  1  0.46328000  0.08333000  0.96644000  1.0
  C  C135  1  0.54581000  0.08714000  0.10396000  1.0
  C  C136  1  0.60362000  0.08354000  0.10015000  1.0
  C  C137  1  0.62594000  0.04661000  0.06564000  1.0
  C  C138  1  0.59196000  0.01587000  0.03439000  1.0
  C  C139  1  0.53442000  0.02153000  0.03604000  1.0
  C  C140  1  0.51197000  0.05640000  0.07257000  1.0
  C  C141  1  0.45537000  0.88260000  0.10020000  1.0
  C  C142  1  0.39880000  0.89294000  0.10760000  1.0
  C  C143  1  0.37433000  0.93588000  0.08053000  1.0
  C  C144  1  0.40449000  0.96598000  0.04568000  1.0
  C  C145  1  0.46048000  0.95483000  0.03709000  1.0
  C  C146  1  0.48573000  0.91373000  0.06627000  1.0
  C  C147  1  0.88860000  0.96383000  0.59098000  1.0
  C  C148  1  0.91087000  0.91581000  0.61166000  1.0
  C  C149  1  0.96159000  0.89747000  0.59206000  1.0
  C  C150  1  0.98851000  0.92573000  0.55391000  1.0
  C  C151  1  0.96600000  0.97342000  0.53310000  1.0
  C  C152  1  0.91565000  0.99203000  0.55281000  1.0
  C  C153  1  0.11159000  0.96231000  0.40142000  1.0
  C  C154  1  0.09125000  0.91271000  0.38361000  1.0
  C  C155  1  0.04079000  0.89481000  0.40364000  1.0
  C  C156  1  0.01278000  0.92448000  0.44016000  1.0
  C  C157  1  0.03387000  0.97321000  0.45885000  1.0
  C  C158  1  0.08341000  0.99192000  0.43798000  1.0
  C  C159  1  0.04121000  0.11711000  0.59125000  1.0
  C  C160  1  0.09274000  0.09868000  0.60968000  1.0
  C  C161  1  0.11479000  0.05148000  0.58792000  1.0
  C  C162  1  0.08654000  0.02385000  0.55007000  1.0
  C  C163  1  0.03514000  0.04224000  0.53186000  1.0
  C  C164  1  0.01305000  0.08934000  0.55352000  1.0
  C  C165  1  0.95199000  0.12121000  0.40483000  1.0
  C  C166  1  0.90140000  0.10194000  0.38589000  1.0
  C  C167  1  0.88315000  0.05174000  0.40441000  1.0
  C  C168  1  0.91366000  0.02268000  0.44028000  1.0
  C  C169  1  0.96352000  0.04254000  0.45986000  1.0
  C  C170  1  0.98235000  0.09208000  0.44079000  1.0
  C  C171  1  0.95881000  0.59045000  0.88620000  1.0
  C  C172  1  0.90772000  0.61280000  0.90057000  1.0
  C  C173  1  0.88675000  0.59706000  0.94790000  1.0
  C  C174  1  0.91585000  0.56135000  0.97933000  1.0
  C  C175  1  0.96716000  0.53928000  0.96514000  1.0
  C  C176  1  0.98766000  0.55462000  0.91769000  1.0
  C  C177  1  0.88289000  0.41200000  0.04840000  1.0
  C  C178  1  0.90287000  0.39288000  0.09531000  1.0
  C  C179  1  0.95368000  0.41326000  0.11240000  1.0
  C  C180  1  0.98356000  0.45002000  0.08354000  1.0
  C  C181  1  0.96464000  0.46772000  0.03595000  1.0
  C  C182  1  0.91328000  0.44815000  0.01936000  1.0
  C  C183  1  0.11937000  0.55594000  0.08774000  1.0
  C  C184  1  0.09833000  0.60614000  0.10359000  1.0
  C  C185  1  0.04568000  0.62152000  0.08565000  1.0
  C  C186  1  0.01625000  0.58903000  0.05235000  1.0
  C  C187  1  0.03736000  0.53927000  0.03564000  1.0
  C  C188  1  0.08921000  0.52307000  0.05494000  1.0
  C  C189  1  0.11869000  0.44108000  0.91913000  1.0
  C  C190  1  0.09530000  0.39238000  0.90260000  1.0
  C  C191  1  0.04134000  0.38082000  0.91853000  1.0
  C  C192  1  0.01289000  0.41540000  0.95066000  1.0
  C  C193  1  0.03634000  0.46358000  0.96823000  1.0
  C  C194  1  0.08954000  0.47608000  0.95082000  1.0
  N  N195  1  0.70117000  0.81087000  0.83406000  1.0
  N  N196  1  0.70889000  0.85728000  0.80621000  1.0
  N  N197  1  0.82190000  0.86394000  0.71313000  1.0
  N  N198  1  0.86388000  0.82616000  0.71418000  1.0
  N  N199  1  0.86013000  0.71683000  0.80992000  1.0
  N  N200  1  0.81270000  0.70866000  0.83724000  1.0
  N  N201  1  0.29851000  0.19114000  0.84155000  1.0
  N  N202  1  0.29276000  0.14818000  0.80918000  1.0
  N  N203  1  0.18460000  0.14893000  0.71020000  1.0
  N  N204  1  0.13934000  0.18215000  0.71635000  1.0
  N  N205  1  0.14249000  0.28621000  0.81593000  1.0
  N  N206  1  0.19117000  0.29770000  0.84064000  1.0
  N  N207  1  0.70983000  0.17705000  0.14531000  1.0
  N  N208  1  0.69763000  0.15120000  0.18993000  1.0
  N  N209  1  0.80391000  0.15583000  0.29046000  1.0
  N  N210  1  0.84310000  0.19580000  0.29065000  1.0
  N  N211  1  0.84559000  0.29485000  0.18586000  1.0
  N  N212  1  0.81623000  0.28268000  0.14276000  1.0
  N  N213  1  0.30955000  0.79470000  0.17248000  1.0
  N  N214  1  0.30166000  0.83990000  0.20166000  1.0
  N  N215  1  0.18678000  0.85173000  0.29191000  1.0
  N  N216  1  0.14213000  0.81807000  0.28715000  1.0
  N  N217  1  0.14834000  0.70804000  0.19326000  1.0
  N  N218  1  0.19682000  0.69498000  0.16915000  1.0
