# generated using pymatgen
data_AlH7(C4O3)3
_symmetry_space_group_name_H-M   'P 1'
_cell_length_a   6.61852000
_cell_length_b   10.98535778
_cell_length_c   11.00330000
_cell_angle_alpha   83.26755672
_cell_angle_beta   74.26940000
_cell_angle_gamma   74.89214865
_symmetry_Int_Tables_number   1
_chemical_formula_structural   AlH7(C4O3)3
_chemical_formula_sum   'Al2 H14 C24 O18'
_cell_volume   742.50243844
_cell_formula_units_Z   2
loop_
 _symmetry_equiv_pos_site_id
 _symmetry_equiv_pos_as_xyz
  1  'x, y, z'
loop_
 _atom_site_type_symbol
 _atom_site_label
 _atom_site_symmetry_multiplicity
 _atom_site_fract_x
 _atom_site_fract_y
 _atom_site_fract_z
 _atom_site_occupancy
  Al  Al0  1  0.99967000  0.52057000  0.47794000  1.0
  Al  Al1  1  0.49937000  0.51536000  0.48406000  1.0
  H  H2  1  0.34876000  0.45257000  0.33333333  1.0
  H  H3  1  0.65292000  0.66273000  0.55177000  1.0
  H  H4  1  0.50127000  0.35167000  0.77473000  1.0
  H  H5  1  0.20527000  0.33339000  0.23819000  1.0
  H  H6  1  0.48899000  0.21572000  0.65065000  1.0
  H  H7  1  0.81350000  0.75776000  0.68588000  1.0
  H  H8  1  0.54272000  0.59472000  0.17720000  1.0
  H  H9  1  0.76862000  0.54973000  0.75442000  1.0
  H  H10  1  0.76843000  0.17808000  0.81574000  1.0
  H  H11  1  0.49886000  0.16606000  0.24018000  1.0
  H  H12  1  0.45793000  0.82626000  0.40330000  1.0
  H  H13  1  0.21466000  0.25045000  0.43305000  1.0
  H  H14  1  0.21194000  0.17283000  0.82007000  1.0
  H  H15  1  0.51413000  0.74948000  0.84746000  1.0
  C  C16  1  0.84160000  0.28606000  0.50176000  1.0
  C  C17  1  0.85751000  0.51952000  0.25057000  1.0
  C  C18  1  0.14938000  0.74797000  0.48869000  1.0
  C  C19  1  0.14766000  0.49205000  0.71168000  1.0
  C  C20  1  0.07616000  0.48287000  0.85040000  1.0
  C  C21  1  0.22154000  0.42056000  0.92720000  1.0
  C  C22  1  0.85687000  0.53373000  0.90675000  1.0
  C  C23  1  0.43301000  0.34795000  0.87630000  1.0
  C  C24  1  0.55568000  0.26994000  0.95140000  1.0
  C  C25  1  0.92854000  0.49428000  0.11549000  1.0
  C  C26  1  0.78356000  0.54332000  0.04012000  1.0
  C  C27  1  0.14266000  0.42136000  0.06151000  1.0
  C  C28  1  0.27140000  0.34175000  0.13666000  1.0
  C  C29  1  0.47105000  0.26364000  0.08518000  1.0
  C  C30  1  0.91729000  0.14816000  0.51587000  1.0
  C  C31  1  0.77764000  0.06846000  0.58552000  1.0
  C  C32  1  0.13790000  0.09433000  0.46242000  1.0
  C  C33  1  0.56421000  0.11568000  0.65884000  1.0
  C  C34  1  0.44689000  0.03848000  0.74077000  1.0
  C  C35  1  0.07690000  0.88278000  0.51365000  1.0
  C  C36  1  0.21658000  0.96091000  0.45744000  1.0
  C  C37  1  0.86357000  0.93481000  0.58958000  1.0
  C  C38  1  0.74189000  0.85793000  0.67449000  1.0
  C  C39  1  0.53986000  0.90634000  0.75204000  1.0
  O  O40  1  0.98922000  0.34922000  0.47976000  1.0
  O  O41  1  0.65619000  0.52578000  0.30712000  1.0
  O  O42  1  0.35422000  0.69485000  0.46736000  1.0
  O  O43  1  0.00526000  0.49107000  0.65162000  1.0
  O  O44  1  0.00835000  0.68958000  0.48537000  1.0
  O  O45  1  0.33721000  0.50390000  0.65591000  1.0
  O  O46  1  0.64466000  0.34077000  0.50789000  1.0
  O  O47  1  0.99384000  0.53662000  0.30519000  1.0
  O  O48  1  0.29993000  0.46463000  0.42375000  1.0
  O  O49  1  0.69975000  0.57303000  0.53654000  1.0
  O  O50  1  0.57503000  0.60487000  0.08400000  1.0
  O  O51  1  0.70352000  0.58108000  0.84134000  1.0
  O  O52  1  0.75489000  0.19379000  0.90357000  1.0
  O  O53  1  0.58914000  0.17863000  0.15460000  1.0
  O  O54  1  0.42400000  0.91964000  0.39266000  1.0
  O  O55  1  0.28817000  0.16130000  0.40924000  1.0
  O  O56  1  0.24471000  0.08129000  0.81575000  1.0
  O  O57  1  0.42548000  0.83602000  0.83972000  1.0
