# generated using pymatgen
data_ZnH9C15S2(NO2)2
_symmetry_space_group_name_H-M   'P 1'
_cell_length_a   7.56954849
_cell_length_b   7.79560000
_cell_length_c   15.94110000
_cell_angle_alpha   85.84210000
_cell_angle_beta   84.24930051
_cell_angle_gamma   68.48149895
_symmetry_Int_Tables_number   1
_chemical_formula_structural   ZnH9C15S2(NO2)2
_chemical_formula_sum   'Zn2 H18 C30 S4 N4 O8'
_cell_volume   870.05168298
_cell_formula_units_Z   2
loop_
 _symmetry_equiv_pos_site_id
 _symmetry_equiv_pos_as_xyz
  1  'x, y, z'
loop_
 _atom_site_type_symbol
 _atom_site_label
 _atom_site_symmetry_multiplicity
 _atom_site_fract_x
 _atom_site_fract_y
 _atom_site_fract_z
 _atom_site_occupancy
  Zn  Zn0  1  0.75344000  0.03534000  0.69788000  1.0
  Zn  Zn1  1  0.24642000  0.96472000  0.30210000  1.0
  H  H2  1  0.33486000  0.35279000  0.99278000  1.0
  H  H3  1  0.66573000  0.64674000  0.00729000  1.0
  H  H4  1  0.02722000  0.31142000  0.99166000  1.0
  H  H5  1  0.97344000  0.68795000  0.00856000  1.0
  H  H6  1  0.11951000  0.19641000  0.73773000  1.0
  H  H7  1  0.88025000  0.80384000  0.26239000  1.0
  H  H8  1  0.42218000  0.25635000  0.72472000  1.0
  H  H9  1  0.57751000  0.74406000  0.27526000  1.0
  H  H10  1  0.10994000  0.81060000  0.69447000  1.0
  H  H11  1  0.88986000  0.18950000  0.30551000  1.0
  H  H12  1  0.44108000  0.58597000  0.70611000  1.0
  H  H13  1  0.55875000  0.41419000  0.29381000  1.0
  H  H14  1  0.41183000  0.66779000  0.96335000  1.0
  H  H15  1  0.58819000  0.33230000  0.03657000  1.0
  H  H16  1  0.08771000  0.90201000  0.96154000  1.0
  H  H17  1  0.91219000  0.09794000  0.03843000  1.0
  H  H18  1  0.07571000  0.16974000  0.47967000  1.0
  H  H19  1  0.92428000  0.83025000  0.52030000  1.0
  C  C20  1  0.40767000  0.30361000  0.85859000  1.0
  C  C21  1  0.59246000  0.69640000  0.14142000  1.0
  C  C22  1  0.29542000  0.31618000  0.93465000  1.0
  C  C23  1  0.70501000  0.68349000  0.06542000  1.0
  C  C24  1  0.12181000  0.29263000  0.93392000  1.0
  C  C25  1  0.87864000  0.70696000  0.06624000  1.0
  C  C26  1  0.17155000  0.23138000  0.79318000  1.0
  C  C27  1  0.82839000  0.76874000  0.20692000  1.0
  C  C28  1  0.34520000  0.25816000  0.78652000  1.0
  C  C29  1  0.65470000  0.74203000  0.21350000  1.0
  C  C30  1  0.05773000  0.86232000  0.82990000  1.0
  C  C31  1  0.94215000  0.13772000  0.17008000  1.0
  C  C32  1  0.16903000  0.78283000  0.75559000  1.0
  C  C33  1  0.83081000  0.21725000  0.24437000  1.0
  C  C34  1  0.35338000  0.66114000  0.75977000  1.0
  C  C35  1  0.64647000  0.33897000  0.24017000  1.0
  C  C36  1  0.33943000  0.70750000  0.90545000  1.0
  C  C37  1  0.66052000  0.29256000  0.09449000  1.0
  C  C38  1  0.15714000  0.83298000  0.90386000  1.0
  C  C39  1  0.84277000  0.16702000  0.09611000  1.0
  C  C40  1  0.84890000  0.27054000  0.61479000  1.0
  C  C41  1  0.15102000  0.72948000  0.38517000  1.0
  C  C42  1  0.92252000  0.39707000  0.55926000  1.0
  C  C43  1  0.07743000  0.60293000  0.44070000  1.0
  C  C44  1  0.04227000  0.31558000  0.48897000  1.0
  C  C45  1  0.95771000  0.68442000  0.51100000  1.0
  C  C46  1  0.88059000  0.58572000  0.57105000  1.0
  C  C47  1  0.11938000  0.41427000  0.42891000  1.0
  C  C48  1  0.77894000  0.68445000  0.64992000  1.0
  C  C49  1  0.22104000  0.31554000  0.35004000  1.0
  S  S50  1  0.60113000  0.38759000  0.84887000  1.0
  S  S51  1  0.39889000  0.61257000  0.15105000  1.0
  S  S52  1  0.81544000  0.97605000  0.83718000  1.0
  S  S53  1  0.18444000  0.02404000  0.16280000  1.0
  N  N54  1  0.05915000  0.25193000  0.86521000  1.0
  N  N55  1  0.94105000  0.74790000  0.13497000  1.0
  N  N56  1  0.43331000  0.61619000  0.83516000  1.0
  N  N57  1  0.56660000  0.38393000  0.16476000  1.0
  O  O58  1  0.97072000  0.11011000  0.63316000  1.0
  O  O59  1  0.02921000  0.88995000  0.36685000  1.0
  O  O60  1  0.67282000  0.30956000  0.63903000  1.0
  O  O61  1  0.32708000  0.69044000  0.36089000  1.0
  O  O62  1  0.69336000  0.86357000  0.63722000  1.0
  O  O63  1  0.30661000  0.13643000  0.36275000  1.0
  O  O64  1  0.78978000  0.59814000  0.71890000  1.0
  O  O65  1  0.21020000  0.40186000  0.28107000  1.0
