# generated using pymatgen
data_MgH4(C2O3)2
_symmetry_space_group_name_H-M   'P 1'
_cell_length_a   8.17044000
_cell_length_b   8.17044000
_cell_length_c   16.33270000
_cell_angle_alpha   89.85000000
_cell_angle_beta   89.85010000
_cell_angle_gamma   90.61120000
_symmetry_Int_Tables_number   1
_chemical_formula_structural   MgH4(C2O3)2
_chemical_formula_sum   'Mg6 H24 C24 O36'
_cell_volume   1090.23760489
_cell_formula_units_Z   6
loop_
 _symmetry_equiv_pos_site_id
 _symmetry_equiv_pos_as_xyz
  1  'x, y, z'
loop_
 _atom_site_type_symbol
 _atom_site_label
 _atom_site_symmetry_multiplicity
 _atom_site_fract_x
 _atom_site_fract_y
 _atom_site_fract_z
 _atom_site_occupancy
  Mg  Mg0  1  0.00318000  0.99682000  0.25000000  1.0
  Mg  Mg1  1  0.99682000  0.00318000  0.75000000  1.0
  Mg  Mg2  1  0.50000000  0.00000000  0.50000000  1.0
  Mg  Mg3  1  0.00000000  0.50000000  0.00000000  1.0
  Mg  Mg4  1  0.00000000  0.50000000  0.50000000  1.0
  Mg  Mg5  1  0.50000000  0.00000000  0.00000000  1.0
  H  H6  1  0.80875000  0.93706000  0.37964000  1.0
  H  H7  1  0.06294000  0.19125000  0.12036000  1.0
  H  H8  1  0.19125000  0.06294000  0.62036000  1.0
  H  H9  1  0.93706000  0.80875000  0.87964000  1.0
  H  H10  1  0.95416000  0.80477000  0.38038000  1.0
  H  H11  1  0.19523000  0.04584000  0.11962000  1.0
  H  H12  1  0.04584000  0.19523000  0.61962000  1.0
  H  H13  1  0.80477000  0.95416000  0.88038000  1.0
  H  H14  1  0.24173000  0.19066000  0.46756000  1.0
  H  H15  1  0.80934000  0.75827000  0.03244000  1.0
  H  H16  1  0.75827000  0.80934000  0.53244000  1.0
  H  H17  1  0.19066000  0.24173000  0.96756000  1.0
  H  H18  1  0.23981000  0.04004000  0.40402000  1.0
  H  H19  1  0.95996000  0.76019000  0.09598000  1.0
  H  H20  1  0.76019000  0.95996000  0.59598000  1.0
  H  H21  1  0.04004000  0.23981000  0.90402000  1.0
  H  H22  1  0.06370000  0.76073000  0.59485000  1.0
  H  H23  1  0.23927000  0.93630000  0.90515000  1.0
  H  H24  1  0.93630000  0.23927000  0.40515000  1.0
  H  H25  1  0.76073000  0.06370000  0.09485000  1.0
  H  H26  1  0.19336000  0.76262000  0.52018000  1.0
  H  H27  1  0.23738000  0.80664000  0.97982000  1.0
  H  H28  1  0.80664000  0.23738000  0.47982000  1.0
  H  H29  1  0.76262000  0.19336000  0.02018000  1.0
  C  C30  1  0.38279000  0.98640000  0.27229000  1.0
  C  C31  1  0.01361000  0.61722000  0.22771000  1.0
  C  C32  1  0.61722000  0.01361000  0.72771000  1.0
  C  C33  1  0.98639000  0.38278000  0.77229000  1.0
  C  C34  1  0.45863000  0.99222000  0.19021000  1.0
  C  C35  1  0.00778000  0.54137000  0.30979000  1.0
  C  C36  1  0.54137000  0.00778000  0.80979000  1.0
  C  C37  1  0.99222000  0.45863000  0.69022000  1.0
  C  C38  1  0.62254000  0.99926000  0.22794000  1.0
  C  C39  1  0.00074000  0.37746000  0.27206000  1.0
  C  C40  1  0.37747000  0.00074000  0.77206000  1.0
  C  C41  1  0.99926000  0.62253000  0.72794000  1.0
  C  C42  1  0.54680000  0.98974000  0.30996000  1.0
  C  C43  1  0.01026000  0.45320000  0.19004000  1.0
  C  C44  1  0.45320000  0.01026000  0.69004000  1.0
  C  C45  1  0.98974000  0.54680000  0.80996000  1.0
  C  C46  1  0.54270000  0.38027000  0.50340000  1.0
  C  C47  1  0.61973000  0.45730000  0.99660000  1.0
  C  C48  1  0.45730000  0.61973000  0.49660000  1.0
  C  C49  1  0.38027000  0.54270000  0.00340000  1.0
  C  C50  1  0.38016000  0.45570000  0.49518000  1.0
  C  C51  1  0.54429000  0.61985000  0.00483000  1.0
  C  C52  1  0.61984000  0.54429000  0.50482000  1.0
  C  C53  1  0.45570000  0.38016000  0.99518000  1.0
  O  O54  1  0.92184000  0.91467000  0.36085000  1.0
  O  O55  1  0.08533000  0.07816000  0.13915000  1.0
  O  O56  1  0.07816000  0.08533000  0.63915000  1.0
  O  O57  1  0.91467000  0.92184000  0.86085000  1.0
  O  O58  1  0.23864000  0.98155000  0.30011000  1.0
  O  O59  1  0.01844000  0.76136000  0.19989000  1.0
  O  O60  1  0.76136000  0.01845000  0.69989000  1.0
  O  O61  1  0.98156000  0.23864000  0.80011000  1.0
  O  O62  1  0.40291000  0.99151000  0.11825000  1.0
  O  O63  1  0.00849000  0.59709000  0.38175000  1.0
  O  O64  1  0.59709000  0.00850000  0.88175000  1.0
  O  O65  1  0.99150000  0.40291000  0.61825000  1.0
  O  O66  1  0.76656000  0.01197000  0.20007000  1.0
  O  O67  1  0.98803000  0.23344000  0.29993000  1.0
  O  O68  1  0.23345000  0.98803000  0.79993000  1.0
  O  O69  1  0.01197000  0.76655000  0.70007000  1.0
  O  O70  1  0.60230000  0.98577000  0.38204000  1.0
  O  O71  1  0.01423000  0.39771000  0.11796000  1.0
  O  O72  1  0.39770000  0.01423000  0.61796000  1.0
  O  O73  1  0.98577000  0.60230000  0.88204000  1.0
  O  O74  1  0.27799000  0.07662000  0.45859000  1.0
  O  O75  1  0.92338000  0.72201000  0.04141000  1.0
  O  O76  1  0.72201000  0.92338000  0.54141000  1.0
  O  O77  1  0.07662000  0.27799000  0.95859000  1.0
  O  O78  1  0.59690000  0.23651000  0.50793000  1.0
  O  O79  1  0.76349000  0.40310000  0.99207000  1.0
  O  O80  1  0.40310000  0.76349000  0.49207000  1.0
  O  O81  1  0.23651000  0.59690000  0.00793000  1.0
  O  O82  1  0.23590000  0.40014000  0.48882000  1.0
  O  O83  1  0.59986000  0.76410000  0.01118000  1.0
  O  O84  1  0.76410000  0.59986000  0.51117000  1.0
  O  O85  1  0.40013000  0.23590000  0.98883000  1.0
  O  O86  1  0.08409000  0.72300000  0.53817000  1.0
  O  O87  1  0.27700000  0.91591000  0.96183000  1.0
  O  O88  1  0.91591000  0.27700000  0.46183000  1.0
  O  O89  1  0.72300000  0.08409000  0.03817000  1.0
