# generated using pymatgen
data_ZnH12(C7N5)2
_symmetry_space_group_name_H-M   'P 1'
_cell_length_a   7.40392000
_cell_length_b   7.54805000
_cell_length_c   14.29630000
_cell_angle_alpha   90.00000000
_cell_angle_beta   89.99970000
_cell_angle_gamma   102.98300000
_symmetry_Int_Tables_number   1
_chemical_formula_structural   ZnH12(C7N5)2
_chemical_formula_sum   'Zn2 H24 C28 N20'
_cell_volume   778.52721847
_cell_formula_units_Z   2
loop_
 _symmetry_equiv_pos_site_id
 _symmetry_equiv_pos_as_xyz
  1  'x, y, z'
loop_
 _atom_site_type_symbol
 _atom_site_label
 _atom_site_symmetry_multiplicity
 _atom_site_fract_x
 _atom_site_fract_y
 _atom_site_fract_z
 _atom_site_occupancy
  Zn  Zn0  1  0.00000000  0.50000000  0.50000000  1.0
  Zn  Zn1  1  0.50000000  0.50000000  0.00000000  1.0
  H  H2  1  0.92897000  0.12414000  0.33898000  1.0
  H  H3  1  0.57103000  0.87587000  0.83898000  1.0
  H  H4  1  0.07103000  0.87586000  0.66102000  1.0
  H  H5  1  0.42896000  0.12413000  0.16102000  1.0
  H  H6  1  0.93874000  0.12088000  0.21980000  1.0
  H  H7  1  0.56126000  0.87912000  0.71980000  1.0
  H  H8  1  0.06126000  0.87912000  0.78020000  1.0
  H  H9  1  0.43874000  0.12088000  0.28020000  1.0
  H  H10  1  0.08467000  0.41468000  0.29885000  1.0
  H  H11  1  0.41534000  0.58532000  0.79885000  1.0
  H  H12  1  0.91534000  0.58532000  0.70115000  1.0
  H  H13  1  0.58467000  0.41468000  0.20115000  1.0
  H  H14  1  0.08816000  0.56427000  0.14138000  1.0
  H  H15  1  0.41184000  0.43573000  0.64138000  1.0
  H  H16  1  0.91184000  0.43572000  0.85862000  1.0
  H  H17  1  0.58817000  0.56427000  0.35862000  1.0
  H  H18  1  0.03171000  0.87699000  0.13134000  1.0
  H  H19  1  0.46828000  0.12300000  0.63134000  1.0
  H  H20  1  0.96828000  0.12300000  0.86865000  1.0
  H  H21  1  0.53172000  0.87700000  0.36866000  1.0
  H  H22  1  0.99074000  0.87217000  0.43285000  1.0
  H  H23  1  0.50926000  0.12784000  0.93285000  1.0
  H  H24  1  0.00926000  0.12783000  0.56715000  1.0
  H  H25  1  0.49074000  0.87217000  0.06715000  1.0
  C  C26  1  0.33760000  0.28803000  0.45023000  1.0
  C  C27  1  0.16240000  0.71199000  0.95024000  1.0
  C  C28  1  0.66241000  0.71198000  0.54977000  1.0
  C  C29  1  0.83759000  0.28802000  0.04976000  1.0
  C  C30  1  0.63197000  0.23622000  0.43655000  1.0
  C  C31  1  0.86803000  0.76378000  0.93655000  1.0
  C  C32  1  0.36803000  0.76378000  0.56345000  1.0
  C  C33  1  0.13197000  0.23622000  0.06344000  1.0
  C  C34  1  0.06187000  0.55140000  0.29130000  1.0
  C  C35  1  0.43814000  0.44861000  0.79130000  1.0
  C  C36  1  0.93814000  0.44860000  0.70869000  1.0
  C  C37  1  0.56186000  0.55140000  0.20870000  1.0
  C  C38  1  0.06320000  0.63559000  0.20452000  1.0
  C  C39  1  0.43680000  0.36441000  0.70452000  1.0
  C  C40  1  0.93680000  0.36441000  0.79548000  1.0
  C  C41  1  0.56320000  0.63559000  0.29548000  1.0
  C  C42  1  0.03448000  0.81068000  0.19890000  1.0
  C  C43  1  0.46551000  0.18932000  0.69889000  1.0
  C  C44  1  0.96551000  0.18931000  0.80110000  1.0
  C  C45  1  0.53449000  0.81068000  0.30111000  1.0
  C  C46  1  0.00843000  0.90315000  0.28165000  1.0
  C  C47  1  0.49157000  0.09685000  0.78165000  1.0
  C  C48  1  0.99156000  0.09685000  0.71835000  1.0
  C  C49  1  0.50843000  0.90315000  0.21835000  1.0
  C  C50  1  0.01101000  0.80863000  0.36632000  1.0
  C  C51  1  0.48899000  0.19137000  0.86631000  1.0
  C  C52  1  0.98900000  0.19136000  0.63368000  1.0
  C  C53  1  0.51100000  0.80863000  0.13369000  1.0
  N  N54  1  0.22068000  0.36709000  0.46518000  1.0
  N  N55  1  0.27932000  0.63292000  0.96518000  1.0
  N  N56  1  0.77932000  0.63292000  0.53482000  1.0
  N  N57  1  0.72068000  0.36709000  0.03481000  1.0
  N  N58  1  0.45331000  0.18718000  0.43153000  1.0
  N  N59  1  0.04669000  0.81283000  0.93153000  1.0
  N  N60  1  0.54669000  0.81282000  0.56848000  1.0
  N  N61  1  0.95330000  0.18718000  0.06847000  1.0
  N  N62  1  0.79562000  0.26455000  0.43685000  1.0
  N  N63  1  0.70438000  0.73546000  0.93685000  1.0
  N  N64  1  0.20438000  0.73544000  0.56315000  1.0
  N  N65  1  0.29562000  0.26455000  0.06315000  1.0
  N  N66  1  0.03383000  0.63782000  0.37041000  1.0
  N  N67  1  0.46618000  0.36219000  0.87041000  1.0
  N  N68  1  0.96618000  0.36218000  0.62959000  1.0
  N  N69  1  0.53382000  0.63782000  0.12959000  1.0
  N  N70  1  0.98535000  0.07877000  0.28100000  1.0
  N  N71  1  0.51465000  0.92123000  0.78100000  1.0
  N  N72  1  0.01464000  0.92122000  0.71899000  1.0
  N  N73  1  0.48535000  0.07877000  0.21900000  1.0
