# generated using pymatgen
data_KGdH2C2SO9
_symmetry_space_group_name_H-M   'P 1'
_cell_length_a   6.58877000
_cell_length_b   8.56133000
_cell_length_c   13.51270000
_cell_angle_alpha   89.99970000
_cell_angle_beta   93.94370000
_cell_angle_gamma   89.99990000
_symmetry_Int_Tables_number   1
_chemical_formula_structural   KGdH2C2SO9
_chemical_formula_sum   'K4 Gd4 H8 C8 S4 O36'
_cell_volume   760.42807055
_cell_formula_units_Z   4
loop_
 _symmetry_equiv_pos_site_id
 _symmetry_equiv_pos_as_xyz
  1  'x, y, z'
loop_
 _atom_site_type_symbol
 _atom_site_label
 _atom_site_symmetry_multiplicity
 _atom_site_fract_x
 _atom_site_fract_y
 _atom_site_fract_z
 _atom_site_occupancy
  K  K0  1  0.23525000  0.64803000  0.19754000  1.0
  K  K1  1  0.26476000  0.14804000  0.30246000  1.0
  K  K2  1  0.76476000  0.35198000  0.80247000  1.0
  K  K3  1  0.73523000  0.85197000  0.69754000  1.0
  Gd  Gd4  1  0.24534000  0.74498000  0.91539000  1.0
  Gd  Gd5  1  0.25466000  0.24498000  0.58461000  1.0
  Gd  Gd6  1  0.75466000  0.25502000  0.08461000  1.0
  Gd  Gd7  1  0.74534000  0.75502000  0.41539000  1.0
  H  H8  1  0.11363000  0.96050000  0.08287000  1.0
  H  H9  1  0.38638000  0.46051000  0.41713000  1.0
  H  H10  1  0.88637000  0.03950000  0.91713000  1.0
  H  H11  1  0.61362000  0.53950000  0.58288000  1.0
  H  H12  1  0.35263000  0.96534000  0.08591000  1.0
  H  H13  1  0.14738000  0.46534000  0.41409000  1.0
  H  H14  1  0.64738000  0.03466000  0.91409000  1.0
  H  H15  1  0.85262000  0.53466000  0.58591000  1.0
  C  C16  1  0.36652000  0.04128000  0.78104000  1.0
  C  C17  1  0.13346000  0.54127000  0.71896000  1.0
  C  C18  1  0.63348000  0.95872000  0.21896000  1.0
  C  C19  1  0.86652000  0.45872000  0.28104000  1.0
  C  C20  1  0.13406000  0.03634000  0.76863000  1.0
  C  C21  1  0.36592000  0.53633000  0.73136000  1.0
  C  C22  1  0.86594000  0.96366000  0.23137000  1.0
  C  C23  1  0.63406000  0.46367000  0.26863000  1.0
  S  S24  1  0.76545000  0.66404000  0.02590000  1.0
  S  S25  1  0.73454000  0.16404000  0.47410000  1.0
  S  S26  1  0.23455000  0.33596000  0.97410000  1.0
  S  S27  1  0.26546000  0.83596000  0.52590000  1.0
  O  O28  1  0.56059000  0.73531000  0.00685000  1.0
  O  O29  1  0.93941000  0.23531000  0.49314000  1.0
  O  O30  1  0.43941000  0.26470000  0.99315000  1.0
  O  O31  1  0.06059000  0.76469000  0.50686000  1.0
  O  O32  1  0.23179000  0.90577000  0.05796000  1.0
  O  O33  1  0.26821000  0.40577000  0.44204000  1.0
  O  O34  1  0.76822000  0.09423000  0.94205000  1.0
  O  O35  1  0.73179000  0.59423000  0.55796000  1.0
  O  O36  1  0.83590000  0.68674000  0.13072000  1.0
  O  O37  1  0.66410000  0.18674000  0.36928000  1.0
  O  O38  1  0.16410000  0.31326000  0.86928000  1.0
  O  O39  1  0.33590000  0.81326000  0.63072000  1.0
  O  O40  1  0.90671000  0.73951000  0.95906000  1.0
  O  O41  1  0.59328000  0.23952000  0.54094000  1.0
  O  O42  1  0.09329000  0.26049000  0.04095000  1.0
  O  O43  1  0.40672000  0.76049000  0.45906000  1.0
  O  O44  1  0.75572000  0.49280000  0.00211000  1.0
  O  O45  1  0.74429000  0.99280000  0.49788000  1.0
  O  O46  1  0.24428000  0.50720000  0.99789000  1.0
  O  O47  1  0.25571000  0.00720000  0.50211000  1.0
  O  O48  1  0.45038000  0.95091000  0.84688000  1.0
  O  O49  1  0.04961000  0.45090000  0.65312000  1.0
  O  O50  1  0.54962000  0.04910000  0.15311000  1.0
  O  O51  1  0.95039000  0.54910000  0.34688000  1.0
  O  O52  1  0.04687000  0.95157000  0.83047000  1.0
  O  O53  1  0.45312000  0.45156000  0.66953000  1.0
  O  O54  1  0.95314000  0.04843000  0.16953000  1.0
  O  O55  1  0.54688000  0.54844000  0.33048000  1.0
  O  O56  1  0.45851000  0.13128000  0.72544000  1.0
  O  O57  1  0.04148000  0.63126000  0.77455000  1.0
  O  O58  1  0.54149000  0.86872000  0.27455000  1.0
  O  O59  1  0.95852000  0.36873000  0.22544000  1.0
  O  O60  1  0.04552000  0.11114000  0.69775000  1.0
  O  O61  1  0.45447000  0.61114000  0.80225000  1.0
  O  O62  1  0.95448000  0.88886000  0.30225000  1.0
  O  O63  1  0.54553000  0.38886000  0.19775000  1.0
