# generated using pymatgen
data_U2H2C8N2O13
_symmetry_space_group_name_H-M   'P 1'
_cell_length_a   5.72143000
_cell_length_b   6.67372000
_cell_length_c   19.70650000
_cell_angle_alpha   90.00400000
_cell_angle_beta   90.00140000
_cell_angle_gamma   80.66200000
_symmetry_Int_Tables_number   1
_chemical_formula_structural   U2H2C8N2O13
_chemical_formula_sum   'U4 H4 C16 N4 O26'
_cell_volume   742.48633052
_cell_formula_units_Z   2
loop_
 _symmetry_equiv_pos_site_id
 _symmetry_equiv_pos_as_xyz
  1  'x, y, z'
loop_
 _atom_site_type_symbol
 _atom_site_label
 _atom_site_symmetry_multiplicity
 _atom_site_fract_x
 _atom_site_fract_y
 _atom_site_fract_z
 _atom_site_occupancy
  U  U0  1  0.50001000  0.99999000  0.50000000  1.0
  U  U1  1  0.49999000  0.00001000  0.00000000  1.0
  U  U2  1  0.71473000  0.38429000  0.75000000  1.0
  U  U3  1  0.28528000  0.61572000  0.25000000  1.0
  H  H4  1  0.22437000  0.64689000  0.71066000  1.0
  H  H5  1  0.77565000  0.35308000  0.21065000  1.0
  H  H6  1  0.77558000  0.35308000  0.28935000  1.0
  H  H7  1  0.22441000  0.64692000  0.78936000  1.0
  C  C8  1  0.82529000  0.52583000  0.54775000  1.0
  C  C9  1  0.17471000  0.47419000  0.04775000  1.0
  C  C10  1  0.17471000  0.47414000  0.45225000  1.0
  C  C11  1  0.82527000  0.52583000  0.95225000  1.0
  C  C12  1  0.59991000  0.56533000  0.58983000  1.0
  C  C13  1  0.40010000  0.43471000  0.08983000  1.0
  C  C14  1  0.40009000  0.43465000  0.41017000  1.0
  C  C15  1  0.59988000  0.56531000  0.91017000  1.0
  C  C16  1  0.02667000  0.37477000  0.55571000  1.0
  C  C17  1  0.97333000  0.62525000  0.05571000  1.0
  C  C18  1  0.97333000  0.62521000  0.44429000  1.0
  C  C19  1  0.02666000  0.37477000  0.94429000  1.0
  C  C20  1  0.09918000  0.22753000  0.61390000  1.0
  C  C21  1  0.90083000  0.77251000  0.11390000  1.0
  C  C22  1  0.90083000  0.77245000  0.38611000  1.0
  C  C23  1  0.09918000  0.22752000  0.88610000  1.0
  N  N24  1  0.80863000  0.64645000  0.49311000  1.0
  N  N25  1  0.19137000  0.35355000  0.99310000  1.0
  N  N26  1  0.19136000  0.35353000  0.50690000  1.0
  N  N27  1  0.80862000  0.64646000  0.00690000  1.0
  O  O28  1  0.44525000  0.70908000  0.56864000  1.0
  O  O29  1  0.55475000  0.29095000  0.06863000  1.0
  O  O30  1  0.55475000  0.29089000  0.43137000  1.0
  O  O31  1  0.44524000  0.70907000  0.93136000  1.0
  O  O32  1  0.56693000  0.45166000  0.63885000  1.0
  O  O33  1  0.43307000  0.54838000  0.13885000  1.0
  O  O34  1  0.43306000  0.54829000  0.36115000  1.0
  O  O35  1  0.56693000  0.45163000  0.86115000  1.0
  O  O36  1  0.26533000  0.08504000  0.59946000  1.0
  O  O37  1  0.73466000  0.91498000  0.09946000  1.0
  O  O38  1  0.73468000  0.91494000  0.40055000  1.0
  O  O39  1  0.26532000  0.08503000  0.90054000  1.0
  O  O40  1  0.00842000  0.25694000  0.67193000  1.0
  O  O41  1  0.99161000  0.74315000  0.17193000  1.0
  O  O42  1  0.99159000  0.74304000  0.32808000  1.0
  O  O43  1  0.00841000  0.25690000  0.82807000  1.0
  O  O44  1  0.74720000  0.05820000  0.54892000  1.0
  O  O45  1  0.25276000  0.94186000  0.04891000  1.0
  O  O46  1  0.25280000  0.94179000  0.45108000  1.0
  O  O47  1  0.74721000  0.05817000  0.95109000  1.0
  O  O48  1  0.58646000  0.15667000  0.74999000  1.0
  O  O49  1  0.41357000  0.84334000  0.25002000  1.0
  O  O50  1  0.84188000  0.61560000  0.75001000  1.0
  O  O51  1  0.15813000  0.38440000  0.24997000  1.0
  O  O52  1  0.32789000  0.62315000  0.75000000  1.0
  O  O53  1  0.67213000  0.37688000  0.25000000  1.0
