# generated using pymatgen
data_NaH5C8(NO)4
_symmetry_space_group_name_H-M   'P 1'
_cell_length_a   3.63389000
_cell_length_b   10.10750000
_cell_length_c   14.64820000
_cell_angle_alpha   107.72900000
_cell_angle_beta   94.65560000
_cell_angle_gamma   91.49150000
_symmetry_Int_Tables_number   1
_chemical_formula_structural   NaH5C8(NO)4
_chemical_formula_sum   'Na2 H10 C16 N8 O8'
_cell_volume   510.04864869
_cell_formula_units_Z   2
loop_
 _symmetry_equiv_pos_site_id
 _symmetry_equiv_pos_as_xyz
  1  'x, y, z'
loop_
 _atom_site_type_symbol
 _atom_site_label
 _atom_site_symmetry_multiplicity
 _atom_site_fract_x
 _atom_site_fract_y
 _atom_site_fract_z
 _atom_site_occupancy
  Na  Na0  1  0.50000000  0.00000000  0.00000000  1.0
  Na  Na1  1  0.50000000  0.00000000  0.50000000  1.0
  H  H2  1  0.11336000  0.60814000  0.48675000  1.0
  H  H3  1  0.88663000  0.39184000  0.51325000  1.0
  H  H4  1  0.99223000  0.88794000  0.11367000  1.0
  H  H5  1  0.00776000  0.11206000  0.88633000  1.0
  H  H6  1  0.04122000  0.77766000  0.01540000  1.0
  H  H7  1  0.95880000  0.22234000  0.98460000  1.0
  H  H8  1  0.05848000  0.01662000  0.66311000  1.0
  H  H9  1  0.94152000  0.98338000  0.33689000  1.0
  H  H10  1  0.98140000  0.85844000  0.60865000  1.0
  H  H11  1  0.01861000  0.14156000  0.39134000  1.0
  C  C12  1  0.21309000  0.42178000  0.37286000  1.0
  C  C13  1  0.78691000  0.57821000  0.62714000  1.0
  C  C14  1  0.37247000  0.40348000  0.28238000  1.0
  C  C15  1  0.62755000  0.59652000  0.71761000  1.0
  C  C16  1  0.46958000  0.53561000  0.27603000  1.0
  C  C17  1  0.53042000  0.46439000  0.72398000  1.0
  C  C18  1  0.37416000  0.64027000  0.36837000  1.0
  C  C19  1  0.62583000  0.35973000  0.63163000  1.0
  C  C20  1  0.63236000  0.57740000  0.20551000  1.0
  C  C21  1  0.36762000  0.42261000  0.79450000  1.0
  C  C22  1  0.72640000  0.71846000  0.21667000  1.0
  C  C23  1  0.27360000  0.28156000  0.78334000  1.0
  C  C24  1  0.73061000  0.47932000  0.12045000  1.0
  C  C25  1  0.26938000  0.52069000  0.87955000  1.0
  C  C26  1  0.43050000  0.27258000  0.21842000  1.0
  C  C27  1  0.56951000  0.72742000  0.78158000  1.0
  N  N28  1  0.21488000  0.56471000  0.42009000  1.0
  N  N29  1  0.78511000  0.43528000  0.57991000  1.0
  N  N30  1  0.81944000  0.39816000  0.05131000  1.0
  N  N31  1  0.18060000  0.60184000  0.94869000  1.0
  N  N32  1  0.82273000  0.83221000  0.22220000  1.0
  N  N33  1  0.17726000  0.16780000  0.77780000  1.0
  N  N34  1  0.48684000  0.16358000  0.16607000  1.0
  N  N35  1  0.51316000  0.83643000  0.83392000  1.0
  O  O36  1  0.43219000  0.76688000  0.39351000  1.0
  O  O37  1  0.56779000  0.23312000  0.60650000  1.0
  O  O38  1  0.09371000  0.33268000  0.40773000  1.0
  O  O39  1  0.90628000  0.66731000  0.59226000  1.0
  O  O40  1  0.00821000  0.87758000  0.04542000  1.0
  O  O41  1  0.99178000  0.12242000  0.95457000  1.0
  O  O42  1  0.01836000  0.94904000  0.59807000  1.0
  O  O43  1  0.98166000  0.05095000  0.40193000  1.0
