# generated using pymatgen
data_AgH22C18N5O3
_symmetry_space_group_name_H-M   'P 1'
_cell_length_a   8.95198000
_cell_length_b   8.95216000
_cell_length_c   12.20460000
_cell_angle_alpha   97.15190000
_cell_angle_beta   97.15200000
_cell_angle_gamma   99.91910000
_symmetry_Int_Tables_number   1
_chemical_formula_structural   AgH22C18N5O3
_chemical_formula_sum   'Ag2 H44 C36 N10 O6'
_cell_volume   945.23696508
_cell_formula_units_Z   2
loop_
 _symmetry_equiv_pos_site_id
 _symmetry_equiv_pos_as_xyz
  1  'x, y, z'
loop_
 _atom_site_type_symbol
 _atom_site_label
 _atom_site_symmetry_multiplicity
 _atom_site_fract_x
 _atom_site_fract_y
 _atom_site_fract_z
 _atom_site_occupancy
  Ag  Ag0  1  0.24953000  0.75048000  0.75001000  1.0
  Ag  Ag1  1  0.75046000  0.24955000  0.25000000  1.0
  H  H2  1  0.41728000  0.85441000  0.23186000  1.0
  H  H3  1  0.14563000  0.58270000  0.26815000  1.0
  H  H4  1  0.58271000  0.14561000  0.76814000  1.0
  H  H5  1  0.85439000  0.41727000  0.73186000  1.0
  H  H6  1  0.25609000  0.93720000  0.25472000  1.0
  H  H7  1  0.06282000  0.74387000  0.24527000  1.0
  H  H8  1  0.74390000  0.06280000  0.74527000  1.0
  H  H9  1  0.93719000  0.25608000  0.75472000  1.0
  H  H10  1  0.43658000  0.05731000  0.26279000  1.0
  H  H11  1  0.94273000  0.56339000  0.23721000  1.0
  H  H12  1  0.56340000  0.94271000  0.73722000  1.0
  H  H13  1  0.05729000  0.43656000  0.76279000  1.0
  H  H14  1  0.32275000  0.20862000  0.08990000  1.0
  H  H15  1  0.79139000  0.67723000  0.41010000  1.0
  H  H16  1  0.67724000  0.79141000  0.91011000  1.0
  H  H17  1  0.20861000  0.32274000  0.58990000  1.0
  H  H18  1  0.24587000  0.05474000  0.75534000  1.0
  H  H19  1  0.94525000  0.75410000  0.74467000  1.0
  H  H20  1  0.75410000  0.94528000  0.24467000  1.0
  H  H21  1  0.05473000  0.24587000  0.25533000  1.0
  H  H22  1  0.33997000  0.23167000  0.83834000  1.0
  H  H23  1  0.76832000  0.66000000  0.66165000  1.0
  H  H24  1  0.66002000  0.76835000  0.16166000  1.0
  H  H25  1  0.23167000  0.33996000  0.33833000  1.0
  H  H26  1  0.14258000  0.16797000  0.83660000  1.0
  H  H27  1  0.83202000  0.85739000  0.66339000  1.0
  H  H28  1  0.85741000  0.83206000  0.16341000  1.0
  H  H29  1  0.16796000  0.14258000  0.33660000  1.0
  H  H30  1  0.36537000  0.63813000  0.95302000  1.0
  H  H31  1  0.36191000  0.63465000  0.54699000  1.0
  H  H32  1  0.63464000  0.36191000  0.04698000  1.0
  H  H33  1  0.63810000  0.36535000  0.45301000  1.0
  H  H34  1  0.37421000  0.67558000  0.10002000  1.0
  H  H35  1  0.32446000  0.62579000  0.39998000  1.0
  H  H36  1  0.62580000  0.32445000  0.89997000  1.0
  H  H37  1  0.67555000  0.37419000  0.60002000  1.0
  H  H38  1  0.23187000  0.38608000  0.03010000  1.0
  H  H39  1  0.61395000  0.76814000  0.46991000  1.0
  H  H40  1  0.76815000  0.61395000  0.96992000  1.0
  H  H41  1  0.38606000  0.23185000  0.53007000  1.0
  H  H42  1  0.02473000  0.77756000  0.98566000  1.0
  H  H43  1  0.22244000  0.97527000  0.51433000  1.0
  H  H44  1  0.97528000  0.22247000  0.01434000  1.0
  H  H45  1  0.77756000  0.02472000  0.48567000  1.0
  C  C46  1  0.36222000  0.95190000  0.21730000  1.0
  C  C47  1  0.04812000  0.63775000  0.28271000  1.0
  C  C48  1  0.63777000  0.04811000  0.78271000  1.0
  C  C49  1  0.95189000  0.36221000  0.71730000  1.0
  C  C50  1  0.33026000  0.96575000  0.09691000  1.0
  C  C51  1  0.03428000  0.66972000  0.40309000  1.0
  C  C52  1  0.66973000  0.03428000  0.90310000  1.0
  C  C53  1  0.96573000  0.33025000  0.59690000  1.0
  C  C54  1  0.31219000  0.09361000  0.04592000  1.0
  C  C55  1  0.90641000  0.68779000  0.45407000  1.0
  C  C56  1  0.68781000  0.90642000  0.95408000  1.0
  C  C57  1  0.09360000  0.31218000  0.54592000  1.0
  C  C58  1  0.28307000  0.04273000  0.93003000  1.0
  C  C59  1  0.95728000  0.71690000  0.56997000  1.0
  C  C60  1  0.71692000  0.95730000  0.06998000  1.0
  C  C61  1  0.04272000  0.28306000  0.43003000  1.0
  C  C62  1  0.25218000  0.12864000  0.83541000  1.0
  C  C63  1  0.87135000  0.74779000  0.66459000  1.0
  C  C64  1  0.74781000  0.87138000  0.16460000  1.0
  C  C65  1  0.12864000  0.25217000  0.33541000  1.0
  C  C66  1  0.30765000  0.68535000  0.02014000  1.0
  C  C67  1  0.31468000  0.69235000  0.47986000  1.0
  C  C68  1  0.69236000  0.31468000  0.97985000  1.0
  C  C69  1  0.68533000  0.30764000  0.52014000  1.0
  C  C70  1  0.14686000  0.59267000  0.00948000  1.0
  C  C71  1  0.40735000  0.85314000  0.49052000  1.0
  C  C72  1  0.85314000  0.40736000  0.99052000  1.0
  C  C73  1  0.59266000  0.14685000  0.50948000  1.0
  C  C74  1  0.12979000  0.43628000  0.01708000  1.0
  C  C75  1  0.56374000  0.87022000  0.48293000  1.0
  C  C76  1  0.87022000  0.56375000  0.98293000  1.0
  C  C77  1  0.43626000  0.12978000  0.51706000  1.0
  C  C78  1  0.01493000  0.65594000  0.99212000  1.0
  C  C79  1  0.34408000  0.98506000  0.50787000  1.0
  C  C80  1  0.98507000  0.34410000  0.00788000  1.0
  C  C81  1  0.65593000  0.01493000  0.49213000  1.0
  N  N82  1  0.47411000  0.52587000  0.74999000  1.0
  N  N83  1  0.52587000  0.47412000  0.24999000  1.0
  N  N84  1  0.28408000  0.89127000  0.91106000  1.0
  N  N85  1  0.10874000  0.71590000  0.58894000  1.0
  N  N86  1  0.71592000  0.10876000  0.08894000  1.0
  N  N87  1  0.89126000  0.28408000  0.41106000  1.0
  N  N88  1  0.31292000  0.84606000  0.01290000  1.0
  N  N89  1  0.15396000  0.68707000  0.48710000  1.0
  N  N90  1  0.68708000  0.15397000  0.98710000  1.0
  N  N91  1  0.84604000  0.31292000  0.51290000  1.0
  O  O92  1  0.50651000  0.65235000  0.71246000  1.0
  O  O93  1  0.34765000  0.49346000  0.78755000  1.0
  O  O94  1  0.49346000  0.34766000  0.28755000  1.0
  O  O95  1  0.65235000  0.50653000  0.21246000  1.0
  O  O96  1  0.56622000  0.43374000  0.74995000  1.0
  O  O97  1  0.43374000  0.56624000  0.24997000  1.0
