# generated using pymatgen
data_CdH30C40(N3O2)2
_symmetry_space_group_name_H-M   'P 1'
_cell_length_a   10.57510000
_cell_length_b   16.36400000
_cell_length_c   23.07080000
_cell_angle_alpha   90.00030000
_cell_angle_beta   90.00020000
_cell_angle_gamma   74.20600000
_symmetry_Int_Tables_number   1
_chemical_formula_structural   CdH30C40(N3O2)2
_chemical_formula_sum   'Cd4 H120 C160 N24 O16'
_cell_volume   3841.69558667
_cell_formula_units_Z   4
loop_
 _symmetry_equiv_pos_site_id
 _symmetry_equiv_pos_as_xyz
  1  'x, y, z'
loop_
 _atom_site_type_symbol
 _atom_site_label
 _atom_site_symmetry_multiplicity
 _atom_site_fract_x
 _atom_site_fract_y
 _atom_site_fract_z
 _atom_site_occupancy
  Cd  Cd0  1  0.30229000  0.03667000  0.90095000  1.0
  Cd  Cd1  1  0.19771000  0.96333000  0.40095000  1.0
  Cd  Cd2  1  0.69773000  0.96332000  0.09904000  1.0
  Cd  Cd3  1  0.80229000  0.03667000  0.59905000  1.0
  H  H4  1  0.07448000  0.22673000  0.92303000  1.0
  H  H5  1  0.42553000  0.77326000  0.42303000  1.0
  H  H6  1  0.92553000  0.77326000  0.07696000  1.0
  H  H7  1  0.57448000  0.22674000  0.57697000  1.0
  H  H8  1  0.16854000  0.02116000  0.03982000  1.0
  H  H9  1  0.33149000  0.97885000  0.53982000  1.0
  H  H10  1  0.83149000  0.97884000  0.96018000  1.0
  H  H11  1  0.66853000  0.02117000  0.46018000  1.0
  H  H12  1  0.93622000  0.12996000  0.07528000  1.0
  H  H13  1  0.56380000  0.87005000  0.57527000  1.0
  H  H14  1  0.06380000  0.87004000  0.92473000  1.0
  H  H15  1  0.43622000  0.12997000  0.42473000  1.0
  H  H16  1  0.85340000  0.30187000  0.91233000  1.0
  H  H17  1  0.64663000  0.69812000  0.41233000  1.0
  H  H18  1  0.14663000  0.69811000  0.08766000  1.0
  H  H19  1  0.35338000  0.30188000  0.58767000  1.0
  H  H20  1  0.65839000  0.42661000  0.92081000  1.0
  H  H21  1  0.84163000  0.57338000  0.42081000  1.0
  H  H22  1  0.34164000  0.57338000  0.07918000  1.0
  H  H23  1  0.15837000  0.42662000  0.57919000  1.0
  H  H24  1  0.65399000  0.39148000  0.10550000  1.0
  H  H25  1  0.84600000  0.60852000  0.60550000  1.0
  H  H26  1  0.34600000  0.60852000  0.89449000  1.0
  H  H27  1  0.15400000  0.39148000  0.39450000  1.0
  H  H28  1  0.85013000  0.26737000  0.09796000  1.0
  H  H29  1  0.64986000  0.73263000  0.59796000  1.0
  H  H30  1  0.14986000  0.73262000  0.90203000  1.0
  H  H31  1  0.35014000  0.26738000  0.40204000  1.0
  H  H32  1  0.60877000  0.90687000  0.95026000  1.0
  H  H33  1  0.89124000  0.09313000  0.45026000  1.0
  H  H34  1  0.39122000  0.09314000  0.04974000  1.0
  H  H35  1  0.10878000  0.90687000  0.54974000  1.0
  H  H36  1  0.22757000  0.89726000  0.99623000  1.0
  H  H37  1  0.27243000  0.10275000  0.49623000  1.0
  H  H38  1  0.77242000  0.10273000  0.00376000  1.0
  H  H39  1  0.72758000  0.89726000  0.50376000  1.0
  H  H40  1  0.40182000  0.74190000  0.02151000  1.0
  H  H41  1  0.09818000  0.25810000  0.52151000  1.0
  H  H42  1  0.59819000  0.25809000  0.97849000  1.0
  H  H43  1  0.90182000  0.74191000  0.47849000  1.0
  H  H44  1  0.74849000  0.78411000  0.91604000  1.0
  H  H45  1  0.75151000  0.21589000  0.41604000  1.0
  H  H46  1  0.25150000  0.21589000  0.08396000  1.0
  H  H47  1  0.24850000  0.78411000  0.58396000  1.0
  H  H48  1  0.94784000  0.66159000  0.91717000  1.0
  H  H49  1  0.55217000  0.33840000  0.41717000  1.0
  H  H50  1  0.05216000  0.33841000  0.08283000  1.0
  H  H51  1  0.44783000  0.66159000  0.58283000  1.0
  H  H52  1  0.78979000  0.54980000  0.05890000  1.0
  H  H53  1  0.71020000  0.45020000  0.55891000  1.0
  H  H54  1  0.21022000  0.45021000  0.94110000  1.0
  H  H55  1  0.28979000  0.54979000  0.44110000  1.0
  H  H56  1  0.59290000  0.67376000  0.06052000  1.0
  H  H57  1  0.90709000  0.32624000  0.56053000  1.0
  H  H58  1  0.40711000  0.32625000  0.93948000  1.0
  H  H59  1  0.09291000  0.67376000  0.43947000  1.0
  H  H60  1  0.39156000  0.76530000  0.80650000  1.0
  H  H61  1  0.10843000  0.23471000  0.30651000  1.0
  H  H62  1  0.60843000  0.23471000  0.19349000  1.0
  H  H63  1  0.89157000  0.76529000  0.69350000  1.0
  H  H64  1  0.33429000  0.63371000  0.77448000  1.0
  H  H65  1  0.16570000  0.36629000  0.27448000  1.0
  H  H66  1  0.66570000  0.36629000  0.22552000  1.0
  H  H67  1  0.83430000  0.63371000  0.72552000  1.0
  H  H68  1  0.92397000  0.76145000  0.79781000  1.0
  H  H69  1  0.57603000  0.23855000  0.29781000  1.0
  H  H70  1  0.07602000  0.23855000  0.20219000  1.0
  H  H71  1  0.42398000  0.76145000  0.70219000  1.0
  H  H72  1  0.98275000  0.89272000  0.82778000  1.0
  H  H73  1  0.51725000  0.10729000  0.32778000  1.0
  H  H74  1  0.01725000  0.10729000  0.17222000  1.0
  H  H75  1  0.48276000  0.89271000  0.67222000  1.0
  H  H76  1  0.06792000  0.49624000  0.64536000  1.0
  H  H77  1  0.43207000  0.50376000  0.14536000  1.0
  H  H78  1  0.93207000  0.50376000  0.35464000  1.0
  H  H79  1  0.56792000  0.49624000  0.85464000  1.0
  H  H80  1  0.03641000  0.57976000  0.85128000  1.0
  H  H81  1  0.46360000  0.42024000  0.35128000  1.0
  H  H82  1  0.96358000  0.42024000  0.14872000  1.0
  H  H83  1  0.53641000  0.57975000  0.64872000  1.0
  H  H84  1  0.14210000  0.61165000  0.61837000  1.0
  H  H85  1  0.35788000  0.38836000  0.11837000  1.0
  H  H86  1  0.85789000  0.38836000  0.38163000  1.0
  H  H87  1  0.64210000  0.61164000  0.88163000  1.0
  H  H88  1  0.25914000  0.62940000  0.66862000  1.0
  H  H89  1  0.24085000  0.37060000  0.16862000  1.0
  H  H90  1  0.74085000  0.37060000  0.33138000  1.0
  H  H91  1  0.75914000  0.62940000  0.83138000  1.0
  H  H92  1  0.10323000  0.70303000  0.66390000  1.0
  H  H93  1  0.39675000  0.29698000  0.16390000  1.0
  H  H94  1  0.89675000  0.29697000  0.33610000  1.0
  H  H95  1  0.60323000  0.70303000  0.83610000  1.0
  H  H96  1  0.95688000  0.37616000  0.82049000  1.0
  H  H97  1  0.54313000  0.62383000  0.32049000  1.0
  H  H98  1  0.04312000  0.62383000  0.17951000  1.0
  H  H99  1  0.45688000  0.37616000  0.67951000  1.0
  H  H100  1  0.85498000  0.47191000  0.84951000  1.0
  H  H101  1  0.64503000  0.52808000  0.34951000  1.0
  H  H102  1  0.14502000  0.52808000  0.15050000  1.0
  H  H103  1  0.35498000  0.47191000  0.65049000  1.0
  H  H104  1  0.01851000  0.43338000  0.87448000  1.0
  H  H105  1  0.48150000  0.56662000  0.37447000  1.0
  H  H106  1  0.98149000  0.56663000  0.12553000  1.0
  H  H107  1  0.51851000  0.43337000  0.62553000  1.0
  H  H108  1  0.17073000  0.32819000  0.67702000  1.0
  H  H109  1  0.32926000  0.67181000  0.17701000  1.0
  H  H110  1  0.82927000  0.67180000  0.32298000  1.0
  H  H111  1  0.67072000  0.32819000  0.82299000  1.0
  H  H112  1  0.10758000  0.20127000  0.63912000  1.0
  H  H113  1  0.39241000  0.79874000  0.13912000  1.0
  H  H114  1  0.89241000  0.79874000  0.36088000  1.0
  H  H115  1  0.60756000  0.20127000  0.86088000  1.0
  H  H116  1  0.71334000  0.30703000  0.69929000  1.0
  H  H117  1  0.78665000  0.69297000  0.19929000  1.0
  H  H118  1  0.28665000  0.69297000  0.30071000  1.0
  H  H119  1  0.21333000  0.30704000  0.80071000  1.0
  H  H120  1  0.77453000  0.43410000  0.73721000  1.0
  H  H121  1  0.72546000  0.56591000  0.23721000  1.0
  H  H122  1  0.22546000  0.56590000  0.26279000  1.0
  H  H123  1  0.27452000  0.43410000  0.76279000  1.0
  C  C124  1  0.06856000  0.18565000  0.95925000  1.0
  C  C125  1  0.43145000  0.81435000  0.45925000  1.0
  C  C126  1  0.93144000  0.81434000  0.04075000  1.0
  C  C127  1  0.56856000  0.18566000  0.54075000  1.0
  C  C128  1  0.11483000  0.08114000  0.02088000  1.0
  C  C129  1  0.38519000  0.91887000  0.52087000  1.0
  C  C130  1  0.88519000  0.91886000  0.97913000  1.0
  C  C131  1  0.61483000  0.08114000  0.47913000  1.0
  C  C132  1  0.00045000  0.13602000  0.03991000  1.0
  C  C133  1  0.49957000  0.86398000  0.53990000  1.0
  C  C134  1  0.99957000  0.86398000  0.96010000  1.0
  C  C135  1  0.50044000  0.13603000  0.46010000  1.0
  C  C136  1  0.86310000  0.27609000  0.00465000  1.0
  C  C137  1  0.63691000  0.72391000  0.50465000  1.0
  C  C138  1  0.13691000  0.72390000  0.99534000  1.0
  C  C139  1  0.36310000  0.27610000  0.49535000  1.0
  C  C140  1  0.81058000  0.32204000  0.95470000  1.0
  C  C141  1  0.68944000  0.67795000  0.45470000  1.0
  C  C142  1  0.18944000  0.67795000  0.04529000  1.0
  C  C143  1  0.31057000  0.32205000  0.54530000  1.0
  C  C144  1  0.70140000  0.39154000  0.95927000  1.0
  C  C145  1  0.79861000  0.60846000  0.45927000  1.0
  C  C146  1  0.29862000  0.60846000  0.04072000  1.0
  C  C147  1  0.20139000  0.39155000  0.54073000  1.0
  C  C148  1  0.64270000  0.41601000  0.01368000  1.0
  C  C149  1  0.85731000  0.58399000  0.51368000  1.0
  C  C150  1  0.35731000  0.58398000  0.98631000  1.0
  C  C151  1  0.14270000  0.41602000  0.48632000  1.0
  C  C152  1  0.69860000  0.37137000  0.06344000  1.0
  C  C153  1  0.80139000  0.62863000  0.56344000  1.0
  C  C154  1  0.30140000  0.62862000  0.93655000  1.0
  C  C155  1  0.19861000  0.37138000  0.43656000  1.0
  C  C156  1  0.80792000  0.30173000  0.05908000  1.0
  C  C157  1  0.69208000  0.69826000  0.55908000  1.0
  C  C158  1  0.19208000  0.69826000  0.94091000  1.0
  C  C159  1  0.30793000  0.30174000  0.44092000  1.0
  C  C160  1  0.52731000  0.88441000  0.96557000  1.0
  C  C161  1  0.97270000  0.11559000  0.46557000  1.0
  C  C162  1  0.47269000  0.11559000  0.03443000  1.0
  C  C163  1  0.02731000  0.88441000  0.53443000  1.0
  C  C164  1  0.33333333  0.87679000  0.99128000  1.0
  C  C165  1  0.16665000  0.12322000  0.49128000  1.0
  C  C166  1  0.66666667  0.12321000  0.00872000  1.0
  C  C167  1  0.83336000  0.87679000  0.50872000  1.0
  C  C168  1  0.41778000  0.79940000  0.00371000  1.0
  C  C169  1  0.08222000  0.20060000  0.50371000  1.0
  C  C170  1  0.58222000  0.20060000  0.99629000  1.0
  C  C171  1  0.91779000  0.79939000  0.49629000  1.0
  C  C172  1  0.65766000  0.73639000  0.98803000  1.0
  C  C173  1  0.84234000  0.26360000  0.48803000  1.0
  C  C174  1  0.34235000  0.26361000  0.01197000  1.0
  C  C175  1  0.15766000  0.73639000  0.51197000  1.0
  C  C176  1  0.75818000  0.73386000  0.94801000  1.0
  C  C177  1  0.74183000  0.26614000  0.44802000  1.0
  C  C178  1  0.24183000  0.26614000  0.05198000  1.0
  C  C179  1  0.25818000  0.73386000  0.55198000  1.0
  C  C180  1  0.86904000  0.66506000  0.94819000  1.0
  C  C181  1  0.63097000  0.33493000  0.44819000  1.0
  C  C182  1  0.13096000  0.33494000  0.05181000  1.0
  C  C183  1  0.36904000  0.66506000  0.55181000  1.0
  C  C184  1  0.88095000  0.59783000  0.98746000  1.0
  C  C185  1  0.61905000  0.40217000  0.48747000  1.0
  C  C186  1  0.11905000  0.40218000  0.01254000  1.0
  C  C187  1  0.38095000  0.59782000  0.51254000  1.0
  C  C188  1  0.78007000  0.60148000  0.02804000  1.0
  C  C189  1  0.71993000  0.39851000  0.52805000  1.0
  C  C190  1  0.21994000  0.39852000  0.97196000  1.0
  C  C191  1  0.28007000  0.60148000  0.47196000  1.0
  C  C192  1  0.66953000  0.67037000  0.02836000  1.0
  C  C193  1  0.83046000  0.32963000  0.52837000  1.0
  C  C194  1  0.33047000  0.32964000  0.97164000  1.0
  C  C195  1  0.16954000  0.67037000  0.47164000  1.0
  C  C196  1  0.22833000  0.91199000  0.84350000  1.0
  C  C197  1  0.27167000  0.08801000  0.34351000  1.0
  C  C198  1  0.77166000  0.08801000  0.15649000  1.0
  C  C199  1  0.72835000  0.91199000  0.65650000  1.0
  C  C200  1  0.19123000  0.83652000  0.81962000  1.0
  C  C201  1  0.30876000  0.16348000  0.31963000  1.0
  C  C202  1  0.80876000  0.16349000  0.18037000  1.0
  C  C203  1  0.69125000  0.83651000  0.68037000  1.0
  C  C204  1  0.28953000  0.76351000  0.80397000  1.0
  C  C205  1  0.21047000  0.23650000  0.30397000  1.0
  C  C206  1  0.71046000  0.23650000  0.19603000  1.0
  C  C207  1  0.78954000  0.76350000  0.69603000  1.0
  C  C208  1  0.25708000  0.69036000  0.78634000  1.0
  C  C209  1  0.24291000  0.30964000  0.28634000  1.0
  C  C210  1  0.74291000  0.30964000  0.21366000  1.0
  C  C211  1  0.75709000  0.69035000  0.71366000  1.0
  C  C212  1  0.12531000  0.68828000  0.78477000  1.0
  C  C213  1  0.37468000  0.31173000  0.28477000  1.0
  C  C214  1  0.87468000  0.31172000  0.21523000  1.0
  C  C215  1  0.62532000  0.68827000  0.71523000  1.0
  C  C216  1  0.02683000  0.76181000  0.80003000  1.0
  C  C217  1  0.47317000  0.23819000  0.30003000  1.0
  C  C218  1  0.97317000  0.23819000  0.19997000  1.0
  C  C219  1  0.52683000  0.76181000  0.69997000  1.0
  C  C220  1  0.05930000  0.83545000  0.81663000  1.0
  C  C221  1  0.44070000  0.16455000  0.31663000  1.0
  C  C222  1  0.94069000  0.16455000  0.18337000  1.0
  C  C223  1  0.55931000  0.83545000  0.68337000  1.0
  C  C224  1  0.09019000  0.61048000  0.76579000  1.0
  C  C225  1  0.40980000  0.38952000  0.26579000  1.0
  C  C226  1  0.90980000  0.38952000  0.23421000  1.0
  C  C227  1  0.59019000  0.61048000  0.73421000  1.0
  C  C228  1  0.10311000  0.58554000  0.70703000  1.0
  C  C229  1  0.39688000  0.41446000  0.20703000  1.0
  C  C230  1  0.89689000  0.41446000  0.29297000  1.0
  C  C231  1  0.60311000  0.58554000  0.79297000  1.0
  C  C232  1  0.06388000  0.51386000  0.69109000  1.0
  C  C233  1  0.43611000  0.48614000  0.19109000  1.0
  C  C234  1  0.93611000  0.48614000  0.30891000  1.0
  C  C235  1  0.56388000  0.51387000  0.80891000  1.0
  C  C236  1  0.01364000  0.46564000  0.73077000  1.0
  C  C237  1  0.48635000  0.53437000  0.23077000  1.0
  C  C238  1  0.98635000  0.53436000  0.26923000  1.0
  C  C239  1  0.51363000  0.46564000  0.76923000  1.0
  C  C240  1  0.00250000  0.48982000  0.78964000  1.0
  C  C241  1  0.49751000  0.51018000  0.28964000  1.0
  C  C242  1  0.99750000  0.51018000  0.21036000  1.0
  C  C243  1  0.50249000  0.48982000  0.71037000  1.0
  C  C244  1  0.04129000  0.56213000  0.80555000  1.0
  C  C245  1  0.45871000  0.43787000  0.30554000  1.0
  C  C246  1  0.95870000  0.43787000  0.19446000  1.0
  C  C247  1  0.54129000  0.56213000  0.69446000  1.0
  C  C248  1  0.15416000  0.63487000  0.66206000  1.0
  C  C249  1  0.34583000  0.36513000  0.16206000  1.0
  C  C250  1  0.84583000  0.36513000  0.33794000  1.0
  C  C251  1  0.65416000  0.63487000  0.83794000  1.0
  C  C252  1  0.95595000  0.43972000  0.83581000  1.0
  C  C253  1  0.54406000  0.56027000  0.33581000  1.0
  C  C254  1  0.04405000  0.56028000  0.16419000  1.0
  C  C255  1  0.45595000  0.43972000  0.66419000  1.0
  C  C256  1  0.97651000  0.39006000  0.70916000  1.0
  C  C257  1  0.52349000  0.60994000  0.20916000  1.0
  C  C258  1  0.02349000  0.60994000  0.29084000  1.0
  C  C259  1  0.47650000  0.39006000  0.79084000  1.0
  C  C260  1  0.06969000  0.32424000  0.68097000  1.0
  C  C261  1  0.43031000  0.67575000  0.18097000  1.0
  C  C262  1  0.93031000  0.67575000  0.31903000  1.0
  C  C263  1  0.56967000  0.32425000  0.81903000  1.0
  C  C264  1  0.03541000  0.25323000  0.66017000  1.0
  C  C265  1  0.46459000  0.74678000  0.16016000  1.0
  C  C266  1  0.96459000  0.74677000  0.33983000  1.0
  C  C267  1  0.53540000  0.25323000  0.83984000  1.0
  C  C268  1  0.90642000  0.24718000  0.66649000  1.0
  C  C269  1  0.59357000  0.75282000  0.16649000  1.0
  C  C270  1  0.09357000  0.75282000  0.33351000  1.0
  C  C271  1  0.40641000  0.24718000  0.83351000  1.0
  C  C272  1  0.81313000  0.31269000  0.69453000  1.0
  C  C273  1  0.68686000  0.68732000  0.19453000  1.0
  C  C274  1  0.18687000  0.68731000  0.30547000  1.0
  C  C275  1  0.31312000  0.31269000  0.80548000  1.0
  C  C276  1  0.84785000  0.38313000  0.71582000  1.0
  C  C277  1  0.65214000  0.61688000  0.21582000  1.0
  C  C278  1  0.15214000  0.61687000  0.28418000  1.0
  C  C279  1  0.34785000  0.38313000  0.78419000  1.0
  C  C280  1  0.86680000  0.17258000  0.64303000  1.0
  C  C281  1  0.63319000  0.82742000  0.14302000  1.0
  C  C282  1  0.13318000  0.82742000  0.35697000  1.0
  C  C283  1  0.36679000  0.17258000  0.85697000  1.0
  N  N284  1  0.15625000  0.11269000  0.97084000  1.0
  N  N285  1  0.34376000  0.88731000  0.47084000  1.0
  N  N286  1  0.84376000  0.88731000  0.02915000  1.0
  N  N287  1  0.65625000  0.11269000  0.52916000  1.0
  N  N288  1  0.97112000  0.20280000  0.00047000  1.0
  N  N289  1  0.52889000  0.79720000  0.50047000  1.0
  N  N290  1  0.02889000  0.79719000  0.99953000  1.0
  N  N291  1  0.47112000  0.20281000  0.49953000  1.0
  N  N292  1  0.52836000  0.48288000  0.02293000  1.0
  N  N293  1  0.97164000  0.51712000  0.52294000  1.0
  N  N294  1  0.47165000  0.51711000  0.97705000  1.0
  N  N295  1  0.02836000  0.48289000  0.47706000  1.0
  N  N296  1  0.99586000  0.53025000  0.98220000  1.0
  N  N297  1  0.50414000  0.46975000  0.48220000  1.0
  N  N298  1  0.00415000  0.46976000  0.01780000  1.0
  N  N299  1  0.49585000  0.53024000  0.51780000  1.0
  N  N300  1  0.54146000  0.80417000  0.98675000  1.0
  N  N301  1  0.95855000  0.19583000  0.48675000  1.0
  N  N302  1  0.45855000  0.19583000  0.01325000  1.0
  N  N303  1  0.04146000  0.80417000  0.51325000  1.0
  N  N304  1  0.40265000  0.92954000  0.96784000  1.0
  N  N305  1  0.09735000  0.07046000  0.46784000  1.0
  N  N306  1  0.59734000  0.07045000  0.03216000  1.0
  N  N307  1  0.90266000  0.92954000  0.53216000  1.0
  O  O308  1  0.14368000  0.96353000  0.87542000  1.0
  O  O309  1  0.35632000  0.03647000  0.37542000  1.0
  O  O310  1  0.85631000  0.03647000  0.12458000  1.0
  O  O311  1  0.64370000  0.96352000  0.62458000  1.0
  O  O312  1  0.34299000  0.91981000  0.83406000  1.0
  O  O313  1  0.15701000  0.08019000  0.33406000  1.0
  O  O314  1  0.65701000  0.08019000  0.16594000  1.0
  O  O315  1  0.84300000  0.91980000  0.66594000  1.0
  O  O316  1  0.74787000  0.17053000  0.64920000  1.0
  O  O317  1  0.75212000  0.82947000  0.14919000  1.0
  O  O318  1  0.25211000  0.82947000  0.35081000  1.0
  O  O319  1  0.24786000  0.17053000  0.85080000  1.0
  O  O320  1  0.95325000  0.11380000  0.61690000  1.0
  O  O321  1  0.54675000  0.88620000  0.11689000  1.0
  O  O322  1  0.04674000  0.88620000  0.38310000  1.0
  O  O323  1  0.45324000  0.11380000  0.88309000  1.0
