# generated using pymatgen
data_Al6H67C84IO28
_symmetry_space_group_name_H-M   'P 1'
_cell_length_a   13.29040000
_cell_length_b   13.33870000
_cell_length_c   28.25520000
_cell_angle_alpha   90.25940000
_cell_angle_beta   90.09170000
_cell_angle_gamma   60.51400000
_symmetry_Int_Tables_number   1
_chemical_formula_structural   Al6H67C84IO28
_chemical_formula_sum   'Al6 H67 C84 I1 O28'
_cell_volume   4360.15748953
_cell_formula_units_Z   1
loop_
 _symmetry_equiv_pos_site_id
 _symmetry_equiv_pos_as_xyz
  1  'x, y, z'
loop_
 _atom_site_type_symbol
 _atom_site_label
 _atom_site_symmetry_multiplicity
 _atom_site_fract_x
 _atom_site_fract_y
 _atom_site_fract_z
 _atom_site_occupancy
  Al  Al0  1  0.82323000  0.58924000  0.50131000  1.0
  Al  Al1  1  0.06757000  0.35523000  0.50035000  1.0
  Al  Al2  1  0.06995000  0.57856000  0.50136000  1.0
  Al  Al3  1  0.84064000  0.08856000  0.00050000  1.0
  Al  Al4  1  0.59751000  0.09001000  0.00013000  1.0
  Al  Al5  1  0.59182000  0.31753000  0.99954000  1.0
  H  H6  1  0.32322000  0.16043000  0.22168000  1.0
  H  H7  1  0.87665000  0.98412000  0.30699000  1.0
  H  H8  1  0.84436000  0.02879000  0.22633000  1.0
  H  H9  1  0.69633000  0.07337000  0.23404000  1.0
  H  H10  1  0.75470000  0.74101000  0.29011000  1.0
  H  H11  1  0.65671000  0.88552000  0.30475000  1.0
  H  H12  1  0.72202000  0.78605000  0.20948000  1.0
  H  H13  1  0.96790000  0.67607000  0.27921000  1.0
  H  H14  1  0.93669000  0.72065000  0.19857000  1.0
  H  H15  1  0.62476000  0.93099000  0.22400000  1.0
  H  H16  1  0.73975000  0.52421000  0.20383000  1.0
  H  H17  1  0.47595000  0.15554000  0.29298000  1.0
  H  H18  1  0.76756000  0.52946000  0.28555000  1.0
  H  H19  1  0.74752000  0.26113000  0.30142000  1.0
  H  H20  1  0.66691000  0.41310000  0.30085000  1.0
  H  H21  1  0.63760000  0.40906000  0.21915000  1.0
  H  H22  1  0.71794000  0.25694000  0.21990000  1.0
  H  H23  1  0.03466000  0.23955000  0.27793000  1.0
  H  H24  1  0.96420000  0.15913000  0.28829000  1.0
  H  H25  1  0.00544000  0.23330000  0.19627000  1.0
  H  H26  1  0.91841000  0.45893000  0.27655000  1.0
  H  H27  1  0.89082000  0.45212000  0.19491000  1.0
  H  H28  1  0.14007000  0.35780000  0.26530000  1.0
  H  H29  1  0.93412000  0.15387000  0.20665000  1.0
  H  H30  1  0.40013000  0.45575000  0.78566000  1.0
  H  H31  1  0.34597000  0.48626000  0.70566000  1.0
  H  H32  1  0.46902000  0.16882000  0.69459000  1.0
  H  H33  1  0.50198000  0.28192000  0.69806000  1.0
  H  H34  1  0.54159000  0.23675000  0.77854000  1.0
  H  H35  1  0.48273000  0.14383000  0.77677000  1.0
  H  H36  1  0.15328000  0.34861000  0.71852000  1.0
  H  H37  1  0.27099000  0.20773000  0.71582000  1.0
  H  H38  1  0.17747000  0.36585000  0.79932000  1.0
  H  H39  1  0.19303000  0.50106000  0.20871000  1.0
  H  H40  1  0.20384000  0.51918000  0.72013000  1.0
  H  H41  1  0.25378000  0.50512000  0.79992000  1.0
  H  H42  1  0.27356000  0.21556000  0.79885000  1.0
  H  H43  1  0.73766000  0.75781000  0.79452000  1.0
  H  H44  1  0.75339000  0.73408000  0.71245000  1.0
  H  H45  1  0.73566000  0.01559000  0.69521000  1.0
  H  H46  1  0.65669000  0.94126000  0.69754000  1.0
  H  H47  1  0.63334000  0.97286000  0.77946000  1.0
  H  H48  1  0.71048000  0.04893000  0.77693000  1.0
  H  H49  1  0.02605000  0.75891000  0.71583000  1.0
  H  H50  1  0.34590000  0.49604000  0.27998000  1.0
  H  H51  1  0.95188000  0.90876000  0.70590000  1.0
  H  H52  1  0.00206000  0.79064000  0.79756000  1.0
  H  H53  1  0.88956000  0.68369000  0.80052000  1.0
  H  H54  1  0.92932000  0.94062000  0.78800000  1.0
  H  H55  1  0.98384000  0.19327000  0.79505000  1.0
  H  H56  1  0.01140000  0.19449000  0.71300000  1.0
  H  H57  1  0.70412000  0.27591000  0.69109000  1.0
  H  H58  1  0.84603000  0.15928000  0.69801000  1.0
  H  H59  1  0.81301000  0.15973000  0.77956000  1.0
  H  H60  1  0.52886000  0.29874000  0.23639000  1.0
  H  H61  1  0.67310000  0.27920000  0.77274000  1.0
  H  H62  1  0.77989000  0.50828000  0.70804000  1.0
  H  H63  1  0.66534000  0.47909000  0.69923000  1.0
  H  H64  1  0.76145000  0.50361000  0.79008000  1.0
  H  H65  1  0.98830000  0.33625000  0.71774000  1.0
  H  H66  1  0.96012000  0.33551000  0.79901000  1.0
  H  H67  1  0.64096000  0.48322000  0.78172000  1.0
  H  H68  1  0.98568000  0.82109000  0.20556000  1.0
  H  H69  1  0.01777000  0.77586000  0.28626000  1.0
  H  H70  1  0.72859000  0.02920000  0.31466000  1.0
  H  H71  1  0.63388000  0.67405000  0.47242000  1.0
  H  H72  1  0.03014000  0.98657000  0.97167000  1.0
  C  C73  1  0.90350000  0.39000000  0.43203000  1.0
  C  C74  1  0.25799000  0.37204000  0.38948000  1.0
  C  C75  1  0.44228000  0.31202000  0.24331000  1.0
  C  C76  1  0.35753000  0.31449000  0.20290000  1.0
  C  C77  1  0.34098000  0.42148000  0.26668000  1.0
  C  C78  1  0.31146000  0.34224000  0.29877000  1.0
  C  C79  1  0.25569000  0.42451000  0.22787000  1.0
  C  C80  1  0.22675000  0.34452000  0.25834000  1.0
  C  C81  1  0.38383000  0.30167000  0.15394000  1.0
  C  C82  1  0.28446000  0.35697000  0.34766000  1.0
  C  C83  1  0.94565000  0.76585000  0.27274000  1.0
  C  C84  1  0.20707000  0.39849000  0.43587000  1.0
  C  C85  1  0.80546000  0.97238000  0.29359000  1.0
  C  C86  1  0.78422000  0.00178000  0.24018000  1.0
  C  C87  1  0.77297000  0.93923000  0.11912000  1.0
  C  C88  1  0.83556000  0.84587000  0.30171000  1.0
  C  C89  1  0.92475000  0.79531000  0.21956000  1.0
  C  C90  1  0.80001000  0.89540000  0.21155000  1.0
  C  C91  1  0.71278000  0.85988000  0.23033000  1.0
  C  C92  1  0.73391000  0.83032000  0.28355000  1.0
  C  C93  1  0.78304000  0.92116000  0.16144000  1.0
  C  C94  1  0.85744000  0.81344000  0.35115000  1.0
  C  C95  1  0.90412000  0.71583000  0.43555000  1.0
  C  C96  1  0.87819000  0.77672000  0.39134000  1.0
  C  C97  1  0.84000000  0.45357000  0.26902000  1.0
  C  C98  1  0.73967000  0.33818000  0.28398000  1.0
  C  C99  1  0.72024000  0.33537000  0.23013000  1.0
  C  C100  1  0.77973000  0.32557000  0.11051000  1.0
  C  C101  1  0.85176000  0.34383000  0.29311000  1.0
  C  C102  1  0.82145000  0.44981000  0.21513000  1.0
  C  C103  1  0.81920000  0.33811000  0.20212000  1.0
  C  C104  1  0.93553000  0.23281000  0.21679000  1.0
  C  C105  1  0.95495000  0.23648000  0.27063000  1.0
  C  C106  1  0.89991000  0.38318000  0.56508000  1.0
  C  C107  1  0.79869000  0.33369000  0.15201000  1.0
  C  C108  1  0.86879000  0.35081000  0.34337000  1.0
  C  C109  1  0.88224000  0.36244000  0.38516000  1.0
  C  C110  1  0.29526000  0.45557000  0.72537000  1.0
  C  C111  1  0.44698000  0.24977000  0.71305000  1.0
  C  C112  1  0.46605000  0.23025000  0.76710000  1.0
  C  C113  1  0.40949000  0.29196000  0.88734000  1.0
  C  C114  1  0.31884000  0.33901000  0.70357000  1.0
  C  C115  1  0.32664000  0.44170000  0.77856000  1.0
  C  C116  1  0.35837000  0.31925000  0.79517000  1.0
  C  C117  1  0.20593000  0.39732000  0.56643000  1.0
  C  C118  1  0.25699000  0.29741000  0.78308000  1.0
  C  C119  1  0.24414000  0.29516000  0.72881000  1.0
  C  C120  1  0.38427000  0.30522000  0.84552000  1.0
  C  C121  1  0.29121000  0.35307000  0.65332000  1.0
  C  C122  1  0.26085000  0.36963000  0.61208000  1.0
  C  C123  1  0.82805000  0.73621000  0.72782000  1.0
  C  C124  1  0.72994000  0.94585000  0.71332000  1.0
  C  C125  1  0.71430000  0.96738000  0.76729000  1.0
  C  C126  1  0.78425000  0.91191000  0.88688000  1.0
  C  C127  1  0.84294000  0.83133000  0.70280000  1.0
  C  C128  1  0.90209000  0.71574000  0.56685000  1.0
  C  C129  1  0.81739000  0.75443000  0.78180000  1.0
  C  C130  1  0.81553000  0.86841000  0.79435000  1.0
  C  C131  1  0.93048000  0.86035000  0.77802000  1.0
  C  C132  1  0.94615000  0.83911000  0.72405000  1.0
  C  C133  1  0.79908000  0.89013000  0.84483000  1.0
  C  C134  1  0.85801000  0.80735000  0.65242000  1.0
  C  C135  1  0.87467000  0.77704000  0.61126000  1.0
  C  C136  1  0.95127000  0.28113000  0.72650000  1.0
  C  C137  1  0.78514000  0.24645000  0.71081000  1.0
  C  C138  1  0.76490000  0.24697000  0.76481000  1.0
  C  C139  1  0.41331000  0.23212000  0.27379000  1.0
  C  C140  1  0.77203000  0.31175000  0.88334000  1.0
  C  C141  1  0.83469000  0.32708000  0.69988000  1.0
  C  C142  1  0.93294000  0.28026000  0.78039000  1.0
  C  C143  1  0.80343000  0.32508000  0.79108000  1.0
  C  C144  1  0.73212000  0.44929000  0.77208000  1.0
  C  C145  1  0.74759000  0.44978000  0.71798000  1.0
  C  C146  1  0.78580000  0.32031000  0.84137000  1.0
  C  C147  1  0.85458000  0.33315000  0.64983000  1.0
  C  C148  1  0.87347000  0.34804000  0.60916000  1.0
  C  C149  1  0.75890000  0.97586000  0.07059000  1.0
  C  C150  1  0.32806000  0.23507000  0.23494000  1.0
  C  C151  1  0.45788000  0.26786000  0.06526000  1.0
  C  C152  1  0.75601000  0.29576000  0.06451000  1.0
  C  C153  1  0.76298000  0.95876000  0.93415000  1.0
  C  C154  1  0.45880000  0.26806000  0.93404000  1.0
  C  C155  1  0.75432000  0.28417000  0.93060000  1.0
  C  C156  1  0.40876000  0.29056000  0.11195000  1.0
  I  I157  1  0.96926000  0.56529000  0.70983000  1.0
  O  O158  1  0.83210000  0.68749000  0.45037000  1.0
  O  O159  1  0.17868000  0.32563000  0.54852000  1.0
  O  O160  1  0.18345000  0.49370000  0.54803000  1.0
  O  O161  1  0.00074000  0.68990000  0.54840000  1.0
  O  O162  1  0.98876000  0.50684000  0.50077000  1.0
  O  O163  1  0.83113000  0.20083000  0.04725000  1.0
  O  O164  1  0.83234000  0.00030000  0.05417000  1.0
  O  O165  1  0.66995000  0.98424000  0.04845000  1.0
  O  O166  1  0.48084000  0.17184000  0.04594000  1.0
  O  O167  1  0.48022000  0.34260000  0.04732000  1.0
  O  O168  1  0.65745000  0.36624000  0.04579000  1.0
  O  O169  1  0.82938000  0.48549000  0.44945000  1.0
  O  O170  1  0.82936000  0.18773000  0.94659000  1.0
  O  O171  1  0.83611000  0.98284000  0.95143000  1.0
  O  O172  1  0.66786000  0.97709000  0.95395000  1.0
  O  O173  1  0.48540000  0.17027000  0.95199000  1.0
  O  O174  1  0.47768000  0.34433000  0.95334000  1.0
  O  O175  1  0.66102000  0.35829000  0.95188000  1.0
  O  O176  1  0.67455000  0.16610000  0.99975000  1.0
  O  O177  1  0.99944000  0.31609000  0.45144000  1.0
  O  O178  1  0.18478000  0.32471000  0.45490000  1.0
  O  O179  1  0.18281000  0.49612000  0.45384000  1.0
  O  O180  1  0.00119000  0.69152000  0.45531000  1.0
  O  O181  1  0.83017000  0.68812000  0.55121000  1.0
  O  O182  1  0.83036000  0.48358000  0.55098000  1.0
  O  O183  1  0.99550000  0.31038000  0.54469000  1.0
  O  O184  1  0.67187000  0.66518000  0.50254000  1.0
  O  O185  1  0.99190000  0.01620000  0.00167000  1.0
