# generated using pymatgen
data_NaZnH17C23N2O9
_symmetry_space_group_name_H-M   'P 1'
_cell_length_a   8.98479000
_cell_length_b   10.42920000
_cell_length_c   12.49110000
_cell_angle_alpha   97.86700000
_cell_angle_beta   98.23070000
_cell_angle_gamma   96.69060000
_symmetry_Int_Tables_number   1
_chemical_formula_structural   NaZnH17C23N2O9
_chemical_formula_sum   'Na2 Zn2 H34 C46 N4 O18'
_cell_volume   1136.39801041
_cell_formula_units_Z   2
loop_
 _symmetry_equiv_pos_site_id
 _symmetry_equiv_pos_as_xyz
  1  'x, y, z'
loop_
 _atom_site_type_symbol
 _atom_site_label
 _atom_site_symmetry_multiplicity
 _atom_site_fract_x
 _atom_site_fract_y
 _atom_site_fract_z
 _atom_site_occupancy
  Na  Na0  1  0.64575000  0.08828000  0.97629000  1.0
  Na  Na1  1  0.35425000  0.91172000  0.02370000  1.0
  Zn  Zn2  1  0.69094000  0.29790000  0.20671000  1.0
  Zn  Zn3  1  0.30906000  0.70210000  0.79329000  1.0
  H  H4  1  0.48528000  0.07431000  0.30096000  1.0
  H  H5  1  0.51472000  0.92568000  0.69904000  1.0
  H  H6  1  0.37446000  0.06161000  0.47433000  1.0
  H  H7  1  0.62554000  0.93838000  0.52567000  1.0
  H  H8  1  0.45059000  0.24511000  0.63104000  1.0
  H  H9  1  0.54941000  0.75488000  0.36896000  1.0
  H  H10  1  0.59796000  0.47123000  0.70325000  1.0
  H  H11  1  0.40204000  0.52876000  0.29675000  1.0
  H  H12  1  0.79420000  0.64898000  0.68046000  1.0
  H  H13  1  0.20579000  0.35102000  0.31954000  1.0
  H  H14  1  0.96560000  0.74711000  0.56415000  1.0
  H  H15  1  0.03439000  0.25288000  0.43585000  1.0
  H  H16  1  0.04880000  0.73957000  0.37806000  1.0
  H  H17  1  0.95119000  0.26042000  0.62194000  1.0
  H  H18  1  0.08392000  0.54707000  0.10430000  1.0
  H  H19  1  0.91609000  0.45294000  0.89571000  1.0
  H  H20  1  0.27336000  0.51260000  0.13648000  1.0
  H  H21  1  0.72664000  0.48741000  0.86352000  1.0
  H  H22  1  0.31387000  0.91331000  0.31425000  1.0
  H  H23  1  0.68613000  0.08670000  0.68576000  1.0
  H  H24  1  0.16288000  0.10232000  0.31768000  1.0
  H  H25  1  0.83713000  0.89769000  0.68232000  1.0
  H  H26  1  0.99371000  0.70814000  0.03891000  1.0
  H  H27  1  0.00629000  0.29187000  0.96109000  1.0
  H  H28  1  0.76677000  0.68867000  0.99989000  1.0
  H  H29  1  0.23323000  0.31133000  0.00011000  1.0
  H  H30  1  0.84003000  0.76161000  0.89270000  1.0
  H  H31  1  0.15998000  0.23839000  0.10731000  1.0
  H  H32  1  0.92956000  0.55516000  0.22911000  1.0
  H  H33  1  0.07043000  0.44484000  0.77089000  1.0
  H  H34  1  0.36210000  0.03522000  0.82222000  1.0
  H  H35  1  0.63791000  0.96479000  0.17778000  1.0
  H  H36  1  0.40226000  0.18692000  0.83305000  1.0
  H  H37  1  0.59775000  0.81309000  0.16695000  1.0
  C  C38  1  0.51353000  0.15348000  0.37033000  1.0
  C  C39  1  0.48647000  0.84651000  0.62967000  1.0
  C  C40  1  0.45251000  0.14716000  0.46759000  1.0
  C  C41  1  0.54748000  0.85283000  0.53241000  1.0
  C  C42  1  0.49362000  0.24915000  0.55397000  1.0
  C  C43  1  0.50638000  0.75084000  0.44603000  1.0
  C  C44  1  0.59513000  0.35863000  0.54261000  1.0
  C  C45  1  0.40487000  0.64135000  0.45739000  1.0
  C  C46  1  0.64505000  0.46837000  0.62742000  1.0
  C  C47  1  0.35495000  0.53162000  0.37258000  1.0
  C  C48  1  0.75046000  0.56806000  0.61428000  1.0
  C  C49  1  0.24954000  0.43193000  0.38572000  1.0
  C  C50  1  0.80863000  0.56849000  0.51334000  1.0
  C  C51  1  0.19136000  0.43150000  0.48666000  1.0
  C  C52  1  0.91829000  0.66910000  0.49621000  1.0
  C  C53  1  0.08170000  0.33090000  0.50379000  1.0
  C  C54  1  0.96463000  0.66415000  0.39506000  1.0
  C  C55  1  0.03537000  0.33585000  0.60494000  1.0
  C  C56  1  0.75443000  0.46508000  0.42500000  1.0
  C  C57  1  0.24556000  0.53491000  0.57500000  1.0
  C  C58  1  0.65000000  0.35663000  0.44129000  1.0
  C  C59  1  0.34999000  0.64336000  0.55871000  1.0
  C  C60  1  0.22709000  0.58420000  0.98530000  1.0
  C  C61  1  0.77290000  0.41580000  0.01471000  1.0
  C  C62  1  0.20418000  0.58314000  0.10435000  1.0
  C  C63  1  0.79582000  0.41687000  0.89565000  1.0
  C  C64  1  0.16118000  0.79929000  0.17748000  1.0
  C  C65  1  0.83882000  0.20071000  0.82252000  1.0
  C  C66  1  0.20986000  0.91063000  0.25705000  1.0
  C  C67  1  0.79015000  0.08937000  0.74295000  1.0
  C  C68  1  0.12536000  0.01374000  0.25814000  1.0
  C  C69  1  0.87464000  0.98627000  0.74185000  1.0
  C  C70  1  0.99013000  0.01028000  0.18502000  1.0
  C  C71  1  0.00987000  0.98972000  0.81497000  1.0
  C  C72  1  0.94337000  0.89727000  0.10494000  1.0
  C  C73  1  0.05663000  0.10273000  0.89506000  1.0
  C  C74  1  0.02983000  0.79354000  0.10105000  1.0
  C  C75  1  0.97018000  0.20647000  0.89895000  1.0
  C  C76  1  0.90820000  0.12688000  0.19905000  1.0
  C  C77  1  0.09181000  0.87312000  0.80094000  1.0
  C  C78  1  0.76507000  0.77261000  0.95514000  1.0
  C  C79  1  0.23494000  0.22739000  0.04487000  1.0
  C  C80  1  0.60401000  0.77310000  0.89954000  1.0
  C  C81  1  0.39600000  0.22690000  0.10045000  1.0
  C  C82  1  0.90109000  0.55989000  0.31114000  1.0
  C  C83  1  0.09891000  0.44011000  0.68886000  1.0
  N  N84  1  0.60964000  0.25538000  0.35795000  1.0
  N  N85  1  0.39036000  0.74462000  0.64205000  1.0
  N  N86  1  0.79840000  0.46306000  0.32513000  1.0
  N  N87  1  0.20160000  0.53694000  0.67487000  1.0
  O  O88  1  0.76077000  0.11026000  0.17537000  1.0
  O  O89  1  0.23923000  0.88975000  0.82463000  1.0
  O  O90  1  0.53719000  0.66506000  0.84289000  1.0
  O  O91  1  0.46282000  0.33494000  0.15711000  1.0
  O  O92  1  0.54367000  0.87635000  0.91182000  1.0
  O  O93  1  0.45634000  0.12365000  0.08817000  1.0
  O  O94  1  0.81560000  0.89364000  0.03002000  1.0
  O  O95  1  0.18441000  0.10636000  0.96998000  1.0
  O  O96  1  0.98289000  0.23735000  0.23649000  1.0
  O  O97  1  0.01711000  0.76266000  0.76351000  1.0
  O  O98  1  0.25126000  0.70261000  0.17922000  1.0
  O  O99  1  0.74875000  0.29740000  0.82078000  1.0
  O  O100  1  0.27236000  0.69272000  0.95502000  1.0
  O  O101  1  0.72764000  0.30728000  0.04498000  1.0
  O  O102  1  0.19648000  0.47483000  0.92584000  1.0
  O  O103  1  0.80351000  0.52517000  0.07417000  1.0
  O  O104  1  0.44443000  0.10602000  0.81755000  1.0
  O  O105  1  0.55558000  0.89399000  0.18245000  1.0
