# generated using pymatgen
data_Zr3H14C26BrO21
_symmetry_space_group_name_H-M   'P 1'
_cell_length_a   14.77250000
_cell_length_b   14.78390000
_cell_length_c   14.77820000
_cell_angle_alpha   60.01630000
_cell_angle_beta   60.03800000
_cell_angle_gamma   60.09900000
_symmetry_Int_Tables_number   1
_chemical_formula_structural   Zr3H14C26BrO21
_chemical_formula_sum   'Zr6 H28 C52 Br2 O42'
_cell_volume   2284.81886434
_cell_formula_units_Z   2
loop_
 _symmetry_equiv_pos_site_id
 _symmetry_equiv_pos_as_xyz
  1  'x, y, z'
loop_
 _atom_site_type_symbol
 _atom_site_label
 _atom_site_symmetry_multiplicity
 _atom_site_fract_x
 _atom_site_fract_y
 _atom_site_fract_z
 _atom_site_occupancy
  Zr  Zr0  1  0.11647000  0.12251000  0.38117000  1.0
  Zr  Zr1  1  0.88135000  0.88150000  0.61688000  1.0
  Zr  Zr2  1  0.12110000  0.88342000  0.37643000  1.0
  Zr  Zr3  1  0.87873000  0.12096000  0.61861000  1.0
  Zr  Zr4  1  0.11870000  0.88154000  0.61724000  1.0
  Zr  Zr5  1  0.88022000  0.12024000  0.37925000  1.0
  H  H6  1  0.28246000  0.90721000  0.40431000  1.0
  H  H7  1  0.90540000  0.90422000  0.78115000  1.0
  H  H8  1  0.90766000  0.90602000  0.40342000  1.0
  H  H9  1  0.90368000  0.28375000  0.40585000  1.0
  H  H10  1  0.43059000  0.84093000  0.62436000  1.0
  H  H11  1  0.55544000  0.16934000  0.39114000  1.0
  H  H12  1  0.86238000  0.40729000  0.07516000  1.0
  H  H13  1  0.15177000  0.57867000  0.90485000  1.0
  H  H14  1  0.87924000  0.16397000  0.89074000  1.0
  H  H15  1  0.13887000  0.85180000  0.08975000  1.0
  H  H16  1  0.57811000  0.40787000  0.64883000  1.0
  H  H17  1  0.40457000  0.57765000  0.36136000  1.0
  H  H18  1  0.42319000  0.01352000  0.25803000  1.0
  H  H19  1  0.59284000  0.00327000  0.26018000  1.0
  H  H20  1  0.76142000  0.00582000  0.92382000  1.0
  H  H21  1  0.76304000  0.99972000  0.09150000  1.0
  H  H22  1  0.15164000  0.40768000  0.36192000  1.0
  H  H23  1  0.86626000  0.57772000  0.65292000  1.0
  H  H24  1  0.66764000  0.83005000  0.63704000  1.0
  H  H25  1  0.31665000  0.18095000  0.38070000  1.0
  H  H26  1  0.85290000  0.64476000  0.83713000  1.0
  H  H27  1  0.16064000  0.34201000  0.14356000  1.0
  H  H28  1  0.86643000  0.17330000  0.13067000  1.0
  H  H29  1  0.15310000  0.84307000  0.84892000  1.0
  H  H30  1  0.33988000  0.64535000  0.65917000  1.0
  H  H31  1  0.64145000  0.33855000  0.35316000  1.0
  H  H32  1  0.16388000  0.64478000  0.35116000  1.0
  H  H33  1  0.85350000  0.34106000  0.66325000  1.0
  C  C34  1  0.29923000  0.00401000  0.50661000  1.0
  C  C35  1  0.00531000  0.69051000  0.79833000  1.0
  C  C36  1  0.69181000  0.00274000  0.50231000  1.0
  C  C37  1  0.00129000  0.30314000  0.18936000  1.0
  C  C38  1  0.29489000  0.01609000  0.18812000  1.0
  C  C39  1  0.00434000  0.30210000  0.50427000  1.0
  C  C40  1  0.68976000  0.00900000  0.79556000  1.0
  C  C41  1  0.00630000  0.69053000  0.50358000  1.0
  C  C42  1  0.30096000  0.69168000  0.50038000  1.0
  C  C43  1  0.00573000  0.00480000  0.18831000  1.0
  C  C44  1  0.68865000  0.30124000  0.50337000  1.0
  C  C45  1  0.00486000  0.00527000  0.79882000  1.0
  C  C46  1  0.58922000  0.00301000  0.50747000  1.0
  C  C47  1  0.39759000  0.00669000  0.50712000  1.0
  C  C48  1  0.55309000  0.90898000  0.57564000  1.0
  C  C49  1  0.43237000  0.10161000  0.44073000  1.0
  C  C50  1  0.45786000  0.91289000  0.57353000  1.0
  C  C51  1  0.52805000  0.09743000  0.44207000  1.0
  C  C52  1  0.00622000  0.58794000  0.89501000  1.0
  C  C53  1  0.00711000  0.39885000  0.08578000  1.0
  C  C54  1  0.92390000  0.53805000  0.94271000  1.0
  C  C55  1  0.09138000  0.44681000  0.03617000  1.0
  C  C56  1  0.92608000  0.44448000  0.03756000  1.0
  C  C57  1  0.08872000  0.54082000  0.94182000  1.0
  C  C58  1  0.00679000  0.00843000  0.08607000  1.0
  C  C59  1  0.01006000  0.00629000  0.89552000  1.0
  C  C60  1  0.93289000  0.09895000  0.02861000  1.0
  C  C61  1  0.08612000  0.91731000  0.95112000  1.0
  C  C62  1  0.93606000  0.09570000  0.93440000  1.0
  C  C63  1  0.08213000  0.92004000  0.04600000  1.0
  C  C64  1  0.39685000  0.58837000  0.50565000  1.0
  C  C65  1  0.58593000  0.39785000  0.50434000  1.0
  C  C66  1  0.44531000  0.53881000  0.58946000  1.0
  C  C67  1  0.53541000  0.44512000  0.42273000  1.0
  C  C68  1  0.53950000  0.44483000  0.58643000  1.0
  C  C69  1  0.44213000  0.54007000  0.42474000  1.0
  C  C70  1  0.39408000  0.02263000  0.08436000  1.0
  C  C71  1  0.49296000  0.01307000  0.08912000  1.0
  C  C72  1  0.38999000  0.03776000  0.98591000  1.0
  C  C73  1  0.49749000  0.00818000  0.18548000  1.0
  C  C74  1  0.59261000  0.00334000  0.18643000  1.0
  C  C75  1  0.58609000  0.01678000  0.89494000  1.0
  C  C76  1  0.48676000  0.03447000  0.89058000  1.0
  C  C77  1  0.59068000  0.01039000  0.99258000  1.0
  C  C78  1  0.68782000  0.00365000  0.99731000  1.0
  C  C79  1  0.68852000  0.00119000  0.09147000  1.0
  C  C80  1  0.01063000  0.58762000  0.50561000  1.0
  C  C81  1  0.00665000  0.39833000  0.50866000  1.0
  C  C82  1  0.09367000  0.53819000  0.42281000  1.0
  C  C83  1  0.92542000  0.44598000  0.59320000  1.0
  C  C84  1  0.08951000  0.44456000  0.42594000  1.0
  C  C85  1  0.92905000  0.54017000  0.58952000  1.0
  Br  Br86  1  0.47873000  0.06064000  0.75491000  1.0
  Br  Br87  1  0.25321000  0.06839000  0.97720000  1.0
  O  O88  1  0.25709000  0.08304000  0.43033000  1.0
  O  O89  1  0.92603000  0.73398000  0.75866000  1.0
  O  O90  1  0.73658000  0.92223000  0.57620000  1.0
  O  O91  1  0.07531000  0.26535000  0.23379000  1.0
  O  O92  1  0.26139000  0.93514000  0.22788000  1.0
  O  O93  1  0.92536000  0.26226000  0.58008000  1.0
  O  O94  1  0.73143000  0.08455000  0.75478000  1.0
  O  O95  1  0.08196000  0.73362000  0.42431000  1.0
  O  O96  1  0.26059000  0.73384000  0.57699000  1.0
  O  O97  1  0.92781000  0.08194000  0.22958000  1.0
  O  O98  1  0.73095000  0.26027000  0.42531000  1.0
  O  O99  1  0.07985000  0.92584000  0.75970000  1.0
  O  O100  1  0.07905000  0.92672000  0.23175000  1.0
  O  O101  1  0.73236000  0.26386000  0.57613000  1.0
  O  O102  1  0.92695000  0.07957000  0.76007000  1.0
  O  O103  1  0.26309000  0.73627000  0.42126000  1.0
  O  O104  1  0.25470000  0.09024000  0.23124000  1.0
  O  O105  1  0.92822000  0.73359000  0.57734000  1.0
  O  O106  1  0.73032000  0.92820000  0.76178000  1.0
  O  O107  1  0.07795000  0.26329000  0.42611000  1.0
  O  O108  1  0.92401000  0.26316000  0.23185000  1.0
  O  O109  1  0.26184000  0.92461000  0.57846000  1.0
  O  O110  1  0.07951000  0.73342000  0.75899000  1.0
  O  O111  1  0.73237000  0.07880000  0.42604000  1.0
  O  O112  1  0.93076000  0.20349000  0.43243000  1.0
  O  O113  1  0.93387000  0.93378000  0.42983000  1.0
  O  O114  1  0.93166000  0.93330000  0.70084000  1.0
  O  O115  1  0.20215000  0.93567000  0.43013000  1.0
  O  O116  1  0.05008000  0.85299000  0.54636000  1.0
  O  O117  1  0.04810000  0.05036000  0.54937000  1.0
  O  O118  1  0.85092000  0.05012000  0.54801000  1.0
  O  O119  1  0.04881000  0.05183000  0.35005000  1.0
  O  O120  1  0.60714000  0.81498000  0.64119000  1.0
  O  O121  1  0.37712000  0.19615000  0.37647000  1.0
  O  O122  1  0.84261000  0.57724000  0.90161000  1.0
  O  O123  1  0.17368000  0.40674000  0.07619000  1.0
  O  O124  1  0.85910000  0.18811000  0.06093000  1.0
  O  O125  1  0.16160000  0.82925000  0.91766000  1.0
  O  O126  1  0.40541000  0.57894000  0.67167000  1.0
  O  O127  1  0.57417000  0.40310000  0.34221000  1.0
  O  O128  1  0.17599000  0.57811000  0.34018000  1.0
  O  O129  1  0.84397000  0.40518000  0.67665000  1.0
