# generated using pymatgen
data_MnH32C34Br4(N2O3)2
_symmetry_space_group_name_H-M   'P 1'
_cell_length_a   9.08996000
_cell_length_b   9.60285913
_cell_length_c   11.28350000
_cell_angle_alpha   76.66250169
_cell_angle_beta   85.37720000
_cell_angle_gamma   61.89051001
_symmetry_Int_Tables_number   1
_chemical_formula_structural   MnH32C34Br4(N2O3)2
_chemical_formula_sum   'Mn1 H32 C34 Br4 N4 O6'
_cell_volume   844.87328651
_cell_formula_units_Z   1
loop_
 _symmetry_equiv_pos_site_id
 _symmetry_equiv_pos_as_xyz
  1  'x, y, z'
loop_
 _atom_site_type_symbol
 _atom_site_label
 _atom_site_symmetry_multiplicity
 _atom_site_fract_x
 _atom_site_fract_y
 _atom_site_fract_z
 _atom_site_occupancy
  Mn  Mn0  1  0.00000000  0.00000000  0.00000000  1.0
  H  H1  1  0.78350000  0.93302000  0.94264000  1.0
  H  H2  1  0.21650000  0.06698000  0.05735000  1.0
  H  H3  1  0.78722000  0.87710000  0.09666000  1.0
  H  H4  1  0.21277000  0.12290000  0.90334000  1.0
  H  H5  1  0.34432000  0.80503000  0.10345000  1.0
  H  H6  1  0.65568000  0.19496000  0.89655000  1.0
  H  H7  1  0.22944000  0.38595000  0.33872000  1.0
  H  H8  1  0.77055000  0.61405000  0.66128000  1.0
  H  H9  1  0.28206000  0.18312000  0.35320000  1.0
  H  H10  1  0.71793000  0.81689000  0.64680000  1.0
  H  H11  1  0.56279000  0.12826000  0.57556000  1.0
  H  H12  1  0.43721000  0.87174000  0.42444000  1.0
  H  H13  1  0.03137000  0.35974000  0.50328000  1.0
  H  H14  1  0.96862000  0.64028000  0.49672000  1.0
  H  H15  1  0.58657000  0.10314000  0.37493000  1.0
  H  H16  1  0.41342000  0.89687000  0.62507000  1.0
  H  H17  1  0.53594000  0.30699000  0.36441000  1.0
  H  H18  1  0.46405000  0.69302000  0.63559000  1.0
  H  H19  1  0.54185000  0.51987000  0.18504000  1.0
  H  H20  1  0.45814000  0.48013000  0.81496000  1.0
  H  H21  1  0.01018000  0.68188000  0.98426000  1.0
  H  H22  1  0.98981000  0.31812000  0.01575000  1.0
  H  H23  1  0.50569000  0.10355000  0.79418000  1.0
  H  H24  1  0.49431000  0.89645000  0.20582000  1.0
  H  H25  1  0.62603000  0.21837000  0.16689000  1.0
  H  H26  1  0.37396000  0.78162000  0.83312000  1.0
  H  H27  1  0.45751000  0.17437000  0.16758000  1.0
  H  H28  1  0.54249000  0.82562000  0.83242000  1.0
  H  H29  1  0.99502000  0.31939000  0.72751000  1.0
  H  H30  1  0.00497000  0.68063000  0.27250000  1.0
  H  H31  1  0.19331000  0.39003000  0.06611000  1.0
  H  H32  1  0.80667000  0.60997000  0.93390000  1.0
  C  C33  1  0.09062000  0.02269000  0.24317000  1.0
  C  C34  1  0.90941000  0.97730000  0.75683000  1.0
  C  C35  1  0.11436000  0.86049000  0.46143000  1.0
  C  C36  1  0.88567000  0.13951000  0.53857000  1.0
  C  C37  1  0.06513000  0.85116000  0.58276000  1.0
  C  C38  1  0.93491000  0.14883000  0.41724000  1.0
  C  C39  1  0.31423000  0.71038000  0.09663000  1.0
  C  C40  1  0.68577000  0.28961000  0.90337000  1.0
  C  C41  1  0.04812000  0.00948000  0.37704000  1.0
  C  C42  1  0.95192000  0.99051000  0.62296000  1.0
  C  C43  1  0.32150000  0.26254000  0.38318000  1.0
  C  C44  1  0.67849000  0.73746000  0.61682000  1.0
  C  C45  1  0.38490000  0.42707000  0.13546000  1.0
  C  C46  1  0.61509000  0.57293000  0.86453000  1.0
  C  C47  1  0.30094000  0.24590000  0.51849000  1.0
  C  C48  1  0.69905000  0.75411000  0.48150000  1.0
  C  C49  1  0.43396000  0.17522000  0.60362000  1.0
  C  C50  1  0.56605000  0.82477000  0.39638000  1.0
  C  C51  1  0.14012000  0.30140000  0.56506000  1.0
  C  C52  1  0.85987000  0.69861000  0.43494000  1.0
  C  C53  1  0.49447000  0.22841000  0.33582000  1.0
  C  C54  1  0.50552000  0.77159000  0.66419000  1.0
  C  C55  1  0.42461000  0.54952000  0.14179000  1.0
  C  C56  1  0.57538000  0.45048000  0.85821000  1.0
  C  C57  1  0.12835000  0.64181000  0.03059000  1.0
  C  C58  1  0.87164000  0.35819000  0.96942000  1.0
  C  C59  1  0.40198000  0.16135000  0.72759000  1.0
  C  C60  1  0.59801000  0.83866000  0.27241000  1.0
  C  C61  1  0.49700000  0.25418000  0.19581000  1.0
  C  C62  1  0.50300000  0.74582000  0.80419000  1.0
  C  C63  1  0.11896000  0.28135000  0.68986000  1.0
  C  C64  1  0.88104000  0.71866000  0.31014000  1.0
  C  C65  1  0.23258000  0.47819000  0.07591000  1.0
  C  C66  1  0.76741000  0.52181000  0.92409000  1.0
  Br  Br67  1  0.27324000  0.67208000  0.40924000  1.0
  Br  Br68  1  0.72677000  0.32791000  0.59075000  1.0
  Br  Br69  1  0.14601000  0.64841000  0.69567000  1.0
  Br  Br70  1  0.85403000  0.35158000  0.30433000  1.0
  N  N71  1  0.16363000  0.76054000  0.04318000  1.0
  N  N72  1  0.83636000  0.23946000  0.95682000  1.0
  N  N73  1  0.24756000  0.21189000  0.77124000  1.0
  N  N74  1  0.75243000  0.78812000  0.22876000  1.0
  O  O75  1  0.99906000  0.99710000  0.18017000  1.0
  O  O76  1  0.00095000  0.00289000  0.81983000  1.0
  O  O77  1  0.80163000  0.95382000  0.02209000  1.0
  O  O78  1  0.19837000  0.04618000  0.97790000  1.0
  O  O79  1  0.20506000  0.06052000  0.20710000  1.0
  O  O80  1  0.79496000  0.93948000  0.79288000  1.0
