# generated using pymatgen
data_FeH24C27S2(N3O2)2
_symmetry_space_group_name_H-M   'P 1'
_cell_length_a   10.06560000
_cell_length_b   10.08750000
_cell_length_c   17.16820000
_cell_angle_alpha   78.59360000
_cell_angle_beta   78.52220000
_cell_angle_gamma   71.18590000
_symmetry_Int_Tables_number   1
_chemical_formula_structural   FeH24C27S2(N3O2)2
_chemical_formula_sum   'Fe2 H48 C54 S4 N12 O8'
_cell_volume   1600.20850882
_cell_formula_units_Z   2
loop_
 _symmetry_equiv_pos_site_id
 _symmetry_equiv_pos_as_xyz
  1  'x, y, z'
loop_
 _atom_site_type_symbol
 _atom_site_label
 _atom_site_symmetry_multiplicity
 _atom_site_fract_x
 _atom_site_fract_y
 _atom_site_fract_z
 _atom_site_occupancy
  Fe  Fe0  1  0.00636000  0.99768000  0.49208000  1.0
  Fe  Fe1  1  0.99731000  0.01771000  0.99777000  1.0
  H  H2  1  0.48622000  0.31408000  0.78798000  1.0
  H  H3  1  0.68582000  0.51190000  0.71523000  1.0
  H  H4  1  0.51162000  0.68418000  0.21425000  1.0
  H  H5  1  0.31386000  0.48619000  0.28669000  1.0
  H  H6  1  0.36008000  0.40016000  0.71904000  1.0
  H  H7  1  0.60118000  0.63573000  0.78555000  1.0
  H  H8  1  0.63781000  0.60030000  0.28337000  1.0
  H  H9  1  0.40117000  0.35797000  0.21908000  1.0
  H  H10  1  0.78824000  0.26575000  0.56548000  1.0
  H  H11  1  0.73581000  0.20583000  0.93369000  1.0
  H  H12  1  0.20534000  0.73426000  0.43196000  1.0
  H  H13  1  0.26770000  0.78833000  0.06695000  1.0
  H  H14  1  0.28942000  0.00541000  0.77305000  1.0
  H  H15  1  0.99381000  0.70340000  0.73010000  1.0
  H  H16  1  0.70844000  0.99275000  0.23002000  1.0
  H  H17  1  0.00904000  0.28418000  0.27042000  1.0
  H  H18  1  0.25357000  0.81587000  0.57656000  1.0
  H  H19  1  0.18219000  0.76182000  0.92098000  1.0
  H  H20  1  0.75738000  0.18327000  0.42256000  1.0
  H  H21  1  0.81445000  0.25847000  0.07370000  1.0
  H  H22  1  0.45667000  0.13923000  0.73594000  1.0
  H  H23  1  0.86168000  0.54088000  0.76761000  1.0
  H  H24  1  0.54181000  0.86086000  0.26697000  1.0
  H  H25  1  0.13988000  0.45362000  0.23258000  1.0
  H  H26  1  0.77864000  0.85135000  0.59160000  1.0
  H  H27  1  0.14939000  0.22121000  0.91258000  1.0
  H  H28  1  0.21302000  0.15007000  0.40720000  1.0
  H  H29  1  0.85018000  0.78470000  0.09381000  1.0
  H  H30  1  0.50565000  0.63296000  0.62693000  1.0
  H  H31  1  0.36526000  0.49592000  0.87710000  1.0
  H  H32  1  0.49686000  0.36560000  0.37639000  1.0
  H  H33  1  0.63358000  0.50402000  0.12584000  1.0
  H  H34  1  0.32343000  0.64239000  0.66238000  1.0
  H  H35  1  0.35722000  0.67709000  0.84088000  1.0
  H  H36  1  0.67859000  0.35695000  0.33985000  1.0
  H  H37  1  0.64293000  0.32229000  0.16147000  1.0
  H  H38  1  0.55849000  0.90021000  0.69432000  1.0
  H  H39  1  0.09979000  0.44028000  0.81178000  1.0
  H  H40  1  0.43658000  0.09985000  0.30914000  1.0
  H  H41  1  0.89964000  0.55962000  0.19256000  1.0
  H  H42  1  0.98939000  0.21825000  0.60592000  1.0
  H  H43  1  0.77782000  0.01807000  0.88835000  1.0
  H  H44  1  0.01930000  0.78044000  0.39061000  1.0
  H  H45  1  0.21718000  0.98860000  0.10033000  1.0
  H  H46  1  0.09241000  0.22038000  0.72659000  1.0
  H  H47  1  0.77668000  0.90218000  0.77287000  1.0
  H  H48  1  0.90705000  0.77713000  0.27506000  1.0
  H  H49  1  0.22292000  0.08819000  0.22070000  1.0
  C  C50  1  0.46087000  0.53834000  0.75197000  1.0
  C  C51  1  0.53939000  0.45960000  0.25107000  1.0
  C  C52  1  0.46303000  0.39428000  0.73482000  1.0
  C  C53  1  0.60620000  0.53388000  0.76890000  1.0
  C  C54  1  0.53515000  0.60482000  0.26774000  1.0
  C  C55  1  0.39505000  0.46145000  0.23396000  1.0
  C  C56  1  0.61490000  0.22199000  0.65303000  1.0
  C  C57  1  0.78004000  0.38029000  0.84905000  1.0
  C  C58  1  0.38062000  0.77881000  0.34781000  1.0
  C  C59  1  0.22304000  0.61357000  0.15206000  1.0
  C  C60  1  0.73608000  0.18623000  0.59569000  1.0
  C  C61  1  0.81585000  0.25793000  0.90504000  1.0
  C  C62  1  0.25630000  0.81485000  0.40278000  1.0
  C  C63  1  0.18711000  0.73703000  0.09659000  1.0
  C  C64  1  0.24076000  0.01179000  0.72044000  1.0
  C  C65  1  0.98674000  0.75722000  0.78077000  1.0
  C  C66  1  0.76049000  0.98676000  0.28121000  1.0
  C  C67  1  0.01401000  0.23770000  0.21725000  1.0
  C  C68  1  0.22265000  0.90275000  0.61144000  1.0
  C  C69  1  0.09539000  0.78824000  0.88644000  1.0
  C  C70  1  0.78690000  0.09657000  0.38784000  1.0
  C  C71  1  0.90209000  0.22431000  0.10814000  1.0
  C  C72  1  0.54920000  0.11825000  0.68994000  1.0
  C  C73  1  0.88264000  0.44794000  0.81310000  1.0
  C  C74  1  0.44743000  0.88187000  0.31172000  1.0
  C  C75  1  0.11874000  0.54797000  0.18803000  1.0
  C  C76  1  0.28812000  0.89747000  0.67683000  1.0
  C  C77  1  0.10103000  0.71515000  0.82428000  1.0
  C  C78  1  0.71639000  0.10086000  0.32486000  1.0
  C  C79  1  0.89903000  0.28700000  0.17407000  1.0
  C  C80  1  0.72823000  0.95534000  0.61018000  1.0
  C  C81  1  0.04583000  0.26913000  0.89327000  1.0
  C  C82  1  0.26324000  0.04595000  0.38914000  1.0
  C  C83  1  0.95483000  0.73224000  0.11141000  1.0
  C  C84  1  0.05322000  0.68544000  0.56981000  1.0
  C  C85  1  0.31612000  0.94999000  0.92854000  1.0
  C  C86  1  0.94776000  0.31637000  0.42633000  1.0
  C  C87  1  0.68337000  0.05608000  0.07174000  1.0
  C  C88  1  0.42079000  0.64979000  0.67863000  1.0
  C  C89  1  0.34902000  0.57993000  0.82514000  1.0
  C  C90  1  0.58109000  0.34856000  0.32439000  1.0
  C  C91  1  0.65078000  0.41944000  0.17751000  1.0
  C  C92  1  0.60718000  0.98357000  0.66700000  1.0
  C  C93  1  0.01657000  0.39041000  0.83737000  1.0
  C  C94  1  0.38709000  0.01643000  0.33475000  1.0
  C  C95  1  0.98333000  0.60848000  0.16601000  1.0
  C  C96  1  0.07244000  0.12758000  0.62845000  1.0
  C  C97  1  0.86951000  0.93415000  0.86749000  1.0
  C  C98  1  0.93577000  0.87163000  0.36940000  1.0
  C  C99  1  0.12701000  0.07119000  0.12361000  1.0
  C  C100  1  0.13228000  0.12857000  0.69492000  1.0
  C  C101  1  0.86901000  0.86684000  0.80401000  1.0
  C  C102  1  0.87012000  0.87020000  0.30557000  1.0
  C  C103  1  0.12973000  0.12952000  0.19011000  1.0
  S  S104  1  0.08647000  0.52329000  0.61453000  1.0
  S  S105  1  0.48155000  0.90540000  0.88883000  1.0
  S  S106  1  0.90909000  0.48173000  0.38739000  1.0
  S  S107  1  0.51971000  0.08449000  0.11409000  1.0
  N  N108  1  0.79193000  0.05582000  0.57613000  1.0
  N  N109  1  0.94704000  0.20025000  0.92582000  1.0
  N  N110  1  0.19521000  0.94667000  0.42178000  1.0
  N  N111  1  0.05588000  0.79588000  0.07835000  1.0
  N  N112  1  0.02955000  0.80480000  0.53748000  1.0
  N  N113  1  0.19428000  0.98127000  0.95738000  1.0
  N  N114  1  0.97525000  0.19475000  0.45488000  1.0
  N  N115  1  0.80370000  0.03562000  0.04072000  1.0
  N  N116  1  0.11540000  0.01540000  0.58888000  1.0
  N  N117  1  0.98229000  0.89755000  0.90616000  1.0
  N  N118  1  0.89841000  0.98492000  0.40842000  1.0
  N  N119  1  0.01319000  0.11494000  0.08432000  1.0
  O  O120  1  0.57319000  0.35771000  0.66838000  1.0
  O  O121  1  0.64361000  0.42193000  0.83420000  1.0
  O  O122  1  0.42436000  0.64193000  0.33386000  1.0
  O  O123  1  0.35952000  0.56982000  0.16675000  1.0
  O  O124  1  0.39799000  0.78620000  0.70144000  1.0
  O  O125  1  0.21218000  0.60255000  0.80258000  1.0
  O  O126  1  0.60391000  0.21148000  0.30241000  1.0
  O  O127  1  0.78791000  0.39625000  0.19976000  1.0
