# generated using pymatgen
data_CdH12(C8O3)2
_symmetry_space_group_name_H-M   'P 1'
_cell_length_a   7.40800000
_cell_length_b   7.97535000
_cell_length_c   13.11912056
_cell_angle_alpha   72.34426844
_cell_angle_beta   89.74945621
_cell_angle_gamma   89.93970000
_symmetry_Int_Tables_number   1
_chemical_formula_structural   CdH12(C8O3)2
_chemical_formula_sum   'Cd2 H24 C32 O12'
_cell_volume   738.57878437
_cell_formula_units_Z   2
loop_
 _symmetry_equiv_pos_site_id
 _symmetry_equiv_pos_as_xyz
  1  'x, y, z'
loop_
 _atom_site_type_symbol
 _atom_site_label
 _atom_site_symmetry_multiplicity
 _atom_site_fract_x
 _atom_site_fract_y
 _atom_site_fract_z
 _atom_site_occupancy
  Cd  Cd0  1  0.75006000  0.02333000  0.99982000  1.0
  Cd  Cd1  1  0.24995000  0.97667000  0.00018000  1.0
  H  H2  1  0.83161000  0.68309000  0.35614000  1.0
  H  H3  1  0.66806000  0.03845000  0.64413000  1.0
  H  H4  1  0.16839000  0.31691000  0.64385000  1.0
  H  H5  1  0.33194000  0.96153000  0.35587000  1.0
  H  H6  1  0.43135000  0.42739000  0.33061000  1.0
  H  H7  1  0.06834000  0.75866000  0.66894000  1.0
  H  H8  1  0.56865000  0.57262000  0.66939000  1.0
  H  H9  1  0.93165000  0.24136000  0.33106000  1.0
  H  H10  1  0.28616000  0.36135000  0.50339000  1.0
  H  H11  1  0.21379000  0.86536000  0.49626000  1.0
  H  H12  1  0.71383000  0.63865000  0.49661000  1.0
  H  H13  1  0.78619000  0.13465000  0.50374000  1.0
  H  H14  1  0.50025000  0.59699000  0.05130000  1.0
  H  H15  1  0.99956000  0.64851000  0.94862000  1.0
  H  H16  1  0.49976000  0.40302000  0.94870000  1.0
  H  H17  1  0.00045000  0.35147000  0.05139000  1.0
  H  H18  1  0.57035000  0.59474000  0.18192000  1.0
  H  H19  1  0.92889000  0.77678000  0.81805000  1.0
  H  H20  1  0.42965000  0.40527000  0.81808000  1.0
  H  H21  1  0.07111000  0.22321000  0.18195000  1.0
  H  H22  1  0.45331000  0.40712000  0.16428000  1.0
  H  H23  1  0.04678000  0.57175000  0.83549000  1.0
  H  H24  1  0.54670000  0.59289000  0.83572000  1.0
  H  H25  1  0.95323000  0.42823000  0.16452000  1.0
  C  C26  1  0.04520000  0.51852000  0.44726000  1.0
  C  C27  1  0.45467000  0.96573000  0.55270000  1.0
  C  C28  1  0.95480000  0.48149000  0.55273000  1.0
  C  C29  1  0.54532000  0.03427000  0.44731000  1.0
  C  C30  1  0.96381000  0.62468000  0.35388000  1.0
  C  C31  1  0.53579000  0.97827000  0.64621000  1.0
  C  C32  1  0.03618000  0.37530000  0.64612000  1.0
  C  C33  1  0.46421000  0.02173000  0.35379000  1.0
  C  C34  1  0.04301000  0.66273000  0.25226000  1.0
  C  C35  1  0.45620000  0.91507000  0.74773000  1.0
  C  C36  1  0.95699000  0.33726000  0.74774000  1.0
  C  C37  1  0.54379000  0.08493000  0.25227000  1.0
  C  C38  1  0.21660000  0.59361000  0.24277000  1.0
  C  C39  1  0.28261000  0.83697000  0.75700000  1.0
  C  C40  1  0.78341000  0.40639000  0.75723000  1.0
  C  C41  1  0.71738000  0.16303000  0.24300000  1.0
  C  C42  1  0.29962000  0.48500000  0.33542000  1.0
  C  C43  1  0.19991000  0.82106000  0.66425000  1.0
  C  C44  1  0.70038000  0.51500000  0.66458000  1.0
  C  C45  1  0.80008000  0.17895000  0.33575000  1.0
  C  C46  1  0.21554000  0.44819000  0.43478000  1.0
  C  C47  1  0.28428000  0.88340000  0.56496000  1.0
  C  C48  1  0.78446000  0.55181000  0.56522000  1.0
  C  C49  1  0.71570000  0.11661000  0.43504000  1.0
  C  C50  1  0.93442000  0.77284000  0.16139000  1.0
  C  C51  1  0.56450000  0.93402000  0.83880000  1.0
  C  C52  1  0.06559000  0.22716000  0.83861000  1.0
  C  C53  1  0.43551000  0.06597000  0.16120000  1.0
  C  C54  1  0.46614000  0.55088000  0.13631000  1.0
  C  C55  1  0.03343000  0.68751000  0.86355000  1.0
  C  C56  1  0.53387000  0.44913000  0.86369000  1.0
  C  C57  1  0.96658000  0.31247000  0.13646000  1.0
  O  O58  1  0.77645000  0.81848000  0.17890000  1.0
  O  O59  1  0.72213000  0.99782000  0.82126000  1.0
  O  O60  1  0.22356000  0.18152000  0.82110000  1.0
  O  O61  1  0.27787000  0.00217000  0.17874000  1.0
  O  O62  1  0.99701000  0.82010000  0.06415000  1.0
  O  O63  1  0.50244000  0.88312000  0.93611000  1.0
  O  O64  1  0.00300000  0.17990000  0.93585000  1.0
  O  O65  1  0.49756000  0.11688000  0.06389000  1.0
  O  O66  1  0.29490000  0.63233000  0.14422000  1.0
  O  O67  1  0.20422000  0.77727000  0.85553000  1.0
  O  O68  1  0.70510000  0.36768000  0.85577000  1.0
  O  O69  1  0.79578000  0.22273000  0.14447000  1.0
