# generated using pymatgen
data_NaH4C6S(NO)3
_symmetry_space_group_name_H-M   'P 1'
_cell_length_a   5.79475000
_cell_length_b   8.42114000
_cell_length_c   17.41870000
_cell_angle_alpha   90.00000000
_cell_angle_beta   89.60650000
_cell_angle_gamma   89.99950000
_symmetry_Int_Tables_number   1
_chemical_formula_structural   NaH4C6S(NO)3
_chemical_formula_sum   'Na4 H16 C24 S4 N12 O12'
_cell_volume   849.98466145
_cell_formula_units_Z   4
loop_
 _symmetry_equiv_pos_site_id
 _symmetry_equiv_pos_as_xyz
  1  'x, y, z'
loop_
 _atom_site_type_symbol
 _atom_site_label
 _atom_site_symmetry_multiplicity
 _atom_site_fract_x
 _atom_site_fract_y
 _atom_site_fract_z
 _atom_site_occupancy
  Na  Na0  1  0.36913000  0.68351000  0.98131000  1.0
  Na  Na1  1  0.13087000  0.18351000  0.01869000  1.0
  Na  Na2  1  0.63088000  0.31648000  0.01869000  1.0
  Na  Na3  1  0.86913000  0.81649000  0.98130000  1.0
  H  H4  1  0.97108000  0.34634000  0.24673000  1.0
  H  H5  1  0.52893000  0.84633000  0.75326000  1.0
  H  H6  1  0.02893000  0.65367000  0.75328000  1.0
  H  H7  1  0.47107000  0.15365000  0.24673000  1.0
  H  H8  1  0.15890000  0.34097000  0.37619000  1.0
  H  H9  1  0.34108000  0.84096000  0.62381000  1.0
  H  H10  1  0.84111000  0.65906000  0.62382000  1.0
  H  H11  1  0.65889000  0.15904000  0.37619000  1.0
  H  H12  1  0.69928000  0.64793000  0.29005000  1.0
  H  H13  1  0.80071000  0.14794000  0.70995000  1.0
  H  H14  1  0.30074000  0.35208000  0.70995000  1.0
  H  H15  1  0.19928000  0.85207000  0.29005000  1.0
  H  H16  1  0.51403000  0.65262000  0.16289000  1.0
  H  H17  1  0.98598000  0.15262000  0.83711000  1.0
  H  H18  1  0.48598000  0.34737000  0.83712000  1.0
  H  H19  1  0.01403000  0.84736000  0.16289000  1.0
  C  C20  1  0.23084000  0.50035000  0.19770000  1.0
  C  C21  1  0.26916000  0.00036000  0.80230000  1.0
  C  C22  1  0.76917000  0.49966000  0.80230000  1.0
  C  C23  1  0.73084000  0.99964000  0.19769000  1.0
  C  C24  1  0.12941000  0.41250000  0.25709000  1.0
  C  C25  1  0.37058000  0.91250000  0.74290000  1.0
  C  C26  1  0.87060000  0.58751000  0.74291000  1.0
  C  C27  1  0.62940000  0.08748000  0.25709000  1.0
  C  C28  1  0.23381000  0.40917000  0.32898000  1.0
  C  C29  1  0.26618000  0.90916000  0.67101000  1.0
  C  C30  1  0.76619000  0.59085000  0.67103000  1.0
  C  C31  1  0.73380000  0.09083000  0.32898000  1.0
  C  C32  1  0.43902000  0.49382000  0.34096000  1.0
  C  C33  1  0.06098000  0.99382000  0.65904000  1.0
  C  C34  1  0.56098000  0.50619000  0.65905000  1.0
  C  C35  1  0.93902000  0.00618000  0.34095000  1.0
  C  C36  1  0.53925000  0.58244000  0.28107000  1.0
  C  C37  1  0.96075000  0.08244000  0.71893000  1.0
  C  C38  1  0.46076000  0.41757000  0.71893000  1.0
  C  C39  1  0.03925000  0.91755000  0.28108000  1.0
  C  C40  1  0.43580000  0.58469000  0.20944000  1.0
  C  C41  1  0.06420000  0.08470000  0.79055000  1.0
  C  C42  1  0.56423000  0.41531000  0.79056000  1.0
  C  C43  1  0.93579000  0.91530000  0.20945000  1.0
  S  S44  1  0.11060000  0.50024000  0.10420000  1.0
  S  S45  1  0.38939000  0.00024000  0.89579000  1.0
  S  S46  1  0.88941000  0.49975000  0.89580000  1.0
  S  S47  1  0.61060000  0.99975000  0.10420000  1.0
  N  N48  1  0.53776000  0.48261000  0.41454000  1.0
  N  N49  1  0.96222000  0.98261000  0.58546000  1.0
  N  N50  1  0.46226000  0.51741000  0.58547000  1.0
  N  N51  1  0.03775000  0.01739000  0.41454000  1.0
  N  N52  1  0.70813000  0.56413000  0.42992000  1.0
  N  N53  1  0.79185000  0.06413000  0.57008000  1.0
  N  N54  1  0.29190000  0.43589000  0.57009000  1.0
  N  N55  1  0.20811000  0.93588000  0.42992000  1.0
  N  N56  1  0.86510000  0.63258000  0.45232000  1.0
  N  N57  1  0.63489000  0.13259000  0.54768000  1.0
  N  N58  1  0.13490000  0.36742000  0.54768000  1.0
  N  N59  1  0.36511000  0.86741000  0.45232000  1.0
  O  O60  1  0.05681000  0.66505000  0.08291000  1.0
  O  O61  1  0.44320000  0.16505000  0.91709000  1.0
  O  O62  1  0.94320000  0.33494000  0.91709000  1.0
  O  O63  1  0.55680000  0.83494000  0.08291000  1.0
  O  O64  1  0.91132000  0.39339000  0.10715000  1.0
  O  O65  1  0.58866000  0.89338000  0.89284000  1.0
  O  O66  1  0.08869000  0.60660000  0.89285000  1.0
  O  O67  1  0.41133000  0.10660000  0.10715000  1.0
  O  O68  1  0.29500000  0.43903000  0.05255000  1.0
  O  O69  1  0.20498000  0.93903000  0.94744000  1.0
  O  O70  1  0.70501000  0.56096000  0.94745000  1.0
  O  O71  1  0.79501000  0.06096000  0.05256000  1.0
