# generated using pymatgen
data_Zn2H20C28S(NO4)2
_symmetry_space_group_name_H-M   'P 1'
_cell_length_a   9.28717000
_cell_length_b   10.07320000
_cell_length_c   16.77480000
_cell_angle_alpha   88.38480000
_cell_angle_beta   82.36790000
_cell_angle_gamma   68.53220000
_symmetry_Int_Tables_number   1
_chemical_formula_structural   Zn2H20C28S(NO4)2
_chemical_formula_sum   'Zn4 H40 C56 S2 N4 O16'
_cell_volume   1447.14247594
_cell_formula_units_Z   2
loop_
 _symmetry_equiv_pos_site_id
 _symmetry_equiv_pos_as_xyz
  1  'x, y, z'
loop_
 _atom_site_type_symbol
 _atom_site_label
 _atom_site_symmetry_multiplicity
 _atom_site_fract_x
 _atom_site_fract_y
 _atom_site_fract_z
 _atom_site_occupancy
  Zn  Zn0  1  0.90589000  0.90756000  0.03133000  1.0
  Zn  Zn1  1  0.11006000  0.81205000  0.85017000  1.0
  Zn  Zn2  1  0.09410000  0.09245000  0.96867000  1.0
  Zn  Zn3  1  0.88995000  0.18795000  0.14983000  1.0
  H  H4  1  0.97444000  0.02239000  0.29728000  1.0
  H  H5  1  0.84193000  0.92382000  0.40889000  1.0
  H  H6  1  0.41703000  0.11253000  0.29982000  1.0
  H  H7  1  0.56494000  0.20929000  0.19598000  1.0
  H  H8  1  0.44491000  0.92506000  0.40943000  1.0
  H  H9  1  0.28513000  0.12004000  0.49424000  1.0
  H  H10  1  0.65074000  0.19593000  0.51263000  1.0
  H  H11  1  0.71212000  0.38608000  0.43954000  1.0
  H  H12  1  0.27293000  0.51702000  0.34400000  1.0
  H  H13  1  0.21141000  0.32645000  0.41735000  1.0
  H  H14  1  0.44585000  0.63311000  0.29844000  1.0
  H  H15  1  0.78207000  0.49444000  0.33992000  1.0
  H  H16  1  0.96893000  0.58380000  0.27454000  1.0
  H  H17  1  0.04433000  0.73512000  0.16948000  1.0
  H  H18  1  0.59841000  0.89899000  0.10574000  1.0
  H  H19  1  0.50067000  0.76065000  0.20753000  1.0
  H  H20  1  0.47098000  0.41795000  0.92319000  1.0
  H  H21  1  0.44715000  0.11346000  0.10473000  1.0
  H  H22  1  0.06160000  0.51209000  0.09839000  1.0
  H  H23  1  0.02557000  0.97760000  0.70272000  1.0
  H  H24  1  0.15807000  0.07616000  0.59111000  1.0
  H  H25  1  0.58297000  0.88748000  0.70018000  1.0
  H  H26  1  0.43507000  0.79072000  0.80402000  1.0
  H  H27  1  0.55509000  0.07493000  0.59056000  1.0
  H  H28  1  0.71486000  0.87995000  0.50576000  1.0
  H  H29  1  0.34926000  0.80405000  0.48736000  1.0
  H  H30  1  0.28788000  0.61390000  0.56045000  1.0
  H  H31  1  0.72706000  0.48297000  0.65600000  1.0
  H  H32  1  0.78858000  0.67354000  0.58265000  1.0
  H  H33  1  0.55414000  0.36689000  0.70155000  1.0
  H  H34  1  0.21792000  0.50556000  0.66008000  1.0
  H  H35  1  0.03106000  0.41620000  0.72547000  1.0
  H  H36  1  0.95567000  0.26488000  0.83052000  1.0
  H  H37  1  0.40159000  0.10101000  0.89426000  1.0
  H  H38  1  0.49933000  0.23936000  0.79247000  1.0
  H  H39  1  0.52902000  0.58206000  0.07682000  1.0
  H  H40  1  0.55286000  0.88655000  0.89527000  1.0
  H  H41  1  0.93841000  0.48791000  0.90160000  1.0
  H  H42  1  0.11897000  0.95266000  0.09587000  1.0
  H  H43  1  0.88103000  0.04734000  0.90413000  1.0
  C  C44  1  0.85030000  0.04071000  0.30113000  1.0
  C  C45  1  0.77476000  0.98590000  0.36304000  1.0
  C  C46  1  0.61518000  0.01241000  0.36598000  1.0
  C  C47  1  0.53994000  0.09099000  0.30312000  1.0
  C  C48  1  0.62170000  0.14482000  0.24423000  1.0
  C  C49  1  0.51703000  0.97450000  0.43463000  1.0
  C  C50  1  0.40801000  0.10706000  0.49288000  1.0
  C  C51  1  0.42726000  0.24462000  0.46934000  1.0
  C  C52  1  0.56631000  0.26664000  0.47614000  1.0
  C  C53  1  0.60231000  0.37312000  0.43404000  1.0
  C  C54  1  0.49969000  0.46300000  0.38347000  1.0
  C  C55  1  0.35456000  0.44936000  0.38277000  1.0
  C  C56  1  0.31940000  0.34155000  0.42474000  1.0
  C  C57  1  0.54083000  0.56238000  0.32946000  1.0
  C  C58  1  0.68497000  0.56761000  0.31140000  1.0
  C  C59  1  0.72671000  0.65971000  0.25231000  1.0
  C  C60  1  0.88128000  0.65610000  0.24033000  1.0
  C  C61  1  0.92459000  0.73836000  0.18140000  1.0
  C  C62  1  0.67494000  0.82945000  0.14573000  1.0
  C  C63  1  0.62207000  0.75128000  0.20342000  1.0
  C  C64  1  0.25872000  0.47983000  0.00742000  1.0
  C  C65  1  0.40803000  0.38716000  0.97535000  1.0
  C  C66  1  0.47589000  0.25493000  0.01024000  1.0
  C  C67  1  0.39486000  0.21654000  0.07788000  1.0
  C  C68  1  0.24812000  0.30972000  0.11064000  1.0
  C  C69  1  0.17825000  0.44033000  0.07490000  1.0
  C  C70  1  0.18142000  0.62140000  0.97086000  1.0
  C  C71  1  0.63604000  0.15208000  0.97805000  1.0
  C  C72  1  0.14970000  0.95928000  0.69887000  1.0
  C  C73  1  0.22524000  0.01408000  0.63696000  1.0
  C  C74  1  0.38482000  0.98758000  0.63402000  1.0
  C  C75  1  0.46006000  0.90901000  0.69688000  1.0
  C  C76  1  0.37831000  0.85519000  0.75577000  1.0
  C  C77  1  0.48297000  0.02550000  0.56537000  1.0
  C  C78  1  0.59199000  0.89293000  0.50712000  1.0
  C  C79  1  0.57273000  0.75537000  0.53066000  1.0
  C  C80  1  0.43369000  0.73335000  0.52386000  1.0
  C  C81  1  0.39769000  0.62686000  0.56595000  1.0
  C  C82  1  0.50031000  0.53699000  0.61653000  1.0
  C  C83  1  0.64543000  0.55063000  0.61723000  1.0
  C  C84  1  0.68060000  0.65845000  0.57525000  1.0
  C  C85  1  0.45917000  0.43761000  0.67053000  1.0
  C  C86  1  0.31503000  0.43239000  0.68860000  1.0
  C  C87  1  0.27328000  0.34030000  0.74770000  1.0
  C  C88  1  0.11871000  0.34390000  0.75968000  1.0
  C  C89  1  0.07541000  0.26164000  0.81860000  1.0
  C  C90  1  0.32506000  0.17055000  0.85427000  1.0
  C  C91  1  0.37792000  0.24873000  0.79658000  1.0
  C  C92  1  0.74128000  0.52017000  0.99258000  1.0
  C  C93  1  0.59198000  0.61285000  0.02465000  1.0
  C  C94  1  0.52411000  0.74508000  0.98976000  1.0
  C  C95  1  0.60515000  0.78347000  0.92213000  1.0
  C  C96  1  0.75189000  0.69029000  0.88936000  1.0
  C  C97  1  0.82175000  0.55968000  0.92510000  1.0
  C  C98  1  0.81858000  0.37860000  0.02914000  1.0
  C  C99  1  0.36396000  0.84792000  0.02195000  1.0
  S  S100  1  0.15821000  0.26539000  0.20353000  1.0
  S  S101  1  0.84180000  0.73462000  0.79647000  1.0
  N  N102  1  0.77465000  0.12107000  0.24321000  1.0
  N  N103  1  0.82364000  0.82331000  0.13393000  1.0
  N  N104  1  0.22536000  0.87893000  0.75679000  1.0
  N  N105  1  0.17636000  0.17669000  0.86607000  1.0
  O  O106  1  0.04378000  0.69630000  0.00209000  1.0
  O  O107  1  0.25608000  0.65769000  0.90947000  1.0
  O  O108  1  0.70771000  0.17821000  0.91394000  1.0
  O  O109  1  0.68735000  0.04129000  0.02156000  1.0
  O  O110  1  0.98791000  0.30945000  0.19441000  1.0
  O  O111  1  0.17690000  0.35517000  0.26507000  1.0
  O  O112  1  0.23184000  0.11173000  0.21335000  1.0
  O  O113  1  0.01643000  0.02240000  0.08081000  1.0
  O  O114  1  0.95623000  0.30370000  0.99791000  1.0
  O  O115  1  0.74393000  0.34232000  0.09053000  1.0
  O  O116  1  0.29229000  0.82179000  0.08607000  1.0
  O  O117  1  0.31265000  0.95871000  0.97844000  1.0
  O  O118  1  0.01210000  0.69056000  0.80559000  1.0
  O  O119  1  0.82309000  0.64485000  0.73493000  1.0
  O  O120  1  0.76817000  0.88828000  0.78665000  1.0
  O  O121  1  0.98357000  0.97760000  0.91919000  1.0
