# generated using pymatgen
data_Co5P2H40C46(N4O11)2
_symmetry_space_group_name_H-M   'P 1'
_cell_length_a   9.19057000
_cell_length_b   10.13760000
_cell_length_c   29.78670000
_cell_angle_alpha   90.01530000
_cell_angle_beta   90.00000000
_cell_angle_gamma   89.99890000
_symmetry_Int_Tables_number   1
_chemical_formula_structural   Co5P2H40C46(N4O11)2
_chemical_formula_sum   'Co10 P4 H80 C92 N16 O44'
_cell_volume   2775.23634373
_cell_formula_units_Z   2
loop_
 _symmetry_equiv_pos_site_id
 _symmetry_equiv_pos_as_xyz
  1  'x, y, z'
loop_
 _atom_site_type_symbol
 _atom_site_label
 _atom_site_symmetry_multiplicity
 _atom_site_fract_x
 _atom_site_fract_y
 _atom_site_fract_z
 _atom_site_occupancy
  Co  Co0  1  0.09956000  0.88196000  0.22107000  1.0
  Co  Co1  1  0.84871000  0.57653000  0.09336000  1.0
  Co  Co2  1  0.98717000  0.48817000  0.62478000  1.0
  Co  Co3  1  0.82409000  0.89853000  0.65698000  1.0
  Co  Co4  1  0.07408000  0.59791000  0.52822000  1.0
  Co  Co5  1  0.90042000  0.38195000  0.72105000  1.0
  Co  Co6  1  0.15127000  0.07650000  0.59333000  1.0
  Co  Co7  1  0.01284000  0.98818000  0.12481000  1.0
  Co  Co8  1  0.17589000  0.39851000  0.15701000  1.0
  Co  Co9  1  0.92591000  0.09791000  0.02825000  1.0
  P  P10  1  0.87053000  0.19996000  0.62821000  1.0
  P  P11  1  0.10415000  0.77702000  0.62067000  1.0
  P  P12  1  0.12948000  0.69995000  0.12823000  1.0
  P  P13  1  0.89584000  0.27700000  0.12070000  1.0
  H  H14  1  0.52282000  0.46242000  0.53460000  1.0
  H  H15  1  0.59465000  0.15821000  0.66179000  1.0
  H  H16  1  0.44840000  0.50997000  0.71307000  1.0
  H  H17  1  0.38318000  0.82074000  0.58706000  1.0
  H  H18  1  0.80004000  0.71446000  0.74793000  1.0
  H  H19  1  0.50878000  0.97825000  0.68455000  1.0
  H  H20  1  0.36128000  0.84186000  0.75082000  1.0
  H  H21  1  0.63674000  0.59877000  0.80106000  1.0
  H  H22  1  0.44974000  0.59938000  0.78491000  1.0
  H  H23  1  0.71476000  0.72132000  0.86779000  1.0
  H  H24  1  0.39442000  0.92888000  0.94663000  1.0
  H  H25  1  0.20849000  0.88467000  0.88841000  1.0
  H  H26  1  0.27474000  0.75531000  0.81984000  1.0
  H  H27  1  0.78815000  0.85701000  0.93495000  1.0
  H  H28  1  0.65434000  0.94169000  0.96636000  1.0
  H  H29  1  0.88852000  0.75743000  0.00827000  1.0
  H  H30  1  0.44820000  0.67803000  0.97585000  1.0
  H  H31  1  0.53108000  0.52408000  0.04870000  1.0
  H  H32  1  0.44281000  0.80786000  0.23714000  1.0
  H  H33  1  0.06524000  0.63650000  0.29270000  1.0
  H  H34  1  0.31069000  0.52121000  0.33208000  1.0
  H  H35  1  0.63869000  0.64284000  0.27080000  1.0
  H  H36  1  0.58000000  0.53877000  0.31550000  1.0
  H  H37  1  0.51297000  0.65002000  0.39122000  1.0
  H  H38  1  0.73002000  0.85919000  0.28463000  1.0
  H  H39  1  0.79966000  0.03537000  0.33827000  1.0
  H  H40  1  0.72484000  0.02053000  0.41837000  1.0
  H  H41  1  0.62703000  0.74359000  0.47586000  1.0
  H  H42  1  0.60443000  0.91609000  0.47642000  1.0
  H  H43  1  0.42083000  0.65281000  0.51579000  1.0
  H  H44  1  0.32352000  0.94987000  0.42076000  1.0
  H  H45  1  0.06521000  0.85156000  0.45710000  1.0
  H  H46  1  0.90450000  0.46474000  0.47811000  1.0
  H  H47  1  0.96550000  0.59013000  0.45028000  1.0
  H  H48  1  0.81108000  0.72528000  0.52946000  1.0
  H  H49  1  0.94511000  0.81948000  0.53383000  1.0
  H  H50  1  0.82990000  0.75694000  0.22008000  1.0
  H  H51  1  0.96520000  0.66537000  0.21539000  1.0
  H  H52  1  0.01185000  0.91997000  0.30304000  1.0
  H  H53  1  0.94517000  0.03199000  0.27066000  1.0
  H  H54  1  0.47718000  0.96242000  0.03463000  1.0
  H  H55  1  0.40535000  0.65823000  0.16183000  1.0
  H  H56  1  0.55164000  0.00994000  0.21310000  1.0
  H  H57  1  0.61680000  0.32070000  0.08711000  1.0
  H  H58  1  0.19997000  0.21444000  0.24795000  1.0
  H  H59  1  0.49121000  0.47825000  0.18457000  1.0
  H  H60  1  0.63872000  0.34183000  0.25084000  1.0
  H  H61  1  0.36328000  0.09874000  0.30106000  1.0
  H  H62  1  0.55028000  0.09934000  0.28492000  1.0
  H  H63  1  0.28524000  0.22131000  0.36779000  1.0
  H  H64  1  0.60556000  0.42890000  0.44662000  1.0
  H  H65  1  0.79151000  0.38465000  0.38840000  1.0
  H  H66  1  0.72527000  0.25526000  0.31984000  1.0
  H  H67  1  0.21184000  0.35705000  0.43494000  1.0
  H  H68  1  0.34565000  0.44170000  0.46635000  1.0
  H  H69  1  0.11146000  0.25743000  0.50825000  1.0
  H  H70  1  0.55178000  0.17803000  0.47584000  1.0
  H  H71  1  0.46890000  0.02407000  0.54867000  1.0
  H  H72  1  0.55716000  0.30780000  0.73711000  1.0
  H  H73  1  0.93476000  0.13648000  0.79267000  1.0
  H  H74  1  0.68934000  0.02123000  0.83208000  1.0
  H  H75  1  0.36130000  0.14284000  0.77080000  1.0
  H  H76  1  0.42001000  0.03876000  0.81550000  1.0
  H  H77  1  0.48702000  0.15000000  0.89123000  1.0
  H  H78  1  0.26999000  0.35918000  0.78463000  1.0
  H  H79  1  0.20035000  0.53537000  0.83827000  1.0
  H  H80  1  0.27516000  0.52053000  0.91837000  1.0
  H  H81  1  0.37296000  0.24358000  0.97587000  1.0
  H  H82  1  0.39559000  0.41608000  0.97642000  1.0
  H  H83  1  0.57917000  0.15280000  0.01579000  1.0
  H  H84  1  0.67649000  0.44985000  0.92076000  1.0
  H  H85  1  0.93478000  0.35153000  0.95710000  1.0
  H  H86  1  0.09552000  0.96473000  0.97813000  1.0
  H  H87  1  0.03451000  0.09011000  0.95029000  1.0
  H  H88  1  0.18893000  0.22528000  0.02949000  1.0
  H  H89  1  0.05490000  0.31951000  0.03384000  1.0
  H  H90  1  0.17012000  0.25693000  0.72004000  1.0
  H  H91  1  0.03481000  0.16536000  0.71538000  1.0
  H  H92  1  0.98817000  0.41998000  0.80302000  1.0
  H  H93  1  0.05484000  0.53198000  0.77062000  1.0
  C  C94  1  0.69772000  0.25997000  0.60762000  1.0
  C  C95  1  0.67863000  0.34759000  0.57134000  1.0
  C  C96  1  0.53836000  0.39436000  0.56236000  1.0
  C  C97  1  0.41897000  0.36248000  0.58934000  1.0
  C  C98  1  0.43840000  0.27538000  0.62564000  1.0
  C  C99  1  0.57691000  0.22439000  0.63353000  1.0
  C  C100  1  0.79920000  0.39813000  0.54169000  1.0
  C  C101  1  0.27361000  0.42339000  0.58091000  1.0
  C  C102  1  0.32295000  0.23299000  0.65861000  1.0
  C  C103  1  0.27743000  0.71765000  0.64070000  1.0
  C  C104  1  0.29472000  0.62990000  0.67701000  1.0
  C  C105  1  0.43359000  0.57970000  0.68573000  1.0
  C  C106  1  0.55375000  0.61127000  0.65907000  1.0
  C  C107  1  0.53663000  0.69998000  0.62310000  1.0
  C  C108  1  0.39889000  0.75256000  0.61495000  1.0
  C  C109  1  0.17307000  0.58484000  0.70734000  1.0
  C  C110  1  0.69869000  0.55042000  0.66822000  1.0
  C  C111  1  0.65525000  0.74152000  0.59103000  1.0
  C  C112  1  0.70385000  0.77211000  0.74017000  1.0
  C  C113  1  0.54938000  0.90668000  0.70844000  1.0
  C  C114  1  0.47477000  0.84048000  0.74124000  1.0
  C  C115  1  0.54032000  0.66127000  0.79661000  1.0
  C  C116  1  0.49939000  0.73219000  0.83925000  1.0
  C  C117  1  0.60373000  0.75812000  0.87219000  1.0
  C  C118  1  0.56738000  0.82989000  0.91078000  1.0
  C  C119  1  0.42510000  0.87672000  0.91604000  1.0
  C  C120  1  0.31978000  0.85008000  0.88347000  1.0
  C  C121  1  0.35657000  0.77781000  0.84528000  1.0
  C  C122  1  0.67639000  0.85014000  0.94775000  1.0
  C  C123  1  0.78238000  0.71064000  0.00877000  1.0
  C  C124  1  0.55203000  0.66727000  0.99260000  1.0
  C  C125  1  0.59448000  0.59265000  0.02874000  1.0
  C  C126  1  0.37106000  0.74799000  0.25766000  1.0
  C  C127  1  0.17989000  0.65633000  0.28765000  1.0
  C  C128  1  0.29938000  0.59850000  0.30718000  1.0
  C  C129  1  0.57122000  0.63820000  0.30116000  1.0
  C  C130  1  0.61840000  0.74228000  0.33454000  1.0
  C  C131  1  0.57684000  0.73441000  0.37963000  1.0
  C  C132  1  0.69946000  0.85111000  0.31985000  1.0
  C  C133  1  0.73866000  0.95003000  0.35007000  1.0
  C  C134  1  0.69601000  0.94190000  0.39496000  1.0
  C  C135  1  0.61480000  0.83401000  0.41008000  1.0
  C  C136  1  0.57177000  0.82545000  0.45883000  1.0
  C  C137  1  0.35627000  0.71697000  0.49456000  1.0
  C  C138  1  0.30327000  0.87352000  0.44540000  1.0
  C  C139  1  0.17717000  0.82355000  0.46345000  1.0
  C  C140  1  0.30228000  0.75997000  0.10765000  1.0
  C  C141  1  0.32139000  0.84758000  0.07137000  1.0
  C  C142  1  0.46166000  0.89435000  0.06239000  1.0
  C  C143  1  0.58105000  0.86247000  0.08937000  1.0
  C  C144  1  0.56159000  0.77538000  0.12568000  1.0
  C  C145  1  0.42309000  0.72440000  0.13356000  1.0
  C  C146  1  0.20082000  0.89812000  0.04172000  1.0
  C  C147  1  0.72637000  0.92341000  0.08094000  1.0
  C  C148  1  0.67703000  0.73301000  0.15865000  1.0
  C  C149  1  0.72257000  0.21764000  0.14074000  1.0
  C  C150  1  0.70527000  0.12988000  0.17705000  1.0
  C  C151  1  0.56642000  0.07964000  0.18576000  1.0
  C  C152  1  0.44624000  0.11122000  0.15911000  1.0
  C  C153  1  0.46336000  0.19993000  0.12314000  1.0
  C  C154  1  0.60109000  0.25251000  0.11499000  1.0
  C  C155  1  0.82693000  0.08484000  0.20738000  1.0
  C  C156  1  0.30131000  0.05036000  0.16826000  1.0
  C  C157  1  0.34478000  0.24147000  0.09106000  1.0
  C  C158  1  0.29615000  0.27209000  0.24019000  1.0
  C  C159  1  0.45061000  0.40666000  0.20846000  1.0
  C  C160  1  0.52524000  0.34045000  0.24125000  1.0
  C  C161  1  0.45970000  0.16122000  0.29662000  1.0
  C  C162  1  0.50062000  0.23216000  0.33925000  1.0
  C  C163  1  0.39628000  0.25811000  0.37219000  1.0
  C  C164  1  0.43260000  0.32990000  0.41077000  1.0
  C  C165  1  0.57489000  0.37672000  0.41604000  1.0
  C  C166  1  0.68022000  0.35007000  0.38347000  1.0
  C  C167  1  0.64343000  0.27779000  0.34528000  1.0
  C  C168  1  0.32360000  0.35016000  0.44774000  1.0
  C  C169  1  0.21760000  0.21064000  0.50875000  1.0
  C  C170  1  0.44797000  0.16728000  0.49259000  1.0
  C  C171  1  0.40551000  0.09263000  0.52872000  1.0
  C  C172  1  0.62892000  0.24796000  0.75764000  1.0
  C  C173  1  0.82009000  0.15632000  0.78762000  1.0
  C  C174  1  0.70063000  0.09851000  0.80716000  1.0
  C  C175  1  0.42878000  0.13819000  0.80116000  1.0
  C  C176  1  0.38160000  0.24227000  0.83454000  1.0
  C  C177  1  0.42315000  0.23439000  0.87963000  1.0
  C  C178  1  0.30055000  0.35110000  0.81985000  1.0
  C  C179  1  0.26135000  0.45002000  0.85007000  1.0
  C  C180  1  0.30399000  0.44189000  0.89496000  1.0
  C  C181  1  0.38520000  0.33400000  0.91008000  1.0
  C  C182  1  0.42822000  0.32543000  0.95883000  1.0
  C  C183  1  0.64372000  0.21696000  0.99456000  1.0
  C  C184  1  0.69673000  0.37349000  0.94540000  1.0
  C  C185  1  0.82284000  0.32353000  0.96346000  1.0
  N  N186  1  0.69205000  0.86267000  0.70787000  1.0
  N  N187  1  0.57379000  0.75594000  0.76097000  1.0
  N  N188  1  0.73795000  0.62135000  0.03869000  1.0
  N  N189  1  0.67245000  0.74071000  0.98019000  1.0
  N  N190  1  0.22599000  0.74964000  0.25681000  1.0
  N  N191  1  0.41935000  0.65712000  0.28769000  1.0
  N  N192  1  0.21151000  0.72558000  0.49406000  1.0
  N  N193  1  0.41571000  0.80458000  0.46535000  1.0
  N  N194  1  0.30795000  0.36266000  0.20789000  1.0
  N  N195  1  0.42623000  0.25590000  0.26098000  1.0
  N  N196  1  0.26203000  0.12134000  0.53866000  1.0
  N  N197  1  0.32753000  0.24072000  0.48017000  1.0
  N  N198  1  0.77399000  0.24962000  0.75679000  1.0
  N  N199  1  0.58065000  0.15711000  0.78768000  1.0
  N  N200  1  0.78848000  0.22556000  0.99407000  1.0
  N  N201  1  0.58429000  0.30456000  0.96535000  1.0
  O  O202  1  0.96379000  0.16235000  0.58754000  1.0
  O  O203  1  0.84216000  0.08735000  0.66160000  1.0
  O  O204  1  0.93185000  0.31748000  0.65590000  1.0
  O  O205  1  0.91684000  0.44311000  0.55894000  1.0
  O  O206  1  0.77618000  0.39784000  0.49957000  1.0
  O  O207  1  0.25323000  0.48863000  0.54458000  1.0
  O  O208  1  0.18020000  0.40564000  0.61154000  1.0
  O  O209  1  0.23823000  0.13597000  0.64873000  1.0
  O  O210  1  0.32607000  0.28394000  0.69725000  1.0
  O  O211  1  0.13102000  0.88882000  0.58681000  1.0
  O  O212  1  0.01287000  0.81545000  0.66168000  1.0
  O  O213  1  0.04174000  0.65879000  0.59350000  1.0
  O  O214  1  0.05807000  0.53375000  0.69043000  1.0
  O  O215  1  0.19274000  0.59523000  0.74953000  1.0
  O  O216  1  0.71679000  0.48394000  0.70437000  1.0
  O  O217  1  0.79456000  0.57050000  0.63845000  1.0
  O  O218  1  0.73814000  0.83959000  0.60114000  1.0
  O  O219  1  0.65713000  0.68814000  0.55279000  1.0
  O  O220  1  0.99843000  0.51424000  0.46757000  1.0
  O  O221  1  0.90696000  0.74924000  0.51456000  1.0
  O  O222  1  0.92717000  0.73589000  0.23454000  1.0
  O  O223  1  0.03958000  0.98363000  0.28011000  1.0
  O  O224  1  0.03619000  0.66234000  0.08757000  1.0
  O  O225  1  0.15784000  0.58736000  0.16162000  1.0
  O  O226  1  0.06816000  0.81750000  0.15591000  1.0
  O  O227  1  0.08320000  0.94312000  0.05897000  1.0
  O  O228  1  0.22381000  0.89781000  0.99959000  1.0
  O  O229  1  0.74673000  0.98863000  0.04461000  1.0
  O  O230  1  0.81979000  0.90568000  0.11157000  1.0
  O  O231  1  0.76177000  0.63599000  0.14877000  1.0
  O  O232  1  0.67392000  0.78395000  0.19728000  1.0
  O  O233  1  0.86890000  0.38879000  0.08685000  1.0
  O  O234  1  0.98715000  0.31543000  0.16171000  1.0
  O  O235  1  0.95828000  0.15877000  0.09354000  1.0
  O  O236  1  0.94191000  0.03373000  0.19046000  1.0
  O  O237  1  0.80728000  0.09526000  0.24956000  1.0
  O  O238  1  0.28322000  0.98385000  0.20440000  1.0
  O  O239  1  0.20541000  0.07050000  0.13849000  1.0
  O  O240  1  0.26185000  0.33954000  0.10118000  1.0
  O  O241  1  0.34290000  0.18811000  0.05283000  1.0
  O  O242  1  0.00160000  0.01423000  0.96759000  1.0
  O  O243  1  0.09308000  0.24927000  0.01458000  1.0
  O  O244  1  0.07285000  0.23589000  0.73451000  1.0
  O  O245  1  0.96043000  0.48362000  0.78007000  1.0
