# generated using pymatgen
data_ZnH10C14(NO2)2
_symmetry_space_group_name_H-M   'P 1'
_cell_length_a   7.43673000
_cell_length_b   10.22840000
_cell_length_c   16.35490000
_cell_angle_alpha   89.99990000
_cell_angle_beta   87.36380000
_cell_angle_gamma   89.99960000
_symmetry_Int_Tables_number   1
_chemical_formula_structural   ZnH10C14(NO2)2
_chemical_formula_sum   'Zn4 H40 C56 N8 O16'
_cell_volume   1242.73279051
_cell_formula_units_Z   4
loop_
 _symmetry_equiv_pos_site_id
 _symmetry_equiv_pos_as_xyz
  1  'x, y, z'
loop_
 _atom_site_type_symbol
 _atom_site_label
 _atom_site_symmetry_multiplicity
 _atom_site_fract_x
 _atom_site_fract_y
 _atom_site_fract_z
 _atom_site_occupancy
  Zn  Zn0  1  0.13375000  0.83066000  0.50346000  1.0
  Zn  Zn1  1  0.36624000  0.33066000  0.99654000  1.0
  Zn  Zn2  1  0.86624000  0.16934000  0.49654000  1.0
  Zn  Zn3  1  0.63376000  0.66934000  0.00346000  1.0
  H  H4  1  0.79763000  0.89200000  0.35419000  1.0
  H  H5  1  0.70238000  0.39200000  0.14581000  1.0
  H  H6  1  0.20237000  0.10799000  0.64581000  1.0
  H  H7  1  0.29762000  0.60799000  0.85419000  1.0
  H  H8  1  0.18170000  0.20519000  0.27068000  1.0
  H  H9  1  0.31830000  0.70519000  0.22931000  1.0
  H  H10  1  0.81830000  0.79481000  0.72932000  1.0
  H  H11  1  0.68170000  0.29481000  0.77068000  1.0
  H  H12  1  0.69158000  0.07646000  0.16770000  1.0
  H  H13  1  0.80843000  0.57646000  0.33229000  1.0
  H  H14  1  0.30842000  0.92354000  0.83229000  1.0
  H  H15  1  0.19158000  0.42354000  0.66771000  1.0
  H  H16  1  0.51596000  0.95761000  0.41283000  1.0
  H  H17  1  0.98404000  0.45761000  0.08717000  1.0
  H  H18  1  0.48403000  0.04239000  0.58717000  1.0
  H  H19  1  0.01596000  0.54239000  0.91283000  1.0
  H  H20  1  0.05466000  0.92575000  0.28202000  1.0
  H  H21  1  0.44534000  0.42575000  0.21798000  1.0
  H  H22  1  0.94533000  0.07425000  0.71798000  1.0
  H  H23  1  0.55466000  0.57425000  0.78202000  1.0
  H  H24  1  0.95476000  0.06547000  0.24206000  1.0
  H  H25  1  0.54524000  0.56547000  0.25794000  1.0
  H  H26  1  0.04523000  0.93453000  0.75794000  1.0
  H  H27  1  0.45476000  0.43453000  0.74206000  1.0
  H  H28  1  0.21950000  0.97906000  0.14014000  1.0
  H  H29  1  0.28050000  0.47906000  0.35986000  1.0
  H  H30  1  0.78049000  0.02094000  0.85986000  1.0
  H  H31  1  0.71950000  0.52094000  0.64014000  1.0
  H  H32  1  0.25096000  0.88089000  0.99856000  1.0
  H  H33  1  0.24905000  0.38089000  0.50143000  1.0
  H  H34  1  0.74905000  0.11911000  0.00144000  1.0
  H  H35  1  0.75095000  0.61911000  0.49857000  1.0
  H  H36  1  0.99022000  0.75641000  0.94664000  1.0
  H  H37  1  0.50977000  0.25640000  0.55336000  1.0
  H  H38  1  0.00978000  0.24359000  0.05336000  1.0
  H  H39  1  0.49022000  0.74360000  0.44665000  1.0
  H  H40  1  0.69422000  0.80242000  0.16603000  1.0
  H  H41  1  0.80579000  0.30242000  0.33396000  1.0
  H  H42  1  0.30578000  0.19758000  0.83396000  1.0
  H  H43  1  0.19421000  0.69758000  0.66604000  1.0
  C  C44  1  0.33414000  0.07972000  0.34867000  1.0
  C  C45  1  0.16587000  0.57973000  0.15133000  1.0
  C  C46  1  0.66586000  0.92028000  0.65133000  1.0
  C  C47  1  0.83413000  0.42027000  0.84867000  1.0
  C  C48  1  0.30434000  0.14914000  0.27681000  1.0
  C  C49  1  0.19566000  0.64915000  0.22319000  1.0
  C  C50  1  0.69565000  0.85085000  0.72319000  1.0
  C  C51  1  0.80434000  0.35085000  0.77681000  1.0
  C  C52  1  0.43386000  0.14653000  0.21241000  1.0
  C  C53  1  0.06615000  0.64654000  0.28758000  1.0
  C  C54  1  0.56614000  0.85346000  0.78759000  1.0
  C  C55  1  0.93386000  0.35347000  0.71242000  1.0
  C  C56  1  0.59365000  0.07602000  0.21924000  1.0
  C  C57  1  0.90635000  0.57603000  0.28075000  1.0
  C  C58  1  0.40634000  0.92398000  0.78075000  1.0
  C  C59  1  0.09365000  0.42398000  0.71925000  1.0
  C  C60  1  0.62391000  0.00428000  0.29092000  1.0
  C  C61  1  0.87610000  0.50428000  0.20907000  1.0
  C  C62  1  0.37609000  0.99572000  0.70908000  1.0
  C  C63  1  0.12390000  0.49572000  0.79093000  1.0
  C  C64  1  0.49268000  0.00876000  0.35587000  1.0
  C  C65  1  0.00733000  0.50876000  0.14413000  1.0
  C  C66  1  0.50732000  0.99124000  0.64413000  1.0
  C  C67  1  0.99268000  0.49124000  0.85587000  1.0
  C  C68  1  0.19265000  0.08047000  0.41644000  1.0
  C  C69  1  0.30736000  0.58047000  0.08357000  1.0
  C  C70  1  0.80735000  0.91953000  0.58357000  1.0
  C  C71  1  0.69265000  0.41953000  0.91643000  1.0
  C  C72  1  0.39513000  0.21943000  0.13639000  1.0
  C  C73  1  0.10488000  0.71943000  0.36361000  1.0
  C  C74  1  0.60487000  0.78057000  0.86361000  1.0
  C  C75  1  0.89512000  0.28057000  0.63639000  1.0
  C  C76  1  0.93836000  0.95853000  0.24860000  1.0
  C  C77  1  0.56164000  0.45854000  0.25140000  1.0
  C  C78  1  0.06163000  0.04146000  0.75140000  1.0
  C  C79  1  0.43836000  0.54146000  0.74860000  1.0
  C  C80  1  0.95355000  0.89937000  0.16380000  1.0
  C  C81  1  0.54645000  0.39937000  0.33620000  1.0
  C  C82  1  0.04645000  0.10063000  0.83620000  1.0
  C  C83  1  0.45355000  0.60063000  0.66380000  1.0
  C  C84  1  0.11111000  0.92144000  0.11546000  1.0
  C  C85  1  0.38889000  0.42143000  0.38454000  1.0
  C  C86  1  0.88889000  0.07857000  0.88454000  1.0
  C  C87  1  0.61110000  0.57857000  0.61546000  1.0
  C  C88  1  0.12876000  0.86882000  0.03723000  1.0
  C  C89  1  0.37124000  0.36882000  0.46277000  1.0
  C  C90  1  0.87124000  0.13118000  0.96277000  1.0
  C  C91  1  0.62875000  0.63118000  0.53723000  1.0
  C  C92  1  0.98666000  0.79669000  0.00819000  1.0
  C  C93  1  0.51334000  0.29669000  0.49180000  1.0
  C  C94  1  0.01334000  0.20331000  0.99180000  1.0
  C  C95  1  0.48665000  0.70331000  0.50820000  1.0
  C  C96  1  0.81845000  0.82428000  0.13067000  1.0
  C  C97  1  0.68155000  0.32428000  0.36933000  1.0
  C  C98  1  0.18155000  0.17572000  0.86933000  1.0
  C  C99  1  0.31844000  0.67572000  0.63067000  1.0
  N  N100  1  0.83396000  0.77507000  0.05390000  1.0
  N  N101  1  0.66604000  0.27506000  0.44610000  1.0
  N  N102  1  0.16605000  0.22494000  0.94610000  1.0
  N  N103  1  0.33395000  0.72494000  0.55391000  1.0
  N  N104  1  0.77677000  0.92910000  0.29768000  1.0
  N  N105  1  0.72324000  0.42910000  0.20232000  1.0
  N  N106  1  0.22323000  0.07090000  0.70232000  1.0
  N  N107  1  0.27676000  0.57090000  0.79768000  1.0
  O  O108  1  0.21682000  0.01533000  0.48191000  1.0
  O  O109  1  0.28320000  0.51534000  0.01809000  1.0
  O  O110  1  0.78319000  0.98467000  0.51809000  1.0
  O  O111  1  0.71680000  0.48467000  0.98191000  1.0
  O  O112  1  0.05158000  0.14842000  0.40495000  1.0
  O  O113  1  0.44842000  0.64843000  0.09505000  1.0
  O  O114  1  0.94842000  0.85157000  0.59505000  1.0
  O  O115  1  0.55158000  0.35157000  0.90495000  1.0
  O  O116  1  0.24055000  0.26801000  0.12898000  1.0
  O  O117  1  0.25946000  0.76801000  0.37102000  1.0
  O  O118  1  0.75945000  0.73199000  0.87101000  1.0
  O  O119  1  0.74055000  0.23199000  0.62898000  1.0
  O  O120  1  0.52022000  0.23273000  0.07901000  1.0
  O  O121  1  0.97978000  0.73273000  0.42099000  1.0
  O  O122  1  0.47978000  0.76727000  0.92099000  1.0
  O  O123  1  0.02022000  0.26727000  0.57901000  1.0
