# generated using pymatgen
data_CuH8C12N4Cl2O
_symmetry_space_group_name_H-M   'P 1'
_cell_length_a   7.95298000
_cell_length_b   7.95290000
_cell_length_c   11.40530000
_cell_angle_alpha   100.90500000
_cell_angle_beta   100.90500000
_cell_angle_gamma   106.91600000
_symmetry_Int_Tables_number   1
_chemical_formula_structural   CuH8C12N4Cl2O
_chemical_formula_sum   'Cu2 H16 C24 N8 Cl4 O2'
_cell_volume   654.40063236
_cell_formula_units_Z   2
loop_
 _symmetry_equiv_pos_site_id
 _symmetry_equiv_pos_as_xyz
  1  'x, y, z'
loop_
 _atom_site_type_symbol
 _atom_site_label
 _atom_site_symmetry_multiplicity
 _atom_site_fract_x
 _atom_site_fract_y
 _atom_site_fract_z
 _atom_site_occupancy
  Cu  Cu0  1  0.00000000  0.00000000  0.00000000  1.0
  Cu  Cu1  1  0.00000000  0.00001000  0.50000000  1.0
  H  H2  1  0.76301000  0.96491000  0.75766000  1.0
  H  H3  1  0.03506000  0.23699000  0.74236000  1.0
  H  H4  1  0.23699000  0.03507000  0.24235000  1.0
  H  H5  1  0.96492000  0.76301000  0.25764000  1.0
  H  H6  1  0.52480000  0.09583000  0.67882000  1.0
  H  H7  1  0.90415000  0.47521000  0.82120000  1.0
  H  H8  1  0.47521000  0.90415000  0.32118000  1.0
  H  H9  1  0.09583000  0.52480000  0.17880000  1.0
  H  H10  1  0.41896000  0.28185000  0.83184000  1.0
  H  H11  1  0.71814000  0.58106000  0.66818000  1.0
  H  H12  1  0.58104000  0.71813000  0.16815000  1.0
  H  H13  1  0.28185000  0.41895000  0.33182000  1.0
  H  H14  1  0.54117000  0.32049000  0.05748000  1.0
  H  H15  1  0.67952000  0.45886000  0.44253000  1.0
  H  H16  1  0.45883000  0.67950000  0.94251000  1.0
  H  H17  1  0.32048000  0.54116000  0.55747000  1.0
  C  C18  1  0.71131000  0.04505000  0.82121000  1.0
  C  C19  1  0.95495000  0.28869000  0.67880000  1.0
  C  C20  1  0.28869000  0.95494000  0.17879000  1.0
  C  C21  1  0.04504000  0.71132000  0.32120000  1.0
  C  C22  1  0.57922000  0.11798000  0.77789000  1.0
  C  C23  1  0.88202000  0.42079000  0.72212000  1.0
  C  C24  1  0.42079000  0.88201000  0.22211000  1.0
  C  C25  1  0.11798000  0.57922000  0.27788000  1.0
  C  C26  1  0.52058000  0.22206000  0.86308000  1.0
  C  C27  1  0.77793000  0.47943000  0.63693000  1.0
  C  C28  1  0.47942000  0.77792000  0.13692000  1.0
  C  C29  1  0.22206000  0.52058000  0.36306000  1.0
  C  C30  1  0.59073000  0.24632000  0.98930000  1.0
  C  C31  1  0.75368000  0.40929000  0.51071000  1.0
  C  C32  1  0.40928000  0.75368000  0.01069000  1.0
  C  C33  1  0.24632000  0.59072000  0.48929000  1.0
  C  C34  1  0.72063000  0.16739000  0.02520000  1.0
  C  C35  1  0.83261000  0.27938000  0.47481000  1.0
  C  C36  1  0.27937000  0.83260000  0.97479000  1.0
  C  C37  1  0.16739000  0.72062000  0.52519000  1.0
  C  C38  1  0.79244000  0.16904000  0.15227000  1.0
  C  C39  1  0.83097000  0.20759000  0.34775000  1.0
  C  C40  1  0.20757000  0.83096000  0.84773000  1.0
  C  C41  1  0.16902000  0.79242000  0.65225000  1.0
  N  N42  1  0.78300000  0.07182000  0.94187000  1.0
  N  N43  1  0.92817000  0.21703000  0.55814000  1.0
  N  N44  1  0.21701000  0.92817000  0.05813000  1.0
  N  N45  1  0.07182000  0.78299000  0.44186000  1.0
  N  N46  1  0.89831000  0.07863000  0.18760000  1.0
  N  N47  1  0.92138000  0.10171000  0.31242000  1.0
  N  N48  1  0.10169000  0.92138000  0.81240000  1.0
  N  N49  1  0.07862000  0.89830000  0.68759000  1.0
  Cl  Cl50  1  0.81452000  0.69868000  0.96899000  1.0
  Cl  Cl51  1  0.30132000  0.18549000  0.53103000  1.0
  Cl  Cl52  1  0.18549000  0.30131000  0.03102000  1.0
  Cl  Cl53  1  0.69868000  0.81453000  0.46898000  1.0
  O  O54  1  0.74451000  0.25551000  0.25000000  1.0
  O  O55  1  0.25549000  0.74449000  0.74999000  1.0
