# generated using pymatgen
data_GdH5C10O9
_symmetry_space_group_name_H-M   'P 1'
_cell_length_a   7.11869000
_cell_length_b   8.78059000
_cell_length_c   18.04640000
_cell_angle_alpha   100.96100000
_cell_angle_beta   90.00000000
_cell_angle_gamma   90.00000000
_symmetry_Int_Tables_number   1
_chemical_formula_structural   GdH5C10O9
_chemical_formula_sum   'Gd4 H20 C40 O36'
_cell_volume   1107.43512167
_cell_formula_units_Z   4
loop_
 _symmetry_equiv_pos_site_id
 _symmetry_equiv_pos_as_xyz
  1  'x, y, z'
loop_
 _atom_site_type_symbol
 _atom_site_label
 _atom_site_symmetry_multiplicity
 _atom_site_fract_x
 _atom_site_fract_y
 _atom_site_fract_z
 _atom_site_occupancy
  Gd  Gd0  1  0.52723000  0.85134000  0.75495000  1.0
  Gd  Gd1  1  0.02723000  0.64866000  0.74505000  1.0
  Gd  Gd2  1  0.47276000  0.14865000  0.24505000  1.0
  Gd  Gd3  1  0.97276000  0.35134000  0.25494000  1.0
  H  H4  1  0.50296000  0.16300000  0.71188000  1.0
  H  H5  1  0.00295000  0.33701000  0.78812000  1.0
  H  H6  1  0.49705000  0.83700000  0.28814000  1.0
  H  H7  1  0.99705000  0.66299000  0.21187000  1.0
  H  H8  1  0.34632000  0.16986000  0.77492000  1.0
  H  H9  1  0.84632000  0.33015000  0.72508000  1.0
  H  H10  1  0.65368000  0.83014000  0.22509000  1.0
  H  H11  1  0.15367000  0.66985000  0.27491000  1.0
  H  H12  1  0.93275000  0.27328000  0.92647000  1.0
  H  H13  1  0.43275000  0.22673000  0.57354000  1.0
  H  H14  1  0.06727000  0.72668000  0.07352000  1.0
  H  H15  1  0.56724000  0.77331000  0.42650000  1.0
  H  H16  1  0.84237000  0.52240000  0.47771000  1.0
  H  H17  1  0.34237000  0.97761000  0.02228000  1.0
  H  H18  1  0.15764000  0.47769000  0.52226000  1.0
  H  H19  1  0.65764000  0.02232000  0.97774000  1.0
  H  H20  1  0.66968000  0.69965000  0.94517000  1.0
  H  H21  1  0.16967000  0.80035000  0.55483000  1.0
  H  H22  1  0.33032000  0.30032000  0.05482000  1.0
  H  H23  1  0.83032000  0.19969000  0.44518000  1.0
  C  C24  1  0.34222000  0.54228000  0.64912000  1.0
  C  C25  1  0.84222000  0.95772000  0.85088000  1.0
  C  C26  1  0.65779000  0.45773000  0.35086000  1.0
  C  C27  1  0.15779000  0.04226000  0.14914000  1.0
  C  C28  1  0.43109000  0.51887000  0.57319000  1.0
  C  C29  1  0.93109000  0.98114000  0.92680000  1.0
  C  C30  1  0.56891000  0.48120000  0.42679000  1.0
  C  C31  1  0.06892000  0.01881000  0.07321000  1.0
  C  C32  1  0.62471000  0.53209000  0.56156000  1.0
  C  C33  1  0.12471000  0.96792000  0.93844000  1.0
  C  C34  1  0.37530000  0.46797000  0.43842000  1.0
  C  C35  1  0.87530000  0.03204000  0.06158000  1.0
  C  C36  1  0.76023000  0.56118000  0.62554000  1.0
  C  C37  1  0.26023000  0.93883000  0.87445000  1.0
  C  C38  1  0.23977000  0.43887000  0.37444000  1.0
  C  C39  1  0.73978000  0.06113000  0.12556000  1.0
  C  C40  1  0.69232000  0.51308000  0.48786000  1.0
  C  C41  1  0.19232000  0.98694000  0.01214000  1.0
  C  C42  1  0.30768000  0.48700000  0.51212000  1.0
  C  C43  1  0.80769000  0.01301000  0.98788000  1.0
  C  C44  1  0.36769000  0.59538000  0.86296000  1.0
  C  C45  1  0.86768000  0.90463000  0.63704000  1.0
  C  C46  1  0.63232000  0.40458000  0.13703000  1.0
  C  C47  1  0.13230000  0.09540000  0.36297000  1.0
  C  C48  1  0.59696000  0.61181000  0.96963000  1.0
  C  C49  1  0.09695000  0.88820000  0.53037000  1.0
  C  C50  1  0.40305000  0.38817000  0.03035000  1.0
  C  C51  1  0.90303000  0.11184000  0.46965000  1.0
  C  C52  1  0.43846000  0.54012000  0.93212000  1.0
  C  C53  1  0.93844000  0.95990000  0.56788000  1.0
  C  C54  1  0.56155000  0.45986000  0.06787000  1.0
  C  C55  1  0.06153000  0.04015000  0.43214000  1.0
  C  C56  1  0.34198000  0.42611000  0.96240000  1.0
  C  C57  1  0.84197000  0.07389000  0.53760000  1.0
  C  C58  1  0.65802000  0.57384000  0.03759000  1.0
  C  C59  1  0.15800000  0.92616000  0.46241000  1.0
  C  C60  1  0.18366000  0.33900000  0.91874000  1.0
  C  C61  1  0.68366000  0.16100000  0.58126000  1.0
  C  C62  1  0.81634000  0.66096000  0.08125000  1.0
  C  C63  1  0.31633000  0.83903000  0.41876000  1.0
  O  O64  1  0.41605000  0.09936000  0.73539000  1.0
  O  O65  1  0.91605000  0.40065000  0.76461000  1.0
  O  O66  1  0.58395000  0.90064000  0.26463000  1.0
  O  O67  1  0.08395000  0.59935000  0.23538000  1.0
  O  O68  1  0.31372000  0.68685000  0.68076000  1.0
  O  O69  1  0.81372000  0.81314000  0.81924000  1.0
  O  O70  1  0.68627000  0.31313000  0.31924000  1.0
  O  O71  1  0.18627000  0.18685000  0.18076000  1.0
  O  O72  1  0.70087000  0.61696000  0.69268000  1.0
  O  O73  1  0.20087000  0.88304000  0.80732000  1.0
  O  O74  1  0.29912000  0.38305000  0.30730000  1.0
  O  O75  1  0.79912000  0.11693000  0.19270000  1.0
  O  O76  1  0.48802000  0.64972000  0.82378000  1.0
  O  O77  1  0.98801000  0.85028000  0.67622000  1.0
  O  O78  1  0.51199000  0.35024000  0.17621000  1.0
  O  O79  1  0.01197000  0.14975000  0.32379000  1.0
  O  O80  1  0.19090000  0.58872000  0.85049000  1.0
  O  O81  1  0.69090000  0.91128000  0.64952000  1.0
  O  O82  1  0.80911000  0.41125000  0.14950000  1.0
  O  O83  1  0.30909000  0.08874000  0.35050000  1.0
  O  O84  1  0.93271000  0.53141000  0.61376000  1.0
  O  O85  1  0.43271000  0.96860000  0.88624000  1.0
  O  O86  1  0.06729000  0.46862000  0.38623000  1.0
  O  O87  1  0.56729000  0.03137000  0.11377000  1.0
  O  O88  1  0.27621000  0.43242000  0.67548000  1.0
  O  O89  1  0.77621000  0.06757000  0.82451000  1.0
  O  O90  1  0.72383000  0.56753000  0.32447000  1.0
  O  O91  1  0.22382000  0.93244000  0.17552000  1.0
  O  O92  1  0.02614000  0.33733000  0.95888000  1.0
  O  O93  1  0.52612000  0.16269000  0.54113000  1.0
  O  O94  1  0.97389000  0.66263000  0.04111000  1.0
  O  O95  1  0.47385000  0.83738000  0.45890000  1.0
  O  O96  1  0.19654000  0.26988000  0.85255000  1.0
  O  O97  1  0.69655000  0.23013000  0.64745000  1.0
  O  O98  1  0.80346000  0.73010000  0.14743000  1.0
  O  O99  1  0.30345000  0.76988000  0.35257000  1.0
