# generated using pymatgen
data_AlH7C12SNO5F
_symmetry_space_group_name_H-M   'P 1'
_cell_length_a   6.64552000
_cell_length_b   12.76294635
_cell_length_c   16.87910000
_cell_angle_alpha   91.16531895
_cell_angle_beta   96.65540000
_cell_angle_gamma   104.79783755
_symmetry_Int_Tables_number   1
_chemical_formula_structural   AlH7C12SNO5F
_chemical_formula_sum   'Al2 H14 C24 S2 N2 O10 F2'
_cell_volume   1372.95443444
_cell_formula_units_Z   2
loop_
 _symmetry_equiv_pos_site_id
 _symmetry_equiv_pos_as_xyz
  1  'x, y, z'
loop_
 _atom_site_type_symbol
 _atom_site_label
 _atom_site_symmetry_multiplicity
 _atom_site_fract_x
 _atom_site_fract_y
 _atom_site_fract_z
 _atom_site_occupancy
  Al  Al0  1  0.00046000  0.49960000  0.49989000  1.0
  Al  Al1  1  0.50047000  0.49953000  0.50004000  1.0
  H  H2  1  0.17071000  0.37466000  0.44445000  1.0
  H  H3  1  0.83021000  0.62438000  0.55566000  1.0
  H  H4  1  0.63428000  0.57012000  0.73704000  1.0
  H  H5  1  0.70806000  0.57109000  0.88637000  1.0
  H  H6  1  0.06936000  0.39223000  0.89405000  1.0
  H  H7  1  0.92815000  0.61004000  0.10594000  1.0
  H  H8  1  0.29118000  0.42878000  0.11392000  1.0
  H  H9  1  0.36622000  0.42878000  0.26314000  1.0
  H  H10  1  0.83577000  0.33123000  0.78270000  1.0
  H  H11  1  0.93118000  0.31394000  0.68998000  1.0
  H  H12  1  0.84431000  0.42966000  0.70874000  1.0
  H  H13  1  0.15584000  0.57135000  0.29017000  1.0
  H  H14  1  0.06781000  0.68617000  0.31068000  1.0
  H  H15  1  0.16209000  0.67115000  0.21736000  1.0
  C  C16  1  0.64917000  0.30467000  0.50389000  1.0
  C  C17  1  0.71910000  0.50741000  0.35637000  1.0
  C  C18  1  0.35193000  0.69448000  0.49603000  1.0
  C  C19  1  0.28158000  0.49208000  0.64360000  1.0
  C  C20  1  0.30997000  0.48373000  0.73202000  1.0
  C  C21  1  0.51131000  0.53225000  0.77266000  1.0
  C  C22  1  0.55314000  0.53295000  0.85489000  1.0
  C  C23  1  0.38986000  0.48231000  0.89837000  1.0
  C  C24  1  0.19080000  0.43192000  0.85817000  1.0
  C  C25  1  0.14484000  0.43141000  0.77511000  1.0
  C  C26  1  0.80740000  0.56971000  0.14190000  1.0
  C  C27  1  0.60841000  0.51904000  0.10181000  1.0
  C  C28  1  0.44594000  0.46737000  0.14531000  1.0
  C  C29  1  0.48853000  0.46751000  0.22751000  1.0
  C  C30  1  0.68983000  0.51640000  0.26801000  1.0
  C  C31  1  0.85415000  0.56964000  0.22490000  1.0
  C  C32  1  0.29798000  0.88464000  0.51989000  1.0
  C  C33  1  0.70328000  0.11451000  0.48000000  1.0
  C  C34  1  0.40860000  0.81331000  0.49631000  1.0
  C  C35  1  0.59269000  0.18582000  0.50361000  1.0
  C  C36  1  0.59763000  0.00452000  0.48562000  1.0
  C  C37  1  0.40354000  0.99463000  0.51425000  1.0
  C  C38  1  0.92718000  0.37349000  0.73731000  1.0
  C  C39  1  0.07181000  0.62770000  0.26261000  1.0
  S  S40  1  0.64835000  0.88128000  0.46687000  1.0
  S  S41  1  0.35301000  0.11789000  0.53311000  1.0
  N  N42  1  0.40939000  0.47630000  0.98228000  1.0
  N  N43  1  0.58837000  0.52535000  0.01793000  1.0
  O  O44  1  0.83444000  0.35165000  0.49064000  1.0
  O  O45  1  0.55364000  0.48471000  0.39133000  1.0
  O  O46  1  0.49524000  0.64833000  0.48324000  1.0
  O  O47  1  0.09579000  0.47958000  0.60875000  1.0
  O  O48  1  0.16647000  0.64755000  0.50910000  1.0
  O  O49  1  0.44728000  0.51438000  0.60877000  1.0
  O  O50  1  0.50588000  0.35075000  0.51683000  1.0
  O  O51  1  0.90505000  0.51979000  0.39101000  1.0
  O  O52  1  0.21585000  0.44975000  0.46450000  1.0
  O  O53  1  0.78512000  0.54936000  0.53544000  1.0
  F  F54  1  0.11012000  0.85441000  0.54708000  1.0
  F  F55  1  0.89115000  0.14467000  0.45282000  1.0
