# generated using pymatgen
data_ZnH12C13N3ClO2
_symmetry_space_group_name_H-M   'P 1'
_cell_length_a   9.49064000
_cell_length_b   11.80690000
_cell_length_c   12.70620000
_cell_angle_alpha   103.77000000
_cell_angle_beta   90.00000000
_cell_angle_gamma   90.00000000
_symmetry_Int_Tables_number   1
_chemical_formula_structural   ZnH12C13N3ClO2
_chemical_formula_sum   'Zn4 H48 C52 N12 Cl4 O8'
_cell_volume   1382.87252188
_cell_formula_units_Z   4
loop_
 _symmetry_equiv_pos_site_id
 _symmetry_equiv_pos_as_xyz
  1  'x, y, z'
loop_
 _atom_site_type_symbol
 _atom_site_label
 _atom_site_symmetry_multiplicity
 _atom_site_fract_x
 _atom_site_fract_y
 _atom_site_fract_z
 _atom_site_occupancy
  Zn  Zn0  1  0.94406000  0.08611000  0.81047000  1.0
  Zn  Zn1  1  0.44406000  0.91389000  0.68953000  1.0
  Zn  Zn2  1  0.05594000  0.91389000  0.18953000  1.0
  Zn  Zn3  1  0.55594000  0.08611000  0.31047000  1.0
  H  H4  1  0.34037000  0.16415000  0.11312000  1.0
  H  H5  1  0.84037000  0.83585000  0.38688000  1.0
  H  H6  1  0.65963000  0.83585000  0.88688000  1.0
  H  H7  1  0.15963000  0.16415000  0.61313000  1.0
  H  H8  1  0.30625000  0.08435000  0.90631000  1.0
  H  H9  1  0.80625000  0.91564000  0.59369000  1.0
  H  H10  1  0.69375000  0.91564000  0.09369000  1.0
  H  H11  1  0.19375000  0.08436000  0.40631000  1.0
  H  H12  1  0.10688000  0.22202000  0.20875000  1.0
  H  H13  1  0.60688000  0.77798000  0.29125000  1.0
  H  H14  1  0.89312000  0.77798000  0.79125000  1.0
  H  H15  1  0.39312000  0.22202000  0.70875000  1.0
  H  H16  1  0.80746000  0.22184000  0.10985000  1.0
  H  H17  1  0.30746000  0.77816000  0.39015000  1.0
  H  H18  1  0.19254000  0.77816000  0.89015000  1.0
  H  H19  1  0.69255000  0.22184000  0.60985000  1.0
  H  H20  1  0.84885000  0.44807000  0.88767000  1.0
  H  H21  1  0.34885000  0.55193000  0.61233000  1.0
  H  H22  1  0.15115000  0.55193000  0.11233000  1.0
  H  H23  1  0.65115000  0.44807000  0.38767000  1.0
  H  H24  1  0.92198000  0.61635000  0.03631000  1.0
  H  H25  1  0.42198000  0.38365000  0.46369000  1.0
  H  H26  1  0.07802000  0.38365000  0.96369000  1.0
  H  H27  1  0.57802000  0.61635000  0.53631000  1.0
  H  H28  1  0.79751000  0.65840000  0.21171000  1.0
  H  H29  1  0.29751000  0.34160000  0.28829000  1.0
  H  H30  1  0.20249000  0.34159000  0.78829000  1.0
  H  H31  1  0.70249000  0.65840000  0.71171000  1.0
  H  H32  1  0.58662000  0.53773000  0.23644000  1.0
  H  H33  1  0.08662000  0.46227000  0.26356000  1.0
  H  H34  1  0.41338000  0.46227000  0.76356000  1.0
  H  H35  1  0.91338000  0.53773000  0.73644000  1.0
  H  H36  1  0.50980000  0.37554000  0.08675000  1.0
  H  H37  1  0.00980000  0.62446000  0.41325000  1.0
  H  H38  1  0.49019000  0.62446000  0.91325000  1.0
  H  H39  1  0.99020000  0.37554000  0.58675000  1.0
  H  H40  1  0.69156000  0.29721000  0.81427000  1.0
  H  H41  1  0.19155000  0.70279000  0.68573000  1.0
  H  H42  1  0.30844000  0.70279000  0.18573000  1.0
  H  H43  1  0.80844000  0.29721000  0.31427000  1.0
  H  H44  1  0.52087000  0.29675000  0.87318000  1.0
  H  H45  1  0.02086000  0.70325000  0.62681000  1.0
  H  H46  1  0.47913000  0.70325000  0.12681000  1.0
  H  H47  1  0.97913000  0.29675000  0.37318000  1.0
  H  H48  1  0.59997000  0.17053000  0.98854000  1.0
  H  H49  1  0.09997000  0.82947000  0.51146000  1.0
  H  H50  1  0.40003000  0.82947000  0.01146000  1.0
  H  H51  1  0.90004000  0.17053000  0.48854000  1.0
  C  C52  1  0.22292000  0.11557000  0.96473000  1.0
  C  C53  1  0.72292000  0.88443000  0.53527000  1.0
  C  C54  1  0.77708000  0.88443000  0.03527000  1.0
  C  C55  1  0.27708000  0.11557000  0.46474000  1.0
  C  C56  1  0.11725000  0.18996000  0.12194000  1.0
  C  C57  1  0.61725000  0.81004000  0.37806000  1.0
  C  C58  1  0.88275000  0.81004000  0.87806000  1.0
  C  C59  1  0.38276000  0.18996000  0.62194000  1.0
  C  C60  1  0.01877000  0.16841000  0.03932000  1.0
  C  C61  1  0.51877000  0.83159000  0.46068000  1.0
  C  C62  1  0.98123000  0.83159000  0.96068000  1.0
  C  C63  1  0.48124000  0.16841000  0.53932000  1.0
  C  C64  1  0.86886000  0.18885000  0.03568000  1.0
  C  C65  1  0.36886000  0.81115000  0.46432000  1.0
  C  C66  1  0.13114000  0.81116000  0.96432000  1.0
  C  C67  1  0.63115000  0.18884000  0.53568000  1.0
  C  C68  1  0.66580000  0.17734000  0.91884000  1.0
  C  C69  1  0.16579000  0.82267000  0.58116000  1.0
  C  C70  1  0.33420000  0.82267000  0.08116000  1.0
  C  C71  1  0.83421000  0.17733000  0.41884000  1.0
  C  C72  1  0.62855000  0.07781000  0.82077000  1.0
  C  C73  1  0.12855000  0.92219000  0.67923000  1.0
  C  C74  1  0.37145000  0.92219000  0.17923000  1.0
  C  C75  1  0.87145000  0.07781000  0.32077000  1.0
  C  C76  1  0.63463000  0.29543000  0.88929000  1.0
  C  C77  1  0.13463000  0.70457000  0.61071000  1.0
  C  C78  1  0.36537000  0.70457000  0.11071000  1.0
  C  C79  1  0.86537000  0.29543000  0.38929000  1.0
  C  C80  1  0.67582000  0.39929000  0.97757000  1.0
  C  C81  1  0.17582000  0.60071000  0.52243000  1.0
  C  C82  1  0.32418000  0.60071000  0.02243000  1.0
  C  C83  1  0.82418000  0.39929000  0.47756000  1.0
  C  C84  1  0.79091000  0.46871000  0.96408000  1.0
  C  C85  1  0.29091000  0.53129000  0.53592000  1.0
  C  C86  1  0.20910000  0.53129000  0.03592000  1.0
  C  C87  1  0.70910000  0.46871000  0.46408000  1.0
  C  C88  1  0.83214000  0.56293000  0.04743000  1.0
  C  C89  1  0.33215000  0.43707000  0.45257000  1.0
  C  C90  1  0.16785000  0.43707000  0.95257000  1.0
  C  C91  1  0.66786000  0.56293000  0.54743000  1.0
  C  C92  1  0.76033000  0.58739000  0.14617000  1.0
  C  C93  1  0.26034000  0.41261000  0.35383000  1.0
  C  C94  1  0.23966000  0.41261000  0.85383000  1.0
  C  C95  1  0.73966000  0.58739000  0.64617000  1.0
  C  C96  1  0.64429000  0.51933000  0.15991000  1.0
  C  C97  1  0.14429000  0.48067000  0.34009000  1.0
  C  C98  1  0.35571000  0.48067000  0.84009000  1.0
  C  C99  1  0.85571000  0.51933000  0.65991000  1.0
  C  C100  1  0.60145000  0.42703000  0.07564000  1.0
  C  C101  1  0.10145000  0.57297000  0.42436000  1.0
  C  C102  1  0.39854000  0.57297000  0.92436000  1.0
  C  C103  1  0.89855000  0.42703000  0.57564000  1.0
  N  N104  1  0.08710000  0.12097000  0.94203000  1.0
  N  N105  1  0.58710000  0.87903000  0.55797000  1.0
  N  N106  1  0.91290000  0.87903000  0.05797000  1.0
  N  N107  1  0.41290000  0.12097000  0.44204000  1.0
  N  N108  1  0.24425000  0.15686000  0.07314000  1.0
  N  N109  1  0.74425000  0.84314000  0.42686000  1.0
  N  N110  1  0.75575000  0.84314000  0.92686000  1.0
  N  N111  1  0.25576000  0.15686000  0.57315000  1.0
  N  N112  1  0.81326000  0.16523000  0.94053000  1.0
  N  N113  1  0.31326000  0.83477000  0.55947000  1.0
  N  N114  1  0.18674000  0.83477000  0.05947000  1.0
  N  N115  1  0.68674000  0.16523000  0.44053000  1.0
  Cl  Cl116  1  0.96768000  0.21392000  0.70212000  1.0
  Cl  Cl117  1  0.46768000  0.78608000  0.79788000  1.0
  Cl  Cl118  1  0.03231000  0.78608000  0.29788000  1.0
  Cl  Cl119  1  0.53232000  0.21392000  0.20212000  1.0
  O  O120  1  0.72614000  0.01727000  0.76832000  1.0
  O  O121  1  0.22614000  0.98273000  0.73168000  1.0
  O  O122  1  0.27386000  0.98273000  0.23168000  1.0
  O  O123  1  0.77386000  0.01727000  0.26832000  1.0
  O  O124  1  0.49731000  0.06410000  0.79791000  1.0
  O  O125  1  0.99731000  0.93590000  0.70210000  1.0
  O  O126  1  0.50269000  0.93590000  0.20210000  1.0
  O  O127  1  0.00269000  0.06410000  0.29790000  1.0
