# generated using pymatgen
data_GdH14C12N9O7
_symmetry_space_group_name_H-M   'P 1'
_cell_length_a   8.67636000
_cell_length_b   9.81490000
_cell_length_c   10.98730000
_cell_angle_alpha   81.69320000
_cell_angle_beta   86.53370000
_cell_angle_gamma   76.77280000
_symmetry_Int_Tables_number   1
_chemical_formula_structural   GdH14C12N9O7
_chemical_formula_sum   'Gd2 H28 C24 N18 O14'
_cell_volume   900.90903739
_cell_formula_units_Z   2
loop_
 _symmetry_equiv_pos_site_id
 _symmetry_equiv_pos_as_xyz
  1  'x, y, z'
loop_
 _atom_site_type_symbol
 _atom_site_label
 _atom_site_symmetry_multiplicity
 _atom_site_fract_x
 _atom_site_fract_y
 _atom_site_fract_z
 _atom_site_occupancy
  Gd  Gd0  1  0.38738000  0.03231000  0.15758000  1.0
  Gd  Gd1  1  0.61262000  0.96769000  0.84242000  1.0
  H  H2  1  0.13961000  0.13839000  0.34884000  1.0
  H  H3  1  0.86040000  0.86162000  0.65116000  1.0
  H  H4  1  0.05802000  0.18914000  0.21593000  1.0
  H  H5  1  0.94198000  0.81086000  0.78407000  1.0
  H  H6  1  0.11364000  0.51571000  0.74771000  1.0
  H  H7  1  0.88636000  0.48429000  0.25229000  1.0
  H  H8  1  0.19425000  0.80581000  0.97136000  1.0
  H  H9  1  0.80575000  0.19419000  0.02864000  1.0
  H  H10  1  0.03665000  0.00666000  0.62103000  1.0
  H  H11  1  0.96335000  0.99334000  0.37897000  1.0
  H  H12  1  0.17300000  0.38195000  0.46991000  1.0
  H  H13  1  0.82700000  0.61806000  0.53009000  1.0
  H  H14  1  0.21123000  0.72988000  0.49278000  1.0
  H  H15  1  0.78877000  0.27012000  0.50722000  1.0
  H  H16  1  0.37762000  0.60460000  0.44307000  1.0
  H  H17  1  0.62238000  0.39539000  0.55693000  1.0
  H  H18  1  0.67219000  0.58826000  0.78323000  1.0
  H  H19  1  0.32781000  0.41174000  0.21677000  1.0
  H  H20  1  0.37141000  0.94135000  0.59404000  1.0
  H  H21  1  0.62859000  0.05865000  0.40597000  1.0
  H  H22  1  0.52577000  0.39338000  0.84739000  1.0
  H  H23  1  0.47423000  0.60662000  0.15261000  1.0
  H  H24  1  0.37311000  0.34054000  0.77753000  1.0
  H  H25  1  0.62689000  0.65946000  0.22246000  1.0
  H  H26  1  0.96574000  0.07394000  0.84298000  1.0
  H  H27  1  0.03426000  0.92606000  0.15701000  1.0
  H  H28  1  0.00009000  0.23730000  0.87174000  1.0
  H  H29  1  0.99991000  0.76270000  0.12826000  1.0
  C  C30  1  0.16087000  0.57029000  0.81112000  1.0
  C  C31  1  0.83912000  0.42971000  0.18888000  1.0
  C  C32  1  0.20501000  0.71291000  0.92590000  1.0
  C  C33  1  0.79499000  0.28709000  0.07410000  1.0
  C  C34  1  0.07043000  0.10784000  0.60629000  1.0
  C  C35  1  0.92957000  0.89216000  0.39371000  1.0
  C  C36  1  0.13682000  0.29917000  0.53397000  1.0
  C  C37  1  0.86318000  0.70083000  0.46603000  1.0
  C  C38  1  0.36048000  0.81825000  0.35519000  1.0
  C  C39  1  0.63951000  0.18175000  0.64481000  1.0
  C  C40  1  0.33829000  0.71211000  0.46760000  1.0
  C  C41  1  0.66171000  0.28790000  0.53240000  1.0
  C  C42  1  0.58890000  0.65383000  0.71722000  1.0
  C  C43  1  0.41110000  0.34617000  0.28278000  1.0
  C  C44  1  0.43494000  0.83468000  0.62479000  1.0
  C  C45  1  0.56505000  0.16532000  0.37521000  1.0
  C  C46  1  0.39720000  0.26759000  0.96976000  1.0
  C  C47  1  0.60280000  0.73241000  0.03024000  1.0
  C  C48  1  0.40411000  0.37908000  0.85979000  1.0
  C  C49  1  0.59589000  0.62092000  0.14021000  1.0
  C  C50  1  0.20628000  0.06520000  0.89096000  1.0
  C  C51  1  0.79372000  0.93480000  0.10904000  1.0
  C  C52  1  0.05102000  0.14228000  0.82891000  1.0
  C  C53  1  0.94898000  0.85772000  0.17109000  1.0
  N  N54  1  0.42821000  0.72068000  0.57235000  1.0
  N  N55  1  0.57179000  0.27932000  0.42765000  1.0
  N  N56  1  0.52714000  0.60336000  0.63023000  1.0
  N  N57  1  0.47286000  0.39664000  0.36977000  1.0
  N  N58  1  0.53547000  0.79590000  0.71738000  1.0
  N  N59  1  0.46454000  0.20410000  0.28262000  1.0
  N  N60  1  0.29656000  0.51308000  0.87081000  1.0
  N  N61  1  0.70344000  0.48692000  0.12919000  1.0
  N  N62  1  0.07246000  0.18376000  0.69836000  1.0
  N  N63  1  0.92755000  0.81625000  0.30164000  1.0
  N  N64  1  0.09970000  0.69788000  0.84387000  1.0
  N  N65  1  0.90030000  0.30212000  0.15613000  1.0
  N  N66  1  0.32651000  0.60270000  0.94513000  1.0
  N  N67  1  0.67349000  0.39729000  0.05486000  1.0
  N  N68  1  0.11012000  0.17839000  0.49981000  1.0
  N  N69  1  0.88988000  0.82162000  0.50018000  1.0
  N  N70  1  0.11582000  0.30672000  0.65403000  1.0
  N  N71  1  0.88419000  0.69328000  0.34597000  1.0
  O  O72  1  0.14633000  0.11680000  0.26195000  1.0
  O  O73  1  0.85367000  0.88320000  0.73805000  1.0
  O  O74  1  0.44149000  0.90912000  0.36403000  1.0
  O  O75  1  0.55851000  0.09088000  0.63597000  1.0
  O  O76  1  0.29463000  0.81199000  0.25680000  1.0
  O  O77  1  0.70537000  0.18801000  0.74320000  1.0
  O  O78  1  0.49911000  0.14898000  0.96913000  1.0
  O  O79  1  0.50089000  0.85102000  0.03087000  1.0
  O  O80  1  0.29573000  0.28743000  0.05521000  1.0
  O  O81  1  0.70427000  0.71257000  0.94479000  1.0
  O  O82  1  0.19640000  0.04060000  0.00772000  1.0
  O  O83  1  0.80360000  0.95940000  0.99228000  1.0
  O  O84  1  0.32778000  0.03325000  0.82277000  1.0
  O  O85  1  0.67222000  0.96675000  0.17723000  1.0
