# generated using pymatgen
data_ZnH10C17N3O4
_symmetry_space_group_name_H-M   'P 1'
_cell_length_a   13.98890000
_cell_length_b   15.14640000
_cell_length_c   15.21360000
_cell_angle_alpha   76.23880000
_cell_angle_beta   86.27440000
_cell_angle_gamma   82.75770000
_symmetry_Int_Tables_number   1
_chemical_formula_structural   ZnH10C17N3O4
_chemical_formula_sum   'Zn4 H40 C68 N12 O16'
_cell_volume   3103.92426035
_cell_formula_units_Z   4
loop_
 _symmetry_equiv_pos_site_id
 _symmetry_equiv_pos_as_xyz
  1  'x, y, z'
loop_
 _atom_site_type_symbol
 _atom_site_label
 _atom_site_symmetry_multiplicity
 _atom_site_fract_x
 _atom_site_fract_y
 _atom_site_fract_z
 _atom_site_occupancy
  Zn  Zn0  1  0.89597000  0.10888000  0.82932000  1.0
  Zn  Zn1  1  0.68971000  0.13098000  0.83603000  1.0
  Zn  Zn2  1  0.10403000  0.89112000  0.17068000  1.0
  Zn  Zn3  1  0.31029000  0.86902000  0.16397000  1.0
  H  H4  1  0.21059000  0.12480000  0.97240000  1.0
  H  H5  1  0.23648000  0.11748000  0.68882000  1.0
  H  H6  1  0.35740000  0.06563000  0.97600000  1.0
  H  H7  1  0.94211000  0.11146000  0.09912000  1.0
  H  H8  1  0.94866000  0.11718000  0.25944000  1.0
  H  H9  1  0.63451000  0.11186000  0.13660000  1.0
  H  H10  1  0.03620000  0.11030000  0.96744000  1.0
  H  H11  1  0.05896000  0.11056000  0.69471000  1.0
  H  H12  1  0.64696000  0.17038000  0.54116000  1.0
  H  H13  1  0.94846000  0.07208000  0.55718000  1.0
  H  H14  1  0.63322000  0.41343000  0.83084000  1.0
  H  H15  1  0.94781000  0.06350000  0.39537000  1.0
  H  H16  1  0.63133000  0.57610000  0.83957000  1.0
  H  H17  1  0.94942000  0.79921000  0.85615000  1.0
  H  H18  1  0.63473000  0.71071000  0.80960000  1.0
  H  H19  1  0.64343000  0.86833000  0.82866000  1.0
  H  H20  1  0.53364000  0.07972000  0.97236000  1.0
  H  H21  1  0.94028000  0.40210000  0.78447000  1.0
  H  H22  1  0.36282000  0.19013000  0.68819000  1.0
  H  H23  1  0.54031000  0.19090000  0.69663000  1.0
  H  H24  1  0.78941000  0.87520000  0.02760000  1.0
  H  H25  1  0.76352000  0.88252000  0.31118000  1.0
  H  H26  1  0.64260000  0.93438000  0.02400000  1.0
  H  H27  1  0.05789000  0.88854000  0.90088000  1.0
  H  H28  1  0.05134000  0.88281000  0.74056000  1.0
  H  H29  1  0.36548000  0.88814000  0.86340000  1.0
  H  H30  1  0.96380000  0.88971000  0.03256000  1.0
  H  H31  1  0.94104000  0.88943000  0.30529000  1.0
  H  H32  1  0.35304000  0.82962000  0.45884000  1.0
  H  H33  1  0.05154000  0.92792000  0.44281000  1.0
  H  H34  1  0.36679000  0.58657000  0.16915000  1.0
  H  H35  1  0.05219000  0.93650000  0.60463000  1.0
  H  H36  1  0.36868000  0.42390000  0.16042000  1.0
  H  H37  1  0.05058000  0.20079000  0.14385000  1.0
  H  H38  1  0.36527000  0.28929000  0.19040000  1.0
  H  H39  1  0.35658000  0.13167000  0.17134000  1.0
  H  H40  1  0.46636000  0.92028000  0.02764000  1.0
  H  H41  1  0.05972000  0.59790000  0.21554000  1.0
  H  H42  1  0.63718000  0.80987000  0.31181000  1.0
  H  H43  1  0.45969000  0.80910000  0.30337000  1.0
  C  C44  1  0.34401000  0.12737000  0.83175000  1.0
  C  C45  1  0.23945000  0.12254000  0.83063000  1.0
  C  C46  1  0.18099000  0.12062000  0.90934000  1.0
  C  C47  1  0.78112000  0.11002000  0.00761000  1.0
  C  C48  1  0.79514000  0.12556000  0.65915000  1.0
  C  C49  1  0.19499000  0.11866000  0.75170000  1.0
  C  C50  1  0.39389000  0.09613000  0.91259000  1.0
  C  C51  1  0.79063000  0.29562000  0.80952000  1.0
  C  C52  1  0.78723000  0.11197000  0.10488000  1.0
  C  C53  1  0.87621000  0.11310000  0.14108000  1.0
  C  C54  1  0.87955000  0.11496000  0.23146000  1.0
  C  C55  1  0.79716000  0.84603000  0.84449000  1.0
  C  C56  1  0.70520000  0.11243000  0.16312000  1.0
  C  C57  1  0.79577000  0.11556000  0.38216000  1.0
  C  C58  1  0.78710000  0.39514000  0.80802000  1.0
  C  C59  1  0.08331000  0.11356000  0.90716000  1.0
  C  C60  1  0.09654000  0.11309000  0.75450000  1.0
  C  C61  1  0.79361000  0.11450000  0.28483000  1.0
  C  C62  1  0.71484000  0.14688000  0.50973000  1.0
  C  C63  1  0.79758000  0.12206000  0.56153000  1.0
  C  C64  1  0.88292000  0.09201000  0.51898000  1.0
  C  C65  1  0.80398000  0.94182000  0.85175000  1.0
  C  C66  1  0.69936000  0.44607000  0.82214000  1.0
  C  C67  1  0.88210000  0.08798000  0.42891000  1.0
  C  C68  1  0.78909000  0.67051000  0.82503000  1.0
  C  C69  1  0.69903000  0.53654000  0.82650000  1.0
  C  C70  1  0.87837000  0.78097000  0.84651000  1.0
  C  C71  1  0.70365000  0.73129000  0.82150000  1.0
  C  C72  1  0.70782000  0.81924000  0.83169000  1.0
  C  C73  1  0.78679000  0.57489000  0.81648000  1.0
  C  C74  1  0.49224000  0.10192000  0.91115000  1.0
  C  C75  1  0.87072000  0.43974000  0.79669000  1.0
  C  C76  1  0.39734000  0.16310000  0.75273000  1.0
  C  C77  1  0.49591000  0.16523000  0.75662000  1.0
  C  C78  1  0.65599000  0.87263000  0.16825000  1.0
  C  C79  1  0.76055000  0.87746000  0.16937000  1.0
  C  C80  1  0.81901000  0.87938000  0.09066000  1.0
  C  C81  1  0.21887000  0.88998000  0.99239000  1.0
  C  C82  1  0.20485000  0.87444000  0.34085000  1.0
  C  C83  1  0.80501000  0.88134000  0.24830000  1.0
  C  C84  1  0.60611000  0.90388000  0.08741000  1.0
  C  C85  1  0.20937000  0.70437000  0.19048000  1.0
  C  C86  1  0.21276000  0.88803000  0.89512000  1.0
  C  C87  1  0.12378000  0.88690000  0.85892000  1.0
  C  C88  1  0.12045000  0.88504000  0.76854000  1.0
  C  C89  1  0.20284000  0.15397000  0.15551000  1.0
  C  C90  1  0.29480000  0.88757000  0.83688000  1.0
  C  C91  1  0.20423000  0.88444000  0.61784000  1.0
  C  C92  1  0.21291000  0.60486000  0.19198000  1.0
  C  C93  1  0.91669000  0.88644000  0.09284000  1.0
  C  C94  1  0.90346000  0.88691000  0.24550000  1.0
  C  C95  1  0.20639000  0.88550000  0.71517000  1.0
  C  C96  1  0.28516000  0.85312000  0.49028000  1.0
  C  C97  1  0.20241000  0.87794000  0.43846000  1.0
  C  C98  1  0.11708000  0.90799000  0.48102000  1.0
  C  C99  1  0.19602000  0.05818000  0.14825000  1.0
  C  C100  1  0.30065000  0.55393000  0.17786000  1.0
  C  C101  1  0.11789000  0.91203000  0.57109000  1.0
  C  C102  1  0.21091000  0.32949000  0.17496000  1.0
  C  C103  1  0.30097000  0.46346000  0.17350000  1.0
  C  C104  1  0.12163000  0.21903000  0.15349000  1.0
  C  C105  1  0.29635000  0.26871000  0.17850000  1.0
  C  C106  1  0.29218000  0.18076000  0.16831000  1.0
  C  C107  1  0.21321000  0.42511000  0.18352000  1.0
  C  C108  1  0.50776000  0.89809000  0.08885000  1.0
  C  C109  1  0.12928000  0.56026000  0.20331000  1.0
  C  C110  1  0.60266000  0.83690000  0.24727000  1.0
  C  C111  1  0.50409000  0.83477000  0.24338000  1.0
  N  N112  1  0.54274000  0.13507000  0.83456000  1.0
  N  N113  1  0.04172000  0.10998000  0.83098000  1.0
  N  N114  1  0.70733000  0.11299000  0.25059000  1.0
  N  N115  1  0.87532000  0.69591000  0.83740000  1.0
  N  N116  1  0.71309000  0.14444000  0.42273000  1.0
  N  N117  1  0.87139000  0.52680000  0.80056000  1.0
  N  N118  1  0.45726000  0.86493000  0.16544000  1.0
  N  N119  1  0.95828000  0.89002000  0.16902000  1.0
  N  N120  1  0.29267000  0.88701000  0.74941000  1.0
  N  N121  1  0.12469000  0.30409000  0.16260000  1.0
  N  N122  1  0.28691000  0.85556000  0.57727000  1.0
  N  N123  1  0.12861000  0.47320000  0.19944000  1.0
  O  O124  1  0.69851000  0.10868000  0.97781000  1.0
  O  O125  1  0.86081000  0.10982000  0.96175000  1.0
  O  O126  1  0.71364000  0.14520000  0.69620000  1.0
  O  O127  1  0.87592000  0.10689000  0.69787000  1.0
  O  O128  1  0.88692000  0.96616000  0.85696000  1.0
  O  O129  1  0.71001000  0.26229000  0.82524000  1.0
  O  O130  1  0.87199000  0.25164000  0.79747000  1.0
  O  O131  1  0.72373000  0.99251000  0.85161000  1.0
  O  O132  1  0.30148000  0.89132000  0.02219000  1.0
  O  O133  1  0.13919000  0.89018000  0.03825000  1.0
  O  O134  1  0.28635000  0.85480000  0.30380000  1.0
  O  O135  1  0.12408000  0.89311000  0.30213000  1.0
  O  O136  1  0.11308000  0.03384000  0.14304000  1.0
  O  O137  1  0.28999000  0.73771000  0.17476000  1.0
  O  O138  1  0.12801000  0.74836000  0.20253000  1.0
  O  O139  1  0.27628000  0.00749000  0.14838000  1.0
