# generated using pymatgen
data_GaH3C4O5
_symmetry_space_group_name_H-M   'P 1'
_cell_length_a   6.83957000
_cell_length_b   8.99790000
_cell_length_c   8.99795000
_cell_angle_alpha   77.66260000
_cell_angle_beta   75.20060000
_cell_angle_gamma   75.20090000
_symmetry_Int_Tables_number   1
_chemical_formula_structural   GaH3C4O5
_chemical_formula_sum   'Ga2 H6 C8 O10'
_cell_volume   511.05305579
_cell_formula_units_Z   2
loop_
 _symmetry_equiv_pos_site_id
 _symmetry_equiv_pos_as_xyz
  1  'x, y, z'
loop_
 _atom_site_type_symbol
 _atom_site_label
 _atom_site_symmetry_multiplicity
 _atom_site_fract_x
 _atom_site_fract_y
 _atom_site_fract_z
 _atom_site_occupancy
  Ga  Ga0  1  0.50002000  0.49997000  0.49998000  1.0
  Ga  Ga1  1  0.00002000  0.49998000  0.49997000  1.0
  H  H2  1  0.74984000  0.66447000  0.33594000  1.0
  H  H3  1  0.24980000  0.33600000  0.66453000  1.0
  H  H4  1  0.22711000  0.01384000  0.47567000  1.0
  H  H5  1  0.27291000  0.52434000  0.98612000  1.0
  H  H6  1  0.77291000  0.98611000  0.52434000  1.0
  H  H7  1  0.72711000  0.47567000  0.01385000  1.0
  C  C8  1  0.14832000  0.78700000  0.49391000  1.0
  C  C9  1  0.35171000  0.50607000  0.21296000  1.0
  C  C10  1  0.85173000  0.21295000  0.50606000  1.0
  C  C11  1  0.64832000  0.49390000  0.78700000  1.0
  C  C12  1  0.09741000  0.95815000  0.49179000  1.0
  C  C13  1  0.40264000  0.50821000  0.04182000  1.0
  C  C14  1  0.90263000  0.04182000  0.50822000  1.0
  C  C15  1  0.59739000  0.49179000  0.95815000  1.0
  O  O16  1  0.34102000  0.72393000  0.47199000  1.0
  O  O17  1  0.15903000  0.52798000  0.27603000  1.0
  O  O18  1  0.65901000  0.27602000  0.52798000  1.0
  O  O19  1  0.84103000  0.47199000  0.72393000  1.0
  O  O20  1  0.99797000  0.71982000  0.51568000  1.0
  O  O21  1  0.50206000  0.48425000  0.28016000  1.0
  O  O22  1  0.00204000  0.28015000  0.48424000  1.0
  O  O23  1  0.49797000  0.51567000  0.71982000  1.0
  O  O24  1  0.75002000  0.57832000  0.42160000  1.0
  O  O25  1  0.25002000  0.42158000  0.57831000  1.0
