# generated using pymatgen
data_CoH18C12(N12Cl)2
_symmetry_space_group_name_H-M   'P 1'
_cell_length_a   6.83944000
_cell_length_b   9.06513000
_cell_length_c   9.28796000
_cell_angle_alpha   100.63100000
_cell_angle_beta   91.83590000
_cell_angle_gamma   99.10570000
_symmetry_Int_Tables_number   1
_chemical_formula_structural   CoH18C12(N12Cl)2
_chemical_formula_sum   'Co1 H18 C12 N24 Cl2'
_cell_volume   557.72724489
_cell_formula_units_Z   1
loop_
 _symmetry_equiv_pos_site_id
 _symmetry_equiv_pos_as_xyz
  1  'x, y, z'
loop_
 _atom_site_type_symbol
 _atom_site_label
 _atom_site_symmetry_multiplicity
 _atom_site_fract_x
 _atom_site_fract_y
 _atom_site_fract_z
 _atom_site_occupancy
  Co  Co0  1  0.00000000  0.00000000  0.50000000  1.0
  H  H1  1  0.28433000  0.38796000  0.44087000  1.0
  H  H2  1  0.71567000  0.61204000  0.55913000  1.0
  H  H3  1  0.97092000  0.66097000  0.30897000  1.0
  H  H4  1  0.02908000  0.33903000  0.69103000  1.0
  H  H5  1  0.08816000  0.38578000  0.30824000  1.0
  H  H6  1  0.91183000  0.61422000  0.69176000  1.0
  H  H7  1  0.44198000  0.35695000  0.21627000  1.0
  H  H8  1  0.55802000  0.64305000  0.78373000  1.0
  H  H9  1  0.38902000  0.04771000  0.87083000  1.0
  H  H10  1  0.61097000  0.95228000  0.12916000  1.0
  H  H11  1  0.58684000  0.06035000  0.65058000  1.0
  H  H12  1  0.41316000  0.93964000  0.34942000  1.0
  H  H13  1  0.51115000  0.55478000  0.28900000  1.0
  H  H14  1  0.48885000  0.44522000  0.71100000  1.0
  H  H15  1  0.21378000  0.28309000  0.96514000  1.0
  H  H16  1  0.78622000  0.71691000  0.03486000  1.0
  H  H17  1  0.37854000  0.85834000  0.89822000  1.0
  H  H18  1  0.62146000  0.14165000  0.10178000  1.0
  C  C19  1  0.38555000  0.46405000  0.24525000  1.0
  C  C20  1  0.61445000  0.53595000  0.75474000  1.0
  C  C21  1  0.08114000  0.69033000  0.40109000  1.0
  C  C22  1  0.91886000  0.30967000  0.59891000  1.0
  C  C23  1  0.68933000  0.00882000  0.71001000  1.0
  C  C24  1  0.31067000  0.99117000  0.28999000  1.0
  C  C25  1  0.23122000  0.44891000  0.35944000  1.0
  C  C26  1  0.76878000  0.55110000  0.64056000  1.0
  C  C27  1  0.22931000  0.40621000  0.98437000  1.0
  C  C28  1  0.77069000  0.59379000  0.01563000  1.0
  C  C29  1  0.47132000  0.97170000  0.91820000  1.0
  C  C30  1  0.52868000  0.02830000  0.08180000  1.0
  N  N31  1  0.86809000  0.97634000  0.67621000  1.0
  N  N32  1  0.13191000  0.02366000  0.32379000  1.0
  N  N33  1  0.30615000  0.49967000  0.11054000  1.0
  N  N34  1  0.69385000  0.50033000  0.88946000  1.0
  N  N35  1  0.22391000  0.63775000  0.96433000  1.0
  N  N36  1  0.77609000  0.36225000  0.03567000  1.0
  N  N37  1  0.20013000  0.59735000  0.43823000  1.0
  N  N38  1  0.79987000  0.40265000  0.56177000  1.0
  N  N39  1  0.80503000  0.90424000  0.88280000  1.0
  N  N40  1  0.19497000  0.09577000  0.11720000  1.0
  N  N41  1  0.11869000  0.81916000  0.50095000  1.0
  N  N42  1  0.88131000  0.18084000  0.49905000  1.0
  N  N43  1  0.93638000  0.91214000  0.78541000  1.0
  N  N44  1  0.06362000  0.08786000  0.21459000  1.0
  N  N45  1  0.65021000  0.96496000  0.83741000  1.0
  N  N46  1  0.34979000  0.03504000  0.16259000  1.0
  N  N47  1  0.31320000  0.66955000  0.56171000  1.0
  N  N48  1  0.68680000  0.33045000  0.43829000  1.0
  N  N49  1  0.30134000  0.64530000  0.09594000  1.0
  N  N50  1  0.69866000  0.35470000  0.90406000  1.0
  N  N51  1  0.26348000  0.80267000  0.59884000  1.0
  N  N52  1  0.73652000  0.19733000  0.40116000  1.0
  N  N53  1  0.17799000  0.49050000  0.89157000  1.0
  N  N54  1  0.82201000  0.50950000  0.10843000  1.0
  Cl  Cl55  1  0.30623000  0.17892000  0.64045000  1.0
  Cl  Cl56  1  0.69377000  0.82108000  0.35955000  1.0
