# generated using pymatgen
data_Zr3H21C45N5O28
_symmetry_space_group_name_H-M   'P 1'
_cell_length_a   18.91567124
_cell_length_b   19.05265336
_cell_length_c   19.05250000
_cell_angle_alpha   89.60036369
_cell_angle_beta   60.28299967
_cell_angle_gamma   119.72227680
_symmetry_Int_Tables_number   1
_chemical_formula_structural   Zr3H21C45N5O28
_chemical_formula_sum   'Zr6 H42 C90 N10 O56'
_cell_volume   4879.36985114
_cell_formula_units_Z   2
loop_
 _symmetry_equiv_pos_site_id
 _symmetry_equiv_pos_as_xyz
  1  'x, y, z'
loop_
 _atom_site_type_symbol
 _atom_site_label
 _atom_site_symmetry_multiplicity
 _atom_site_fract_x
 _atom_site_fract_y
 _atom_site_fract_z
 _atom_site_occupancy
  Zr  Zr0  1  0.50073000  0.09713000  0.91006000  1.0
  Zr  Zr1  1  0.49890000  0.91005000  0.09714000  1.0
  Zr  Zr2  1  0.31357000  0.91190000  0.09540000  1.0
  Zr  Zr3  1  0.68603000  0.09535000  0.91195000  1.0
  Zr  Zr4  1  0.49980000  0.09606000  0.09607000  1.0
  Zr  Zr5  1  0.49982000  0.91112000  0.91110000  1.0
  H  H6  1  0.35400000  0.07821000  0.07439000  1.0
  H  H7  1  0.64557000  0.07438000  0.07825000  1.0
  H  H8  1  0.35259000  0.78456000  0.07676000  1.0
  H  H9  1  0.64702000  0.07677000  0.78457000  1.0
  H  H10  1  0.48828000  0.54233000  0.11891000  1.0
  H  H11  1  0.48962000  0.45382000  0.89880000  1.0
  H  H12  1  0.56335000  0.35260000  0.07841000  1.0
  H  H13  1  0.57997000  0.49054000  0.07171000  1.0
  H  H14  1  0.56034000  0.71629000  0.86707000  1.0
  H  H15  1  0.57842000  0.59580000  0.85657000  1.0
  H  H16  1  0.50990000  0.89872000  0.45385000  1.0
  H  H17  1  0.51159000  0.11902000  0.54214000  1.0
  H  H18  1  0.43894000  0.86704000  0.71649000  1.0
  H  H19  1  0.42100000  0.85654000  0.59591000  1.0
  H  H20  1  0.43637000  0.07844000  0.35255000  1.0
  H  H21  1  0.41980000  0.07178000  0.49047000  1.0
  H  H22  1  0.15491000  0.54844000  0.89560000  1.0
  H  H23  1  0.84511000  0.44577000  0.12365000  1.0
  H  H24  1  0.92162000  0.35864000  0.86419000  1.0
  H  H25  1  0.05078000  0.49742000  0.85512000  1.0
  H  H26  1  0.07031000  0.70987000  0.08749000  1.0
  H  H27  1  0.93856000  0.58940000  0.08130000  1.0
  H  H28  1  0.15449000  0.12379000  0.44560000  1.0
  H  H29  1  0.84479000  0.89590000  0.54816000  1.0
  H  H30  1  0.92935000  0.08739000  0.70990000  1.0
  H  H31  1  0.06112000  0.08133000  0.58930000  1.0
  H  H32  1  0.07800000  0.86421000  0.35868000  1.0
  H  H33  1  0.94877000  0.85525000  0.49736000  1.0
  H  H34  1  0.70768000  0.87535000  0.10511000  1.0
  H  H35  1  0.75730000  0.79994000  0.15791000  1.0
  H  H36  1  0.92838000  0.09648000  0.87695000  1.0
  H  H37  1  0.29187000  0.10516000  0.87548000  1.0
  H  H38  1  0.24226000  0.15811000  0.80019000  1.0
  H  H39  1  0.07120000  0.87674000  0.09635000  1.0
  H  H40  1  0.93498000  0.53845000  0.44795000  1.0
  H  H41  1  0.06485000  0.44795000  0.53867000  1.0
  H  H42  1  0.71233000  0.35175000  0.71546000  1.0
  H  H43  1  0.83966000  0.48816000  0.59266000  1.0
  H  H44  1  0.28749000  0.71556000  0.35173000  1.0
  H  H45  1  0.16028000  0.59280000  0.48814000  1.0
  H  H46  1  0.97539000  0.76540000  0.06470000  1.0
  H  H47  1  0.02457000  0.06480000  0.76534000  1.0
  C  C48  1  0.51073000  0.24406000  0.99734000  1.0
  C  C49  1  0.48889000  0.99734000  0.24408000  1.0
  C  C50  1  0.50736000  0.77221000  0.00053000  1.0
  C  C51  1  0.49215000  0.00058000  0.77226000  1.0
  C  C52  1  0.26530000  0.99931000  0.99522000  1.0
  C  C53  1  0.73701000  0.24256000  0.77269000  1.0
  C  C54  1  0.73427000  0.99519000  0.99939000  1.0
  C  C55  1  0.26271000  0.77265000  0.24254000  1.0
  C  C56  1  0.26461000  0.00062000  0.24184000  1.0
  C  C57  1  0.26405000  0.77391000  0.99852000  1.0
  C  C58  1  0.73563000  0.99852000  0.77390000  1.0
  C  C59  1  0.73501000  0.24180000  0.00067000  1.0
  C  C60  1  0.51612000  0.69862000  0.99707000  1.0
  C  C61  1  0.52008000  0.32660000  0.99166000  1.0
  C  C62  1  0.49828000  0.64920000  0.06627000  1.0
  C  C63  1  0.50676000  0.58085000  0.06227000  1.0
  C  C64  1  0.50206000  0.35813000  0.94018000  1.0
  C  C65  1  0.50871000  0.43406000  0.93680000  1.0
  C  C66  1  0.54832000  0.37617000  0.03875000  1.0
  C  C67  1  0.55647000  0.45289000  0.03533000  1.0
  C  C68  1  0.54521000  0.67773000  0.92162000  1.0
  C  C69  1  0.55451000  0.60973000  0.91646000  1.0
  C  C70  1  0.53392000  0.55927000  0.98713000  1.0
  C  C71  1  0.53489000  0.48229000  0.98560000  1.0
  C  C72  1  0.47956000  0.99166000  0.32659000  1.0
  C  C73  1  0.48333000  0.99708000  0.69870000  1.0
  C  C74  1  0.49745000  0.94010000  0.35816000  1.0
  C  C75  1  0.49086000  0.93676000  0.43407000  1.0
  C  C76  1  0.50130000  0.06632000  0.64919000  1.0
  C  C77  1  0.49298000  0.06235000  0.58075000  1.0
  C  C78  1  0.45418000  0.92161000  0.67784000  1.0
  C  C79  1  0.44497000  0.91646000  0.60979000  1.0
  C  C80  1  0.45137000  0.03877000  0.37614000  1.0
  C  C81  1  0.44324000  0.03536000  0.45285000  1.0
  C  C82  1  0.46481000  0.98563000  0.48225000  1.0
  C  C83  1  0.46574000  0.98718000  0.55923000  1.0
  C  C84  1  0.18675000  0.69995000  0.99378000  1.0
  C  C85  1  0.81135000  0.32429000  0.99756000  1.0
  C  C86  1  0.20810000  0.65353000  0.93959000  1.0
  C  C87  1  0.13527000  0.58461000  0.93614000  1.0
  C  C88  1  0.79173000  0.35184000  0.06892000  1.0
  C  C89  1  0.86287000  0.42882000  0.06556000  1.0
  C  C90  1  0.90602000  0.37865000  0.92056000  1.0
  C  C91  1  0.97816000  0.45607000  0.91608000  1.0
  C  C92  1  0.08802000  0.67479000  0.04456000  1.0
  C  C93  1  0.01421000  0.60632000  0.04151000  1.0
  C  C94  1  0.03648000  0.55931000  0.98798000  1.0
  C  C95  1  0.95836000  0.48166000  0.98894000  1.0
  C  C96  1  0.18829000  0.99759000  0.32425000  1.0
  C  C97  1  0.81291000  0.99381000  0.69989000  1.0
  C  C98  1  0.20793000  0.06900000  0.35173000  1.0
  C  C99  1  0.13679000  0.06570000  0.42866000  1.0
  C  C100  1  0.79157000  0.93974000  0.65338000  1.0
  C  C101  1  0.86440000  0.93633000  0.58442000  1.0
  C  C102  1  0.91164000  0.04452000  0.67477000  1.0
  C  C103  1  0.98547000  0.04157000  0.60622000  1.0
  C  C104  1  0.09358000  0.92062000  0.37861000  1.0
  C  C105  1  0.02143000  0.91618000  0.45597000  1.0
  C  C106  1  0.04128000  0.98907000  0.48150000  1.0
  C  C107  1  0.96317000  0.98812000  0.55916000  1.0
  C  C108  1  0.78575000  0.92149000  0.05277000  1.0
  C  C109  1  0.85974000  0.91684000  0.04781000  1.0
  C  C110  1  0.83544000  0.85008000  0.10866000  1.0
  C  C111  1  0.91161000  0.04623000  0.92262000  1.0
  C  C112  1  0.98784000  0.04331000  0.91471000  1.0
  C  C113  1  0.09189000  0.10502000  0.84646000  1.0
  C  C114  1  0.21382000  0.05279000  0.92158000  1.0
  C  C115  1  0.13981000  0.04785000  0.91697000  1.0
  C  C116  1  0.16410000  0.10881000  0.85030000  1.0
  C  C117  1  0.08797000  0.92246000  0.04615000  1.0
  C  C118  1  0.01175000  0.91458000  0.04321000  1.0
  C  C119  1  0.90766000  0.84624000  0.10484000  1.0
  C  C120  1  0.81216000  0.98696000  0.99150000  1.0
  C  C121  1  0.96201000  0.97955000  0.97999000  1.0
  C  C122  1  0.18741000  0.99141000  0.98694000  1.0
  C  C123  1  0.03755000  0.97994000  0.97956000  1.0
  C  C124  1  0.18410000  0.69783000  0.32376000  1.0
  C  C125  1  0.81567000  0.32377000  0.69789000  1.0
  C  C126  1  0.08365000  0.64737000  0.35378000  1.0
  C  C127  1  0.01132000  0.57764000  0.42924000  1.0
  C  C128  1  0.91613000  0.35379000  0.64751000  1.0
  C  C129  1  0.98851000  0.42925000  0.57777000  1.0
  C  C130  1  0.79007000  0.37398000  0.67633000  1.0
  C  C131  1  0.86173000  0.45001000  0.60703000  1.0
  C  C132  1  0.20974000  0.67636000  0.37397000  1.0
  C  C133  1  0.13813000  0.60706000  0.45001000  1.0
  C  C134  1  0.03792000  0.55579000  0.47839000  1.0
  C  C135  1  0.96195000  0.47838000  0.55581000  1.0
  C  C136  1  0.87425000  0.76760000  0.16405000  1.0
  C  C137  1  0.12530000  0.16425000  0.76783000  1.0
  N  N138  1  0.46383000  0.66340000  0.15013000  1.0
  N  N139  1  0.46966000  0.31034000  0.88917000  1.0
  N  N140  1  0.52958000  0.88888000  0.31053000  1.0
  N  N141  1  0.53577000  0.15018000  0.66339000  1.0
  N  N142  1  0.30854000  0.67148000  0.88561000  1.0
  N  N143  1  0.69571000  0.29795000  0.15424000  1.0
  N  N144  1  0.30396000  0.15432000  0.29780000  1.0
  N  N145  1  0.69108000  0.88580000  0.67137000  1.0
  N  N146  1  0.04894000  0.66250000  0.30433000  1.0
  N  N147  1  0.95082000  0.30439000  0.66277000  1.0
  O  O148  1  0.50670000  0.21163000  0.93991000  1.0
  O  O149  1  0.49293000  0.93990000  0.21166000  1.0
  O  O150  1  0.50325000  0.80053000  0.06199000  1.0
  O  O151  1  0.49639000  0.06210000  0.80053000  1.0
  O  O152  1  0.23553000  0.94309000  0.05879000  1.0
  O  O153  1  0.76593000  0.21028000  0.80233000  1.0
  O  O154  1  0.76405000  0.05878000  0.94318000  1.0
  O  O155  1  0.23369000  0.80226000  0.21037000  1.0
  O  O156  1  0.35506000  0.06140000  0.20938000  1.0
  O  O157  1  0.35443000  0.80267000  0.94113000  1.0
  O  O158  1  0.64522000  0.94111000  0.80271000  1.0
  O  O159  1  0.64457000  0.20933000  0.06146000  1.0
  O  O160  1  0.23401000  0.80260000  0.05916000  1.0
  O  O161  1  0.76568000  0.05913000  0.80262000  1.0
  O  O162  1  0.76587000  0.21084000  0.94264000  1.0
  O  O163  1  0.23372000  0.94254000  0.21093000  1.0
  O  O164  1  0.35542000  0.06152000  0.93907000  1.0
  O  O165  1  0.35257000  0.80118000  0.21179000  1.0
  O  O166  1  0.64416000  0.93902000  0.06155000  1.0
  O  O167  1  0.64714000  0.21184000  0.80124000  1.0
  O  O168  1  0.49457000  0.94197000  0.80133000  1.0
  O  O169  1  0.50736000  0.21229000  0.05882000  1.0
  O  O170  1  0.49223000  0.05881000  0.21231000  1.0
  O  O171  1  0.50495000  0.80129000  0.94192000  1.0
  O  O172  1  0.60555000  0.05604000  0.84680000  1.0
  O  O173  1  0.39409000  0.84680000  0.05606000  1.0
  O  O174  1  0.60421000  0.05487000  0.05702000  1.0
  O  O175  1  0.39535000  0.05698000  0.05491000  1.0
  O  O176  1  0.42217000  0.96514000  0.11868000  1.0
  O  O177  1  0.57744000  0.11866000  0.96514000  1.0
  O  O178  1  0.57670000  0.96462000  0.96591000  1.0
  O  O179  1  0.42294000  0.96591000  0.96464000  1.0
  O  O180  1  0.37509000  0.63590000  0.19766000  1.0
  O  O181  1  0.52540000  0.69718000  0.16764000  1.0
  O  O182  1  0.38082000  0.25062000  0.92793000  1.0
  O  O183  1  0.53311000  0.33730000  0.81103000  1.0
  O  O184  1  0.61841000  0.92740000  0.25090000  1.0
  O  O185  1  0.46588000  0.81078000  0.33758000  1.0
  O  O186  1  0.62451000  0.19771000  0.63590000  1.0
  O  O187  1  0.47421000  0.16770000  0.69719000  1.0
  O  O188  1  0.33206000  0.64190000  0.92137000  1.0
  O  O189  1  0.35809000  0.71012000  0.80814000  1.0
  O  O190  1  0.68066000  0.23511000  0.19419000  1.0
  O  O191  1  0.64089000  0.32281000  0.18045000  1.0
  O  O192  1  0.31904000  0.19417000  0.23490000  1.0
  O  O193  1  0.35873000  0.18064000  0.32272000  1.0
  O  O194  1  0.66753000  0.92163000  0.64191000  1.0
  O  O195  1  0.64149000  0.80832000  0.70999000  1.0
  O  O196  1  0.06355000  0.63628000  0.24275000  1.0
  O  O197  1  0.00361000  0.69628000  0.33137000  1.0
  O  O198  1  0.93640000  0.24287000  0.63647000  1.0
  O  O199  1  0.99598000  0.33144000  0.69669000  1.0
  O  O200  1  0.92449000  0.73104000  0.12558000  1.0
  O  O201  1  0.80555000  0.73370000  0.23931000  1.0
  O  O202  1  0.07527000  0.12573000  0.73112000  1.0
  O  O203  1  0.19381000  0.23960000  0.73408000  1.0
