# generated using pymatgen
data_CoPH4C5NO3
_symmetry_space_group_name_H-M   'P 1'
_cell_length_a   5.11375000
_cell_length_b   8.44413000
_cell_length_c   14.99810000
_cell_angle_alpha   90.00010000
_cell_angle_beta   90.00020000
_cell_angle_gamma   85.67820000
_symmetry_Int_Tables_number   1
_chemical_formula_structural   CoPH4C5NO3
_chemical_formula_sum   'Co4 P4 H16 C20 N4 O12'
_cell_volume   645.79397260
_cell_formula_units_Z   4
loop_
 _symmetry_equiv_pos_site_id
 _symmetry_equiv_pos_as_xyz
  1  'x, y, z'
loop_
 _atom_site_type_symbol
 _atom_site_label
 _atom_site_symmetry_multiplicity
 _atom_site_fract_x
 _atom_site_fract_y
 _atom_site_fract_z
 _atom_site_occupancy
  Co  Co0  1  0.21283000  0.51872000  0.29868000  1.0
  Co  Co1  1  0.28717000  0.98128000  0.79868000  1.0
  Co  Co2  1  0.78717000  0.48128000  0.70132000  1.0
  Co  Co3  1  0.71283000  0.01872000  0.20132000  1.0
  P  P4  1  0.26321000  0.80332000  0.16373000  1.0
  P  P5  1  0.23678000  0.69668000  0.66373000  1.0
  P  P6  1  0.73679000  0.19668000  0.83627000  1.0
  P  P7  1  0.76321000  0.30332000  0.33627000  1.0
  H  H8  1  0.13989000  0.93712000  0.98499000  1.0
  H  H9  1  0.36011000  0.56288000  0.48499000  1.0
  H  H10  1  0.86012000  0.06288000  0.01501000  1.0
  H  H11  1  0.63989000  0.43712000  0.51501000  1.0
  H  H12  1  0.73355000  0.60996000  0.10108000  1.0
  H  H13  1  0.76644000  0.89004000  0.60108000  1.0
  H  H14  1  0.26645000  0.39004000  0.89892000  1.0
  H  H15  1  0.23355000  0.10996000  0.39892000  1.0
  H  H16  1  0.93499000  0.58326000  0.94713000  1.0
  H  H17  1  0.56501000  0.91673000  0.44714000  1.0
  H  H18  1  0.06501000  0.41673000  0.05286000  1.0
  H  H19  1  0.43499000  0.08327000  0.55287000  1.0
  H  H20  1  0.73873000  0.74400000  0.82332000  1.0
  H  H21  1  0.76127000  0.75601000  0.32332000  1.0
  H  H22  1  0.26127000  0.25600000  0.17668000  1.0
  H  H23  1  0.23873000  0.24400000  0.67668000  1.0
  C  C24  1  0.31476000  0.85650000  0.98041000  1.0
  C  C25  1  0.18524000  0.64350000  0.48041000  1.0
  C  C26  1  0.68524000  0.14350000  0.01959000  1.0
  C  C27  1  0.81476000  0.35650000  0.51959000  1.0
  C  C28  1  0.41570000  0.77467000  0.05493000  1.0
  C  C29  1  0.08430000  0.72533000  0.55493000  1.0
  C  C30  1  0.58430000  0.22533000  0.94507000  1.0
  C  C31  1  0.91570000  0.27467000  0.44507000  1.0
  C  C32  1  0.64489000  0.67391000  0.04405000  1.0
  C  C33  1  0.85511000  0.82608000  0.54405000  1.0
  C  C34  1  0.35512000  0.32609000  0.95595000  1.0
  C  C35  1  0.14489000  0.17391000  0.45595000  1.0
  C  C36  1  0.75930000  0.66054000  0.95983000  1.0
  C  C37  1  0.74069000  0.83946000  0.45983000  1.0
  C  C38  1  0.24070000  0.33946000  0.04017000  1.0
  C  C39  1  0.25930000  0.16055000  0.54017000  1.0
  C  C40  1  0.64814000  0.74842000  0.88912000  1.0
  C  C41  1  0.85186000  0.75158000  0.38912000  1.0
  C  C42  1  0.35187000  0.25158000  0.11088000  1.0
  C  C43  1  0.14813000  0.24842000  0.61088000  1.0
  N  N44  1  0.42803000  0.84536000  0.89915000  1.0
  N  N45  1  0.07197000  0.65464000  0.39915000  1.0
  N  N46  1  0.57197000  0.15464000  0.10085000  1.0
  N  N47  1  0.92803000  0.34536000  0.60085000  1.0
  O  O48  1  0.17010000  0.64121000  0.19082000  1.0
  O  O49  1  0.32990000  0.85879000  0.69082000  1.0
  O  O50  1  0.82990000  0.35880000  0.80918000  1.0
  O  O51  1  0.67011000  0.14120000  0.30918000  1.0
  O  O52  1  0.47775000  0.85391000  0.22764000  1.0
  O  O53  1  0.02225000  0.64609000  0.72764000  1.0
  O  O54  1  0.52225000  0.14609000  0.77236000  1.0
  O  O55  1  0.97775000  0.35391000  0.27236000  1.0
  O  O56  1  0.03874000  0.93257000  0.15006000  1.0
  O  O57  1  0.46125000  0.56743000  0.65006000  1.0
  O  O58  1  0.96126000  0.06743000  0.84994000  1.0
  O  O59  1  0.53874000  0.43257000  0.34994000  1.0
