# generated using pymatgen
data_Ag2H11PbC19N7
_symmetry_space_group_name_H-M   'P 1'
_cell_length_a   9.92299000
_cell_length_b   9.92289000
_cell_length_c   11.52680000
_cell_angle_alpha   98.52670000
_cell_angle_beta   98.52730000
_cell_angle_gamma   109.72200000
_symmetry_Int_Tables_number   1
_chemical_formula_structural   Ag2H11PbC19N7
_chemical_formula_sum   'Ag4 H22 Pb2 C38 N14'
_cell_volume   1032.34415628
_cell_formula_units_Z   2
loop_
 _symmetry_equiv_pos_site_id
 _symmetry_equiv_pos_as_xyz
  1  'x, y, z'
loop_
 _atom_site_type_symbol
 _atom_site_label
 _atom_site_symmetry_multiplicity
 _atom_site_fract_x
 _atom_site_fract_y
 _atom_site_fract_z
 _atom_site_occupancy
  Ag  Ag0  1  0.36475000  0.63525000  0.25000000  1.0
  Ag  Ag1  1  0.63525000  0.36475000  0.75000000  1.0
  Ag  Ag2  1  0.50000000  0.50000000  0.50000000  1.0
  Ag  Ag3  1  0.50000000  0.50000000  0.00000000  1.0
  H  H4  1  0.62730000  0.11129000  0.96168000  1.0
  H  H5  1  0.88871000  0.37270000  0.53832000  1.0
  H  H6  1  0.37271000  0.88872000  0.03832000  1.0
  H  H7  1  0.11129000  0.62730000  0.46168000  1.0
  H  H8  1  0.53815000  0.90858000  0.77668000  1.0
  H  H9  1  0.09141000  0.46184000  0.72332000  1.0
  H  H10  1  0.46185000  0.09142000  0.22332000  1.0
  H  H11  1  0.90859000  0.53816000  0.27668000  1.0
  H  H12  1  0.63685000  0.70664000  0.77235000  1.0
  H  H13  1  0.29336000  0.36315000  0.72766000  1.0
  H  H14  1  0.36316000  0.29336000  0.22765000  1.0
  H  H15  1  0.70664000  0.63685000  0.27234000  1.0
  H  H16  1  0.82241000  0.71672000  0.94601000  1.0
  H  H17  1  0.28328000  0.17758000  0.55399000  1.0
  H  H18  1  0.17759000  0.28328000  0.05399000  1.0
  H  H19  1  0.71672000  0.82241000  0.44601000  1.0
  H  H20  1  0.00633000  0.76411000  0.07052000  1.0
  H  H21  1  0.23589000  0.99367000  0.42948000  1.0
  H  H22  1  0.99367000  0.23589000  0.92948000  1.0
  H  H23  1  0.76411000  0.00633000  0.57052000  1.0
  H  H24  1  0.19771000  0.80229000  0.25000000  1.0
  H  H25  1  0.80229000  0.19771000  0.75000000  1.0
  Pb  Pb26  1  0.80220000  0.19780000  0.24999000  1.0
  Pb  Pb27  1  0.19781000  0.80221000  0.75000000  1.0
  C  C28  1  0.53513000  0.82220000  0.25625000  1.0
  C  C29  1  0.17780000  0.46487000  0.24376000  1.0
  C  C30  1  0.46487000  0.17779000  0.74375000  1.0
  C  C31  1  0.82220000  0.53513000  0.75624000  1.0
  C  C32  1  0.57666000  0.34173000  0.44440000  1.0
  C  C33  1  0.65829000  0.42332000  0.05559000  1.0
  C  C34  1  0.42333000  0.65828000  0.55559000  1.0
  C  C35  1  0.34171000  0.57667000  0.94441000  1.0
  C  C36  1  0.66666667  0.02069000  0.95493000  1.0
  C  C37  1  0.97930000  0.33333333  0.54507000  1.0
  C  C38  1  0.33333333  0.97931000  0.04507000  1.0
  C  C39  1  0.02069000  0.66666667  0.45494000  1.0
  C  C40  1  0.61672000  0.90783000  0.85307000  1.0
  C  C41  1  0.09217000  0.38328000  0.64694000  1.0
  C  C42  1  0.38328000  0.09218000  0.14694000  1.0
  C  C43  1  0.90783000  0.61672000  0.35306000  1.0
  C  C44  1  0.67317000  0.79693000  0.85035000  1.0
  C  C45  1  0.20306000  0.32683000  0.64965000  1.0
  C  C46  1  0.32683000  0.20307000  0.14965000  1.0
  C  C47  1  0.79694000  0.67317000  0.35035000  1.0
  C  C48  1  0.77782000  0.80292000  0.94793000  1.0
  C  C49  1  0.19707000  0.22218000  0.55207000  1.0
  C  C50  1  0.22218000  0.19708000  0.05207000  1.0
  C  C51  1  0.80292000  0.77782000  0.44793000  1.0
  C  C52  1  0.82442000  0.92093000  0.04668000  1.0
  C  C53  1  0.07907000  0.17558000  0.45332000  1.0
  C  C54  1  0.17558000  0.07907000  0.95333000  1.0
  C  C55  1  0.92093000  0.82442000  0.54667000  1.0
  C  C56  1  0.93852000  0.93611000  0.15215000  1.0
  C  C57  1  0.06389000  0.06148000  0.34785000  1.0
  C  C58  1  0.06148000  0.06389000  0.84785000  1.0
  C  C59  1  0.93611000  0.93852000  0.65215000  1.0
  C  C60  1  0.02265000  0.84748000  0.14960000  1.0
  C  C61  1  0.15252000  0.97735000  0.35040000  1.0
  C  C62  1  0.97735000  0.15252000  0.85040000  1.0
  C  C63  1  0.84748000  0.02264000  0.64960000  1.0
  C  C64  1  0.13047000  0.86953000  0.25000000  1.0
  C  C65  1  0.86953000  0.13047000  0.75000000  1.0
  N  N66  1  0.62861000  0.93466000  0.26194000  1.0
  N  N67  1  0.06533000  0.37139000  0.23806000  1.0
  N  N68  1  0.37139000  0.06534000  0.73806000  1.0
  N  N69  1  0.93466000  0.62861000  0.76194000  1.0
  N  N70  1  0.62531000  0.25307000  0.41349000  1.0
  N  N71  1  0.74693000  0.37469000  0.08651000  1.0
  N  N72  1  0.37469000  0.74694000  0.58651000  1.0
  N  N73  1  0.25306000  0.62530000  0.91349000  1.0
  N  N74  1  0.76773000  0.02690000  0.04869000  1.0
  N  N75  1  0.97310000  0.23227000  0.45131000  1.0
  N  N76  1  0.23226000  0.97310000  0.95131000  1.0
  N  N77  1  0.02690000  0.76773000  0.54869000  1.0
  N  N78  1  0.95998000  0.04001000  0.25000000  1.0
  N  N79  1  0.04001000  0.95999000  0.75000000  1.0
