# generated using pymatgen
data_Cu2H26C51(O2F3)6
_symmetry_space_group_name_H-M   'P 1'
_cell_length_a   7.24831000
_cell_length_b   18.87000000
_cell_length_c   20.61650000
_cell_angle_alpha   107.23500000
_cell_angle_beta   90.00000000
_cell_angle_gamma   90.00000000
_symmetry_Int_Tables_number   1
_chemical_formula_structural   Cu2H26C51(O2F3)6
_chemical_formula_sum   'Cu4 H52 C102 O24 F36'
_cell_volume   2693.21687523
_cell_formula_units_Z   2
loop_
 _symmetry_equiv_pos_site_id
 _symmetry_equiv_pos_as_xyz
  1  'x, y, z'
loop_
 _atom_site_type_symbol
 _atom_site_label
 _atom_site_symmetry_multiplicity
 _atom_site_fract_x
 _atom_site_fract_y
 _atom_site_fract_z
 _atom_site_occupancy
  Cu  Cu0  1  0.85528000  0.47311000  0.52119000  1.0
  Cu  Cu1  1  0.14472000  0.97312000  0.02119000  1.0
  Cu  Cu2  1  0.14472000  0.52689000  0.47881000  1.0
  Cu  Cu3  1  0.85528000  0.02689000  0.97881000  1.0
  H  H4  1  0.89461000  0.33432000  0.53342000  1.0
  H  H5  1  0.10539000  0.83432000  0.03342000  1.0
  H  H6  1  0.10538000  0.66568000  0.46658000  1.0
  H  H7  1  0.89462000  0.16568000  0.96658000  1.0
  H  H8  1  0.48059000  0.65924000  0.58181000  1.0
  H  H9  1  0.51941000  0.15924000  0.08181000  1.0
  H  H10  1  0.51941000  0.34076000  0.41819000  1.0
  H  H11  1  0.48060000  0.84076000  0.91819000  1.0
  H  H12  1  0.33873000  0.78414000  0.62135000  1.0
  H  H13  1  0.66126000  0.28414000  0.12135000  1.0
  H  H14  1  0.66127000  0.21586000  0.37865000  1.0
  H  H15  1  0.33874000  0.71586000  0.87865000  1.0
  H  H16  1  0.82192000  0.87730000  0.55483000  1.0
  H  H17  1  0.17808000  0.37730000  0.05483000  1.0
  H  H18  1  0.17808000  0.12270000  0.44517000  1.0
  H  H19  1  0.82192000  0.62270000  0.94517000  1.0
  H  H20  1  0.96543000  0.75576000  0.52079000  1.0
  H  H21  1  0.03458000  0.25576000  0.02079000  1.0
  H  H22  1  0.03458000  0.24424000  0.47921000  1.0
  H  H23  1  0.96543000  0.74424000  0.97921000  1.0
  H  H24  1  0.61608000  0.88815000  0.72624000  1.0
  H  H25  1  0.38392000  0.38815000  0.22624000  1.0
  H  H26  1  0.38392000  0.11185000  0.27376000  1.0
  H  H27  1  0.61608000  0.61185000  0.77375000  1.0
  H  H28  1  0.48058000  0.91076000  0.84078000  1.0
  H  H29  1  0.51942000  0.41076000  0.34079000  1.0
  H  H30  1  0.51942000  0.08924000  0.15922000  1.0
  H  H31  1  0.48058000  0.58924000  0.65921000  1.0
  H  H32  1  0.97397000  0.98062000  0.77012000  1.0
  H  H33  1  0.02603000  0.48062000  0.27012000  1.0
  H  H34  1  0.02603000  0.01938000  0.22988000  1.0
  H  H35  1  0.97397000  0.51939000  0.72988000  1.0
  H  H36  1  0.11059000  0.96373000  0.65732000  1.0
  H  H37  1  0.88940000  0.46373000  0.15732000  1.0
  H  H38  1  0.88941000  0.03627000  0.34268000  1.0
  H  H39  1  0.11060000  0.53627000  0.84268000  1.0
  H  H40  1  0.66794000  0.22226000  0.60719000  1.0
  H  H41  1  0.33206000  0.72225000  0.10719000  1.0
  H  H42  1  0.33206000  0.77774000  0.39281000  1.0
  H  H43  1  0.66793000  0.27775000  0.89281000  1.0
  H  H44  1  0.45799000  0.18225000  0.68346000  1.0
  H  H45  1  0.54201000  0.68225000  0.18346000  1.0
  H  H46  1  0.54201000  0.81775000  0.31655000  1.0
  H  H47  1  0.45798000  0.31775000  0.81654000  1.0
  H  H48  1  0.12389000  0.37747000  0.70397000  1.0
  H  H49  1  0.87611000  0.87747000  0.20397000  1.0
  H  H50  1  0.87611000  0.62253000  0.29603000  1.0
  H  H51  1  0.12389000  0.12253000  0.79603000  1.0
  H  H52  1  0.34260000  0.41832000  0.63077000  1.0
  H  H53  1  0.65740000  0.91832000  0.13077000  1.0
  H  H54  1  0.65740000  0.58168000  0.36922000  1.0
  H  H55  1  0.34260000  0.08168000  0.86923000  1.0
  C  C56  1  0.82294000  0.62459000  0.53024000  1.0
  C  C57  1  0.17707000  0.12459000  0.03024000  1.0
  C  C58  1  0.17706000  0.37541000  0.46976000  1.0
  C  C59  1  0.82294000  0.87541000  0.96976000  1.0
  C  C60  1  0.73377000  0.69905000  0.54978000  1.0
  C  C61  1  0.26623000  0.19905000  0.04978000  1.0
  C  C62  1  0.26623000  0.30095000  0.45022000  1.0
  C  C63  1  0.73378000  0.80095000  0.95022000  1.0
  C  C64  1  0.55557000  0.70769000  0.57746000  1.0
  C  C65  1  0.44443000  0.20769000  0.07746000  1.0
  C  C66  1  0.44444000  0.29231000  0.42254000  1.0
  C  C67  1  0.55557000  0.79231000  0.92254000  1.0
  C  C68  1  0.47586000  0.77777000  0.59875000  1.0
  C  C69  1  0.52414000  0.27777000  0.09875000  1.0
  C  C70  1  0.52415000  0.22223000  0.40125000  1.0
  C  C71  1  0.47586000  0.72223000  0.90125000  1.0
  C  C72  1  0.57047000  0.84016000  0.59195000  1.0
  C  C73  1  0.42953000  0.34016000  0.09195000  1.0
  C  C74  1  0.42953000  0.15984000  0.40805000  1.0
  C  C75  1  0.57048000  0.65984000  0.90804000  1.0
  C  C76  1  0.74580000  0.83077000  0.56240000  1.0
  C  C77  1  0.25419000  0.33078000  0.06240000  1.0
  C  C78  1  0.25420000  0.16922000  0.43760000  1.0
  C  C79  1  0.74581000  0.66922000  0.93760000  1.0
  C  C80  1  0.82739000  0.76095000  0.54221000  1.0
  C  C81  1  0.17261000  0.26095000  0.04221000  1.0
  C  C82  1  0.17261000  0.23905000  0.45779000  1.0
  C  C83  1  0.82739000  0.73905000  0.95779000  1.0
  C  C84  1  0.47304000  0.91578000  0.61549000  1.0
  C  C85  1  0.52695000  0.41579000  0.11549000  1.0
  C  C86  1  0.52696000  0.08422000  0.38451000  1.0
  C  C87  1  0.47305000  0.58421000  0.88451000  1.0
  C  C88  1  0.37419000  0.92473000  0.68340000  1.0
  C  C89  1  0.62580000  0.42473000  0.18340000  1.0
  C  C90  1  0.62580000  0.07527000  0.31660000  1.0
  C  C91  1  0.37420000  0.57527000  0.81660000  1.0
  C  C92  1  0.47537000  0.90888000  0.73559000  1.0
  C  C93  1  0.52463000  0.40888000  0.23559000  1.0
  C  C94  1  0.52463000  0.09112000  0.26441000  1.0
  C  C95  1  0.47537000  0.59112000  0.76441000  1.0
  C  C96  1  0.39913000  0.92017000  0.79968000  1.0
  C  C97  1  0.60087000  0.42016000  0.29968000  1.0
  C  C98  1  0.60088000  0.07984000  0.20032000  1.0
  C  C99  1  0.39912000  0.57984000  0.70032000  1.0
  C  C100  1  0.21760000  0.94610000  0.81212000  1.0
  C  C101  1  0.78240000  0.44610000  0.31212000  1.0
  C  C102  1  0.78240000  0.05390000  0.18788000  1.0
  C  C103  1  0.21760000  0.55390000  0.68788000  1.0
  C  C104  1  0.11476000  0.96029000  0.75992000  1.0
  C  C105  1  0.88524000  0.46029000  0.25992000  1.0
  C  C106  1  0.88524000  0.03971000  0.24008000  1.0
  C  C107  1  0.11476000  0.53972000  0.74009000  1.0
  C  C108  1  0.19277000  0.95034000  0.69615000  1.0
  C  C109  1  0.80723000  0.45034000  0.19615000  1.0
  C  C110  1  0.80723000  0.04966000  0.30385000  1.0
  C  C111  1  0.19277000  0.54966000  0.80385000  1.0
  C  C112  1  0.13656000  0.96278000  0.88160000  1.0
  C  C113  1  0.86344000  0.46278000  0.38160000  1.0
  C  C114  1  0.86344000  0.03722000  0.11840000  1.0
  C  C115  1  0.13656000  0.53722000  0.61840000  1.0
  C  C116  1  0.60949000  0.98281000  0.62822000  1.0
  C  C117  1  0.39050000  0.48281000  0.12822000  1.0
  C  C118  1  0.39051000  0.01719000  0.37179000  1.0
  C  C119  1  0.60950000  0.51719000  0.87178000  1.0
  C  C120  1  0.33970000  0.91834000  0.55672000  1.0
  C  C121  1  0.66029000  0.41835000  0.05673000  1.0
  C  C122  1  0.66030000  0.08166000  0.44328000  1.0
  C  C123  1  0.33971000  0.58165000  0.94328000  1.0
  C  C124  1  0.65712000  0.35308000  0.57629000  1.0
  C  C125  1  0.34288000  0.85308000  0.07629000  1.0
  C  C126  1  0.34288000  0.64692000  0.42372000  1.0
  C  C127  1  0.65712000  0.14692000  0.92371000  1.0
  C  C128  1  0.52080000  0.32393000  0.61552000  1.0
  C  C129  1  0.47920000  0.82393000  0.11553000  1.0
  C  C130  1  0.47920000  0.67607000  0.38447000  1.0
  C  C131  1  0.52079000  0.17607000  0.88447000  1.0
  C  C132  1  0.54968000  0.25627000  0.62897000  1.0
  C  C133  1  0.45032000  0.75627000  0.12898000  1.0
  C  C134  1  0.45032000  0.74373000  0.37103000  1.0
  C  C135  1  0.54968000  0.24373000  0.87102000  1.0
  C  C136  1  0.43022000  0.23377000  0.67170000  1.0
  C  C137  1  0.56977000  0.73376000  0.17171000  1.0
  C  C138  1  0.56978000  0.76623000  0.32830000  1.0
  C  C139  1  0.43022000  0.26623000  0.82829000  1.0
  C  C140  1  0.27811000  0.27760000  0.70102000  1.0
  C  C141  1  0.72188000  0.77760000  0.20102000  1.0
  C  C142  1  0.72188000  0.72240000  0.29898000  1.0
  C  C143  1  0.27811000  0.22240000  0.79898000  1.0
  C  C144  1  0.24327000  0.34303000  0.68404000  1.0
  C  C145  1  0.75673000  0.84303000  0.18405000  1.0
  C  C146  1  0.75673000  0.65697000  0.31595000  1.0
  C  C147  1  0.24327000  0.15697000  0.81595000  1.0
  C  C148  1  0.36497000  0.36623000  0.64219000  1.0
  C  C149  1  0.63502000  0.86623000  0.14219000  1.0
  C  C150  1  0.63502000  0.63377000  0.35781000  1.0
  C  C151  1  0.36498000  0.13377000  0.85781000  1.0
  C  C152  1  0.15666000  0.25000000  0.75000000  1.0
  C  C153  1  0.84334000  0.75000000  0.25000000  1.0
  C  C154  1  0.03158000  0.31254000  0.79542000  1.0
  C  C155  1  0.96842000  0.81254000  0.29542000  1.0
  C  C156  1  0.96842000  0.68746000  0.20458000  1.0
  C  C157  1  0.03158000  0.18746000  0.70458000  1.0
  O  O158  1  0.73601000  0.57154000  0.54211000  1.0
  O  O159  1  0.26399000  0.07154000  0.04211000  1.0
  O  O160  1  0.26399000  0.42846000  0.45789000  1.0
  O  O161  1  0.73601000  0.92846000  0.95789000  1.0
  O  O162  1  0.98513000  0.61920000  0.50361000  1.0
  O  O163  1  0.01487000  0.11920000  0.00361000  1.0
  O  O164  1  0.01487000  0.38081000  0.49639000  1.0
  O  O165  1  0.98513000  0.88081000  0.99639000  1.0
  O  O166  1  0.23218000  0.94530000  0.92655000  1.0
  O  O167  1  0.76783000  0.44530000  0.42654000  1.0
  O  O168  1  0.76782000  0.05471000  0.07346000  1.0
  O  O169  1  0.23217000  0.55470000  0.57346000  1.0
  O  O170  1  0.97943000  0.99488000  0.89000000  1.0
  O  O171  1  0.02058000  0.49488000  0.38999000  1.0
  O  O172  1  0.02057000  0.00512000  0.11000000  1.0
  O  O173  1  0.97942000  0.50512000  0.61000000  1.0
  O  O174  1  0.63611000  0.41258000  0.56307000  1.0
  O  O175  1  0.36389000  0.91257000  0.06307000  1.0
  O  O176  1  0.36389000  0.58742000  0.43694000  1.0
  O  O177  1  0.63611000  0.08743000  0.93693000  1.0
  O  O178  1  0.80570000  0.30999000  0.55813000  1.0
  O  O179  1  0.19429000  0.80999000  0.05813000  1.0
  O  O180  1  0.19429000  0.69001000  0.44187000  1.0
  O  O181  1  0.80571000  0.19001000  0.94187000  1.0
  F  F182  1  0.75216000  0.97566000  0.66913000  1.0
  F  F183  1  0.24783000  0.47566000  0.16914000  1.0
  F  F184  1  0.24784000  0.02434000  0.33087000  1.0
  F  F185  1  0.75217000  0.52434000  0.83086000  1.0
  F  F186  1  0.52395000  0.04792000  0.66008000  1.0
  F  F187  1  0.47605000  0.54793000  0.16009000  1.0
  F  F188  1  0.47605000  0.95208000  0.33992000  1.0
  F  F189  1  0.52395000  0.45207000  0.83991000  1.0
  F  F190  1  0.68589000  0.99059000  0.57046000  1.0
  F  F191  1  0.31409000  0.49059000  0.07047000  1.0
  F  F192  1  0.31411000  0.00941000  0.42954000  1.0
  F  F193  1  0.68590000  0.50941000  0.92953000  1.0
  F  F194  1  0.19836000  0.86893000  0.55087000  1.0
  F  F195  1  0.80164000  0.36894000  0.05088000  1.0
  F  F196  1  0.80164000  0.13107000  0.44912000  1.0
  F  F197  1  0.19836000  0.63106000  0.94912000  1.0
  F  F198  1  0.26226000  0.98625000  0.56540000  1.0
  F  F199  1  0.73773000  0.48626000  0.06540000  1.0
  F  F200  1  0.73775000  0.01375000  0.43460000  1.0
  F  F201  1  0.26227000  0.51374000  0.93460000  1.0
  F  F202  1  0.42829000  0.89947000  0.49599000  1.0
  F  F203  1  0.57169000  0.39948000  0.99599000  1.0
  F  F204  1  0.57171000  0.10053000  0.50401000  1.0
  F  F205  1  0.42830000  0.60052000  0.00401000  1.0
  F  F206  1  0.95581000  0.29168000  0.84721000  1.0
  F  F207  1  0.04419000  0.79168000  0.34721000  1.0
  F  F208  1  0.04419000  0.70832000  0.15279000  1.0
  F  F209  1  0.95581000  0.20831000  0.65279000  1.0
  F  F210  1  0.88928000  0.33198000  0.76071000  1.0
  F  F211  1  0.11072000  0.83198000  0.26072000  1.0
  F  F212  1  0.11072000  0.66802000  0.23929000  1.0
  F  F213  1  0.88928000  0.16802000  0.73928000  1.0
  F  F214  1  0.13076000  0.37528000  0.82439000  1.0
  F  F215  1  0.86924000  0.87528000  0.32439000  1.0
  F  F216  1  0.86924000  0.62472000  0.17561000  1.0
  F  F217  1  0.13076000  0.12472000  0.67561000  1.0
