# generated using pymatgen
data_CuH8C7IN2O
_symmetry_space_group_name_H-M   'P 1'
_cell_length_a   7.34422000
_cell_length_b   7.97820000
_cell_length_c   8.83161000
_cell_angle_alpha   111.44600000
_cell_angle_beta   100.40500000
_cell_angle_gamma   107.85500000
_symmetry_Int_Tables_number   1
_chemical_formula_structural   CuH8C7IN2O
_chemical_formula_sum   'Cu2 H16 C14 I2 N4 O2'
_cell_volume   432.70386637
_cell_formula_units_Z   2
loop_
 _symmetry_equiv_pos_site_id
 _symmetry_equiv_pos_as_xyz
  1  'x, y, z'
loop_
 _atom_site_type_symbol
 _atom_site_label
 _atom_site_symmetry_multiplicity
 _atom_site_fract_x
 _atom_site_fract_y
 _atom_site_fract_z
 _atom_site_occupancy
  Cu  Cu0  1  0.68813000  0.57192000  0.47252000  1.0
  Cu  Cu1  1  0.31187000  0.42808000  0.52748000  1.0
  H  H2  1  0.39999000  0.13585000  0.53704000  1.0
  H  H3  1  0.60001000  0.86415000  0.46296000  1.0
  H  H4  1  0.88752000  0.30542000  0.47850000  1.0
  H  H5  1  0.11248000  0.69459000  0.52150000  1.0
  H  H6  1  0.59909000  0.40414000  0.09072000  1.0
  H  H7  1  0.40090000  0.59586000  0.90927000  1.0
  H  H8  1  0.64124000  0.13451000  0.86400000  1.0
  H  H9  1  0.35875000  0.86548000  0.13599000  1.0
  H  H10  1  0.81023000  0.93901000  0.95099000  1.0
  H  H11  1  0.18978000  0.06099000  0.04901000  1.0
  H  H12  1  0.02396000  0.74433000  0.22617000  1.0
  H  H13  1  0.97604000  0.25568000  0.77383000  1.0
  H  H14  1  0.82979000  0.73574000  0.06480000  1.0
  H  H15  1  0.17021000  0.26427000  0.93520000  1.0
  H  H16  1  0.79284000  0.74719000  0.25985000  1.0
  H  H17  1  0.20717000  0.25281000  0.74014000  1.0
  C  C18  1  0.87477000  0.11666000  0.22395000  1.0
  C  C19  1  0.12524000  0.88334000  0.77606000  1.0
  C  C20  1  0.84062000  0.26760000  0.34176000  1.0
  C  C21  1  0.15937000  0.73239000  0.65823000  1.0
  C  C22  1  0.67660000  0.31978000  0.12477000  1.0
  C  C23  1  0.32339000  0.68021000  0.87522000  1.0
  C  C24  1  0.69958000  0.16855000  0.99904000  1.0
  C  C25  1  0.30042000  0.83145000  0.00096000  1.0
  C  C26  1  0.79548000  0.06177000  0.04796000  1.0
  C  C27  1  0.20451000  0.93823000  0.95203000  1.0
  C  C28  1  0.99167000  0.01892000  0.28409000  1.0
  C  C29  1  0.00833000  0.98108000  0.71592000  1.0
  C  C30  1  0.90769000  0.79976000  0.20387000  1.0
  C  C31  1  0.09231000  0.20024000  0.79613000  1.0
  I  I32  1  0.66729000  0.45165000  0.71528000  1.0
  I  I33  1  0.33271000  0.54836000  0.28473000  1.0
  N  N34  1  0.74129000  0.36662000  0.29427000  1.0
  N  N35  1  0.25870000  0.63338000  0.70573000  1.0
  N  N36  1  0.16551000  0.13394000  0.40589000  1.0
  N  N37  1  0.83449000  0.86606000  0.59411000  1.0
  O  O38  1  0.26513000  0.02877000  0.45598000  1.0
  O  O39  1  0.73487000  0.97123000  0.54402000  1.0
