# generated using pymatgen
data_TbH14C18NO8F
_symmetry_space_group_name_H-M   'P 1'
_cell_length_a   11.83720000
_cell_length_b   13.51690000
_cell_length_c   15.34550000
_cell_angle_alpha   81.71000000
_cell_angle_beta   89.98680000
_cell_angle_gamma   64.05200000
_symmetry_Int_Tables_number   1
_chemical_formula_structural   TbH14C18NO8F
_chemical_formula_sum   'Tb4 H56 C72 N4 O32 F4'
_cell_volume   2179.27046422
_cell_formula_units_Z   4
loop_
 _symmetry_equiv_pos_site_id
 _symmetry_equiv_pos_as_xyz
  1  'x, y, z'
loop_
 _atom_site_type_symbol
 _atom_site_label
 _atom_site_symmetry_multiplicity
 _atom_site_fract_x
 _atom_site_fract_y
 _atom_site_fract_z
 _atom_site_occupancy
  Tb  Tb0  1  0.53595000  0.34370000  0.54055000  1.0
  Tb  Tb1  1  0.87974000  0.65623000  0.95953000  1.0
  Tb  Tb2  1  0.46404000  0.65630000  0.45945000  1.0
  Tb  Tb3  1  0.12027000  0.34376000  0.04046000  1.0
  H  H4  1  0.65293000  0.25267000  0.28956000  1.0
  H  H5  1  0.66054000  0.56692000  0.20715000  1.0
  H  H6  1  0.83996000  0.29982000  0.05693000  1.0
  H  H7  1  0.60240000  0.00825000  0.10719000  1.0
  H  H8  1  0.96035000  0.10791000  0.11366000  1.0
  H  H9  1  0.98574000  0.93669000  0.05509000  1.0
  H  H10  1  0.87199000  0.07107000  0.81995000  1.0
  H  H11  1  0.75522000  0.08267000  0.89690000  1.0
  H  H12  1  0.71794000  0.09650000  0.78101000  1.0
  H  H13  1  0.70770000  0.37128000  0.87895000  1.0
  H  H14  1  0.70455000  0.25781000  0.95337000  1.0
  H  H15  1  0.85031000  0.24823000  0.91292000  1.0
  H  H16  1  0.64234000  0.38848000  0.74461000  1.0
  H  H17  1  0.41220000  0.20507000  0.57174000  1.0
  H  H18  1  0.90682000  0.74697000  0.21042000  1.0
  H  H19  1  0.22843000  0.43283000  0.29299000  1.0
  H  H20  1  0.14040000  0.69986000  0.44326000  1.0
  H  H21  1  0.61151000  0.99184000  0.39239000  1.0
  H  H22  1  0.06905000  0.89207000  0.38595000  1.0
  H  H23  1  0.92340000  0.06335000  0.44446000  1.0
  H  H24  1  0.94189000  0.92906000  0.67985000  1.0
  H  H25  1  0.83712000  0.91724000  0.60275000  1.0
  H  H26  1  0.81344000  0.90326000  0.71861000  1.0
  H  H27  1  0.07831000  0.62878000  0.62070000  1.0
  H  H28  1  0.96148000  0.74199000  0.54632000  1.0
  H  H29  1  0.09750000  0.75199000  0.58647000  1.0
  H  H30  1  0.03095000  0.61153000  0.75515000  1.0
  H  H31  1  0.61727000  0.79453000  0.92748000  1.0
  H  H32  1  0.34710000  0.74734000  0.71046000  1.0
  H  H33  1  0.33947000  0.43308000  0.79283000  1.0
  H  H34  1  0.16007000  0.70015000  0.94308000  1.0
  H  H35  1  0.39756000  0.99178000  0.89280000  1.0
  H  H36  1  0.03961000  0.89210000  0.88634000  1.0
  H  H37  1  0.01423000  0.06331000  0.94492000  1.0
  H  H38  1  0.12801000  0.92898000  0.18002000  1.0
  H  H39  1  0.24482000  0.91734000  0.10309000  1.0
  H  H40  1  0.28207000  0.90351000  0.21899000  1.0
  H  H41  1  0.29223000  0.62875000  0.12106000  1.0
  H  H42  1  0.29541000  0.74220000  0.04663000  1.0
  H  H43  1  0.14963000  0.75182000  0.08709000  1.0
  H  H44  1  0.35762000  0.61155000  0.25540000  1.0
  H  H45  1  0.58780000  0.79492000  0.42828000  1.0
  H  H46  1  0.09320000  0.25301000  0.78956000  1.0
  H  H47  1  0.77158000  0.56716000  0.70702000  1.0
  H  H48  1  0.85963000  0.30014000  0.55672000  1.0
  H  H49  1  0.38850000  0.00813000  0.60761000  1.0
  H  H50  1  0.93096000  0.10794000  0.61406000  1.0
  H  H51  1  0.07658000  0.93666000  0.55555000  1.0
  H  H52  1  0.05810000  0.07093000  0.32015000  1.0
  H  H53  1  0.16287000  0.08274000  0.39726000  1.0
  H  H54  1  0.18656000  0.09672000  0.28140000  1.0
  H  H55  1  0.92168000  0.37121000  0.37930000  1.0
  H  H56  1  0.03851000  0.25801000  0.45369000  1.0
  H  H57  1  0.90248000  0.24801000  0.41353000  1.0
  H  H58  1  0.96906000  0.38846000  0.24488000  1.0
  H  H59  1  0.38275000  0.20545000  0.07253000  1.0
  C  C60  1  0.74562000  0.26309000  0.16888000  1.0
  C  C61  1  0.68201000  0.30387000  0.24251000  1.0
  C  C62  1  0.65524000  0.41137000  0.25773000  1.0
  C  C63  1  0.68555000  0.48194000  0.19669000  1.0
  C  C64  1  0.75214000  0.44055000  0.12454000  1.0
  C  C65  1  0.78506000  0.33114000  0.11229000  1.0
  C  C66  1  0.76819000  0.15388000  0.14585000  1.0
  C  C67  1  0.67150000  0.12036000  0.14486000  1.0
  C  C68  1  0.68231000  0.02768000  0.11029000  1.0
  C  C69  1  0.88309000  0.08427000  0.11415000  1.0
  C  C70  1  0.59513000  0.44893000  0.34075000  1.0
  C  C71  1  0.80747000  0.86837000  0.03029000  1.0
  C  C72  1  0.79640000  0.96220000  0.07643000  1.0
  C  C73  1  0.89755000  0.98927000  0.08093000  1.0
  C  C74  1  0.79388000  0.50977000  0.06111000  1.0
  C  C75  1  0.77103000  0.11374000  0.83025000  1.0
  C  C76  1  0.74882000  0.28017000  0.89578000  1.0
  C  C77  1  0.67569000  0.29864000  0.74363000  1.0
  C  C78  1  0.00960000  0.73659000  0.33116000  1.0
  C  C79  1  0.98694000  0.69577000  0.25752000  1.0
  C  C80  1  0.06764000  0.58831000  0.24229000  1.0
  C  C81  1  0.16837000  0.51777000  0.30339000  1.0
  C  C82  1  0.19330000  0.55917000  0.37562000  1.0
  C  C83  1  0.11689000  0.66858000  0.38785000  1.0
  C  C84  1  0.92288000  0.84592000  0.35401000  1.0
  C  C85  1  0.79263000  0.87958000  0.35486000  1.0
  C  C86  1  0.71086000  0.97233000  0.38943000  1.0
  C  C87  1  0.96818000  0.91562000  0.38557000  1.0
  C  C88  1  0.04503000  0.55085000  0.15922000  1.0
  C  C89  1  0.67667000  0.13159000  0.46950000  1.0
  C  C90  1  0.75950000  0.03778000  0.42335000  1.0
  C  C91  1  0.88773000  0.01069000  0.41877000  1.0
  C  C92  1  0.30395000  0.48991000  0.43916000  1.0
  C  C93  1  0.88387000  0.88618000  0.66943000  1.0
  C  C94  1  0.02814000  0.71986000  0.60380000  1.0
  C  C95  1  0.97429000  0.70135000  0.75618000  1.0
  C  C96  1  0.25440000  0.73690000  0.83114000  1.0
  C  C97  1  0.31800000  0.69613000  0.75750000  1.0
  C  C98  1  0.34479000  0.58863000  0.74228000  1.0
  C  C99  1  0.31448000  0.51806000  0.80331000  1.0
  C  C100  1  0.24789000  0.55944000  0.87546000  1.0
  C  C101  1  0.21496000  0.66884000  0.88772000  1.0
  C  C102  1  0.23179000  0.84613000  0.85416000  1.0
  C  C103  1  0.32849000  0.87964000  0.85515000  1.0
  C  C104  1  0.31765000  0.97234000  0.88970000  1.0
  C  C105  1  0.11689000  0.91573000  0.88585000  1.0
  C  C106  1  0.40488000  0.55108000  0.65925000  1.0
  C  C107  1  0.19250000  0.13165000  0.96971000  1.0
  C  C108  1  0.20358000  0.03782000  0.92357000  1.0
  C  C109  1  0.10242000  0.01074000  0.91907000  1.0
  C  C110  1  0.20615000  0.49021000  0.93889000  1.0
  C  C111  1  0.22897000  0.88628000  0.16974000  1.0
  C  C112  1  0.25112000  0.71986000  0.10422000  1.0
  C  C113  1  0.32429000  0.70140000  0.25638000  1.0
  C  C114  1  0.99044000  0.26339000  0.66883000  1.0
  C  C115  1  0.01308000  0.30422000  0.74247000  1.0
  C  C116  1  0.93237000  0.41168000  0.75771000  1.0
  C  C117  1  0.83165000  0.48222000  0.69660000  1.0
  C  C118  1  0.80671000  0.44081000  0.62437000  1.0
  C  C119  1  0.88314000  0.33142000  0.61214000  1.0
  C  C120  1  0.07714000  0.15406000  0.64599000  1.0
  C  C121  1  0.20738000  0.12041000  0.64513000  1.0
  C  C122  1  0.28914000  0.02767000  0.61058000  1.0
  C  C123  1  0.03182000  0.08439000  0.61443000  1.0
  C  C124  1  0.95500000  0.44914000  0.84078000  1.0
  C  C125  1  0.32331000  0.86841000  0.53051000  1.0
  C  C126  1  0.24048000  0.96221000  0.57666000  1.0
  C  C127  1  0.11227000  0.98930000  0.58124000  1.0
  C  C128  1  0.69606000  0.51010000  0.56083000  1.0
  C  C129  1  0.11613000  0.11381000  0.33057000  1.0
  C  C130  1  0.97185000  0.28013000  0.39621000  1.0
  C  C131  1  0.02572000  0.29865000  0.24384000  1.0
  N  N132  1  0.72805000  0.23386000  0.82090000  1.0
  N  N133  1  0.96128000  0.76612000  0.67876000  1.0
  N  N134  1  0.27193000  0.76617000  0.17909000  1.0
  N  N135  1  0.03872000  0.23387000  0.32125000  1.0
  O  O136  1  0.57044000  0.54762000  0.35251000  1.0
  O  O137  1  0.57384000  0.37822000  0.39316000  1.0
  O  O138  1  0.72344000  0.61190000  0.03496000  1.0
  O  O139  1  0.90523000  0.46186000  0.03412000  1.0
  O  O140  1  0.71456000  0.84301000  0.03538000  1.0
  O  O141  1  0.90395000  0.81920000  0.98880000  1.0
  O  O142  1  0.66492000  0.26165000  0.67549000  1.0
  O  O143  1  0.49321000  0.19604000  0.59603000  1.0
  O  O144  1  0.11895000  0.45220000  0.14737000  1.0
  O  O145  1  0.95304000  0.62152000  0.10684000  1.0
  O  O146  1  0.33539000  0.38780000  0.46528000  1.0
  O  O147  1  0.36737000  0.53773000  0.46636000  1.0
  O  O148  1  0.55850000  0.15648000  0.46458000  1.0
  O  O149  1  0.72376000  0.18107000  0.51079000  1.0
  O  O150  1  0.92687000  0.73823000  0.82438000  1.0
  O  O151  1  0.68951000  0.80366000  0.90376000  1.0
  O  O152  1  0.42954000  0.45239000  0.64748000  1.0
  O  O153  1  0.42617000  0.62178000  0.60684000  1.0
  O  O154  1  0.27657000  0.38808000  0.96502000  1.0
  O  O155  1  0.09479000  0.53812000  0.96585000  1.0
  O  O156  1  0.28541000  0.15702000  0.96459000  1.0
  O  O157  1  0.09603000  0.18080000  0.01121000  1.0
  O  O158  1  0.33508000  0.73837000  0.32449000  1.0
  O  O159  1  0.50679000  0.80397000  0.40398000  1.0
  O  O160  1  0.88109000  0.54780000  0.85261000  1.0
  O  O161  1  0.04699000  0.37846000  0.89315000  1.0
  O  O162  1  0.66461000  0.61219000  0.53472000  1.0
  O  O163  1  0.63264000  0.46225000  0.53364000  1.0
  O  O164  1  0.44148000  0.84350000  0.53542000  1.0
  O  O165  1  0.27624000  0.81892000  0.48921000  1.0
  O  O166  1  0.07315000  0.26177000  0.17562000  1.0
  O  O167  1  0.31051000  0.19632000  0.09623000  1.0
  F  F168  1  0.55776000  0.18595000  0.17389000  1.0
  F  F169  1  0.74433000  0.81422000  0.32559000  1.0
  F  F170  1  0.44224000  0.81404000  0.82614000  1.0
  F  F171  1  0.25568000  0.18578000  0.67438000  1.0
