# generated using pymatgen
data_AlH12C39N7O30
_symmetry_space_group_name_H-M   'P 1'
_cell_length_a   4.41691000
_cell_length_b   18.13090864
_cell_length_c   18.26390000
_cell_angle_alpha   60.42085617
_cell_angle_beta   89.60570000
_cell_angle_gamma   88.46637745
_symmetry_Int_Tables_number   1
_chemical_formula_structural   AlH12C39N7O30
_chemical_formula_sum   'Al1 H12 C39 N7 O30'
_cell_volume   1271.51461308
_cell_formula_units_Z   1
loop_
 _symmetry_equiv_pos_site_id
 _symmetry_equiv_pos_as_xyz
  1  'x, y, z'
loop_
 _atom_site_type_symbol
 _atom_site_label
 _atom_site_symmetry_multiplicity
 _atom_site_fract_x
 _atom_site_fract_y
 _atom_site_fract_z
 _atom_site_occupancy
  Al  Al0  1  0.99099000  0.00189000  0.49942000  1.0
  H  H1  1  0.84786000  0.95815000  0.29389000  1.0
  H  H2  1  0.72417000  0.03261000  0.08821000  1.0
  H  H3  1  0.17027000  0.27021000  0.28517000  1.0
  H  H4  1  0.29877000  0.38889000  0.08246000  1.0
  H  H5  1  0.66990000  0.58946000  0.87759000  1.0
  H  H6  1  0.62831000  0.78870000  0.77176000  1.0
  H  H7  1  0.33120000  0.58025000  0.53435000  1.0
  H  H8  1  0.16747000  0.78175000  0.45235000  1.0
  H  H9  1  0.35905000  0.02803000  0.88798000  1.0
  H  H10  1  0.92427000  0.93260000  0.78946000  1.0
  H  H11  1  0.78770000  0.38093000  0.53551000  1.0
  H  H12  1  0.89901000  0.25020000  0.45825000  1.0
  C  C13  1  0.49496000  0.07237000  0.36856000  1.0
  C  C14  1  0.50167000  0.06213000  0.56964000  1.0
  C  C15  1  0.47653000  0.86970000  0.55933000  1.0
  C  C16  1  0.57691000  0.24980000  0.13741000  1.0
  C  C17  1  0.51019000  0.20674000  0.09347000  1.0
  C  C18  1  0.62873000  0.11089000  0.74935000  1.0
  C  C19  1  0.58307000  0.19980000  0.70728000  1.0
  C  C20  1  0.50567000  0.59364000  0.70276000  1.0
  C  C21  1  0.58521000  0.63646000  0.61719000  1.0
  C  C22  1  0.51442000  0.24320000  0.62082000  1.0
  C  C23  1  0.51079000  0.19845000  0.57639000  1.0
  C  C24  1  0.53375000  0.10969000  0.61834000  1.0
  C  C25  1  0.58418000  0.06610000  0.70599000  1.0
  C  C26  1  0.55980000  0.72516000  0.57072000  1.0
  C  C27  1  0.46614000  0.77336000  0.60837000  1.0
  C  C28  1  0.37428000  0.72982000  0.69300000  1.0
  C  C29  1  0.39754000  0.64077000  0.74031000  1.0
  C  C30  1  0.44126000  0.12030000  0.13903000  1.0
  C  C31  1  0.45052000  0.07761000  0.22729000  1.0
  C  C32  1  0.50216000  0.12065000  0.27231000  1.0
  C  C33  1  0.55977000  0.20783000  0.22574000  1.0
  C  C34  1  0.51203000  0.37894000  0.87850000  1.0
  C  C35  1  0.54739000  0.24344000  0.88022000  1.0
  C  C36  1  0.51445000  0.25171000  0.00094000  1.0
  C  C37  1  0.52218000  0.50042000  0.75068000  1.0
  C  C38  1  0.56451000  0.37629000  0.74687000  1.0
  C  C39  1  0.58251000  0.24688000  0.75360000  1.0
  C  C40  1  0.40601000  0.98395000  0.27356000  1.0
  C  C41  1  0.32323000  0.07176000  0.09755000  1.0
  C  C42  1  0.60966000  0.26041000  0.26692000  1.0
  C  C43  1  0.69856000  0.33911000  0.09388000  1.0
  C  C44  1  0.27316000  0.59949000  0.82934000  1.0
  C  C45  1  0.23149000  0.77418000  0.73663000  1.0
  C  C46  1  0.72413000  0.59203000  0.57243000  1.0
  C  C47  1  0.61264000  0.76580000  0.47785000  1.0
  C  C48  1  0.75381000  0.06252000  0.83854000  1.0
  C  C49  1  0.50921000  0.97382000  0.75580000  1.0
  C  C50  1  0.39271000  0.33419000  0.57390000  1.0
  C  C51  1  0.45977000  0.24650000  0.48325000  1.0
  N  N52  1  0.54201000  0.33283000  0.83527000  1.0
  N  N53  1  0.53209000  0.20371000  0.96386000  1.0
  N  N54  1  0.50029000  0.33671000  0.96218000  1.0
  N  N55  1  0.49662000  0.46330000  0.83462000  1.0
  N  N56  1  0.55853000  0.46060000  0.70571000  1.0
  N  N57  1  0.56629000  0.20123000  0.83784000  1.0
  N  N58  1  0.58872000  0.33169000  0.70703000  1.0
  O  O59  1  0.24343000  0.90890000  0.56748000  1.0
  O  O60  1  0.25863000  0.03038000  0.40229000  1.0
  O  O61  1  0.25951000  0.07376000  0.52785000  1.0
  O  O62  1  0.71118000  0.90324000  0.51676000  1.0
  O  O63  1  0.72944000  0.01424000  0.57545000  1.0
  O  O64  1  0.72675000  0.07768000  0.40689000  1.0
  O  O65  1  0.63642000  0.93549000  0.31552000  1.0
  O  O66  1  0.16125000  0.95385000  0.27171000  1.0
  O  O67  1  0.50539000  0.01853000  0.08803000  1.0
  O  O68  1  0.04972000  0.07828000  0.08213000  1.0
  O  O69  1  0.38385000  0.27637000  0.30299000  1.0
  O  O70  1  0.85903000  0.29098000  0.26312000  1.0
  O  O71  1  0.51770000  0.40305000  0.08195000  1.0
  O  O72  1  0.97191000  0.34666000  0.07919000  1.0
  O  O73  1  0.44894000  0.58881000  0.89188000  1.0
  O  O74  1  0.99934000  0.58653000  0.83802000  1.0
  O  O75  1  0.40591000  0.79503000  0.78104000  1.0
  O  O76  1  0.95421000  0.78410000  0.73425000  1.0
  O  O77  1  0.55268000  0.57890000  0.52149000  1.0
  O  O78  1  0.00031000  0.57883000  0.57841000  1.0
  O  O79  1  0.38150000  0.80039000  0.42818000  1.0
  O  O80  1  0.86276000  0.76301000  0.44882000  1.0
  O  O81  1  0.58099000  0.01424000  0.90222000  1.0
  O  O82  1  0.03049000  0.06506000  0.84550000  1.0
  O  O83  1  0.70684000  0.91488000  0.80425000  1.0
  O  O84  1  0.24167000  0.95871000  0.75092000  1.0
  O  O85  1  0.56627000  0.39545000  0.52131000  1.0
  O  O86  1  0.11866000  0.34445000  0.58002000  1.0
  O  O87  1  0.68710000  0.25141000  0.43525000  1.0
  O  O88  1  0.21022000  0.27914000  0.45349000  1.0
