# generated using pymatgen
data_HgH6C10(NCl3)2
_symmetry_space_group_name_H-M   'P 1'
_cell_length_a   3.82300000
_cell_length_b   14.12900000
_cell_length_c   14.12900000
_cell_angle_alpha   90.00000000
_cell_angle_beta   90.00010000
_cell_angle_gamma   89.99990000
_symmetry_Int_Tables_number   1
_chemical_formula_structural   HgH6C10(NCl3)2
_chemical_formula_sum   'Hg2 H12 C20 N4 Cl12'
_cell_volume   763.18029454
_cell_formula_units_Z   2
loop_
 _symmetry_equiv_pos_site_id
 _symmetry_equiv_pos_as_xyz
  1  'x, y, z'
loop_
 _atom_site_type_symbol
 _atom_site_label
 _atom_site_symmetry_multiplicity
 _atom_site_fract_x
 _atom_site_fract_y
 _atom_site_fract_z
 _atom_site_occupancy
  Hg  Hg0  1  0.50000000  0.50000000  0.00000000  1.0
  Hg  Hg1  1  0.50000000  0.00000000  0.50000000  1.0
  H  H2  1  0.31328000  0.52553000  0.77908000  1.0
  H  H3  1  0.31328000  0.47447000  0.22092000  1.0
  H  H4  1  0.68672000  0.22092000  0.52553000  1.0
  H  H5  1  0.68672000  0.77908000  0.47447000  1.0
  H  H6  1  0.31328000  0.02553000  0.72092000  1.0
  H  H7  1  0.31328000  0.97447000  0.27908000  1.0
  H  H8  1  0.68672000  0.72092000  0.97447000  1.0
  H  H9  1  0.68672000  0.27909000  0.02553000  1.0
  H  H10  1  0.50000000  0.81367000  0.68633000  1.0
  H  H11  1  0.50000000  0.18633000  0.31367000  1.0
  H  H12  1  0.50000000  0.31367000  0.81368000  1.0
  H  H13  1  0.50000000  0.68632000  0.18632000  1.0
  C  C14  1  0.39655000  0.59824000  0.79188000  1.0
  C  C15  1  0.39655000  0.40176000  0.20812000  1.0
  C  C16  1  0.60345000  0.20812000  0.59824000  1.0
  C  C17  1  0.60345000  0.79188000  0.40176000  1.0
  C  C18  1  0.39655000  0.09824000  0.70812000  1.0
  C  C19  1  0.39655000  0.90176000  0.29188000  1.0
  C  C20  1  0.60345000  0.70812000  0.90176000  1.0
  C  C21  1  0.60346000  0.29188000  0.09824000  1.0
  C  C22  1  0.39319000  0.66692000  0.72084000  1.0
  C  C23  1  0.39319000  0.33308000  0.27916000  1.0
  C  C24  1  0.60681000  0.27916000  0.66692000  1.0
  C  C25  1  0.60681000  0.72084000  0.33308000  1.0
  C  C26  1  0.39319000  0.16692000  0.77916000  1.0
  C  C27  1  0.39319000  0.83308000  0.22084000  1.0
  C  C28  1  0.60681000  0.77916000  0.83308000  1.0
  C  C29  1  0.60681000  0.22084000  0.16691000  1.0
  C  C30  1  0.50000000  0.75921000  0.74079000  1.0
  C  C31  1  0.50000000  0.24079000  0.25921000  1.0
  C  C32  1  0.50000000  0.25921000  0.75921000  1.0
  C  C33  1  0.50000000  0.74079000  0.24079000  1.0
  N  N34  1  0.50000000  0.62032000  0.87968000  1.0
  N  N35  1  0.50000000  0.37969000  0.12032000  1.0
  N  N36  1  0.50000000  0.12032000  0.62032000  1.0
  N  N37  1  0.50000000  0.87968000  0.37968000  1.0
  Cl  Cl38  1  0.00000000  0.40387000  0.90387000  1.0
  Cl  Cl39  1  0.00000000  0.59613000  0.09613000  1.0
  Cl  Cl40  1  0.00000000  0.09613000  0.40387000  1.0
  Cl  Cl41  1  0.00000000  0.90386000  0.59614000  1.0
  Cl  Cl42  1  0.25612000  0.63637000  0.60860000  1.0
  Cl  Cl43  1  0.25612000  0.36363000  0.39140000  1.0
  Cl  Cl44  1  0.74388000  0.39140000  0.63637000  1.0
  Cl  Cl45  1  0.74388000  0.60860000  0.36363000  1.0
  Cl  Cl46  1  0.25612000  0.13637000  0.89140000  1.0
  Cl  Cl47  1  0.25612000  0.86363000  0.10860000  1.0
  Cl  Cl48  1  0.74388000  0.89140000  0.86363000  1.0
  Cl  Cl49  1  0.74388000  0.10860000  0.13637000  1.0
