# generated using pymatgen
data_Ag4H44C52(N2O3)3
_symmetry_space_group_name_H-M   'P 1'
_cell_length_a   9.70164000
_cell_length_b   10.44660000
_cell_length_c   13.12310000
_cell_angle_alpha   74.98550000
_cell_angle_beta   75.70900000
_cell_angle_gamma   78.73150000
_symmetry_Int_Tables_number   1
_chemical_formula_structural   Ag4H44C52(N2O3)3
_chemical_formula_sum   'Ag4 H44 C52 N6 O9'
_cell_volume   1232.51645169
_cell_formula_units_Z   1
loop_
 _symmetry_equiv_pos_site_id
 _symmetry_equiv_pos_as_xyz
  1  'x, y, z'
loop_
 _atom_site_type_symbol
 _atom_site_label
 _atom_site_symmetry_multiplicity
 _atom_site_fract_x
 _atom_site_fract_y
 _atom_site_fract_z
 _atom_site_occupancy
  Ag  Ag0  1  0.74059000  0.60766000  0.11034000  1.0
  Ag  Ag1  1  0.97900000  0.63371000  0.73199000  1.0
  Ag  Ag2  1  0.31960000  0.62638000  0.38609000  1.0
  Ag  Ag3  1  0.91241000  0.22332000  0.47116000  1.0
  H  H4  1  0.69511000  0.74583000  0.64500000  1.0
  H  H5  1  0.73824000  0.62971000  0.57920000  1.0
  H  H6  1  0.43035000  0.54456000  0.14860000  1.0
  H  H7  1  0.27374000  0.38625000  0.27668000  1.0
  H  H8  1  0.62899000  0.20371000  0.43188000  1.0
  H  H9  1  0.77076000  0.37902000  0.30353000  1.0
  H  H10  1  0.94733000  0.83459000  0.52704000  1.0
  H  H11  1  0.08299000  0.00453000  0.38770000  1.0
  H  H12  1  0.43129000  0.87477000  0.55927000  1.0
  H  H13  1  0.28262000  0.70959000  0.69077000  1.0
  H  H14  1  0.23542000  0.22722000  0.45423000  1.0
  H  H15  1  0.38606000  0.14087000  0.51352000  1.0
  H  H16  1  0.31387000  0.09567000  0.31163000  1.0
  H  H17  1  0.46697000  0.01537000  0.36726000  1.0
  H  H18  1  0.68532000  0.78278000  0.88277000  1.0
  H  H19  1  0.80090000  0.95566000  0.73680000  1.0
  H  H20  1  0.11083000  0.93303000  0.92848000  1.0
  H  H21  1  0.98041000  0.76440000  0.07071000  1.0
  H  H22  1  0.01780000  0.55397000  0.44378000  1.0
  H  H23  1  0.87076000  0.39964000  0.59015000  1.0
  H  H24  1  0.24657000  0.25542000  0.72991000  1.0
  H  H25  1  0.37611000  0.42023000  0.58418000  1.0
  H  H26  1  0.02105000  0.06244000  0.65465000  1.0
  H  H27  1  0.15360000  0.04921000  0.73069000  1.0
  H  H28  1  0.85807000  0.22354000  0.75737000  1.0
  H  H29  1  0.98803000  0.20888000  0.83590000  1.0
  H  H30  1  0.68975000  0.54902000  0.78976000  1.0
  H  H31  1  0.54671000  0.38587000  0.93163000  1.0
  H  H32  1  0.90781000  0.26342000  0.08806000  1.0
  H  H33  1  0.03332000  0.43545000  0.94404000  1.0
  H  H34  1  0.29622000  0.82936000  0.18545000  1.0
  H  H35  1  0.43459000  0.00478000  0.05445000  1.0
  H  H36  1  0.76600000  0.87621000  0.24122000  1.0
  H  H37  1  0.61669000  0.70785000  0.36349000  1.0
  H  H38  1  0.52347000  0.22711000  0.10428000  1.0
  H  H39  1  0.66158000  0.18907000  0.17922000  1.0
  H  H40  1  0.80672000  0.03832000  0.06125000  1.0
  H  H41  1  0.67475000  0.07862000  0.98106000  1.0
  H  H42  1  0.19998000  0.15379000  0.09483000  1.0
  H  H43  1  0.34335000  0.50006000  0.85800000  1.0
  H  H44  1  0.22941000  0.63870000  0.98974000  1.0
  H  H45  1  0.50058000  0.36259000  0.78285000  1.0
  H  H46  1  0.22981000  0.06533000  0.97069000  1.0
  H  H47  1  0.35919000  0.91389000  0.84958000  1.0
  C  C48  1  0.47213000  0.46825000  0.21188000  1.0
  C  C49  1  0.38512000  0.37835000  0.28266000  1.0
  C  C50  1  0.43957000  0.27952000  0.36333000  1.0
  C  C51  1  0.58166000  0.27839000  0.37019000  1.0
  C  C52  1  0.66137000  0.37425000  0.29859000  1.0
  C  C53  1  0.05454000  0.84794000  0.53115000  1.0
  C  C54  1  0.13122000  0.94239000  0.45440000  1.0
  C  C55  1  0.26859000  0.95551000  0.46339000  1.0
  C  C56  1  0.32439000  0.86855000  0.54939000  1.0
  C  C57  1  0.24178000  0.77727000  0.62289000  1.0
  C  C58  1  0.34757000  0.17930000  0.43788000  1.0
  C  C59  1  0.35393000  0.05968000  0.38686000  1.0
  C  C60  1  0.77995000  0.81728000  0.89151000  1.0
  C  C61  1  0.84520000  0.91397000  0.80906000  1.0
  C  C62  1  0.96707000  0.95848000  0.81946000  1.0
  C  C63  1  0.01690000  0.90235000  0.91507000  1.0
  C  C64  1  0.94587000  0.80720000  0.99456000  1.0
  C  C65  1  0.06331000  0.48758000  0.51003000  1.0
  C  C66  1  0.98340000  0.39895000  0.59057000  1.0
  C  C67  1  0.04835000  0.31152000  0.67151000  1.0
  C  C68  1  0.19123000  0.32075000  0.66885000  1.0
  C  C69  1  0.26412000  0.41271000  0.58783000  1.0
  C  C70  1  0.03735000  0.06553000  0.73386000  1.0
  C  C71  1  0.97369000  0.20600000  0.75593000  1.0
  C  C72  1  0.73312000  0.48373000  0.85745000  1.0
  C  C73  1  0.65577000  0.39194000  0.93550000  1.0
  C  C74  1  0.71735000  0.30767000  0.01910000  1.0
  C  C75  1  0.85588000  0.32365000  0.02267000  1.0
  C  C76  1  0.92629000  0.41951000  0.94298000  1.0
  C  C77  1  0.39955000  0.84590000  0.19513000  1.0
  C  C78  1  0.47703000  0.94235000  0.12339000  1.0
  C  C79  1  0.61025000  0.95804000  0.13837000  1.0
  C  C80  1  0.66152000  0.87187000  0.22626000  1.0
  C  C81  1  0.57865000  0.77691000  0.29508000  1.0
  C  C82  1  0.63999000  0.20051000  0.09875000  1.0
  C  C83  1  0.69109000  0.06588000  0.06335000  1.0
  C  C84  1  0.06850000  0.57300000  0.18931000  1.0
  C  C85  1  0.05130000  0.26945000  0.24705000  1.0
  C  C86  1  0.14368000  0.47838000  0.11486000  1.0
  C  C87  1  0.13583000  0.33984000  0.14165000  1.0
  C  C88  1  0.20809000  0.26041000  0.06853000  1.0
  C  C89  1  0.28555000  0.31325000  0.96556000  1.0
  C  C90  1  0.28915000  0.45254000  0.93830000  1.0
  C  C91  1  0.22236000  0.53173000  0.01224000  1.0
  C  C92  1  0.55903000  0.95694000  0.67235000  1.0
  C  C93  1  0.65147000  0.23727000  0.63636000  1.0
  C  C94  1  0.49780000  0.05288000  0.74708000  1.0
  C  C95  1  0.53624000  0.18150000  0.72932000  1.0
  C  C96  1  0.46695000  0.26419000  0.80084000  1.0
  C  C97  1  0.35767000  0.22537000  0.89031000  1.0
  C  C98  1  0.31813000  0.09788000  0.90500000  1.0
  C  C99  1  0.38849000  0.01354000  0.83608000  1.0
  N  N100  1  0.60909000  0.46696000  0.21921000  1.0
  N  N101  1  0.10794000  0.76720000  0.61524000  1.0
  N  N102  1  0.82927000  0.76378000  0.98345000  1.0
  N  N103  1  0.20120000  0.49421000  0.50850000  1.0
  N  N104  1  0.86778000  0.49680000  0.86012000  1.0
  N  N105  1  0.44891000  0.76498000  0.28087000  1.0
  O  O106  1  0.77904000  0.68509000  0.60999000  1.0
  O  O107  1  0.93245000  0.58115000  0.21788000  1.0
  O  O108  1  0.14855000  0.64015000  0.21118000  1.0
  O  O109  1  0.05671000  0.30840000  0.33156000  1.0
  O  O110  1  0.98452000  0.17814000  0.24652000  1.0
  O  O111  1  0.58475000  0.83364000  0.72051000  1.0
  O  O112  1  0.57196000  0.00254000  0.57266000  1.0
  O  O113  1  0.76391000  0.15228000  0.61273000  1.0
  O  O114  1  0.63329000  0.35948000  0.59225000  1.0
