# generated using pymatgen
data_Co3H34C34N10(ClO3)2
_symmetry_space_group_name_H-M   'P 1'
_cell_length_a   9.25432000
_cell_length_b   11.37970000
_cell_length_c   11.75020000
_cell_angle_alpha   113.24000000
_cell_angle_beta   109.12920000
_cell_angle_gamma   90.19920000
_symmetry_Int_Tables_number   1
_chemical_formula_structural   Co3H34C34N10(ClO3)2
_chemical_formula_sum   'Co3 H34 C34 N10 Cl2 O6'
_cell_volume   1061.60068405
_cell_formula_units_Z   1
loop_
 _symmetry_equiv_pos_site_id
 _symmetry_equiv_pos_as_xyz
  1  'x, y, z'
loop_
 _atom_site_type_symbol
 _atom_site_label
 _atom_site_symmetry_multiplicity
 _atom_site_fract_x
 _atom_site_fract_y
 _atom_site_fract_z
 _atom_site_occupancy
  Co  Co0  1  0.99672000  0.17196000  0.36125000  1.0
  Co  Co1  1  0.00328000  0.82804000  0.63874000  1.0
  Co  Co2  1  0.00000000  0.50000000  0.50000000  1.0
  H  H3  1  0.69588000  0.20804000  0.38766000  1.0
  H  H4  1  0.30412000  0.79196000  0.61235000  1.0
  H  H5  1  0.47414000  0.07249000  0.38106000  1.0
  H  H6  1  0.52587000  0.92751000  0.61895000  1.0
  H  H7  1  0.50692000  0.85011000  0.36874000  1.0
  H  H8  1  0.49308000  0.14989000  0.63126000  1.0
  H  H9  1  0.96199000  0.91286000  0.35888000  1.0
  H  H10  1  0.03801000  0.08714000  0.64112000  1.0
  H  H11  1  0.52974000  0.43807000  0.05112000  1.0
  H  H12  1  0.47024000  0.56193000  0.94888000  1.0
  H  H13  1  0.44837000  0.21273000  0.88135000  1.0
  H  H14  1  0.55162000  0.78727000  0.11865000  1.0
  H  H15  1  0.59586000  0.03848000  0.91753000  1.0
  H  H16  1  0.40413000  0.96153000  0.08247000  1.0
  H  H17  1  0.90792000  0.90543000  0.08392000  1.0
  H  H18  1  0.09208000  0.09457000  0.91608000  1.0
  H  H19  1  0.82368000  0.95126000  0.94916000  1.0
  H  H20  1  0.17632000  0.04875000  0.05084000  1.0
  H  H21  1  0.70165000  0.90416000  0.02147000  1.0
  H  H22  1  0.29835000  0.09585000  0.97852000  1.0
  H  H23  1  0.19663000  0.34632000  0.36971000  1.0
  H  H24  1  0.80338000  0.65367000  0.63030000  1.0
  H  H25  1  0.32194000  0.65431000  0.38485000  1.0
  H  H26  1  0.67807000  0.34569000  0.61516000  1.0
  H  H27  1  0.41166000  0.57776000  0.26484000  1.0
  H  H28  1  0.58835000  0.42225000  0.73518000  1.0
  H  H29  1  0.51771000  0.62453000  0.43594000  1.0
  H  H30  1  0.48230000  0.37547000  0.56407000  1.0
  H  H31  1  0.40017000  0.33586000  0.18297000  1.0
  H  H32  1  0.59984000  0.66415000  0.81703000  1.0
  H  H33  1  0.35751000  0.26308000  0.28132000  1.0
  H  H34  1  0.64249000  0.73691000  0.71868000  1.0
  H  H35  1  0.53848000  0.36577000  0.34122000  1.0
  H  H36  1  0.46152000  0.63423000  0.65878000  1.0
  C  C37  1  0.70305000  0.11006000  0.38106000  1.0
  C  C38  1  0.29695000  0.88994000  0.61895000  1.0
  C  C39  1  0.58228000  0.03529000  0.37905000  1.0
  C  C40  1  0.41773000  0.96471000  0.62095000  1.0
  C  C41  1  0.60010000  0.91120000  0.37164000  1.0
  C  C42  1  0.39990000  0.08880000  0.62836000  1.0
  C  C43  1  0.73949000  0.86552000  0.36758000  1.0
  C  C44  1  0.26051000  0.13448000  0.63242000  1.0
  C  C45  1  0.85378000  0.94576000  0.36727000  1.0
  C  C46  1  0.14622000  0.05424000  0.63272000  1.0
  C  C47  1  0.76630000  0.73481000  0.35665000  1.0
  C  C48  1  0.23371000  0.26519000  0.64335000  1.0
  C  C49  1  0.75786000  0.53094000  0.28036000  1.0
  C  C50  1  0.24213000  0.46906000  0.71964000  1.0
  C  C51  1  0.71614000  0.39499000  0.18853000  1.0
  C  C52  1  0.28385000  0.60501000  0.81146000  1.0
  C  C53  1  0.59067000  0.36139000  0.06792000  1.0
  C  C54  1  0.40933000  0.63861000  0.93208000  1.0
  C  C55  1  0.54571000  0.23501000  0.97285000  1.0
  C  C56  1  0.45428000  0.76499000  0.02715000  1.0
  C  C57  1  0.62780000  0.13748000  0.99344000  1.0
  C  C58  1  0.37220000  0.86253000  0.00655000  1.0
  C  C59  1  0.75234000  0.16939000  0.11117000  1.0
  C  C60  1  0.24765000  0.83061000  0.88882000  1.0
  C  C61  1  0.79715000  0.29754000  0.21370000  1.0
  C  C62  1  0.20285000  0.70246000  0.78630000  1.0
  C  C63  1  0.81600000  0.95250000  0.04110000  1.0
  C  C64  1  0.18400000  0.04750000  0.95889000  1.0
  C  C65  1  0.23218000  0.44659000  0.38851000  1.0
  C  C66  1  0.76782000  0.55341000  0.61149000  1.0
  C  C67  1  0.40187000  0.58692000  0.35845000  1.0
  C  C68  1  0.59814000  0.41308000  0.64156000  1.0
  C  C69  1  0.41380000  0.34978000  0.28411000  1.0
  C  C70  1  0.58621000  0.65021000  0.71590000  1.0
  N  N71  1  0.83647000  0.06555000  0.37382000  1.0
  N  N72  1  0.16353000  0.93445000  0.62618000  1.0
  N  N73  1  0.68889000  0.62559000  0.25001000  1.0
  N  N74  1  0.31111000  0.37441000  0.74999000  1.0
  N  N75  1  0.87735000  0.71263000  0.45086000  1.0
  N  N76  1  0.12265000  0.28737000  0.54914000  1.0
  N  N77  1  0.87088000  0.58136000  0.40178000  1.0
  N  N78  1  0.12911000  0.41864000  0.59822000  1.0
  N  N79  1  0.34441000  0.46114000  0.34519000  1.0
  N  N80  1  0.65560000  0.53886000  0.65482000  1.0
  Cl  Cl81  1  0.18096000  0.06618000  0.29431000  1.0
  Cl  Cl82  1  0.81904000  0.93382000  0.70569000  1.0
  O  O83  1  0.84467000  0.08327000  0.13977000  1.0
  O  O84  1  0.15533000  0.91674000  0.86022000  1.0
  O  O85  1  0.91492000  0.31876000  0.32735000  1.0
  O  O86  1  0.08507000  0.68123000  0.67265000  1.0
  O  O87  1  0.16981000  0.53892000  0.44616000  1.0
  O  O88  1  0.83019000  0.46108000  0.55384000  1.0
