# generated using pymatgen
data_CoH14C17(NO2)2
_symmetry_space_group_name_H-M   'P 1'
_cell_length_a   6.83465000
_cell_length_b   9.42044000
_cell_length_c   11.10750000
_cell_angle_alpha   93.39010000
_cell_angle_beta   91.27300000
_cell_angle_gamma   90.05340000
_symmetry_Int_Tables_number   1
_chemical_formula_structural   CoH14C17(NO2)2
_chemical_formula_sum   'Co2 H28 C34 N4 O8'
_cell_volume   713.73144849
_cell_formula_units_Z   2
loop_
 _symmetry_equiv_pos_site_id
 _symmetry_equiv_pos_as_xyz
  1  'x, y, z'
loop_
 _atom_site_type_symbol
 _atom_site_label
 _atom_site_symmetry_multiplicity
 _atom_site_fract_x
 _atom_site_fract_y
 _atom_site_fract_z
 _atom_site_occupancy
  Co  Co0  1  0.77986000  0.72266000  0.73783000  1.0
  Co  Co1  1  0.22014000  0.27735000  0.26217000  1.0
  H  H2  1  0.73400000  0.15330000  0.45812000  1.0
  H  H3  1  0.26600000  0.84670000  0.54188000  1.0
  H  H4  1  0.70473000  0.33343000  0.63016000  1.0
  H  H5  1  0.29525000  0.66656000  0.36985000  1.0
  H  H6  1  0.68442000  0.38324000  0.85656000  1.0
  H  H7  1  0.31557000  0.61676000  0.14343000  1.0
  H  H8  1  0.69704000  0.29181000  0.06267000  1.0
  H  H9  1  0.30297000  0.70819000  0.93733000  1.0
  H  H10  1  0.74785000  0.08420000  0.19455000  1.0
  H  H11  1  0.25216000  0.91581000  0.80544000  1.0
  H  H12  1  0.78656000  0.81990000  0.20510000  1.0
  H  H13  1  0.21345000  0.18010000  0.79490000  1.0
  H  H14  1  0.89958000  0.79685000  0.48820000  1.0
  H  H15  1  0.10042000  0.20315000  0.51180000  1.0
  H  H16  1  0.80164000  0.91913000  0.38579000  1.0
  H  H17  1  0.19836000  0.08087000  0.61422000  1.0
  H  H18  1  0.64510000  0.79868000  0.45739000  1.0
  H  H19  1  0.35490000  0.20133000  0.54262000  1.0
  H  H20  1  0.65881000  0.57401000  0.03734000  1.0
  H  H21  1  0.34119000  0.42599000  0.96267000  1.0
  H  H22  1  0.90007000  0.59846000  0.09682000  1.0
  H  H23  1  0.09994000  0.40155000  0.90318000  1.0
  H  H24  1  0.85799000  0.57169000  0.93725000  1.0
  H  H25  1  0.14201000  0.42832000  0.06275000  1.0
  H  H26  1  0.27020000  0.48888000  0.55465000  1.0
  H  H27  1  0.72978000  0.51113000  0.44534000  1.0
  H  H28  1  0.27599000  0.40764000  0.69506000  1.0
  H  H29  1  0.72400000  0.59235000  0.30494000  1.0
  C  C30  1  0.74993000  0.97444000  0.57144000  1.0
  C  C31  1  0.25008000  0.02555000  0.42857000  1.0
  C  C32  1  0.73184000  0.12033000  0.55047000  1.0
  C  C33  1  0.26815000  0.87968000  0.44952000  1.0
  C  C34  1  0.71535000  0.22050000  0.64562000  1.0
  C  C35  1  0.28464000  0.77950000  0.35438000  1.0
  C  C36  1  0.71839000  0.17573000  0.76466000  1.0
  C  C37  1  0.28160000  0.82426000  0.23534000  1.0
  C  C38  1  0.70399000  0.27035000  0.86961000  1.0
  C  C39  1  0.29601000  0.72964000  0.13039000  1.0
  C  C40  1  0.71248000  0.22009000  0.98270000  1.0
  C  C41  1  0.28752000  0.77991000  0.01729000  1.0
  C  C42  1  0.73675000  0.07159000  0.99902000  1.0
  C  C43  1  0.26326000  0.92841000  0.00099000  1.0
  C  C44  1  0.75120000  0.01329000  0.11323000  1.0
  C  C45  1  0.24882000  0.98671000  0.88677000  1.0
  C  C46  1  0.77343000  0.86833000  0.11870000  1.0
  C  C47  1  0.22657000  0.13168000  0.88130000  1.0
  C  C48  1  0.78154000  0.77820000  0.01257000  1.0
  C  C49  1  0.21847000  0.22180000  0.98742000  1.0
  C  C50  1  0.74713000  0.97541000  0.89652000  1.0
  C  C51  1  0.25289000  0.02458000  0.10348000  1.0
  C  C52  1  0.73651000  0.02762000  0.77847000  1.0
  C  C53  1  0.26350000  0.97237000  0.22153000  1.0
  C  C54  1  0.77543000  0.86640000  0.46916000  1.0
  C  C55  1  0.22457000  0.13360000  0.53084000  1.0
  C  C56  1  0.80214000  0.62168000  0.02098000  1.0
  C  C57  1  0.19786000  0.37832000  0.97903000  1.0
  C  C58  1  0.46092000  0.59146000  0.68979000  1.0
  C  C59  1  0.53909000  0.40855000  0.31021000  1.0
  C  C60  1  0.27555000  0.51020000  0.65316000  1.0
  C  C61  1  0.72445000  0.48980000  0.34684000  1.0
  C  C62  1  0.09225000  0.59068000  0.69061000  1.0
  C  C63  1  0.90773000  0.40932000  0.30938000  1.0
  N  N64  1  0.74851000  0.92957000  0.68389000  1.0
  N  N65  1  0.25150000  0.07043000  0.31610000  1.0
  N  N66  1  0.76926000  0.83215000  0.90355000  1.0
  N  N67  1  0.23075000  0.16786000  0.09645000  1.0
  O  O68  1  0.51924000  0.59840000  0.79940000  1.0
  O  O69  1  0.48073000  0.40161000  0.20061000  1.0
  O  O70  1  0.55854000  0.65319000  0.61079000  1.0
  O  O71  1  0.44145000  0.34681000  0.38918000  1.0
  O  O72  1  0.08758000  0.72654000  0.68925000  1.0
  O  O73  1  0.91242000  0.27348000  0.31076000  1.0
  O  O74  1  0.94179000  0.52201000  0.72083000  1.0
  O  O75  1  0.05820000  0.47797000  0.27917000  1.0
