# generated using pymatgen
data_Zn4H6C32O19
_symmetry_space_group_name_H-M   'P 1'
_cell_length_a   19.66380000
_cell_length_b   19.66240000
_cell_length_c   22.87150004
_cell_angle_alpha   64.58086300
_cell_angle_beta   64.58100027
_cell_angle_gamma   90.01120000
_symmetry_Int_Tables_number   1
_chemical_formula_structural   Zn4H6C32O19
_chemical_formula_sum   'Zn8 H12 C64 O38'
_cell_volume   7026.92163127
_cell_formula_units_Z   2
loop_
 _symmetry_equiv_pos_site_id
 _symmetry_equiv_pos_as_xyz
  1  'x, y, z'
loop_
 _atom_site_type_symbol
 _atom_site_label
 _atom_site_symmetry_multiplicity
 _atom_site_fract_x
 _atom_site_fract_y
 _atom_site_fract_z
 _atom_site_occupancy
  Zn  Zn0  1  0.28126000  0.86321000  0.43738000  1.0
  Zn  Zn1  1  0.69899000  0.28112000  0.43768000  1.0
  Zn  Zn2  1  0.28115000  0.69895000  0.43767000  1.0
  Zn  Zn3  1  0.71885000  0.30105000  0.56233000  1.0
  Zn  Zn4  1  0.30101000  0.71889000  0.56232000  1.0
  Zn  Zn5  1  0.71874000  0.13679000  0.56262000  1.0
  Zn  Zn6  1  0.13675000  0.71874000  0.56267000  1.0
  Zn  Zn7  1  0.86325000  0.28126000  0.43733000  1.0
  H  H8  1  0.34858000  0.91429000  0.00060000  1.0
  H  H9  1  0.64876000  0.91079000  0.00068000  1.0
  H  H10  1  0.91081000  0.64877000  0.00071000  1.0
  H  H11  1  0.08919000  0.35123000  0.99929000  1.0
  H  H12  1  0.35124000  0.08921000  0.99932000  1.0
  H  H13  1  0.49768000  0.82591000  0.00055000  1.0
  H  H14  1  0.50232000  0.17409000  0.99945000  1.0
  H  H15  1  0.17406000  0.50230000  0.99946000  1.0
  H  H16  1  0.65142000  0.08571000  0.99940000  1.0
  H  H17  1  0.82594000  0.49770000  0.00054000  1.0
  H  H18  1  0.08572000  0.65139000  0.99944000  1.0
  H  H19  1  0.91428000  0.34861000  0.00056000  1.0
  C  C20  1  0.15157000  0.65088000  0.69825000  1.0
  C  C21  1  0.51229000  0.94835000  0.97381000  1.0
  C  C22  1  0.88804000  0.38880000  0.22254000  1.0
  C  C23  1  0.38871000  0.88807000  0.22258000  1.0
  C  C24  1  0.61129000  0.11193000  0.77742000  1.0
  C  C25  1  0.11195000  0.61119000  0.77746000  1.0
  C  C26  1  0.35577000  0.90896000  0.04831000  1.0
  C  C27  1  0.64423000  0.09104000  0.95169000  1.0
  C  C28  1  0.09104000  0.64422000  0.95172000  1.0
  C  C29  1  0.90896000  0.35578000  0.04828000  1.0
  C  C30  1  0.94836000  0.51234000  0.97378000  1.0
  C  C31  1  0.40568000  0.09382000  0.95165000  1.0
  C  C32  1  0.59431000  0.90618000  0.04836000  1.0
  C  C33  1  0.90618000  0.59430000  0.04837000  1.0
  C  C34  1  0.09382000  0.40570000  0.95163000  1.0
  C  C35  1  0.05163000  0.48766000  0.02623000  1.0
  C  C36  1  0.52204000  0.88571000  0.95262000  1.0
  C  C37  1  0.47796000  0.11428000  0.04738000  1.0
  C  C38  1  0.11427000  0.47789000  0.04743000  1.0
  C  C39  1  0.88572000  0.52211000  0.95258000  1.0
  C  C40  1  0.48771000  0.05165000  0.02619000  1.0
  C  C41  1  0.46117000  0.96154000  0.07775000  1.0
  C  C42  1  0.53883000  0.03846000  0.92225000  1.0
  C  C43  1  0.03848000  0.53882000  0.92227000  1.0
  C  C44  1  0.84843000  0.34912000  0.30175000  1.0
  C  C45  1  0.96152000  0.46118000  0.07773000  1.0
  C  C46  1  0.42215000  0.92184000  0.15575000  1.0
  C  C47  1  0.57785000  0.07816000  0.84425000  1.0
  C  C48  1  0.07820000  0.57778000  0.84429000  1.0
  C  C49  1  0.92180000  0.42222000  0.15571000  1.0
  C  C50  1  0.34908000  0.84841000  0.30178000  1.0
  C  C51  1  0.06809000  0.56824000  0.50015000  1.0
  C  C52  1  0.93192000  0.43176000  0.49984000  1.0
  C  C53  1  0.43176000  0.93192000  0.49984000  1.0
  C  C54  1  0.56823000  0.06808000  0.50017000  1.0
  C  C55  1  0.65092000  0.15158000  0.69822000  1.0
  C  C56  1  0.02422000  0.52427000  0.50005000  1.0
  C  C57  1  0.97578000  0.47573000  0.49995000  1.0
  C  C58  1  0.47574000  0.97579000  0.49994000  1.0
  C  C59  1  0.52426000  0.02421000  0.50006000  1.0
  C  C60  1  0.43170000  0.56813000  0.50014000  1.0
  C  C61  1  0.56830000  0.43187000  0.49987000  1.0
  C  C62  1  0.47573000  0.52423000  0.50002000  1.0
  C  C63  1  0.52427000  0.47577000  0.49999000  1.0
  C  C64  1  0.38001000  0.88009000  0.49978000  1.0
  C  C65  1  0.61999000  0.11991000  0.50022000  1.0
  C  C66  1  0.11992000  0.61998000  0.50021000  1.0
  C  C67  1  0.88007000  0.38001000  0.49979000  1.0
  C  C68  1  0.37996000  0.61999000  0.50005000  1.0
  C  C69  1  0.62004000  0.38001000  0.49995000  1.0
  C  C70  1  0.12011000  0.87997000  0.49994000  1.0
  C  C71  1  0.87989000  0.12003000  0.50006000  1.0
  C  C72  1  0.06831000  0.93182000  0.49986000  1.0
  C  C73  1  0.93169000  0.06818000  0.50014000  1.0
  C  C74  1  0.02427000  0.97574000  0.49999000  1.0
  C  C75  1  0.97572000  0.02426000  0.50002000  1.0
  C  C76  1  0.45788000  0.04613000  0.97348000  1.0
  C  C77  1  0.54212000  0.95387000  0.02652000  1.0
  C  C78  1  0.95391000  0.54215000  0.02649000  1.0
  C  C79  1  0.04609000  0.45784000  0.97351000  1.0
  C  C80  1  0.43059000  0.95519000  0.02653000  1.0
  C  C81  1  0.56941000  0.04480000  0.97347000  1.0
  C  C82  1  0.04483000  0.56938000  0.97351000  1.0
  C  C83  1  0.95517000  0.43062000  0.02649000  1.0
  O  O84  1  0.24999000  0.74997000  0.50000000  1.0
  O  O85  1  0.89130000  0.33372000  0.33258000  1.0
  O  O86  1  0.33363000  0.89125000  0.33265000  1.0
  O  O87  1  0.66638000  0.10875000  0.66735000  1.0
  O  O88  1  0.36801000  0.80843000  0.54329000  1.0
  O  O89  1  0.63198000  0.19157000  0.45672000  1.0
  O  O90  1  0.19158000  0.63200000  0.45669000  1.0
  O  O91  1  0.80842000  0.36800000  0.54331000  1.0
  O  O92  1  0.75001000  0.25003000  0.50000000  1.0
  O  O93  1  0.36817000  0.64850000  0.54330000  1.0
  O  O94  1  0.63183000  0.35150000  0.45670000  1.0
  O  O95  1  0.35153000  0.63180000  0.45674000  1.0
  O  O96  1  0.64846000  0.36820000  0.54327000  1.0
  O  O97  1  0.08873000  0.80833000  0.54380000  1.0
  O  O98  1  0.91126000  0.19166000  0.45621000  1.0
  O  O99  1  0.19175000  0.91131000  0.45614000  1.0
  O  O100  1  0.80826000  0.08869000  0.54385000  1.0
  O  O101  1  0.35181000  0.91143000  0.45625000  1.0
  O  O102  1  0.64819000  0.08857000  0.54375000  1.0
  O  O103  1  0.08860000  0.64818000  0.54375000  1.0
  O  O104  1  0.91140000  0.35182000  0.45625000  1.0
  O  O105  1  0.22523000  0.66643000  0.66734000  1.0
  O  O106  1  0.77477000  0.33357000  0.33266000  1.0
  O  O107  1  0.33363000  0.77474000  0.33266000  1.0
  O  O108  1  0.66637000  0.22526000  0.66734000  1.0
  O  O109  1  0.10870000  0.66628000  0.66742000  1.0
  O  O110  1  0.30590000  0.86880000  0.11164000  1.0
  O  O111  1  0.69410000  0.13120000  0.88836000  1.0
  O  O112  1  0.13112000  0.69412000  0.88840000  1.0
  O  O113  1  0.86889000  0.30588000  0.11160000  1.0
  O  O114  1  0.41932000  0.13433000  0.88830000  1.0
  O  O115  1  0.58068000  0.86567000  0.11170000  1.0
  O  O116  1  0.86559000  0.58056000  0.11174000  1.0
  O  O117  1  0.13440000  0.41944000  0.88827000  1.0
  O  O118  1  0.55346000  0.89696000  0.88938000  1.0
  O  O119  1  0.44653000  0.10303000  0.11062000  1.0
  O  O120  1  0.10307000  0.44647000  0.11065000  1.0
  O  O121  1  0.89692000  0.55353000  0.88936000  1.0
