# generated using pymatgen
data_CdH14C14BrN2O5
_symmetry_space_group_name_H-M   'P 1'
_cell_length_a   8.36122000
_cell_length_b   10.16750000
_cell_length_c   11.15970000
_cell_angle_alpha   73.30220000
_cell_angle_beta   74.97450000
_cell_angle_gamma   66.42360000
_symmetry_Int_Tables_number   1
_chemical_formula_structural   CdH14C14BrN2O5
_chemical_formula_sum   'Cd2 H28 C28 Br2 N4 O10'
_cell_volume   821.52709940
_cell_formula_units_Z   2
loop_
 _symmetry_equiv_pos_site_id
 _symmetry_equiv_pos_as_xyz
  1  'x, y, z'
loop_
 _atom_site_type_symbol
 _atom_site_label
 _atom_site_symmetry_multiplicity
 _atom_site_fract_x
 _atom_site_fract_y
 _atom_site_fract_z
 _atom_site_occupancy
  Cd  Cd0  1  0.34550000  0.92566000  0.44142000  1.0
  Cd  Cd1  1  0.65450000  0.07434000  0.55858000  1.0
  H  H2  1  0.99996000  0.10319000  0.35289000  1.0
  H  H3  1  0.00004000  0.89681000  0.64711000  1.0
  H  H4  1  0.03753000  0.93960000  0.36872000  1.0
  H  H5  1  0.96247000  0.06040000  0.63128000  1.0
  H  H6  1  0.96734000  0.24967000  0.72894000  1.0
  H  H7  1  0.03266000  0.75032000  0.27106000  1.0
  H  H8  1  0.99031000  0.65872000  0.75264000  1.0
  H  H9  1  0.00968000  0.34128000  0.24735000  1.0
  H  H10  1  0.33860000  0.43076000  0.46057000  1.0
  H  H11  1  0.66140000  0.56924000  0.53943000  1.0
  H  H12  1  0.44450000  0.20101000  0.24766000  1.0
  H  H13  1  0.55550000  0.79900000  0.75234000  1.0
  H  H14  1  0.56102000  0.24000000  0.09146000  1.0
  H  H15  1  0.43898000  0.76000000  0.90854000  1.0
  H  H16  1  0.67461000  0.15778000  0.22356000  1.0
  H  H17  1  0.32539000  0.84222000  0.77645000  1.0
  H  H18  1  0.53773000  0.70140000  0.24589000  1.0
  H  H19  1  0.46227000  0.29860000  0.75411000  1.0
  H  H20  1  0.74688000  0.75064000  0.00981000  1.0
  H  H21  1  0.25312000  0.24936000  0.99019000  1.0
  H  H22  1  0.71963000  0.14481000  0.93955000  1.0
  H  H23  1  0.28037000  0.85519000  0.06046000  1.0
  H  H24  1  0.76062000  0.99983000  0.86582000  1.0
  H  H25  1  0.23938000  0.00016000  0.13419000  1.0
  H  H26  1  0.03651000  0.85507000  0.96219000  1.0
  H  H27  1  0.96349000  0.14492000  0.03781000  1.0
  H  H28  1  0.03912000  0.01933000  0.85450000  1.0
  H  H29  1  0.96088000  0.98066000  0.14550000  1.0
  C  C30  1  0.24409000  0.67877000  0.54450000  1.0
  C  C31  1  0.75591000  0.32123000  0.45550000  1.0
  C  C32  1  0.23899000  0.19276000  0.53276000  1.0
  C  C33  1  0.76102000  0.80723000  0.46724000  1.0
  C  C34  1  0.16213000  0.32585000  0.58941000  1.0
  C  C35  1  0.83787000  0.67415000  0.41059000  1.0
  C  C36  1  0.02416000  0.33570000  0.69337000  1.0
  C  C37  1  0.97584000  0.66431000  0.30662000  1.0
  C  C38  1  0.96562000  0.45488000  0.75113000  1.0
  C  C39  1  0.03438000  0.54512000  0.24886000  1.0
  C  C40  1  0.03641000  0.56631000  0.70628000  1.0
  C  C41  1  0.96359000  0.43369000  0.29372000  1.0
  C  C42  1  0.16935000  0.55830000  0.59913000  1.0
  C  C43  1  0.83065000  0.44170000  0.40086000  1.0
  C  C44  1  0.23279000  0.43755000  0.54190000  1.0
  C  C45  1  0.76720000  0.56246000  0.45810000  1.0
  C  C46  1  0.56685000  0.16071000  0.18228000  1.0
  C  C47  1  0.43315000  0.83929000  0.81772000  1.0
  C  C48  1  0.59100000  0.01378000  0.16583000  1.0
  C  C49  1  0.40900000  0.98622000  0.83418000  1.0
  C  C50  1  0.57737000  0.79482000  0.19607000  1.0
  C  C51  1  0.42263000  0.20518000  0.80393000  1.0
  C  C52  1  0.67954000  0.81818000  0.08009000  1.0
  C  C53  1  0.32046000  0.18182000  0.91991000  1.0
  C  C54  1  0.78120000  0.02552000  0.94816000  1.0
  C  C55  1  0.21881000  0.97447000  0.05184000  1.0
  C  C56  1  0.97866000  0.97545000  0.94952000  1.0
  C  C57  1  0.02134000  0.02455000  0.05049000  1.0
  Br  Br58  1  0.78743000  0.46295000  0.89952000  1.0
  Br  Br59  1  0.21257000  0.53706000  0.10047000  1.0
  N  N60  1  0.52300000  0.91676000  0.24853000  1.0
  N  N61  1  0.47700000  0.08324000  0.75147000  1.0
  N  N62  1  0.68695000  0.95639000  0.06183000  1.0
  N  N63  1  0.31305000  0.04361000  0.93817000  1.0
  O  O64  1  0.20622000  0.77637000  0.60985000  1.0
  O  O65  1  0.79378000  0.22364000  0.39015000  1.0
  O  O66  1  0.33952000  0.68202000  0.43623000  1.0
  O  O67  1  0.66048000  0.31798000  0.56376000  1.0
  O  O68  1  0.15060000  0.10848000  0.55571000  1.0
  O  O69  1  0.84940000  0.89152000  0.44429000  1.0
  O  O70  1  0.39152000  0.16509000  0.46350000  1.0
  O  O71  1  0.60849000  0.83491000  0.53650000  1.0
  O  O72  1  0.09888000  0.01138000  0.33562000  1.0
  O  O73  1  0.90112000  0.98862000  0.66438000  1.0
