# generated using pymatgen
data_KH4C3SO6
_symmetry_space_group_name_H-M   'P 1'
_cell_length_a   5.53958000
_cell_length_b   7.16566000
_cell_length_c   9.11990000
_cell_angle_alpha   92.00530000
_cell_angle_beta   107.53800000
_cell_angle_gamma   105.90900000
_symmetry_Int_Tables_number   1
_chemical_formula_structural   KH4C3SO6
_chemical_formula_sum   'K2 H8 C6 S2 O12'
_cell_volume   329.22284843
_cell_formula_units_Z   2
loop_
 _symmetry_equiv_pos_site_id
 _symmetry_equiv_pos_as_xyz
  1  'x, y, z'
loop_
 _atom_site_type_symbol
 _atom_site_label
 _atom_site_symmetry_multiplicity
 _atom_site_fract_x
 _atom_site_fract_y
 _atom_site_fract_z
 _atom_site_occupancy
  K  K0  1  0.32681000  0.71813000  0.03751000  1.0
  K  K1  1  0.67318000  0.28188000  0.96250000  1.0
  H  H2  1  0.88690000  0.89786000  0.25979000  1.0
  H  H3  1  0.11311000  0.10214000  0.74020000  1.0
  H  H4  1  0.98021000  0.63179000  0.28693000  1.0
  H  H5  1  0.01982000  0.36820000  0.71311000  1.0
  H  H6  1  0.64366000  0.13723000  0.36197000  1.0
  H  H7  1  0.35633000  0.86275000  0.63802000  1.0
  H  H8  1  0.85762000  0.79468000  0.40556000  1.0
  H  H9  1  0.14240000  0.20531000  0.59444000  1.0
  C  C10  1  0.27470000  0.51660000  0.38187000  1.0
  C  C11  1  0.72528000  0.48341000  0.61813000  1.0
  C  C12  1  0.39298000  0.36997000  0.36357000  1.0
  C  C13  1  0.60699000  0.63003000  0.63641000  1.0
  C  C14  1  0.61851000  0.35253000  0.47994000  1.0
  C  C15  1  0.38148000  0.64748000  0.52005000  1.0
  S  S16  1  0.24920000  0.20917000  0.18633000  1.0
  S  S17  1  0.75083000  0.79084000  0.81367000  1.0
  O  O18  1  0.06645000  0.53185000  0.26213000  1.0
  O  O19  1  0.93351000  0.46812000  0.73783000  1.0
  O  O20  1  0.73918000  0.21314000  0.46804000  1.0
  O  O21  1  0.26080000  0.78686000  0.53197000  1.0
  O  O22  1  0.25151000  0.32833000  0.05890000  1.0
  O  O23  1  0.74851000  0.67171000  0.94110000  1.0
  O  O24  1  0.41908000  0.07936000  0.19488000  1.0
  O  O25  1  0.58097000  0.92067000  0.80515000  1.0
  O  O26  1  0.97739000  0.10078000  0.17860000  1.0
  O  O27  1  0.02258000  0.89921000  0.82141000  1.0
  O  O28  1  0.79795000  0.77309000  0.29251000  1.0
  O  O29  1  0.20205000  0.22690000  0.70748000  1.0
