# generated using pymatgen
data_Zn2H10C6N12O
_symmetry_space_group_name_H-M   'P 1'
_cell_length_a   10.19070000
_cell_length_b   11.61150000
_cell_length_c   15.86000000
_cell_angle_alpha   105.75400000
_cell_angle_beta   90.00000000
_cell_angle_gamma   90.00000000
_symmetry_Int_Tables_number   1
_chemical_formula_structural   Zn2H10C6N12O
_chemical_formula_sum   'Zn8 H40 C24 N48 O4'
_cell_volume   1806.20697002
_cell_formula_units_Z   4
loop_
 _symmetry_equiv_pos_site_id
 _symmetry_equiv_pos_as_xyz
  1  'x, y, z'
loop_
 _atom_site_type_symbol
 _atom_site_label
 _atom_site_symmetry_multiplicity
 _atom_site_fract_x
 _atom_site_fract_y
 _atom_site_fract_z
 _atom_site_occupancy
  Zn  Zn0  1  0.28708000  0.62749000  0.82470000  1.0
  Zn  Zn1  1  0.78708000  0.37250000  0.67530000  1.0
  Zn  Zn2  1  0.71292000  0.37250000  0.17530000  1.0
  Zn  Zn3  1  0.21291000  0.62750000  0.32470000  1.0
  Zn  Zn4  1  0.26259000  0.85157000  0.71495000  1.0
  Zn  Zn5  1  0.76259000  0.14842000  0.78505000  1.0
  Zn  Zn6  1  0.73741000  0.14843000  0.28505000  1.0
  Zn  Zn7  1  0.23741000  0.85157000  0.21495000  1.0
  H  H8  1  0.29034000  0.88617000  0.93922000  1.0
  H  H9  1  0.79034000  0.11383000  0.56078000  1.0
  H  H10  1  0.70966000  0.11383000  0.06078000  1.0
  H  H11  1  0.20966000  0.88618000  0.43922000  1.0
  H  H12  1  0.32066000  0.94965000  0.05392000  1.0
  H  H13  1  0.82066000  0.05035000  0.44608000  1.0
  H  H14  1  0.67934000  0.05034000  0.94608000  1.0
  H  H15  1  0.17934000  0.94966000  0.55392000  1.0
  H  H16  1  0.15769000  0.92308000  0.01507000  1.0
  H  H17  1  0.65769000  0.07693000  0.48493000  1.0
  H  H18  1  0.84230000  0.07690000  0.98494000  1.0
  H  H19  1  0.34230000  0.92310000  0.51507000  1.0
  H  H20  1  0.98717000  0.34323000  0.82528000  1.0
  H  H21  1  0.48717000  0.65677000  0.67472000  1.0
  H  H22  1  0.01283000  0.65677000  0.17472000  1.0
  H  H23  1  0.51283000  0.34323000  0.32528000  1.0
  H  H24  1  0.12358000  0.43059000  0.87551000  1.0
  H  H25  1  0.62358000  0.56940000  0.62448000  1.0
  H  H26  1  0.87642000  0.56940000  0.12449000  1.0
  H  H27  1  0.37642000  0.43060000  0.37551000  1.0
  H  H28  1  0.14405000  0.32801000  0.77164000  1.0
  H  H29  1  0.64406000  0.67198000  0.72835000  1.0
  H  H30  1  0.85595000  0.67197000  0.22836000  1.0
  H  H31  1  0.35594000  0.32802000  0.27165000  1.0
  H  H32  1  0.32906000  0.09120000  0.86135000  1.0
  H  H33  1  0.82906000  0.90880000  0.63865000  1.0
  H  H34  1  0.67095000  0.90881000  0.13865000  1.0
  H  H35  1  0.17094000  0.09120000  0.36135000  1.0
  H  H36  1  0.43057000  0.21301000  0.85258000  1.0
  H  H37  1  0.93057000  0.78699000  0.64742000  1.0
  H  H38  1  0.56944000  0.78699000  0.14741000  1.0
  H  H39  1  0.06942000  0.21301000  0.35259000  1.0
  H  H40  1  0.49020000  0.10896000  0.90693000  1.0
  H  H41  1  0.99021000  0.89103000  0.59308000  1.0
  H  H42  1  0.50981000  0.89104000  0.09306000  1.0
  H  H43  1  0.00980000  0.10896000  0.40694000  1.0
  H  H44  1  0.43401000  0.78752000  0.80135000  1.0
  H  H45  1  0.93401000  0.21248000  0.69865000  1.0
  H  H46  1  0.56599000  0.21248000  0.19864000  1.0
  H  H47  1  0.06599000  0.78753000  0.30135000  1.0
  C  C48  1  0.26102000  0.76602000  0.01829000  1.0
  C  C49  1  0.76101000  0.23399000  0.48171000  1.0
  C  C50  1  0.73899000  0.23397000  0.98171000  1.0
  C  C51  1  0.23899000  0.76602000  0.51829000  1.0
  C  C52  1  0.25838000  0.88798000  0.00552000  1.0
  C  C53  1  0.75838000  0.11202000  0.49448000  1.0
  C  C54  1  0.74162000  0.11201000  0.99449000  1.0
  C  C55  1  0.24163000  0.88799000  0.50551000  1.0
  C  C56  1  0.03681000  0.48650000  0.77071000  1.0
  C  C57  1  0.53681000  0.51349000  0.72928000  1.0
  C  C58  1  0.96319000  0.51349000  0.22928000  1.0
  C  C59  1  0.46319000  0.48651000  0.27072000  1.0
  C  C60  1  0.07417000  0.39130000  0.81267000  1.0
  C  C61  1  0.57418000  0.60869000  0.68732000  1.0
  C  C62  1  0.92582000  0.60869000  0.18733000  1.0
  C  C63  1  0.42582000  0.39131000  0.31268000  1.0
  C  C64  1  0.48365000  0.04459000  0.76729000  1.0
  C  C65  1  0.98365000  0.95541000  0.73271000  1.0
  C  C66  1  0.51635000  0.95541000  0.23270000  1.0
  C  C67  1  0.01635000  0.04459000  0.26730000  1.0
  C  C68  1  0.42986000  0.11804000  0.85173000  1.0
  C  C69  1  0.92987000  0.88196000  0.64827000  1.0
  C  C70  1  0.57014000  0.88196000  0.14826000  1.0
  C  C71  1  0.07013000  0.11804000  0.35174000  1.0
  N  N72  1  0.26774000  0.66205000  0.95544000  1.0
  N  N73  1  0.76775000  0.33795000  0.54456000  1.0
  N  N74  1  0.73226000  0.33794000  0.04455000  1.0
  N  N75  1  0.23226000  0.66206000  0.45544000  1.0
  N  N76  1  0.25723000  0.57238000  0.99560000  1.0
  N  N77  1  0.75723000  0.42762000  0.50440000  1.0
  N  N78  1  0.74277000  0.42761000  0.00440000  1.0
  N  N79  1  0.24277000  0.57239000  0.49560000  1.0
  N  N80  1  0.24632000  0.61946000  0.07945000  1.0
  N  N81  1  0.74632000  0.38054000  0.42055000  1.0
  N  N82  1  0.75368000  0.38053000  0.92055000  1.0
  N  N83  1  0.25368000  0.61946000  0.57945000  1.0
  N  N84  1  0.24934000  0.74070000  0.09562000  1.0
  N  N85  1  0.74935000  0.25930000  0.40437000  1.0
  N  N86  1  0.75065000  0.25929000  0.90437000  1.0
  N  N87  1  0.25066000  0.74070000  0.59562000  1.0
  N  N88  1  0.10854000  0.58473000  0.77499000  1.0
  N  N89  1  0.60853000  0.41526000  0.72500000  1.0
  N  N90  1  0.89147000  0.41526000  0.22501000  1.0
  N  N91  1  0.39146000  0.58474000  0.27499000  1.0
  N  N92  1  0.04192000  0.65216000  0.73159000  1.0
  N  N93  1  0.54192000  0.34784000  0.76841000  1.0
  N  N94  1  0.95808000  0.34784000  0.26841000  1.0
  N  N95  1  0.45808000  0.65216000  0.23159000  1.0
  N  N96  1  0.93381000  0.59733000  0.70107000  1.0
  N  N97  1  0.43381000  0.40267000  0.79893000  1.0
  N  N98  1  0.06619000  0.40267000  0.29893000  1.0
  N  N99  1  0.56619000  0.59733000  0.20107000  1.0
  N  N100  1  0.92787000  0.49255000  0.72415000  1.0
  N  N101  1  0.42787000  0.50745000  0.77584000  1.0
  N  N102  1  0.07214000  0.50744000  0.27585000  1.0
  N  N103  1  0.57214000  0.49256000  0.22416000  1.0
  N  N104  1  0.41908000  0.95929000  0.70724000  1.0
  N  N105  1  0.91908000  0.04071000  0.79277000  1.0
  N  N106  1  0.58092000  0.04071000  0.29276000  1.0
  N  N107  1  0.08092000  0.95929000  0.20724000  1.0
  N  N108  1  0.50289000  0.91696000  0.63870000  1.0
  N  N109  1  0.00289000  0.08305000  0.86131000  1.0
  N  N110  1  0.49711000  0.08304000  0.36130000  1.0
  N  N111  1  0.99711000  0.91697000  0.13869000  1.0
  N  N112  1  0.61346000  0.97373000  0.65605000  1.0
  N  N113  1  0.11347000  0.02627000  0.84396000  1.0
  N  N114  1  0.38654000  0.02627000  0.34395000  1.0
  N  N115  1  0.88654000  0.97374000  0.15605000  1.0
  N  N116  1  0.60488000  0.05396000  0.73629000  1.0
  N  N117  1  0.10488000  0.94604000  0.76372000  1.0
  N  N118  1  0.39513000  0.94604000  0.26370000  1.0
  N  N119  1  0.89512000  0.05396000  0.23629000  1.0
  O  O120  1  0.33933000  0.77946000  0.80240000  1.0
  O  O121  1  0.83933000  0.22055000  0.69761000  1.0
  O  O122  1  0.66067000  0.22054000  0.19760000  1.0
  O  O123  1  0.16067000  0.77946000  0.30240000  1.0
