# generated using pymatgen
data_Zn3H12C26BrO12
_symmetry_space_group_name_H-M   'P 1'
_cell_length_a   18.55360000
_cell_length_b   18.63920000
_cell_length_c   18.68413740
_cell_angle_alpha   109.69062997
_cell_angle_beta   109.27656062
_cell_angle_gamma   109.20700000
_symmetry_Int_Tables_number   1
_chemical_formula_structural   Zn3H12C26BrO12
_chemical_formula_sum   'Zn6 H24 C52 Br2 O24'
_cell_volume   4988.57754288
_cell_formula_units_Z   2
loop_
 _symmetry_equiv_pos_site_id
 _symmetry_equiv_pos_as_xyz
  1  'x, y, z'
loop_
 _atom_site_type_symbol
 _atom_site_label
 _atom_site_symmetry_multiplicity
 _atom_site_fract_x
 _atom_site_fract_y
 _atom_site_fract_z
 _atom_site_occupancy
  Zn  Zn0  1  0.99152000  0.56373000  0.06127000  1.0
  Zn  Zn1  1  0.00106000  0.44110000  0.94240000  1.0
  Zn  Zn2  1  0.56304000  0.56191000  0.50025000  1.0
  Zn  Zn3  1  0.43308000  0.44542000  0.50363000  1.0
  Zn  Zn4  1  0.56155000  0.99957000  0.06275000  1.0
  Zn  Zn5  1  0.43679000  0.99569000  0.93283000  1.0
  H  H6  1  0.82614000  0.62773000  0.88320000  1.0
  H  H7  1  0.63545000  0.28928000  0.22219000  1.0
  H  H8  1  0.63162000  0.41316000  0.32578000  1.0
  H  H9  1  0.55765000  0.64376000  0.77429000  1.0
  H  H10  1  0.57025000  0.81439000  0.66499000  1.0
  H  H11  1  0.65902000  0.18930000  0.70711000  1.0
  H  H12  1  0.55565000  0.16476000  0.56402000  1.0
  H  H13  1  0.70599000  0.60433000  0.75171000  1.0
  H  H14  1  0.84760000  0.19444000  0.95143000  1.0
  H  H15  1  0.72489000  0.09225000  0.95737000  1.0
  H  H16  1  0.60796000  0.25740000  0.95864000  1.0
  H  H17  1  0.73905000  0.36739000  0.96958000  1.0
  H  H18  1  0.21527000  0.50208000  0.39409000  1.0
  H  H19  1  0.11338000  0.59818000  0.83072000  1.0
  H  H20  1  0.35033000  0.87441000  0.10798000  1.0
  H  H21  1  0.56268000  0.75181000  0.90252000  1.0
  H  H22  1  0.55805000  0.91379000  0.78434000  1.0
  H  H23  1  0.25505000  0.52442000  0.15043000  1.0
  H  H24  1  0.36701000  0.51677000  0.26295000  1.0
  H  H25  1  0.11127000  0.52457000  0.28992000  1.0
  H  H26  1  0.21754000  0.72119000  0.82684000  1.0
  H  H27  1  0.23638000  0.75795000  0.11012000  1.0
  H  H28  1  0.39788000  0.22830000  0.29881000  1.0
  H  H29  1  0.76959000  0.34005000  0.82728000  1.0
  C  C30  1  0.87915000  0.35638000  0.97185000  1.0
  C  C31  1  0.66147000  0.24492000  0.95895000  1.0
  C  C32  1  0.73370000  0.30546000  0.96381000  1.0
  C  C33  1  0.86397000  0.50858000  0.90520000  1.0
  C  C34  1  0.80094000  0.28745000  0.96168000  1.0
  C  C35  1  0.24843000  0.52219000  0.20554000  1.0
  C  C36  1  0.30975000  0.51652000  0.26714000  1.0
  C  C37  1  0.29712000  0.50819000  0.33456000  1.0
  C  C38  1  0.22470000  0.50933000  0.34185000  1.0
  C  C39  1  0.16650000  0.52119000  0.28349000  1.0
  C  C40  1  0.17719000  0.52583000  0.21409000  1.0
  C  C41  1  0.71946000  0.40292000  0.76127000  1.0
  C  C42  1  0.16404000  0.65982000  0.89083000  1.0
  C  C43  1  0.22245000  0.72799000  0.88879000  1.0
  C  C44  1  0.29007000  0.80478000  0.96729000  1.0
  C  C45  1  0.10562000  0.60049000  0.97468000  1.0
  C  C46  1  0.29656000  0.81481000  0.04741000  1.0
  C  C47  1  0.23428000  0.74961000  0.04874000  1.0
  C  C48  1  0.16908000  0.67093000  0.97065000  1.0
  C  C49  1  0.51198000  0.40102000  0.38084000  1.0
  C  C50  1  0.58090000  0.46456000  0.61118000  1.0
  C  C51  1  0.54987000  0.65261000  0.63241000  1.0
  C  C52  1  0.78346000  0.49071000  0.83187000  1.0
  C  C53  1  0.36299000  0.49964000  0.39805000  1.0
  C  C54  1  0.51821000  0.11681000  0.13419000  1.0
  C  C55  1  0.59031000  0.10985000  0.96705000  1.0
  C  C56  1  0.54336000  0.89341000  0.91511000  1.0
  C  C57  1  0.11129000  0.52905000  0.14489000  1.0
  C  C58  1  0.35864000  0.87586000  0.96864000  1.0
  C  C59  1  0.44943000  0.24135000  0.28140000  1.0
  C  C60  1  0.45168000  0.17306000  0.22330000  1.0
  C  C61  1  0.51817000  0.18938000  0.20110000  1.0
  C  C62  1  0.58342000  0.27641000  0.23905000  1.0
  C  C63  1  0.77728000  0.56154000  0.82874000  1.0
  C  C64  1  0.58140000  0.34543000  0.29647000  1.0
  C  C65  1  0.51424000  0.32812000  0.31771000  1.0
  C  C66  1  0.56170000  0.70509000  0.77921000  1.0
  C  C67  1  0.56300000  0.76432000  0.84966000  1.0
  C  C68  1  0.55883000  0.83802000  0.84969000  1.0
  C  C69  1  0.71985000  0.32940000  0.76793000  1.0
  C  C70  1  0.56176000  0.85635000  0.78348000  1.0
  C  C71  1  0.56736000  0.80055000  0.71652000  1.0
  C  C72  1  0.56319000  0.72269000  0.71222000  1.0
  C  C73  1  0.65901000  0.24516000  0.70027000  1.0
  C  C74  1  0.71009000  0.54818000  0.75431000  1.0
  C  C75  1  0.59943000  0.23091000  0.62011000  1.0
  C  C76  1  0.59828000  0.30110000  0.61102000  1.0
  C  C77  1  0.65274000  0.38946000  0.68278000  1.0
  C  C78  1  0.64905000  0.46492000  0.68259000  1.0
  C  C79  1  0.79588000  0.20855000  0.95476000  1.0
  C  C80  1  0.72703000  0.15119000  0.95678000  1.0
  C  C81  1  0.65986000  0.16926000  0.95888000  1.0
  Br  Br82  1  0.36261000  0.05557000  0.17433000  1.0
  Br  Br83  1  0.52837000  0.27322000  0.49431000  1.0
  O  O84  1  0.90430000  0.43498000  0.02453000  1.0
  O  O85  1  0.46441000  0.08683000  0.05494000  1.0
  O  O86  1  0.61649000  0.08753000  0.02345000  1.0
  O  O87  1  0.91506000  0.33315000  0.92639000  1.0
  O  O88  1  0.50952000  0.08528000  0.91715000  1.0
  O  O89  1  0.58699000  0.91534000  0.99604000  1.0
  O  O90  1  0.48682000  0.91498000  0.88564000  1.0
  O  O91  1  0.43726000  0.91022000  0.02846000  1.0
  O  O92  1  0.33430000  0.89811000  0.91040000  1.0
  O  O93  1  0.89190000  0.56684000  0.98399000  1.0
  O  O94  1  0.90206000  0.46650000  0.88405000  1.0
  O  O95  1  0.45415000  0.38087000  0.40357000  1.0
  O  O96  1  0.08203000  0.62507000  0.03098000  1.0
  O  O97  1  0.08018000  0.52038000  0.92194000  1.0
  O  O98  1  0.07605000  0.57548000  0.16713000  1.0
  O  O99  1  0.09456000  0.48433000  0.06711000  1.0
  O  O100  1  0.56981000  0.48000000  0.40874000  1.0
  O  O101  1  0.60980000  0.51260000  0.58158000  1.0
  O  O102  1  0.49974000  0.42273000  0.59016000  1.0
  O  O103  1  0.59718000  0.67279000  0.59745000  1.0
  O  O104  1  0.49025000  0.57578000  0.60347000  1.0
  O  O105  1  0.44235000  0.54107000  0.41695000  1.0
  O  O106  1  0.33529000  0.45063000  0.42871000  1.0
  O  O107  1  0.57382000  0.09269000  0.16236000  1.0
