# generated using pymatgen
data_CuSiH4C8(N2F5)2
_symmetry_space_group_name_H-M   'P 1'
_cell_length_a   7.03832000
_cell_length_b   7.03910000
_cell_length_c   7.96561000
_cell_angle_alpha   100.38660000
_cell_angle_beta   100.38690000
_cell_angle_gamma   94.24870000
_symmetry_Int_Tables_number   1
_chemical_formula_structural   CuSiH4C8(N2F5)2
_chemical_formula_sum   'Cu1 Si1 H4 C8 N4 F10'
_cell_volume   379.49148379
_cell_formula_units_Z   1
loop_
 _symmetry_equiv_pos_site_id
 _symmetry_equiv_pos_as_xyz
  1  'x, y, z'
loop_
 _atom_site_type_symbol
 _atom_site_label
 _atom_site_symmetry_multiplicity
 _atom_site_fract_x
 _atom_site_fract_y
 _atom_site_fract_z
 _atom_site_occupancy
  Cu  Cu0  1  0.50000000  0.50000000  0.50001000  1.0
  Si  Si1  1  0.50002000  0.50000000  0.00001000  1.0
  H  H2  1  0.25249000  0.63075000  0.75676000  1.0
  H  H3  1  0.74751000  0.36925000  0.24326000  1.0
  H  H4  1  0.63066000  0.25244000  0.75677000  1.0
  H  H5  1  0.36933000  0.74756000  0.24321000  1.0
  C  C6  1  0.94679000  0.57353000  0.64724000  1.0
  C  C7  1  0.05324000  0.42648000  0.35276000  1.0
  C  C8  1  0.14308000  0.57275000  0.63925000  1.0
  C  C9  1  0.85692000  0.42726000  0.36077000  1.0
  C  C10  1  0.57345000  0.94676000  0.64725000  1.0
  C  C11  1  0.42651000  0.05320000  0.35275000  1.0
  C  C12  1  0.57269000  0.14305000  0.63923000  1.0
  C  C13  1  0.42728000  0.85693000  0.36072000  1.0
  N  N14  1  0.80320000  0.50346000  0.51003000  1.0
  N  N15  1  0.19682000  0.49654000  0.48998000  1.0
  N  N16  1  0.50344000  0.80320000  0.51003000  1.0
  N  N17  1  0.49655000  0.19679000  0.48998000  1.0
  F  F18  1  0.46855000  0.46857000  0.20818000  1.0
  F  F19  1  0.53146000  0.53142000  0.79183000  1.0
  F  F20  1  0.33369000  0.66635000  0.00001000  1.0
  F  F21  1  0.66634000  0.33366000  0.00001000  1.0
  F  F22  1  0.32005000  0.32011000  0.90294000  1.0
  F  F23  1  0.67997000  0.67990000  0.09708000  1.0
  F  F24  1  0.90124000  0.64719000  0.79763000  1.0
  F  F25  1  0.09877000  0.35285000  0.20238000  1.0
  F  F26  1  0.64701000  0.90124000  0.79763000  1.0
  F  F27  1  0.35292000  0.09876000  0.20235000  1.0
