# generated using pymatgen
data_ZnH10C29N4(OF)4
_symmetry_space_group_name_H-M   'P 1'
_cell_length_a   17.12020000
_cell_length_b   18.38790000
_cell_length_c   19.60070000
_cell_angle_alpha   91.17220000
_cell_angle_beta   90.23830000
_cell_angle_gamma   94.79390000
_symmetry_Int_Tables_number   1
_chemical_formula_structural   ZnH10C29N4(OF)4
_chemical_formula_sum   'Zn2 H20 C58 N8 O8 F8'
_cell_volume   6147.41014159
_cell_formula_units_Z   2
loop_
 _symmetry_equiv_pos_site_id
 _symmetry_equiv_pos_as_xyz
  1  'x, y, z'
loop_
 _atom_site_type_symbol
 _atom_site_label
 _atom_site_symmetry_multiplicity
 _atom_site_fract_x
 _atom_site_fract_y
 _atom_site_fract_z
 _atom_site_occupancy
  Zn  Zn0  1  0.49972000  0.42254000  0.48965000  1.0
  Zn  Zn1  1  0.50250000  0.57794000  0.49686000  1.0
  H  H2  1  0.26984000  0.59956000  0.56470000  1.0
  H  H3  1  0.73761000  0.40436000  0.54189000  1.0
  H  H4  1  0.60046000  0.43885000  0.93146000  1.0
  H  H5  1  0.39381000  0.56137000  0.05537000  1.0
  H  H6  1  0.56746000  0.31522000  0.57186000  1.0
  H  H7  1  0.43907000  0.68677000  0.41264000  1.0
  H  H8  1  0.57181000  0.17894000  0.57856000  1.0
  H  H9  1  0.43428000  0.82305000  0.40774000  1.0
  H  H10  1  0.55227000  0.93192000  0.39655000  1.0
  H  H11  1  0.44934000  0.06883000  0.59332000  1.0
  H  H12  1  0.01170000  0.58523000  0.57482000  1.0
  H  H13  1  0.99556000  0.41842000  0.59321000  1.0
  H  H14  1  0.87668000  0.40928000  0.57808000  1.0
  H  H15  1  0.13131000  0.59326000  0.60290000  1.0
  H  H16  1  0.50338000  0.60704000  0.70727000  1.0
  H  H17  1  0.49668000  0.38947000  0.27759000  1.0
  H  H18  1  0.49794000  0.37854000  0.83933000  1.0
  H  H19  1  0.49572000  0.62029000  0.14987000  1.0
  H  H20  1  0.50085000  0.37294000  0.71141000  1.0
  H  H21  1  0.49502000  0.62348000  0.27765000  1.0
  C  C22  1  0.49734000  0.50745000  0.36198000  1.0
  C  C23  1  0.50375000  0.48717000  0.62552000  1.0
  C  C24  1  0.50156000  0.55686000  0.73596000  1.0
  C  C25  1  0.49678000  0.44022000  0.24998000  1.0
  C  C26  1  0.49917000  0.55860000  0.80654000  1.0
  C  C27  1  0.49674000  0.43977000  0.17936000  1.0
  C  C28  1  0.49794000  0.49541000  0.84549000  1.0
  C  C29  1  0.49666000  0.50363000  0.14147000  1.0
  C  C30  1  0.49953000  0.42838000  0.80990000  1.0
  C  C31  1  0.49517000  0.56988000  0.17835000  1.0
  C  C32  1  0.50118000  0.42500000  0.73898000  1.0
  C  C33  1  0.49504000  0.57188000  0.24939000  1.0
  C  C34  1  0.50224000  0.48933000  0.70179000  1.0
  C  C35  1  0.49627000  0.50701000  0.28556000  1.0
  C  C36  1  0.55417000  0.46504000  0.95797000  1.0
  C  C37  1  0.44016000  0.53518000  0.02892000  1.0
  C  C38  1  0.55329000  0.46719000  0.02868000  1.0
  C  C39  1  0.44118000  0.53320000  0.95817000  1.0
  C  C40  1  0.49682000  0.50156000  0.06619000  1.0
  C  C41  1  0.49742000  0.49852000  0.92072000  1.0
  C  C42  1  0.53626000  0.27762000  0.53553000  1.0
  C  C43  1  0.46819000  0.72376000  0.45069000  1.0
  C  C44  1  0.35072000  0.49533000  0.51295000  1.0
  C  C45  1  0.65292000  0.51086000  0.50488000  1.0
  C  C46  1  0.53747000  0.20266000  0.53913000  1.0
  C  C47  1  0.46675000  0.79878000  0.44811000  1.0
  C  C48  1  0.49576000  0.15715000  0.49059000  1.0
  C  C49  1  0.50572000  0.84362000  0.49874000  1.0
  C  C50  1  0.45304000  0.19068000  0.44130000  1.0
  C  C51  1  0.54571000  0.80930000  0.54934000  1.0
  C  C52  1  0.45479000  0.26689000  0.44128000  1.0
  C  C53  1  0.54373000  0.73305000  0.54862000  1.0
  C  C54  1  0.52629000  0.03738000  0.43624000  1.0
  C  C55  1  0.47537000  0.96339000  0.55363000  1.0
  C  C56  1  0.52895000  0.96151000  0.43958000  1.0
  C  C57  1  0.47277000  0.03930000  0.55029000  1.0
  C  C58  1  0.50400000  0.92382000  0.49767000  1.0
  C  C59  1  0.49764000  0.07695000  0.49218000  1.0
  C  C60  1  0.26866000  0.48586000  0.54022000  1.0
  C  C61  1  0.73702000  0.51910000  0.52820000  1.0
  C  C62  1  0.23387000  0.54780000  0.56411000  1.0
  C  C63  1  0.77298000  0.45633000  0.54596000  1.0
  C  C64  1  0.15654000  0.54389000  0.58494000  1.0
  C  C65  1  0.85067000  0.45966000  0.56629000  1.0
  C  C66  1  0.10934000  0.47744000  0.58143000  1.0
  C  C67  1  0.89718000  0.52652000  0.56945000  1.0
  C  C68  1  0.14598000  0.41322000  0.56337000  1.0
  C  C69  1  0.86034000  0.59092000  0.55459000  1.0
  C  C70  1  0.22565000  0.41716000  0.54272000  1.0
  C  C71  1  0.78049000  0.58751000  0.53381000  1.0
  C  C72  1  0.02460000  0.47327000  0.58868000  1.0
  C  C73  1  0.98149000  0.53098000  0.58049000  1.0
  C  C74  1  0.55553000  0.07431000  0.37705000  1.0
  C  C75  1  0.44548000  0.92658000  0.61266000  1.0
  C  C76  1  0.74851000  0.65492000  0.51888000  1.0
  C  C77  1  0.25823000  0.35018000  0.52484000  1.0
  C  C78  1  0.10040000  0.34463000  0.56343000  1.0
  C  C79  1  0.90534000  0.65973000  0.55957000  1.0
  N  N80  1  0.49558000  0.30902000  0.48648000  1.0
  N  N81  1  0.50619000  0.69158000  0.50099000  1.0
  N  N82  1  0.58026000  0.10456000  0.32891000  1.0
  N  N83  1  0.42006000  0.89644000  0.66062000  1.0
  N  N84  1  0.72997000  0.71349000  0.50874000  1.0
  N  N85  1  0.27814000  0.29202000  0.51295000  1.0
  N  N86  1  0.06025000  0.29003000  0.56456000  1.0
  N  N87  1  0.94489000  0.71456000  0.56477000  1.0
  O  O88  1  0.50556000  0.44664000  0.38997000  1.0
  O  O89  1  0.50887000  0.54866000  0.59632000  1.0
  O  O90  1  0.49024000  0.56802000  0.39338000  1.0
  O  O91  1  0.49956000  0.42486000  0.59551000  1.0
  O  O92  1  0.38217000  0.43750000  0.49636000  1.0
  O  O93  1  0.62159000  0.56909000  0.49139000  1.0
  O  O94  1  0.38133000  0.56052000  0.50899000  1.0
  O  O95  1  0.62044000  0.44613000  0.50161000  1.0
  F  F96  1  0.61169000  0.43681000  0.06251000  1.0
  F  F97  1  0.38306000  0.56390000  0.92420000  1.0
  F  F98  1  0.40937000  0.15136000  0.39427000  1.0
  F  F99  1  0.58703000  0.84774000  0.59835000  1.0
  F  F100  1  0.41460000  0.29899000  0.39380000  1.0
  F  F101  1  0.58004000  0.70033000  0.59814000  1.0
  F  F102  1  0.50063000  0.62472000  0.83928000  1.0
  F  F103  1  0.49450000  0.37419000  0.14552000  1.0
