# generated using pymatgen
data_HoH8C6O7
_symmetry_space_group_name_H-M   'P 1'
_cell_length_a   7.62032000
_cell_length_b   10.66945886
_cell_length_c   12.64530000
_cell_angle_alpha   72.07366524
_cell_angle_beta   72.46900000
_cell_angle_gamma   69.08562409
_symmetry_Int_Tables_number   1
_chemical_formula_structural   HoH8C6O7
_chemical_formula_sum   'Ho4 H32 C24 O28'
_cell_volume   892.33182848
_cell_formula_units_Z   4
loop_
 _symmetry_equiv_pos_site_id
 _symmetry_equiv_pos_as_xyz
  1  'x, y, z'
loop_
 _atom_site_type_symbol
 _atom_site_label
 _atom_site_symmetry_multiplicity
 _atom_site_fract_x
 _atom_site_fract_y
 _atom_site_fract_z
 _atom_site_occupancy
  Ho  Ho0  1  0.44522000  0.81066000  0.72960000  1.0
  Ho  Ho1  1  0.98545000  0.68940000  0.77034000  1.0
  Ho  Ho2  1  0.55478000  0.18934000  0.27040000  1.0
  Ho  Ho3  1  0.01454000  0.31060000  0.22966000  1.0
  H  H4  1  0.19180000  0.79817000  0.35067000  1.0
  H  H5  1  0.34081000  0.70169000  0.14923000  1.0
  H  H6  1  0.80820000  0.20183000  0.64934000  1.0
  H  H7  1  0.65920000  0.29831000  0.85077000  1.0
  H  H8  1  0.09557000  0.83576000  0.48571000  1.0
  H  H9  1  0.41721000  0.66419000  0.01415000  1.0
  H  H10  1  0.90443000  0.16424000  0.51429000  1.0
  H  H11  1  0.58279000  0.33581000  0.98585000  1.0
  H  H12  1  0.86882000  0.75813000  0.36252000  1.0
  H  H13  1  0.98974000  0.74185000  0.13741000  1.0
  H  H14  1  0.13118000  0.24187000  0.63748000  1.0
  H  H15  1  0.01026000  0.25815000  0.86259000  1.0
  H  H16  1  0.01279000  0.63623000  0.45941000  1.0
  H  H17  1  0.10879000  0.86371000  0.04056000  1.0
  H  H18  1  0.98721000  0.36377000  0.54059000  1.0
  H  H19  1  0.89122000  0.13629000  0.95944000  1.0
  H  H20  1  0.69679000  0.99975000  0.91748000  1.0
  H  H21  1  0.61404000  0.50009000  0.58259000  1.0
  H  H22  1  0.30322000  0.00025000  0.08252000  1.0
  H  H23  1  0.38596000  0.49991000  0.41741000  1.0
  H  H24  1  0.65683000  0.86329000  0.03088000  1.0
  H  H25  1  0.55112000  0.63666000  0.46921000  1.0
  H  H26  1  0.34317000  0.13671000  0.96912000  1.0
  H  H27  1  0.44888000  0.36334000  0.53079000  1.0
  H  H28  1  0.69339000  0.99498000  0.64706000  1.0
  H  H29  1  0.33529000  0.50504000  0.85299000  1.0
  H  H30  1  0.30661000  0.00502000  0.35294000  1.0
  H  H31  1  0.66471000  0.49496000  0.14701000  1.0
  H  H32  1  0.50688000  0.07709000  0.58794000  1.0
  H  H33  1  0.17185000  0.42288000  0.91208000  1.0
  H  H34  1  0.49312000  0.92291000  0.41205000  1.0
  H  H35  1  0.82815000  0.57712000  0.08792000  1.0
  C  C36  1  0.96532000  0.98641000  0.35432000  1.0
  C  C37  1  0.30621000  0.51347000  0.14553000  1.0
  C  C38  1  0.03468000  0.01359000  0.64568000  1.0
  C  C39  1  0.69379000  0.48653000  0.85447000  1.0
  C  C40  1  0.52931000  0.89366000  0.89396000  1.0
  C  C41  1  0.31699000  0.60627000  0.60604000  1.0
  C  C42  1  0.47069000  0.10634000  0.10603000  1.0
  C  C43  1  0.68301000  0.39373000  0.39396000  1.0
  C  C44  1  0.75937000  0.76814000  0.53671000  1.0
  C  C45  1  0.06410000  0.73203000  0.96319000  1.0
  C  C46  1  0.24063000  0.23185000  0.46329000  1.0
  C  C47  1  0.93590000  0.26797000  0.03681000  1.0
  C  C48  1  0.05530000  0.83698000  0.40885000  1.0
  C  C49  1  0.30131000  0.66293000  0.09099000  1.0
  C  C50  1  0.94470000  0.16302000  0.59116000  1.0
  C  C51  1  0.69869000  0.33707000  0.90901000  1.0
  C  C52  1  0.92622000  0.74382000  0.43654000  1.0
  C  C53  1  0.10679000  0.75615000  0.06336000  1.0
  C  C54  1  0.07378000  0.25618000  0.56346000  1.0
  C  C55  1  0.89321000  0.24385000  0.93664000  1.0
  C  C56  1  0.58476000  0.95016000  0.97005000  1.0
  C  C57  1  0.50505000  0.54976000  0.52999000  1.0
  C  C58  1  0.41524000  0.04984000  0.02995000  1.0
  C  C59  1  0.49495000  0.45024000  0.47001000  1.0
  O  O60  1  0.79718000  0.01838000  0.33911000  1.0
  O  O61  1  0.15473000  0.48153000  0.16093000  1.0
  O  O62  1  0.20282000  0.98162000  0.66090000  1.0
  O  O63  1  0.84527000  0.51847000  0.83907000  1.0
  O  O64  1  0.35858000  0.93096000  0.88146000  1.0
  O  O65  1  0.17106000  0.56899000  0.61849000  1.0
  O  O66  1  0.64142000  0.06904000  0.11854000  1.0
  O  O67  1  0.82894000  0.43101000  0.38150000  1.0
  O  O68  1  0.58626000  0.81906000  0.52480000  1.0
  O  O69  1  0.92998000  0.68111000  0.97513000  1.0
  O  O70  1  0.41374000  0.18094000  0.47520000  1.0
  O  O71  1  0.07003000  0.31889000  0.02487000  1.0
  O  O72  1  0.65955000  0.80454000  0.83971000  1.0
  O  O73  1  0.30381000  0.69545000  0.66027000  1.0
  O  O74  1  0.34045000  0.19546000  0.16029000  1.0
  O  O75  1  0.69618000  0.30455000  0.33973000  1.0
  O  O76  1  0.78850000  0.73407000  0.63820000  1.0
  O  O77  1  0.16056000  0.76615000  0.86168000  1.0
  O  O78  1  0.21150000  0.26593000  0.36180000  1.0
  O  O79  1  0.83944000  0.23385000  0.13832000  1.0
  O  O80  1  0.06536000  0.07035000  0.32761000  1.0
  O  O81  1  0.46350000  0.42953000  0.17217000  1.0
  O  O82  1  0.93464000  0.92965000  0.67239000  1.0
  O  O83  1  0.53650000  0.57047000  0.82783000  1.0
  O  O84  1  0.55422000  0.01062000  0.65538000  1.0
  O  O85  1  0.22013000  0.48936000  0.84463000  1.0
  O  O86  1  0.44578000  0.98938000  0.34462000  1.0
  O  O87  1  0.77987000  0.51064000  0.15537000  1.0
