# generated using pymatgen
data_MoH11C10NO4
_symmetry_space_group_name_H-M   'P 1'
_cell_length_a   7.55561000
_cell_length_b   8.42365000
_cell_length_c   9.71425000
_cell_angle_alpha   99.41750000
_cell_angle_beta   112.84900000
_cell_angle_gamma   102.79800000
_symmetry_Int_Tables_number   1
_chemical_formula_structural   MoH11C10NO4
_chemical_formula_sum   'Mo2 H22 C20 N2 O8'
_cell_volume   533.73286094
_cell_formula_units_Z   2
loop_
 _symmetry_equiv_pos_site_id
 _symmetry_equiv_pos_as_xyz
  1  'x, y, z'
loop_
 _atom_site_type_symbol
 _atom_site_label
 _atom_site_symmetry_multiplicity
 _atom_site_fract_x
 _atom_site_fract_y
 _atom_site_fract_z
 _atom_site_occupancy
  Mo  Mo0  1  0.05501000  0.56962000  0.43449000  1.0
  Mo  Mo1  1  0.94496000  0.43034000  0.56555000  1.0
  H  H2  1  0.05515000  0.95514000  0.34415000  1.0
  H  H3  1  0.94484000  0.04484000  0.65585000  1.0
  H  H4  1  0.23012000  0.08339000  0.29177000  1.0
  H  H5  1  0.76987000  0.91661000  0.70824000  1.0
  H  H6  1  0.96947000  0.01066000  0.16529000  1.0
  H  H7  1  0.03053000  0.98934000  0.83472000  1.0
  H  H8  1  0.60265000  0.55313000  0.94031000  1.0
  H  H9  1  0.39737000  0.44686000  0.05971000  1.0
  H  H10  1  0.65316000  0.76220000  0.91880000  1.0
  H  H11  1  0.34684000  0.23778000  0.08119000  1.0
  H  H12  1  0.69411000  0.60375000  0.80154000  1.0
  H  H13  1  0.30586000  0.39623000  0.19846000  1.0
  H  H14  1  0.98411000  0.61714000  0.07799000  1.0
  H  H15  1  0.01591000  0.38288000  0.92200000  1.0
  H  H16  1  0.69393000  0.97277000  0.36654000  1.0
  H  H17  1  0.30608000  0.02723000  0.63344000  1.0
  H  H18  1  0.13759000  0.77327000  0.93758000  1.0
  H  H19  1  0.86242000  0.22675000  0.06241000  1.0
  H  H20  1  0.51660000  0.78882000  0.48294000  1.0
  H  H21  1  0.48342000  0.21119000  0.51705000  1.0
  H  H22  1  0.68319000  0.08789000  0.15945000  1.0
  H  H23  1  0.31682000  0.91212000  0.84055000  1.0
  C  C24  1  0.07954000  0.05568000  0.28888000  1.0
  C  C25  1  0.92045000  0.94432000  0.71113000  1.0
  C  C26  1  0.05490000  0.21272000  0.36651000  1.0
  C  C27  1  0.94510000  0.78728000  0.63349000  1.0
  C  C28  1  0.38427000  0.58456000  0.73343000  1.0
  C  C29  1  0.61573000  0.41544000  0.26657000  1.0
  C  C30  1  0.59616000  0.62667000  0.85639000  1.0
  C  C31  1  0.40383000  0.37331000  0.14361000  1.0
  C  C32  1  0.14281000  0.69501000  0.13694000  1.0
  C  C33  1  0.85720000  0.30501000  0.86306000  1.0
  C  C34  1  0.53688000  0.89334000  0.29764000  1.0
  C  C35  1  0.46312000  0.10667000  0.70235000  1.0
  C  C36  1  0.43216000  0.89149000  0.14145000  1.0
  C  C37  1  0.56786000  0.10852000  0.85854000  1.0
  C  C38  1  0.22954000  0.78580000  0.05965000  1.0
  C  C39  1  0.77047000  0.21421000  0.94034000  1.0
  C  C40  1  0.43922000  0.79299000  0.36330000  1.0
  C  C41  1  0.56079000  0.20701000  0.63669000  1.0
  C  C42  1  0.53575000  0.99942000  0.07536000  1.0
  C  C43  1  0.46427000  0.00059000  0.92462000  1.0
  N  N44  1  0.24426000  0.69617000  0.28599000  1.0
  N  N45  1  0.75573000  0.30383000  0.71401000  1.0
  O  O46  1  0.09818000  0.34937000  0.32732000  1.0
  O  O47  1  0.90181000  0.65064000  0.67269000  1.0
  O  O48  1  0.98498000  0.20752000  0.46822000  1.0
  O  O49  1  0.01502000  0.79247000  0.53178000  1.0
  O  O50  1  0.23518000  0.49310000  0.74858000  1.0
  O  O51  1  0.76482000  0.50691000  0.25142000  1.0
  O  O52  1  0.35392000  0.64096000  0.61348000  1.0
  O  O53  1  0.64606000  0.35904000  0.38651000  1.0
