# generated using pymatgen
data_Al2H11C20IO10
_symmetry_space_group_name_H-M   'P 1'
_cell_length_a   6.65105000
_cell_length_b   14.58450000
_cell_length_c   18.45110000
_cell_angle_alpha   78.75880000
_cell_angle_beta   89.01520000
_cell_angle_gamma   89.97800000
_symmetry_Int_Tables_number   1
_chemical_formula_structural   Al2H11C20IO10
_chemical_formula_sum   'Al4 H22 C40 I2 O20'
_cell_volume   1755.19381871
_cell_formula_units_Z   2
loop_
 _symmetry_equiv_pos_site_id
 _symmetry_equiv_pos_as_xyz
  1  'x, y, z'
loop_
 _atom_site_type_symbol
 _atom_site_label
 _atom_site_symmetry_multiplicity
 _atom_site_fract_x
 _atom_site_fract_y
 _atom_site_fract_z
 _atom_site_occupancy
  Al  Al0  1  0.08681000  0.50002000  0.49677000  1.0
  Al  Al1  1  0.58727000  0.49939000  0.50139000  1.0
  Al  Al2  1  0.64844000  0.00005000  0.00319000  1.0
  Al  Al3  1  0.14791000  0.00072000  0.99862000  1.0
  H  H4  1  0.53698000  0.26988000  0.68727000  1.0
  H  H5  1  0.57069000  0.15966000  0.80925000  1.0
  H  H6  1  0.19779000  0.22973000  0.81257000  1.0
  H  H7  1  0.16391000  0.33989000  0.69064000  1.0
  H  H8  1  0.12583000  0.30177000  0.35315000  1.0
  H  H9  1  0.51539000  0.39762000  0.32392000  1.0
  H  H10  1  0.26167000  0.19009000  0.27831000  1.0
  H  H11  1  0.47277000  0.30929000  0.22230000  1.0
  H  H12  1  0.21946000  0.10180000  0.17660000  1.0
  H  H13  1  0.60917000  0.19781000  0.14715000  1.0
  H  H14  1  0.58599000  0.72214000  0.62524000  1.0
  H  H15  1  0.04197000  0.57345000  0.70234000  1.0
  H  H16  1  0.69320000  0.92722000  0.79728000  1.0
  H  H17  1  0.14934000  0.77829000  0.87436000  1.0
  H  H18  1  0.04622000  0.72493000  0.32245000  1.0
  H  H19  1  0.06285000  0.83788000  0.20045000  1.0
  H  H20  1  0.68953000  0.77514000  0.17752000  1.0
  H  H21  1  0.67272000  0.66215000  0.29950000  1.0
  H  H22  1  0.33173000  0.37828000  0.53151000  1.0
  H  H23  1  0.83843000  0.61140000  0.52057000  1.0
  H  H24  1  0.40348000  0.12182000  0.96863000  1.0
  H  H25  1  0.89685000  0.88875000  0.97929000  1.0
  C  C26  1  0.32491000  0.59421000  0.59448000  1.0
  C  C27  1  0.35017000  0.61984000  0.38959000  1.0
  C  C28  1  0.84227000  0.40613000  0.40548000  1.0
  C  C29  1  0.83261000  0.37696000  0.60949000  1.0
  C  C30  1  0.68057000  0.26104000  0.71539000  1.0
  C  C31  1  0.69933000  0.19991000  0.78291000  1.0
  C  C32  1  0.88604000  0.18852000  0.81790000  1.0
  C  C33  1  0.05410000  0.23860000  0.78455000  1.0
  C  C34  1  0.03528000  0.29970000  0.71704000  1.0
  C  C35  1  0.84865000  0.31120000  0.68208000  1.0
  C  C36  1  0.82420000  0.35401000  0.34411000  1.0
  C  C37  1  0.91070000  0.14552000  0.15630000  1.0
  C  C38  1  0.12027000  0.19275000  0.24887000  1.0
  C  C39  1  0.09712000  0.14347000  0.19315000  1.0
  C  C40  1  0.75141000  0.19724000  0.17586000  1.0
  C  C41  1  0.77315000  0.25083000  0.23152000  1.0
  C  C42  1  0.96150000  0.24865000  0.26890000  1.0
  C  C43  1  0.98342000  0.30229000  0.32451000  1.0
  C  C44  1  0.63764000  0.35592000  0.30735000  1.0
  C  C45  1  0.61432000  0.30663000  0.25166000  1.0
  C  C46  1  0.31636000  0.64409000  0.65789000  1.0
  C  C47  1  0.41904000  0.85640000  0.84179000  1.0
  C  C48  1  0.59161000  0.83030000  0.73137000  1.0
  C  C49  1  0.58065000  0.87577000  0.79004000  1.0
  C  C50  1  0.27379000  0.79132000  0.83451000  1.0
  C  C51  1  0.28639000  0.74051000  0.77682000  1.0
  C  C52  1  0.44909000  0.76005000  0.72279000  1.0
  C  C53  1  0.46164000  0.70919000  0.66513000  1.0
  C  C54  1  0.15458000  0.62486000  0.70961000  1.0
  C  C55  1  0.14369000  0.67034000  0.76825000  1.0
  C  C56  1  0.18578000  0.73634000  0.29005000  1.0
  C  C57  1  0.19514000  0.79883000  0.22271000  1.0
  C  C58  1  0.37719000  0.81272000  0.18233000  1.0
  C  C59  1  0.54989000  0.76372000  0.20988000  1.0
  C  C60  1  0.54046000  0.70120000  0.27723000  1.0
  C  C61  1  0.35841000  0.68730000  0.31759000  1.0
  C  C62  1  0.38532000  0.88016000  0.11031000  1.0
  C  C63  1  0.41054000  0.90610000  0.90534000  1.0
  C  C64  1  0.90241000  0.12300000  0.89057000  1.0
  C  C65  1  0.89283000  0.09367000  0.09471000  1.0
  I  I66  1  0.82983000  0.86777000  0.65410000  1.0
  I  I67  1  0.90559000  0.63292000  0.84562000  1.0
  O  O68  1  0.51721000  0.58696000  0.41513000  1.0
  O  O69  1  0.15652000  0.56762000  0.57395000  1.0
  O  O70  1  0.99713000  0.39783000  0.57364000  1.0
  O  O71  1  0.17865000  0.59997000  0.42068000  1.0
  O  O72  1  0.01561000  0.43275000  0.42148000  1.0
  O  O73  1  0.49662000  0.58276000  0.56579000  1.0
  O  O74  1  0.33677000  0.44263000  0.50536000  1.0
  O  O75  1  0.67835000  0.41944000  0.43845000  1.0
  O  O76  1  0.65863000  0.40722000  0.58885000  1.0
  O  O77  1  0.83707000  0.55691000  0.49774000  1.0
  O  O78  1  0.23888000  0.91744000  0.93411000  1.0
  O  O79  1  0.55678000  0.90003000  0.07922000  1.0
  O  O80  1  0.71952000  0.06718000  0.07859000  1.0
  O  O81  1  0.57897000  0.93262000  0.92590000  1.0
  O  O82  1  0.73797000  0.10224000  0.92649000  1.0
  O  O83  1  0.21830000  0.91305000  0.08479000  1.0
  O  O84  1  0.39842000  0.05742000  0.99469000  1.0
  O  O85  1  0.07643000  0.09284000  0.91119000  1.0
  O  O86  1  0.05679000  0.08059000  0.06167000  1.0
  O  O87  1  0.89822000  0.94313000  0.00224000  1.0
