# generated using pymatgen
data_FeH9C7NO7
_symmetry_space_group_name_H-M   'P 1'
_cell_length_a   6.66917000
_cell_length_b   8.36202000
_cell_length_c   15.76100000
_cell_angle_alpha   90.00030000
_cell_angle_beta   90.00080000
_cell_angle_gamma   89.99970000
_symmetry_Int_Tables_number   1
_chemical_formula_structural   FeH9C7NO7
_chemical_formula_sum   'Fe4 H36 C28 N4 O28'
_cell_volume   878.95523850
_cell_formula_units_Z   4
loop_
 _symmetry_equiv_pos_site_id
 _symmetry_equiv_pos_as_xyz
  1  'x, y, z'
loop_
 _atom_site_type_symbol
 _atom_site_label
 _atom_site_symmetry_multiplicity
 _atom_site_fract_x
 _atom_site_fract_y
 _atom_site_fract_z
 _atom_site_occupancy
  Fe  Fe0  1  0.41907000  0.32132000  0.40485000  1.0
  Fe  Fe1  1  0.58094000  0.82131000  0.59515000  1.0
  Fe  Fe2  1  0.58094000  0.32131000  0.90485000  1.0
  Fe  Fe3  1  0.41907000  0.82131000  0.09515000  1.0
  H  H4  1  0.52823000  0.61962000  0.37930000  1.0
  H  H5  1  0.47180000  0.11960000  0.62071000  1.0
  H  H6  1  0.47179000  0.61961000  0.87929000  1.0
  H  H7  1  0.52818000  0.11959000  0.12071000  1.0
  H  H8  1  0.63054000  0.55206000  0.46409000  1.0
  H  H9  1  0.36948000  0.05202000  0.53592000  1.0
  H  H10  1  0.36949000  0.55205000  0.96408000  1.0
  H  H11  1  0.63050000  0.05202000  0.03593000  1.0
  H  H12  1  0.38974000  0.36888000  0.57664000  1.0
  H  H13  1  0.61024000  0.86889000  0.42334000  1.0
  H  H14  1  0.61025000  0.36887000  0.07665000  1.0
  H  H15  1  0.38976000  0.86889000  0.92334000  1.0
  H  H16  1  0.16422000  0.38081000  0.54037000  1.0
  H  H17  1  0.83578000  0.88082000  0.45962000  1.0
  H  H18  1  0.83579000  0.38082000  0.04038000  1.0
  H  H19  1  0.16423000  0.88083000  0.95962000  1.0
  H  H20  1  0.76009000  0.28437000  0.49592000  1.0
  H  H21  1  0.23985000  0.78436000  0.50408000  1.0
  H  H22  1  0.23989000  0.28438000  0.99592000  1.0
  H  H23  1  0.76016000  0.78435000  0.00408000  1.0
  H  H24  1  0.67775000  0.10759000  0.46988000  1.0
  H  H25  1  0.32223000  0.60759000  0.53010000  1.0
  H  H26  1  0.32223000  0.10759000  0.96988000  1.0
  H  H27  1  0.67780000  0.60758000  0.03011000  1.0
  H  H28  1  0.88666000  0.67325000  0.18119000  1.0
  H  H29  1  0.11334000  0.17324000  0.81881000  1.0
  H  H30  1  0.11334000  0.67324000  0.68119000  1.0
  H  H31  1  0.88665000  0.17325000  0.31880000  1.0
  H  H32  1  0.82732000  0.68182000  0.33661000  1.0
  H  H33  1  0.17269000  0.18182000  0.66340000  1.0
  H  H34  1  0.17267000  0.68183000  0.83661000  1.0
  H  H35  1  0.82733000  0.18184000  0.16339000  1.0
  H  H36  1  0.03456000  0.51718000  0.43399000  1.0
  H  H37  1  0.96546000  0.01718000  0.56601000  1.0
  H  H38  1  0.96546000  0.51719000  0.93400000  1.0
  H  H39  1  0.03454000  0.01719000  0.06600000  1.0
  C  C40  1  0.17755000  0.50473000  0.10090000  1.0
  C  C41  1  0.82246000  0.00470000  0.89910000  1.0
  C  C42  1  0.82246000  0.50470000  0.60090000  1.0
  C  C43  1  0.17752000  0.00467000  0.39910000  1.0
  C  C44  1  0.14142000  0.51296000  0.19466000  1.0
  C  C45  1  0.85858000  0.01295000  0.80534000  1.0
  C  C46  1  0.85858000  0.51294000  0.69466000  1.0
  C  C47  1  0.14141000  0.01293000  0.30533000  1.0
  C  C48  1  0.98253000  0.60609000  0.22447000  1.0
  C  C49  1  0.01748000  0.10608000  0.77554000  1.0
  C  C50  1  0.01748000  0.60608000  0.72447000  1.0
  C  C51  1  0.98251000  0.10609000  0.27553000  1.0
  C  C52  1  0.94817000  0.60948000  0.31147000  1.0
  C  C53  1  0.05184000  0.10948000  0.68854000  1.0
  C  C54  1  0.05183000  0.60948000  0.81147000  1.0
  C  C55  1  0.94817000  0.10949000  0.18853000  1.0
  C  C56  1  0.06562000  0.51944000  0.36634000  1.0
  C  C57  1  0.93440000  0.01945000  0.63367000  1.0
  C  C58  1  0.93439000  0.51946000  0.86634000  1.0
  C  C59  1  0.06559000  0.01946000  0.13366000  1.0
  C  C60  1  0.25785000  0.42733000  0.25277000  1.0
  C  C61  1  0.74215000  0.92732000  0.74724000  1.0
  C  C62  1  0.74216000  0.42732000  0.75277000  1.0
  C  C63  1  0.25784000  0.92732000  0.24723000  1.0
  C  C64  1  0.42885000  0.32424000  0.23041000  1.0
  C  C65  1  0.57115000  0.82424000  0.76959000  1.0
  C  C66  1  0.57114000  0.32424000  0.73042000  1.0
  C  C67  1  0.42886000  0.82424000  0.26958000  1.0
  N  N68  1  0.22053000  0.42900000  0.33868000  1.0
  N  N69  1  0.77948000  0.92900000  0.66132000  1.0
  N  N70  1  0.77948000  0.42900000  0.83868000  1.0
  N  N71  1  0.22051000  0.92901000  0.16131000  1.0
  O  O72  1  0.51929000  0.25950000  0.29368000  1.0
  O  O73  1  0.48071000  0.75951000  0.70631000  1.0
  O  O74  1  0.48072000  0.25951000  0.79368000  1.0
  O  O75  1  0.51928000  0.75951000  0.20632000  1.0
  O  O76  1  0.47482000  0.29810000  0.15306000  1.0
  O  O77  1  0.52516000  0.79811000  0.84694000  1.0
  O  O78  1  0.52516000  0.29811000  0.65305000  1.0
  O  O79  1  0.47484000  0.79811000  0.34695000  1.0
  O  O80  1  0.28534000  0.61216000  0.06499000  1.0
  O  O81  1  0.71466000  0.11212000  0.93502000  1.0
  O  O82  1  0.71467000  0.61215000  0.56499000  1.0
  O  O83  1  0.28533000  0.11210000  0.43502000  1.0
  O  O84  1  0.09037000  0.39512000  0.05904000  1.0
  O  O85  1  0.90964000  0.89508000  0.94095000  1.0
  O  O86  1  0.90961000  0.39508000  0.55905000  1.0
  O  O87  1  0.09036000  0.89505000  0.44094000  1.0
  O  O88  1  0.58322000  0.52010000  0.40652000  1.0
  O  O89  1  0.41679000  0.02009000  0.59350000  1.0
  O  O90  1  0.41679000  0.52011000  0.90651000  1.0
  O  O91  1  0.58321000  0.02009000  0.09350000  1.0
  O  O92  1  0.30754000  0.40200000  0.52625000  1.0
  O  O93  1  0.69245000  0.90203000  0.47374000  1.0
  O  O94  1  0.69246000  0.40201000  0.02626000  1.0
  O  O95  1  0.30755000  0.90202000  0.97373000  1.0
  O  O96  1  0.67711000  0.22282000  0.45480000  1.0
  O  O97  1  0.32284000  0.72280000  0.54520000  1.0
  O  O98  1  0.32285000  0.22282000  0.95480000  1.0
  O  O99  1  0.67719000  0.72280000  0.04520000  1.0
