# generated using pymatgen
data_Zn3H6(CO)10
_symmetry_space_group_name_H-M   'P 1'
_cell_length_a   5.16468000
_cell_length_b   9.54167111
_cell_length_c   14.22829860
_cell_angle_alpha   94.13012452
_cell_angle_beta   100.43078542
_cell_angle_gamma   105.67206110
_symmetry_Int_Tables_number   1
_chemical_formula_structural   Zn3H6(CO)10
_chemical_formula_sum   'Zn6 H12 C20 O20'
_cell_volume   658.50616964
_cell_formula_units_Z   2
loop_
 _symmetry_equiv_pos_site_id
 _symmetry_equiv_pos_as_xyz
  1  'x, y, z'
loop_
 _atom_site_type_symbol
 _atom_site_label
 _atom_site_symmetry_multiplicity
 _atom_site_fract_x
 _atom_site_fract_y
 _atom_site_fract_z
 _atom_site_occupancy
  Zn  Zn0  1  0.52282000  0.24945000  0.25047000  1.0
  Zn  Zn1  1  0.47719000  0.75056000  0.74952000  1.0
  Zn  Zn2  1  0.37425000  0.83672000  0.20346000  1.0
  Zn  Zn3  1  0.83354000  0.66199000  0.29586000  1.0
  Zn  Zn4  1  0.62577000  0.16328000  0.79654000  1.0
  Zn  Zn5  1  0.16648000  0.33801000  0.70414000  1.0
  H  H6  1  0.31772000  0.36813000  0.11500000  1.0
  H  H7  1  0.33323000  0.13019000  0.38573000  1.0
  H  H8  1  0.68231000  0.63193000  0.88502000  1.0
  H  H9  1  0.66676000  0.86978000  0.61426000  1.0
  H  H10  1  0.05837000  0.32188000  0.16308000  1.0
  H  H11  1  0.07291000  0.17719000  0.33774000  1.0
  H  H12  1  0.94163000  0.67812000  0.83692000  1.0
  H  H13  1  0.92710000  0.82281000  0.66225000  1.0
  H  H14  1  0.85442000  0.22553000  0.98786000  1.0
  H  H15  1  0.14192000  0.27481000  0.51299000  1.0
  H  H16  1  0.14559000  0.77448000  0.01214000  1.0
  H  H17  1  0.85808000  0.72518000  0.48702000  1.0
  C  C18  1  0.82051000  0.03542000  0.06056000  1.0
  C  C19  1  0.22440000  0.46418000  0.43956000  1.0
  C  C20  1  0.17949000  0.96458000  0.93944000  1.0
  C  C21  1  0.77560000  0.53582000  0.56045000  1.0
  C  C22  1  0.90438000  0.90000000  0.06506000  1.0
  C  C23  1  0.43884000  0.59943000  0.43459000  1.0
  C  C24  1  0.09563000  0.10000000  0.93494000  1.0
  C  C25  1  0.56114000  0.40056000  0.56541000  1.0
  C  C26  1  0.91584000  0.12491000  0.99149000  1.0
  C  C27  1  0.29985000  0.37529000  0.50896000  1.0
  C  C28  1  0.08418000  0.87510000  0.00851000  1.0
  C  C29  1  0.70013000  0.62470000  0.49104000  1.0
  C  C30  1  0.70133000  0.09927000  0.12831000  1.0
  C  C31  1  0.97356000  0.40003000  0.37207000  1.0
  C  C32  1  0.29866000  0.90073000  0.87168000  1.0
  C  C33  1  0.02642000  0.59996000  0.62793000  1.0
  C  C34  1  0.80128000  0.78398000  0.12046000  1.0
  C  C35  1  0.39606000  0.71504000  0.37886000  1.0
  C  C36  1  0.19874000  0.21603000  0.87954000  1.0
  C  C37  1  0.60393000  0.28495000  0.62114000  1.0
  O  O38  1  0.71918000  0.24005000  0.13448000  1.0
  O  O39  1  0.84440000  0.25936000  0.36644000  1.0
  O  O40  1  0.28083000  0.75995000  0.86552000  1.0
  O  O41  1  0.15558000  0.74061000  0.63356000  1.0
  O  O42  1  0.57923000  0.03350000  0.19446000  1.0
  O  O43  1  0.85099000  0.46538000  0.30569000  1.0
  O  O44  1  0.42078000  0.96651000  0.80554000  1.0
  O  O45  1  0.14898000  0.53463000  0.69431000  1.0
  O  O46  1  0.26668000  0.36079000  0.17759000  1.0
  O  O47  1  0.22768000  0.13813000  0.32317000  1.0
  O  O48  1  0.73333000  0.63923000  0.82242000  1.0
  O  O49  1  0.77232000  0.86187000  0.67682000  1.0
  O  O50  1  0.54757000  0.72829000  0.12147000  1.0
  O  O51  1  0.19687000  0.77076000  0.37769000  1.0
  O  O52  1  0.45245000  0.27171000  0.87853000  1.0
  O  O53  1  0.80314000  0.22923000  0.62232000  1.0
  O  O54  1  0.98023000  0.72886000  0.17534000  1.0
  O  O55  1  0.57503000  0.76979000  0.32385000  1.0
  O  O56  1  0.01979000  0.27116000  0.82466000  1.0
  O  O57  1  0.42495000  0.23020000  0.67616000  1.0
