# generated using pymatgen
data_CdH4C3SBrN3
_symmetry_space_group_name_H-M   'P 1'
_cell_length_a   7.01808000
_cell_length_b   9.93225000
_cell_length_c   11.58299100
_cell_angle_alpha   115.12321400
_cell_angle_beta   90.00083208
_cell_angle_gamma   90.00020000
_symmetry_Int_Tables_number   1
_chemical_formula_structural   CdH4C3SBrN3
_chemical_formula_sum   'Cd4 H16 C12 S4 Br4 N12'
_cell_volume   731.01393845
_cell_formula_units_Z   4
loop_
 _symmetry_equiv_pos_site_id
 _symmetry_equiv_pos_as_xyz
  1  'x, y, z'
loop_
 _atom_site_type_symbol
 _atom_site_label
 _atom_site_symmetry_multiplicity
 _atom_site_fract_x
 _atom_site_fract_y
 _atom_site_fract_z
 _atom_site_occupancy
  Cd  Cd0  1  0.75530000  0.58633000  0.62093000  1.0
  Cd  Cd1  1  0.25531000  0.91369000  0.37908000  1.0
  Cd  Cd2  1  0.24469000  0.41368000  0.37907000  1.0
  Cd  Cd3  1  0.74470000  0.08631000  0.62092000  1.0
  H  H4  1  0.48600000  0.57913000  0.87109000  1.0
  H  H5  1  0.98599000  0.92086000  0.12891000  1.0
  H  H6  1  0.51399000  0.42087000  0.12891000  1.0
  H  H7  1  0.01399000  0.07914000  0.87109000  1.0
  H  H8  1  0.97940000  0.41013000  0.83192000  1.0
  H  H9  1  0.47939000  0.08986000  0.16808000  1.0
  H  H10  1  0.02061000  0.58986000  0.16809000  1.0
  H  H11  1  0.52061000  0.91014000  0.83192000  1.0
  H  H12  1  0.10723000  0.56059000  0.95263000  1.0
  H  H13  1  0.60722000  0.93940000  0.04736000  1.0
  H  H14  1  0.89279000  0.43940000  0.04736000  1.0
  H  H15  1  0.39278000  0.06060000  0.95264000  1.0
  H  H16  1  0.19724000  0.37453000  0.89618000  1.0
  H  H17  1  0.69724000  0.12547000  0.10382000  1.0
  H  H18  1  0.80277000  0.62547000  0.10382000  1.0
  H  H19  1  0.30277000  0.87453000  0.89618000  1.0
  C  C20  1  0.17049000  0.43710000  0.64754000  1.0
  C  C21  1  0.67049000  0.06290000  0.35246000  1.0
  C  C22  1  0.82950000  0.56291000  0.35247000  1.0
  C  C23  1  0.32950000  0.93710000  0.64754000  1.0
  C  C24  1  0.40303000  0.53700000  0.78383000  1.0
  C  C25  1  0.90302000  0.96300000  0.21617000  1.0
  C  C26  1  0.59697000  0.46301000  0.21617000  1.0
  C  C27  1  0.09698000  0.03700000  0.78383000  1.0
  C  C28  1  0.12071000  0.45355000  0.86952000  1.0
  C  C29  1  0.62071000  0.04644000  0.13048000  1.0
  C  C30  1  0.87929000  0.54644000  0.13048000  1.0
  C  C31  1  0.37929000  0.95356000  0.86952000  1.0
  S  S32  1  0.96646000  0.34970000  0.57077000  1.0
  S  S33  1  0.46647000  0.15030000  0.42923000  1.0
  S  S34  1  0.03354000  0.65030000  0.42923000  1.0
  S  S35  1  0.53354000  0.84969000  0.57077000  1.0
  Br  Br36  1  0.87903000  0.76775000  0.84442000  1.0
  Br  Br37  1  0.37904000  0.73227000  0.15557000  1.0
  Br  Br38  1  0.12095000  0.23227000  0.15557000  1.0
  Br  Br39  1  0.62096000  0.26773000  0.84443000  1.0
  N  N40  1  0.45565000  0.53789000  0.67474000  1.0
  N  N41  1  0.95563000  0.96210000  0.32527000  1.0
  N  N42  1  0.54435000  0.46211000  0.32526000  1.0
  N  N43  1  0.04436000  0.03789000  0.67473000  1.0
  N  N44  1  0.31066000  0.47555000  0.58931000  1.0
  N  N45  1  0.81065000  0.02445000  0.41069000  1.0
  N  N46  1  0.68934000  0.52445000  0.41069000  1.0
  N  N47  1  0.18935000  0.97554000  0.58930000  1.0
  N  N48  1  0.22670000  0.47561000  0.77133000  1.0
  N  N49  1  0.72668000  0.02439000  0.22867000  1.0
  N  N50  1  0.77331000  0.52438000  0.22867000  1.0
  N  N51  1  0.27331000  0.97562000  0.77133000  1.0
