# generated using pymatgen
data_CoH16C20(N3O2)2
_symmetry_space_group_name_H-M   'P 1'
_cell_length_a   8.92712000
_cell_length_b   9.99911000
_cell_length_c   12.56110000
_cell_angle_alpha   103.43900000
_cell_angle_beta   109.09700000
_cell_angle_gamma   103.65100000
_symmetry_Int_Tables_number   1
_chemical_formula_structural   CoH16C20(N3O2)2
_chemical_formula_sum   'Co2 H32 C40 N12 O8'
_cell_volume   969.31350334
_cell_formula_units_Z   2
loop_
 _symmetry_equiv_pos_site_id
 _symmetry_equiv_pos_as_xyz
  1  'x, y, z'
loop_
 _atom_site_type_symbol
 _atom_site_label
 _atom_site_symmetry_multiplicity
 _atom_site_fract_x
 _atom_site_fract_y
 _atom_site_fract_z
 _atom_site_occupancy
  Co  Co0  1  0.65088000  0.35987000  0.51677000  1.0
  Co  Co1  1  0.34912000  0.64013000  0.48323000  1.0
  H  H2  1  0.12212000  0.44461000  0.19757000  1.0
  H  H3  1  0.87788000  0.55538000  0.80242000  1.0
  H  H4  1  0.24023000  0.27783000  0.09641000  1.0
  H  H5  1  0.75976000  0.72215000  0.90358000  1.0
  H  H6  1  0.04900000  0.07350000  0.90558000  1.0
  H  H7  1  0.95098000  0.92648000  0.09441000  1.0
  H  H8  1  0.74673000  0.04013000  0.81770000  1.0
  H  H9  1  0.25326000  0.95987000  0.18229000  1.0
  H  H10  1  0.50430000  0.08340000  0.84884000  1.0
  H  H11  1  0.49569000  0.91660000  0.15116000  1.0
  H  H12  1  0.52198000  0.24330000  0.95530000  1.0
  H  H13  1  0.47802000  0.75671000  0.04470000  1.0
  H  H14  1  0.91049000  0.54562000  0.18986000  1.0
  H  H15  1  0.08951000  0.45437000  0.81014000  1.0
  H  H16  1  0.70633000  0.47034000  0.07028000  1.0
  H  H17  1  0.29368000  0.52966000  0.92973000  1.0
  H  H18  1  0.53587000  0.54736000  0.72247000  1.0
  H  H19  1  0.46413000  0.45264000  0.27753000  1.0
  H  H20  1  0.58768000  0.13364000  0.66314000  1.0
  H  H21  1  0.41232000  0.86636000  0.33686000  1.0
  H  H22  1  0.48567000  0.14737000  0.25235000  1.0
  H  H23  1  0.51433000  0.85263000  0.74765000  1.0
  H  H24  1  0.90196000  0.53414000  0.38505000  1.0
  H  H25  1  0.09804000  0.46585000  0.61495000  1.0
  H  H26  1  0.36131000  0.09306000  0.45620000  1.0
  H  H27  1  0.63870000  0.90694000  0.54381000  1.0
  H  H28  1  0.86468000  0.78277000  0.33514000  1.0
  H  H29  1  0.13533000  0.21724000  0.66486000  1.0
  H  H30  1  0.74038000  0.97072000  0.28582000  1.0
  H  H31  1  0.25963000  0.02929000  0.71418000  1.0
  H  H32  1  0.92704000  0.21864000  0.31993000  1.0
  H  H33  1  0.07297000  0.78137000  0.68007000  1.0
  C  C34  1  0.76141000  0.22333000  0.95656000  1.0
  C  C35  1  0.23859000  0.77667000  0.04344000  1.0
  C  C36  1  0.86912000  0.33882000  0.06393000  1.0
  C  C37  1  0.13088000  0.66118000  0.93607000  1.0
  C  C38  1  0.04055000  0.35608000  0.11335000  1.0
  C  C39  1  0.95945000  0.64392000  0.88664000  1.0
  C  C40  1  0.10628000  0.26210000  0.05729000  1.0
  C  C41  1  0.89371000  0.73789000  0.94270000  1.0
  C  C42  1  0.99988000  0.14797000  0.95056000  1.0
  C  C43  1  0.00010000  0.85201000  0.04943000  1.0
  C  C44  1  0.82889000  0.12932000  0.90149000  1.0
  C  C45  1  0.17110000  0.87067000  0.09850000  1.0
  C  C46  1  0.57616000  0.20057000  0.89418000  1.0
  C  C47  1  0.42384000  0.79943000  0.10582000  1.0
  C  C48  1  0.80649000  0.44367000  0.13049000  1.0
  C  C49  1  0.19351000  0.55633000  0.86951000  1.0
  C  C50  1  0.54503000  0.44546000  0.73494000  1.0
  C  C51  1  0.45497000  0.55454000  0.26506000  1.0
  C  C52  1  0.57467000  0.23663000  0.70236000  1.0
  C  C53  1  0.42533000  0.76337000  0.29764000  1.0
  C  C54  1  0.58523000  0.23745000  0.25672000  1.0
  C  C55  1  0.41477000  0.76255000  0.74328000  1.0
  C  C56  1  0.79490000  0.43513000  0.32838000  1.0
  C  C57  1  0.20510000  0.56487000  0.67162000  1.0
  C  C58  1  0.15569000  0.17099000  0.38813000  1.0
  C  C59  1  0.84431000  0.82902000  0.61187000  1.0
  C  C60  1  0.22521000  0.06664000  0.41846000  1.0
  C  C61  1  0.77480000  0.93337000  0.58155000  1.0
  C  C62  1  0.12106000  0.92781000  0.40096000  1.0
  C  C63  1  0.87894000  0.07220000  0.59905000  1.0
  C  C64  1  0.94550000  0.89162000  0.34980000  1.0
  C  C65  1  0.05451000  0.10839000  0.65020000  1.0
  C  C66  1  0.87630000  0.99649000  0.32127000  1.0
  C  C67  1  0.12370000  0.00352000  0.67874000  1.0
  C  C68  1  0.98014000  0.13591000  0.34094000  1.0
  C  C69  1  0.01987000  0.86409000  0.65907000  1.0
  C  C70  1  0.26952000  0.31870000  0.40808000  1.0
  C  C71  1  0.73048000  0.68131000  0.59192000  1.0
  C  C72  1  0.20027000  0.82066000  0.43619000  1.0
  C  C73  1  0.79974000  0.17935000  0.56382000  1.0
  N  N74  1  0.55043000  0.27278000  0.80386000  1.0
  N  N75  1  0.44956000  0.72722000  0.19614000  1.0
  N  N76  1  0.53181000  0.40680000  0.82675000  1.0
  N  N77  1  0.46818000  0.59321000  0.17325000  1.0
  N  N78  1  0.57370000  0.34475000  0.65666000  1.0
  N  N79  1  0.42630000  0.65526000  0.34334000  1.0
  N  N80  1  0.74055000  0.38303000  0.20830000  1.0
  N  N81  1  0.25945000  0.61697000  0.79170000  1.0
  N  N82  1  0.60652000  0.25650000  0.16087000  1.0
  N  N83  1  0.39348000  0.74349000  0.83913000  1.0
  N  N84  1  0.69735000  0.34470000  0.36164000  1.0
  N  N85  1  0.30266000  0.65531000  0.63836000  1.0
  O  O86  1  0.41630000  0.33055000  0.40997000  1.0
  O  O87  1  0.58370000  0.66946000  0.59003000  1.0
  O  O88  1  0.21326000  0.42449000  0.41992000  1.0
  O  O89  1  0.78674000  0.57552000  0.58008000  1.0
  O  O90  1  0.35158000  0.86642000  0.51555000  1.0
  O  O91  1  0.64843000  0.13358000  0.48445000  1.0
  O  O92  1  0.12048000  0.68349000  0.38406000  1.0
  O  O93  1  0.87952000  0.31652000  0.61595000  1.0
