# generated using pymatgen
data_AgH6C3SNO5
_symmetry_space_group_name_H-M   'P 1'
_cell_length_a   8.24927000
_cell_length_b   9.16495000
_cell_length_c   9.64768000
_cell_angle_alpha   89.99990000
_cell_angle_beta   89.99990000
_cell_angle_gamma   98.60910000
_symmetry_Int_Tables_number   1
_chemical_formula_structural   AgH6C3SNO5
_chemical_formula_sum   'Ag4 H24 C12 S4 N4 O20'
_cell_volume   721.18613776
_cell_formula_units_Z   4
loop_
 _symmetry_equiv_pos_site_id
 _symmetry_equiv_pos_as_xyz
  1  'x, y, z'
loop_
 _atom_site_type_symbol
 _atom_site_label
 _atom_site_symmetry_multiplicity
 _atom_site_fract_x
 _atom_site_fract_y
 _atom_site_fract_z
 _atom_site_occupancy
  Ag  Ag0  1  0.76774000  0.81509000  0.08369000  1.0
  Ag  Ag1  1  0.23227000  0.18492000  0.58369000  1.0
  Ag  Ag2  1  0.38757000  0.39215000  0.76942000  1.0
  Ag  Ag3  1  0.61244000  0.60786000  0.26942000  1.0
  H  H4  1  0.56889000  0.03527000  0.65853000  1.0
  H  H5  1  0.43112000  0.96473000  0.15853000  1.0
  H  H6  1  0.77438000  0.06314000  0.63365000  1.0
  H  H7  1  0.22562000  0.93686000  0.13364000  1.0
  H  H8  1  0.66016000  0.90340000  0.58159000  1.0
  H  H9  1  0.33984000  0.09661000  0.08159000  1.0
  H  H10  1  0.04331000  0.66127000  0.24523000  1.0
  H  H11  1  0.95669000  0.33873000  0.74524000  1.0
  H  H12  1  0.95569000  0.51649000  0.34405000  1.0
  H  H13  1  0.04431000  0.48351000  0.84406000  1.0
  H  H14  1  0.12476000  0.50334000  0.24609000  1.0
  H  H15  1  0.87524000  0.49666000  0.74610000  1.0
  H  H16  1  0.73097000  0.23938000  0.30425000  1.0
  H  H17  1  0.26904000  0.76062000  0.80425000  1.0
  H  H18  1  0.86899000  0.21407000  0.44192000  1.0
  H  H19  1  0.13101000  0.78593000  0.94192000  1.0
  H  H20  1  0.50290000  0.08393000  0.44360000  1.0
  H  H21  1  0.49710000  0.91608000  0.94360000  1.0
  H  H22  1  0.15891000  0.79262000  0.58847000  1.0
  H  H23  1  0.84109000  0.20738000  0.08847000  1.0
  H  H24  1  0.96170000  0.71872000  0.51853000  1.0
  H  H25  1  0.03830000  0.28128000  0.01853000  1.0
  H  H26  1  0.29044000  0.67836000  0.38319000  1.0
  H  H27  1  0.70956000  0.32163000  0.88319000  1.0
  C  C28  1  0.74003000  0.21496000  0.41501000  1.0
  C  C29  1  0.25997000  0.78504000  0.91501000  1.0
  C  C30  1  0.63296000  0.06993000  0.44919000  1.0
  C  C31  1  0.36704000  0.93008000  0.94918000  1.0
  C  C32  1  0.64750000  0.94245000  0.34821000  1.0
  C  C33  1  0.35251000  0.05755000  0.84821000  1.0
  C  C34  1  0.09136000  0.75517000  0.49401000  1.0
  C  C35  1  0.90864000  0.24483000  0.99401000  1.0
  C  C36  1  0.16923000  0.63305000  0.42515000  1.0
  C  C37  1  0.83077000  0.36695000  0.92515000  1.0
  C  C38  1  0.19593000  0.50737000  0.52396000  1.0
  C  C39  1  0.80405000  0.49263000  0.02396000  1.0
  S  S40  1  0.67271000  0.36850000  0.50305000  1.0
  S  S41  1  0.32729000  0.63150000  0.00305000  1.0
  S  S42  1  0.09997000  0.91614000  0.38618000  1.0
  S  S43  1  0.90004000  0.08386000  0.88619000  1.0
  N  N44  1  0.66196000  0.01640000  0.59197000  1.0
  N  N45  1  0.33805000  0.98361000  0.09197000  1.0
  N  N46  1  0.06581000  0.57208000  0.30539000  1.0
  N  N47  1  0.93419000  0.42792000  0.80540000  1.0
  O  O48  1  0.52484000  0.39986000  0.43064000  1.0
  O  O49  1  0.47517000  0.60014000  0.93064000  1.0
  O  O50  1  0.64055000  0.32122000  0.64843000  1.0
  O  O51  1  0.35945000  0.67878000  0.14843000  1.0
  O  O52  1  0.81202000  0.49029000  0.49341000  1.0
  O  O53  1  0.18798000  0.50971000  0.99342000  1.0
  O  O54  1  0.65457000  0.97446000  0.21969000  1.0
  O  O55  1  0.34544000  0.02554000  0.71968000  1.0
  O  O56  1  0.64151000  0.81607000  0.40241000  1.0
  O  O57  1  0.35849000  0.18392000  0.90241000  1.0
  O  O58  1  0.04736000  0.86115000  0.24511000  1.0
  O  O59  1  0.95264000  0.13885000  0.74511000  1.0
  O  O60  1  0.98913000  0.00705000  0.44974000  1.0
  O  O61  1  0.01087000  0.99295000  0.94974000  1.0
  O  O62  1  0.27226000  0.98717000  0.38429000  1.0
  O  O63  1  0.72775000  0.01283000  0.88429000  1.0
  O  O64  1  0.25704000  0.54766000  0.64062000  1.0
  O  O65  1  0.74294000  0.45234000  0.14062000  1.0
  O  O66  1  0.15798000  0.37797000  0.47638000  1.0
  O  O67  1  0.84202000  0.62203000  0.97638000  1.0
