# generated using pymatgen
data_NaH20C17NO4
_symmetry_space_group_name_H-M   'P 1'
_cell_length_a   5.69402000
_cell_length_b   8.74457000
_cell_length_c   16.57810000
_cell_angle_alpha   87.39030000
_cell_angle_beta   89.99790000
_cell_angle_gamma   89.99970000
_symmetry_Int_Tables_number   1
_chemical_formula_structural   NaH20C17NO4
_chemical_formula_sum   'Na2 H40 C34 N2 O8'
_cell_volume   824.59662029
_cell_formula_units_Z   2
loop_
 _symmetry_equiv_pos_site_id
 _symmetry_equiv_pos_as_xyz
  1  'x, y, z'
loop_
 _atom_site_type_symbol
 _atom_site_label
 _atom_site_symmetry_multiplicity
 _atom_site_fract_x
 _atom_site_fract_y
 _atom_site_fract_z
 _atom_site_occupancy
  Na  Na0  1  0.86939000  0.58137000  0.96991000  1.0
  Na  Na1  1  0.36940000  0.41863000  0.03010000  1.0
  H  H2  1  0.15304000  0.53456000  0.65283000  1.0
  H  H3  1  0.65306000  0.46544000  0.34719000  1.0
  H  H4  1  0.79204000  0.39431000  0.77353000  1.0
  H  H5  1  0.29205000  0.60569000  0.22646000  1.0
  H  H6  1  0.18021000  0.30243000  0.39947000  1.0
  H  H7  1  0.68020000  0.69759000  0.60054000  1.0
  H  H8  1  0.80290000  0.13680000  0.52418000  1.0
  H  H9  1  0.30290000  0.86321000  0.47581000  1.0
  H  H10  1  0.05773000  0.43822000  0.52053000  1.0
  H  H11  1  0.55772000  0.56180000  0.47949000  1.0
  H  H12  1  0.88807000  0.22532000  0.66254000  1.0
  H  H13  1  0.38807000  0.77468000  0.33745000  1.0
  H  H14  1  0.63229000  0.77687000  0.72541000  1.0
  H  H15  1  0.13226000  0.22314000  0.27459000  1.0
  H  H16  1  0.78633000  0.65824000  0.79744000  1.0
  H  H17  1  0.28633000  0.34177000  0.20256000  1.0
  H  H18  1  0.58665000  0.79694000  0.83079000  1.0
  H  H19  1  0.08666000  0.20306000  0.16920000  1.0
  H  H20  1  0.75501000  0.99765000  0.32361000  1.0
  H  H21  1  0.25501000  0.00234000  0.67638000  1.0
  H  H22  1  0.73088000  0.94729000  0.42930000  1.0
  H  H23  1  0.23090000  0.05270000  0.57070000  1.0
  H  H24  1  0.90755000  0.10725000  0.39584000  1.0
  H  H25  1  0.40757000  0.89274000  0.60416000  1.0
  H  H26  1  0.72590000  0.09731000  0.94298000  1.0
  H  H27  1  0.22589000  0.90269000  0.05703000  1.0
  H  H28  1  0.84755000  0.25878000  0.88723000  1.0
  H  H29  1  0.34752000  0.74120000  0.11277000  1.0
  H  H30  1  0.97011000  0.19772000  0.98253000  1.0
  H  H31  1  0.47010000  0.80228000  0.01747000  1.0
  H  H32  1  0.34217000  0.03197000  0.81372000  1.0
  H  H33  1  0.84213000  0.96801000  0.18628000  1.0
  H  H34  1  0.34498000  0.19681000  0.87339000  1.0
  H  H35  1  0.84498000  0.80318000  0.12661000  1.0
  H  H36  1  0.16121000  0.19381000  0.78655000  1.0
  H  H37  1  0.66119000  0.80617000  0.21345000  1.0
  H  H38  1  0.25213000  0.65179000  0.76679000  1.0
  H  H39  1  0.75212000  0.34823000  0.23322000  1.0
  H  H40  1  0.16175000  0.83795000  0.86913000  1.0
  H  H41  1  0.66173000  0.16202000  0.13088000  1.0
  C  C42  1  0.36634000  0.37339000  0.59048000  1.0
  C  C43  1  0.86635000  0.62661000  0.40952000  1.0
  C  C44  1  0.49803000  0.21009000  0.45481000  1.0
  C  C45  1  0.99803000  0.78992000  0.54520000  1.0
  C  C46  1  0.41899000  0.59499000  0.78309000  1.0
  C  C47  1  0.91898000  0.40502000  0.21691000  1.0
  C  C48  1  0.31370000  0.46640000  0.65580000  1.0
  C  C49  1  0.81371000  0.53360000  0.34420000  1.0
  C  C50  1  0.38467000  0.51920000  0.86798000  1.0
  C  C51  1  0.88467000  0.48081000  0.13203000  1.0
  C  C52  1  0.46596000  0.47830000  0.72020000  1.0
  C  C53  1  0.96596000  0.52171000  0.27979000  1.0
  C  C54  1  0.67261000  0.38673000  0.72240000  1.0
  C  C55  1  0.17261000  0.61327000  0.27759000  1.0
  C  C56  1  0.28636000  0.29614000  0.45418000  1.0
  C  C57  1  0.78636000  0.70387000  0.54583000  1.0
  C  C58  1  0.64067000  0.20277000  0.52267000  1.0
  C  C59  1  0.14067000  0.79724000  0.47732000  1.0
  C  C60  1  0.57944000  0.28614000  0.59131000  1.0
  C  C61  1  0.07943000  0.71388000  0.40868000  1.0
  C  C62  1  0.22064000  0.37297000  0.52100000  1.0
  C  C63  1  0.72065000  0.62704000  0.47901000  1.0
  C  C64  1  0.72615000  0.29228000  0.66047000  1.0
  C  C65  1  0.22614000  0.70773000  0.33952000  1.0
  C  C66  1  0.61714000  0.71408000  0.78404000  1.0
  C  C67  1  0.11713000  0.28593000  0.21596000  1.0
  C  C68  1  0.74633000  0.04258000  0.38402000  1.0
  C  C69  1  0.24634000  0.95741000  0.61598000  1.0
  C  C70  1  0.03040000  0.90490000  0.90201000  1.0
  C  C71  1  0.53039000  0.09509000  0.09799000  1.0
  C  C72  1  0.88774000  0.15891000  0.92700000  1.0
  C  C73  1  0.38772000  0.84108000  0.07300000  1.0
  C  C74  1  0.23354000  0.12345000  0.83732000  1.0
  C  C75  1  0.73352000  0.87653000  0.16268000  1.0
  N  N76  1  0.04577000  0.05634000  0.88661000  1.0
  N  N77  1  0.54575000  0.94364000  0.11339000  1.0
  O  O78  1  0.56676000  0.47298000  0.90651000  1.0
  O  O79  1  0.06677000  0.52705000  0.09349000  1.0
  O  O80  1  0.17750000  0.50708000  0.89571000  1.0
  O  O81  1  0.67750000  0.49293000  0.10429000  1.0
  O  O82  1  0.54317000  0.13885000  0.38460000  1.0
  O  O83  1  0.04318000  0.86115000  0.61540000  1.0
  O  O84  1  0.88346000  0.84146000  0.94836000  1.0
  O  O85  1  0.38345000  0.15853000  0.05165000  1.0
