# generated using pymatgen
data_Zn3H28C40(N3O7)2
_symmetry_space_group_name_H-M   'P 1'
_cell_length_a   13.44900000
_cell_length_b   13.53780000
_cell_length_c   14.65482666
_cell_angle_alpha   107.20747506
_cell_angle_beta   106.98801174
_cell_angle_gamma   111.18100000
_symmetry_Int_Tables_number   1
_chemical_formula_structural   Zn3H28C40(N3O7)2
_chemical_formula_sum   'Zn6 H56 C80 N12 O28'
_cell_volume   2124.71720214
_cell_formula_units_Z   2
loop_
 _symmetry_equiv_pos_site_id
 _symmetry_equiv_pos_as_xyz
  1  'x, y, z'
loop_
 _atom_site_type_symbol
 _atom_site_label
 _atom_site_symmetry_multiplicity
 _atom_site_fract_x
 _atom_site_fract_y
 _atom_site_fract_z
 _atom_site_occupancy
  Zn  Zn0  1  0.50000000  0.50000000  0.00000000  1.0
  Zn  Zn1  1  0.50000000  0.00000000  0.00000000  1.0
  Zn  Zn2  1  0.36504000  0.64173000  0.09965000  1.0
  Zn  Zn3  1  0.73473000  0.95807000  0.09978000  1.0
  Zn  Zn4  1  0.63497000  0.35827000  0.90035000  1.0
  Zn  Zn5  1  0.26528000  0.04194000  0.90023000  1.0
  H  H6  1  0.57527000  0.72165000  0.13153000  1.0
  H  H7  1  0.55640000  0.91008000  0.13176000  1.0
  H  H8  1  0.42473000  0.27835000  0.86847000  1.0
  H  H9  1  0.44361000  0.08993000  0.86825000  1.0
  H  H10  1  0.96753000  0.56978000  0.18398000  1.0
  H  H11  1  0.21626000  0.11391000  0.18373000  1.0
  H  H12  1  0.03248000  0.43024000  0.81603000  1.0
  H  H13  1  0.78373000  0.88608000  0.81627000  1.0
  H  H14  1  0.15577000  0.90651000  0.46505000  1.0
  H  H15  1  0.30936000  0.05847000  0.46503000  1.0
  H  H16  1  0.84423000  0.09349000  0.53495000  1.0
  H  H17  1  0.69063000  0.94152000  0.53497000  1.0
  H  H18  1  0.00130000  0.95704000  0.38575000  1.0
  H  H19  1  0.38479000  0.92884000  0.38593000  1.0
  H  H20  1  0.99871000  0.04296000  0.61426000  1.0
  H  H21  1  0.61522000  0.07117000  0.61408000  1.0
  H  H22  1  0.65465000  0.64969000  0.24872000  1.0
  H  H23  1  0.59403000  0.09918000  0.24898000  1.0
  H  H24  1  0.34535000  0.35031000  0.75128000  1.0
  H  H25  1  0.40598000  0.90083000  0.75103000  1.0
  H  H26  1  0.67568000  0.61723000  0.40923000  1.0
  H  H27  1  0.73350000  0.29216000  0.40941000  1.0
  H  H28  1  0.32432000  0.38277000  0.59077000  1.0
  H  H29  1  0.26651000  0.70785000  0.59060000  1.0
  H  H30  1  0.41672000  0.24638000  0.19637000  1.0
  H  H31  1  0.77948000  0.44985000  0.19619000  1.0
  H  H32  1  0.58329000  0.75363000  0.80364000  1.0
  H  H33  1  0.22053000  0.55016000  0.80382000  1.0
  H  H34  1  0.41351000  0.29458000  0.04428000  1.0
  H  H35  1  0.63051000  0.24955000  0.04426000  1.0
  H  H36  1  0.58649000  0.70542000  0.95572000  1.0
  H  H37  1  0.36949000  0.75046000  0.95575000  1.0
  H  H38  1  0.49061000  0.30466000  0.38120000  1.0
  H  H39  1  0.89024000  0.57658000  0.38101000  1.0
  H  H40  1  0.50939000  0.69534000  0.61880000  1.0
  H  H41  1  0.10977000  0.42343000  0.61900000  1.0
  H  H42  1  0.68238000  0.56613000  0.53430000  1.0
  H  H43  1  0.85174000  0.46822000  0.53417000  1.0
  H  H44  1  0.31762000  0.43387000  0.46570000  1.0
  H  H45  1  0.14826000  0.53178000  0.46583000  1.0
  H  H46  1  0.75237000  0.57525000  0.87100000  1.0
  H  H47  1  0.11855000  0.79548000  0.87085000  1.0
  H  H48  1  0.24763000  0.42476000  0.12900000  1.0
  H  H49  1  0.88145000  0.20453000  0.12915000  1.0
  H  H50  1  0.75025000  0.62462000  0.71926000  1.0
  H  H51  1  0.96883000  0.59450000  0.71909000  1.0
  H  H52  1  0.24975000  0.37538000  0.28074000  1.0
  H  H53  1  0.03118000  0.40551000  0.28092000  1.0
  H  H54  1  0.50218000  0.25297000  0.50476000  1.0
  H  H55  1  0.00252000  0.75184000  0.50467000  1.0
  H  H56  1  0.49783000  0.74704000  0.49525000  1.0
  H  H57  1  0.99747000  0.24817000  0.49533000  1.0
  H  H58  1  0.51156000  0.22024000  0.66445000  1.0
  H  H59  1  0.15306000  0.94407000  0.66437000  1.0
  H  H60  1  0.48845000  0.77976000  0.33555000  1.0
  H  H61  1  0.84694000  0.05594000  0.33563000  1.0
  C  C62  1  0.89672000  0.79145000  0.24050000  1.0
  C  C63  1  0.34382000  0.94898000  0.24053000  1.0
  C  C64  1  0.10330000  0.20856000  0.75951000  1.0
  C  C65  1  0.65618000  0.05101000  0.75947000  1.0
  C  C66  1  0.88650000  0.68085000  0.18453000  1.0
  C  C67  1  0.29795000  0.00349000  0.18445000  1.0
  C  C68  1  0.11352000  0.31916000  0.81548000  1.0
  C  C69  1  0.70206000  0.99651000  0.81556000  1.0
  C  C70  1  0.97474000  0.65429000  0.22830000  1.0
  C  C71  1  0.25349000  0.07382000  0.22815000  1.0
  C  C72  1  0.02527000  0.34571000  0.77170000  1.0
  C  C73  1  0.74650000  0.92617000  0.77185000  1.0
  C  C74  1  0.07048000  0.73643000  0.32823000  1.0
  C  C75  1  0.25769000  0.09160000  0.32810000  1.0
  C  C76  1  0.92952000  0.26358000  0.67177000  1.0
  C  C77  1  0.74230000  0.90839000  0.67190000  1.0
  C  C78  1  0.08085000  0.84540000  0.38634000  1.0
  C  C79  1  0.30555000  0.04084000  0.38631000  1.0
  C  C80  1  0.91916000  0.15461000  0.61367000  1.0
  C  C81  1  0.69444000  0.95915000  0.61368000  1.0
  C  C82  1  0.99388000  0.87211000  0.34166000  1.0
  C  C83  1  0.34790000  0.96951000  0.34171000  1.0
  C  C84  1  0.00613000  0.12789000  0.65834000  1.0
  C  C85  1  0.65210000  0.03049000  0.65829000  1.0
  C  C86  1  0.80780000  0.82976000  0.19861000  1.0
  C  C87  1  0.39107000  0.86900000  0.19878000  1.0
  C  C88  1  0.19220000  0.17024000  0.80139000  1.0
  C  C89  1  0.60895000  0.13101000  0.80123000  1.0
  C  C90  1  0.77837000  0.58782000  0.08058000  1.0
  C  C91  1  0.30227000  0.99267000  0.08058000  1.0
  C  C92  1  0.22163000  0.41218000  0.91942000  1.0
  C  C93  1  0.69774000  0.00734000  0.91943000  1.0
  C  C94  1  0.60488000  0.56108000  0.24100000  1.0
  C  C95  1  0.63602000  0.17999000  0.24115000  1.0
  C  C96  1  0.39513000  0.43892000  0.75900000  1.0
  C  C97  1  0.36398000  0.82002000  0.75886000  1.0
  C  C98  1  0.61510000  0.54210000  0.33055000  1.0
  C  C99  1  0.71535000  0.28853000  0.33067000  1.0
  C  C100  1  0.38491000  0.45790000  0.66945000  1.0
  C  C101  1  0.28465000  0.71148000  0.66934000  1.0
  C  C102  1  0.54679000  0.42728000  0.31729000  1.0
  C  C103  1  0.77040000  0.39001000  0.31729000  1.0
  C  C104  1  0.45322000  0.57272000  0.68271000  1.0
  C  C105  1  0.22961000  0.61000000  0.68272000  1.0
  C  C106  1  0.47164000  0.33712000  0.21208000  1.0
  C  C107  1  0.74033000  0.37490000  0.21204000  1.0
  C  C108  1  0.52836000  0.66288000  0.78792000  1.0
  C  C109  1  0.25966000  0.62510000  0.78796000  1.0
  C  C110  1  0.46838000  0.36288000  0.12678000  1.0
  C  C111  1  0.65821000  0.26384000  0.12679000  1.0
  C  C112  1  0.53162000  0.63712000  0.87322000  1.0
  C  C113  1  0.34178000  0.73615000  0.87321000  1.0
  C  C114  1  0.55118000  0.39745000  0.40531000  1.0
  C  C115  1  0.85393000  0.50792000  0.40519000  1.0
  C  C116  1  0.44883000  0.60256000  0.59470000  1.0
  C  C117  1  0.14607000  0.49208000  0.59481000  1.0
  C  C118  1  0.62203000  0.47335000  0.51016000  1.0
  C  C119  1  0.88802000  0.53685000  0.51005000  1.0
  C  C120  1  0.37797000  0.52665000  0.48984000  1.0
  C  C121  1  0.11198000  0.46316000  0.48996000  1.0
  C  C122  1  0.69819000  0.50683000  0.78829000  1.0
  C  C123  1  0.09001000  0.78129000  0.78816000  1.0
  C  C124  1  0.30181000  0.49318000  0.21171000  1.0
  C  C125  1  0.91000000  0.21873000  0.21185000  1.0
  C  C126  1  0.69650000  0.53359000  0.70367000  1.0
  C  C127  1  0.00695000  0.66997000  0.70351000  1.0
  C  C128  1  0.30349000  0.46641000  0.29633000  1.0
  C  C129  1  0.99305000  0.33003000  0.29649000  1.0
  C  C130  1  0.62477000  0.44341000  0.59799000  1.0
  C  C131  1  0.97302000  0.65457000  0.59785000  1.0
  C  C132  1  0.37524000  0.55659000  0.40201000  1.0
  C  C133  1  0.02698000  0.34544000  0.40215000  1.0
  C  C134  1  0.55801000  0.32791000  0.58400000  1.0
  C  C135  1  0.02588000  0.75609000  0.58391000  1.0
  C  C136  1  0.44199000  0.67209000  0.41600000  1.0
  C  C137  1  0.97412000  0.24392000  0.41609000  1.0
  C  C138  1  0.56367000  0.30832000  0.67237000  1.0
  C  C139  1  0.10872000  0.86394000  0.67228000  1.0
  C  C140  1  0.43633000  0.69168000  0.32763000  1.0
  C  C141  1  0.89127000  0.13606000  0.32772000  1.0
  N  N142  1  0.16162000  0.70762000  0.37417000  1.0
  N  N143  1  0.21260000  0.16638000  0.37406000  1.0
  N  N144  1  0.83838000  0.29238000  0.62583000  1.0
  N  N145  1  0.78739000  0.83361000  0.62594000  1.0
  N  N146  1  0.53338000  0.47312000  0.14068000  1.0
  N  N147  1  0.60717000  0.16756000  0.14079000  1.0
  N  N148  1  0.46663000  0.52689000  0.85933000  1.0
  N  N149  1  0.39283000  0.83244000  0.85922000  1.0
  N  N150  1  0.63268000  0.39622000  0.77346000  1.0
  N  N151  1  0.14078000  0.87709000  0.77336000  1.0
  N  N152  1  0.36734000  0.60380000  0.22655000  1.0
  N  N153  1  0.85922000  0.12292000  0.22664000  1.0
  O  O154  1  0.82139000  0.87097000  0.13208000  1.0
  O  O155  1  0.31103000  0.76130000  0.13209000  1.0
  O  O156  1  0.17861000  0.12903000  0.86792000  1.0
  O  O157  1  0.68898000  0.23870000  0.86792000  1.0
  O  O158  1  0.73731000  0.82906000  0.23899000  1.0
  O  O159  1  0.50196000  0.91013000  0.23941000  1.0
  O  O160  1  0.26269000  0.17094000  0.76101000  1.0
  O  O161  1  0.49805000  0.08988000  0.76059000  1.0
  O  O162  1  0.69302000  0.60783000  0.05084000  1.0
  O  O163  1  0.35781000  0.94281000  0.05088000  1.0
  O  O164  1  0.30699000  0.39217000  0.94917000  1.0
  O  O165  1  0.64219000  0.05719000  0.94912000  1.0
  O  O166  1  0.78157000  0.49380000  0.03187000  1.0
  O  O167  1  0.25051000  0.03811000  0.03186000  1.0
  O  O168  1  0.21845000  0.50621000  0.96814000  1.0
  O  O169  1  0.74950000  0.96190000  0.96815000  1.0
  O  O170  1  0.14543000  0.60616000  0.32619000  1.0
  O  O171  1  0.18087000  0.21993000  0.32611000  1.0
  O  O172  1  0.85457000  0.39384000  0.67381000  1.0
  O  O173  1  0.81911000  0.78005000  0.67388000  1.0
  O  O174  1  0.25110000  0.78568000  0.45984000  1.0
  O  O175  1  0.20887000  0.17401000  0.45976000  1.0
  O  O176  1  0.74890000  0.21432000  0.54017000  1.0
  O  O177  1  0.79112000  0.82599000  0.54024000  1.0
  O  O178  1  0.49874000  0.65445000  0.07399000  1.0
  O  O179  1  0.57535000  0.91967000  0.07417000  1.0
  O  O180  1  0.50128000  0.34556000  0.92602000  1.0
  O  O181  1  0.42465000  0.08032000  0.92583000  1.0
