# generated using pymatgen
data_CuH4C5(S2Br)2
_symmetry_space_group_name_H-M   'P 1'
_cell_length_a   9.29616000
_cell_length_b   9.96782000
_cell_length_c   10.96670000
_cell_angle_alpha   89.99990000
_cell_angle_beta   90.00000000
_cell_angle_gamma   99.44940000
_symmetry_Int_Tables_number   1
_chemical_formula_structural   CuH4C5(S2Br)2
_chemical_formula_sum   'Cu4 H16 C20 S16 Br8'
_cell_volume   1002.41242657
_cell_formula_units_Z   4
loop_
 _symmetry_equiv_pos_site_id
 _symmetry_equiv_pos_as_xyz
  1  'x, y, z'
loop_
 _atom_site_type_symbol
 _atom_site_label
 _atom_site_symmetry_multiplicity
 _atom_site_fract_x
 _atom_site_fract_y
 _atom_site_fract_z
 _atom_site_occupancy
  Cu  Cu0  1  0.10811000  0.95690000  0.92178000  1.0
  Cu  Cu1  1  0.60811000  0.45689000  0.57822000  1.0
  Cu  Cu2  1  0.89187000  0.04311000  0.07824000  1.0
  Cu  Cu3  1  0.39188000  0.54309000  0.42179000  1.0
  H  H4  1  0.43766000  0.06066000  0.78577000  1.0
  H  H5  1  0.93765000  0.56065000  0.71425000  1.0
  H  H6  1  0.56234000  0.93935000  0.21423000  1.0
  H  H7  1  0.06235000  0.43935000  0.28576000  1.0
  H  H8  1  0.46555000  0.24111000  0.76602000  1.0
  H  H9  1  0.96553000  0.74110000  0.73398000  1.0
  H  H10  1  0.53446000  0.75889000  0.23398000  1.0
  H  H11  1  0.03446000  0.25891000  0.26601000  1.0
  H  H12  1  0.41667000  0.08837000  0.01249000  1.0
  H  H13  1  0.91667000  0.58836000  0.48751000  1.0
  H  H14  1  0.58335000  0.91163000  0.98750000  1.0
  H  H15  1  0.08335000  0.41163000  0.51249000  1.0
  H  H16  1  0.59049000  0.16775000  0.95602000  1.0
  H  H17  1  0.09047000  0.66775000  0.54400000  1.0
  H  H18  1  0.40953000  0.83224000  0.04397000  1.0
  H  H19  1  0.90953000  0.33226000  0.45602000  1.0
  C  C20  1  0.41608000  0.15698000  0.82488000  1.0
  C  C21  1  0.91609000  0.65698000  0.67511000  1.0
  C  C22  1  0.58390000  0.84301000  0.17510000  1.0
  C  C23  1  0.08392000  0.34302000  0.32488000  1.0
  C  C24  1  0.47265000  0.16988000  0.95395000  1.0
  C  C25  1  0.97264000  0.66989000  0.54604000  1.0
  C  C26  1  0.52736000  0.83009000  0.04601000  1.0
  C  C27  1  0.02736000  0.33012000  0.45395000  1.0
  C  C28  1  0.19219000  0.28123000  0.89816000  1.0
  C  C29  1  0.69217000  0.78121000  0.60184000  1.0
  C  C30  1  0.80782000  0.71879000  0.10185000  1.0
  C  C31  1  0.30782000  0.21878000  0.39816000  1.0
  C  C32  1  0.28694000  0.35448000  0.98103000  1.0
  C  C33  1  0.78692000  0.85448000  0.51900000  1.0
  C  C34  1  0.71309000  0.64553000  0.01898000  1.0
  C  C35  1  0.21307000  0.14552000  0.48101000  1.0
  C  C36  1  0.05283000  0.46045000  0.98518000  1.0
  C  C37  1  0.55282000  0.96043000  0.51483000  1.0
  C  C38  1  0.94720000  0.53955000  0.01484000  1.0
  C  C39  1  0.44718000  0.03955000  0.48516000  1.0
  S  S40  1  0.21966000  0.14165000  0.81385000  1.0
  S  S41  1  0.71966000  0.64164000  0.68615000  1.0
  S  S42  1  0.78033000  0.85838000  0.18616000  1.0
  S  S43  1  0.28034000  0.35837000  0.31384000  1.0
  S  S44  1  0.45873000  0.33038000  0.02685000  1.0
  S  S45  1  0.95870000  0.83039000  0.47315000  1.0
  S  S46  1  0.54129000  0.66959000  0.97315000  1.0
  S  S47  1  0.04128000  0.16961000  0.52684000  1.0
  S  S48  1  0.02217000  0.32861000  0.88238000  1.0
  S  S49  1  0.52216000  0.82860000  0.61764000  1.0
  S  S50  1  0.97783000  0.67140000  0.11764000  1.0
  S  S51  1  0.47783000  0.17140000  0.38237000  1.0
  S  S52  1  0.22312000  0.48884000  0.05037000  1.0
  S  S53  1  0.72309000  0.98883000  0.44963000  1.0
  S  S54  1  0.77692000  0.51116000  0.94964000  1.0
  S  S55  1  0.27690000  0.01116000  0.55034000  1.0
  Br  Br56  1  0.14218000  0.02028000  0.14196000  1.0
  Br  Br57  1  0.64218000  0.52026000  0.35804000  1.0
  Br  Br58  1  0.85781000  0.97977000  0.85804000  1.0
  Br  Br59  1  0.35780000  0.47974000  0.64198000  1.0
  Br  Br60  1  0.23140000  0.78613000  0.84209000  1.0
  Br  Br61  1  0.73137000  0.28613000  0.65791000  1.0
  Br  Br62  1  0.76859000  0.21387000  0.15793000  1.0
  Br  Br63  1  0.26858000  0.71384000  0.34209000  1.0
