# generated using pymatgen
data_Al3H31C42(Cl3O7)2
_symmetry_space_group_name_H-M   'P 1'
_cell_length_a   13.70640000
_cell_length_b   13.90060000
_cell_length_c   27.55690000
_cell_angle_alpha   86.37130000
_cell_angle_beta   88.99050000
_cell_angle_gamma   62.38420000
_symmetry_Int_Tables_number   1
_chemical_formula_structural   Al3H31C42(Cl3O7)2
_chemical_formula_sum   'Al6 H62 C84 Cl12 O28'
_cell_volume   4642.46315492
_cell_formula_units_Z   2
loop_
 _symmetry_equiv_pos_site_id
 _symmetry_equiv_pos_as_xyz
  1  'x, y, z'
loop_
 _atom_site_type_symbol
 _atom_site_label
 _atom_site_symmetry_multiplicity
 _atom_site_fract_x
 _atom_site_fract_y
 _atom_site_fract_z
 _atom_site_occupancy
  Al  Al0  1  0.51053000  0.69831000  0.75212000  1.0
  Al  Al1  1  0.73938000  0.70752000  0.75465000  1.0
  Al  Al2  1  0.74823000  0.48897000  0.75376000  1.0
  Al  Al3  1  0.21354000  0.30652000  0.24758000  1.0
  Al  Al4  1  0.45873000  0.27576000  0.24213000  1.0
  Al  Al5  1  0.27482000  0.50274000  0.24396000  1.0
  H  H6  1  0.04138000  0.69652000  0.02409000  1.0
  H  H7  1  0.55806000  0.64498000  0.51704000  1.0
  H  H8  1  0.84221000  0.55469000  0.53026000  1.0
  H  H9  1  0.63304000  0.80138000  0.52030000  1.0
  H  H10  1  0.92773000  0.67719000  0.54780000  1.0
  H  H11  1  0.71481000  0.45158000  0.52128000  1.0
  H  H12  1  0.42772000  0.88776000  0.53321000  1.0
  H  H13  1  0.66624000  0.33604000  0.44810000  1.0
  H  H14  1  0.10338000  0.63004000  0.47780000  1.0
  H  H15  1  0.32382000  0.08776000  0.46908000  1.0
  H  H16  1  0.06969000  0.61929000  0.56120000  1.0
  H  H17  1  0.72972000  0.41944000  0.03771000  1.0
  H  H18  1  0.68607000  0.34096000  0.53214000  1.0
  H  H19  1  0.35563000  0.02254000  0.55083000  1.0
  H  H20  1  0.69008000  0.44981000  0.43750000  1.0
  H  H21  1  0.96223000  0.67991000  0.46429000  1.0
  H  H22  1  0.39048000  0.95262000  0.45155000  1.0
  H  H23  1  0.07522000  0.37579000  0.97935000  1.0
  H  H24  1  0.51305000  0.30066000  0.97194000  1.0
  H  H25  1  0.39428000  0.08610000  0.92050000  1.0
  H  H26  1  0.62826000  0.55696000  0.02668000  1.0
  H  H27  1  0.89730000  0.74445000  0.02803000  1.0
  H  H28  1  0.35781000  0.94132000  0.05601000  1.0
  H  H29  1  0.49165000  0.89230000  0.08104000  1.0
  H  H30  1  0.79613000  0.60922000  0.97528000  1.0
  H  H31  1  0.43005000  0.59277000  0.94627000  1.0
  H  H32  1  0.66723000  0.91162000  0.97853000  1.0
  H  H33  1  0.38278000  0.51449000  0.04035000  1.0
  H  H34  1  0.90161000  0.48286000  0.06647000  1.0
  H  H35  1  0.54894000  0.11104000  0.02387000  1.0
  H  H36  1  0.87339000  0.46712000  0.98448000  1.0
  H  H37  1  0.38320000  0.49445000  0.95675000  1.0
  H  H38  1  0.58152000  0.03728000  0.94731000  1.0
  H  H39  1  0.65762000  0.25126000  0.96849000  1.0
  H  H40  1  0.43180000  0.61076000  0.02999000  1.0
  H  H41  1  0.81833000  0.62490000  0.05830000  1.0
  H  H42  1  0.60585000  0.98150000  0.05462000  1.0
  H  H43  1  0.97352000  0.40743000  0.45502000  1.0
  H  H44  1  0.39461000  0.65966000  0.44508000  1.0
  H  H45  1  0.67285000  0.93538000  0.44423000  1.0
  H  H46  1  0.38154000  0.50892000  0.54492000  1.0
  H  H47  1  0.12487000  0.32904000  0.55698000  1.0
  H  H48  1  0.60284000  0.07263000  0.55098000  1.0
  H  H49  1  0.92217000  0.41187000  0.53676000  1.0
  H  H50  1  0.14826000  0.44675000  0.95859000  1.0
  H  H51  1  0.42191000  0.66864000  0.52815000  1.0
  H  H52  1  0.70511000  0.87733000  0.52673000  1.0
  H  H53  1  0.35960000  0.49833000  0.46155000  1.0
  H  H54  1  0.17637000  0.33454000  0.47571000  1.0
  H  H55  1  0.57419000  0.12969000  0.46832000  1.0
  H  H56  1  0.18561000  0.41219000  0.57022000  1.0
  H  H57  1  0.49018000  0.37449000  0.54761000  1.0
  H  H58  1  0.45925000  0.13355000  0.55977000  1.0
  H  H59  1  0.52912000  0.64126000  0.43376000  1.0
  H  H60  1  0.88670000  0.54893000  0.44772000  1.0
  H  H61  1  0.32767000  0.00975000  0.94261000  1.0
  H  H62  1  0.59960000  0.86064000  0.43807000  1.0
  H  H63  1  0.22765000  0.42585000  0.48824000  1.0
  H  H64  1  0.46993000  0.36497000  0.46414000  1.0
  H  H65  1  0.43048000  0.19322000  0.47755000  1.0
  H  H66  1  0.33048000  0.79105000  0.78115000  1.0
  H  H67  1  0.09068000  0.24755000  0.28039000  1.0
  C  C68  1  0.58300000  0.80203000  0.82790000  1.0
  C  C69  1  0.48149000  0.60954000  0.45578000  1.0
  C  C70  1  0.95509000  0.48565000  0.46971000  1.0
  C  C71  1  0.60529000  0.92190000  0.45953000  1.0
  C  C72  1  0.10954000  0.49811000  0.36945000  1.0
  C  C73  1  0.48780000  0.46247000  0.35167000  1.0
  C  C74  1  0.45274000  0.09970000  0.35955000  1.0
  C  C75  1  0.57325000  0.51080000  0.63066000  1.0
  C  C76  1  0.94408000  0.51479000  0.64731000  1.0
  C  C77  1  0.56602000  0.89210000  0.63899000  1.0
  C  C78  1  0.00964000  0.50108000  0.55539000  1.0
  C  C79  1  0.87383000  0.53772000  0.82200000  1.0
  C  C80  1  0.54361000  0.49870000  0.53654000  1.0
  C  C81  1  0.53217000  0.96273000  0.54538000  1.0
  C  C82  1  0.51768000  0.49061000  0.44367000  1.0
  C  C83  1  0.05748000  0.50481000  0.46323000  1.0
  C  C84  1  0.49642000  0.02956000  0.45302000  1.0
  C  C85  1  0.03264000  0.61423000  0.48433000  1.0
  C  C86  1  0.64014000  0.41934000  0.45856000  1.0
  C  C87  1  0.40030000  0.01074000  0.47364000  1.0
  C  C88  1  0.65493000  0.42239000  0.51376000  1.0
  C  C89  1  0.00848000  0.61053000  0.53923000  1.0
  C  C90  1  0.58980000  0.48005000  0.81180000  1.0
  C  C91  1  0.42249000  0.96902000  0.52770000  1.0
  C  C92  1  0.08529000  0.50380000  0.41219000  1.0
  C  C93  1  0.50191000  0.48036000  0.39287000  1.0
  C  C94  1  0.47500000  0.06729000  0.40198000  1.0
  C  C95  1  0.55867000  0.50420000  0.58794000  1.0
  C  C96  1  0.97837000  0.50329000  0.60599000  1.0
  C  C97  1  0.55176000  0.92508000  0.59643000  1.0
  C  C98  1  0.58569000  0.83863000  0.68700000  1.0
  C  C99  1  0.88300000  0.54027000  0.69148000  1.0
  C  C100  1  0.59256000  0.53147000  0.67907000  1.0
  C  C101  1  0.37541000  0.19155000  0.17116000  1.0
  C  C102  1  0.42152000  0.15178000  0.31140000  1.0
  C  C103  1  0.45168000  0.43957000  0.30748000  1.0
  C  C104  1  0.14801000  0.47385000  0.32057000  1.0
  C  C105  1  0.96921000  0.65675000  0.96350000  1.0
  C  C106  1  0.65207000  0.45627000  0.96582000  1.0
  C  C107  1  0.48965000  0.86529000  0.00424000  1.0
  C  C108  1  0.58568000  0.32867000  0.03558000  1.0
  C  C109  1  0.09513000  0.47205000  0.03375000  1.0
  C  C110  1  0.35002000  0.10572000  0.99680000  1.0
  C  C111  1  0.07876000  0.45272000  0.98060000  1.0
  C  C112  1  0.46552000  0.44034000  0.18076000  1.0
  C  C113  1  0.58085000  0.31832000  0.98022000  1.0
  C  C114  1  0.38812000  0.03669000  0.95180000  1.0
  C  C115  1  0.64894000  0.47238000  0.02106000  1.0
  C  C116  1  0.97488000  0.67591000  0.01782000  1.0
  C  C117  1  0.43994000  0.93339000  0.04885000  1.0
  C  C118  1  0.03883000  0.57288000  0.14356000  1.0
  C  C119  1  0.51743000  0.46350000  0.13916000  1.0
  C  C120  1  0.39105000  0.14179000  0.12492000  1.0
  C  C121  1  0.56615000  0.43386000  0.85584000  1.0
  C  C122  1  0.92803000  0.51983000  0.86820000  1.0
  C  C123  1  0.10643000  0.52579000  0.18661000  1.0
  C  C124  1  0.55984000  0.84665000  0.87544000  1.0
  C  C125  1  0.96959000  0.54500000  0.95916000  1.0
  C  C126  1  0.55951000  0.42575000  0.95176000  1.0
  C  C127  1  0.50256000  0.93665000  0.96094000  1.0
  C  C128  1  0.55985000  0.44813000  0.04548000  1.0
  C  C129  1  0.99109000  0.57487000  0.05071000  1.0
  C  C130  1  0.43285000  0.04775000  0.04021000  1.0
  C  C131  1  0.88996000  0.55550000  0.04407000  1.0
  C  C132  1  0.44679000  0.52876000  0.02202000  1.0
  C  C133  1  0.54880000  0.03231000  0.02518000  1.0
  C  C134  1  0.12525000  0.40645000  0.54643000  1.0
  C  C135  1  0.44672000  0.51676000  0.96708000  1.0
  C  C136  1  0.87407000  0.54419000  0.98998000  1.0
  C  C137  1  0.58329000  0.97876000  0.97643000  1.0
  C  C138  1  0.00919000  0.58548000  0.10135000  1.0
  C  C139  1  0.54889000  0.46011000  0.09751000  1.0
  C  C140  1  0.40184000  0.10363000  0.08544000  1.0
  C  C141  1  0.56149000  0.41898000  0.89950000  1.0
  C  C142  1  0.95283000  0.52826000  0.90923000  1.0
  C  C143  1  0.53654000  0.88152000  0.91570000  1.0
  C  C144  1  0.92431000  0.48738000  0.52404000  1.0
  C  C145  1  0.46017000  0.45498000  0.52838000  1.0
  C  C146  1  0.49902000  0.61395000  0.51079000  1.0
  C  C147  1  0.62697000  0.88290000  0.51405000  1.0
  C  C148  1  0.44585000  0.44871000  0.47337000  1.0
  C  C149  1  0.15542000  0.41156000  0.49222000  1.0
  C  C150  1  0.50630000  0.11579000  0.48289000  1.0
  C  C151  1  0.52592000  0.07687000  0.53746000  1.0
  Cl  Cl152  1  0.08360000  0.65811000  0.93094000  1.0
  Cl  Cl153  1  0.63193000  0.57810000  0.93135000  1.0
  Cl  Cl154  1  0.84636000  0.76364000  0.93517000  1.0
  Cl  Cl155  1  0.62253000  0.75490000  0.02129000  1.0
  Cl  Cl156  1  0.78424000  0.34957000  0.94946000  1.0
  Cl  Cl157  1  0.40309000  0.80843000  0.98609000  1.0
  Cl  Cl158  1  0.71971000  0.23456000  0.06007000  1.0
  Cl  Cl159  1  0.21405000  0.49420000  0.03882000  1.0
  Cl  Cl160  1  0.21497000  0.12497000  0.01311000  1.0
  Cl  Cl161  1  0.11892000  0.35652000  0.07335000  1.0
  Cl  Cl162  1  0.48861000  0.29505000  0.06627000  1.0
  Cl  Cl163  1  0.34107000  0.23723000  0.98175000  1.0
  O  O164  1  0.52041000  0.57492000  0.79747000  1.0
  O  O165  1  0.28052000  0.22898000  0.18929000  1.0
  O  O166  1  0.51868000  0.34369000  0.20078000  1.0
  O  O167  1  0.15995000  0.57536000  0.20088000  1.0
  O  O168  1  0.51844000  0.61562000  0.69694000  1.0
  O  O169  1  0.67540000  0.82243000  0.70907000  1.0
  O  O170  1  0.86807000  0.46446000  0.71402000  1.0
  O  O171  1  0.15156000  0.38822000  0.30539000  1.0
  O  O172  1  0.49915000  0.15993000  0.28642000  1.0
  O  O173  1  0.36977000  0.52019000  0.28543000  1.0
  O  O174  1  0.51737000  0.80826000  0.70339000  1.0
  O  O175  1  0.66987000  0.79596000  0.80661000  1.0
  O  O176  1  0.84334000  0.63803000  0.70389000  1.0
  O  O177  1  0.68554000  0.46395000  0.69904000  1.0
  O  O178  1  0.32309000  0.18897000  0.29731000  1.0
  O  O179  1  0.49819000  0.34218000  0.29456000  1.0
  O  O180  1  0.17793000  0.53845000  0.29703000  1.0
  O  O181  1  0.66684000  0.63112000  0.75408000  1.0
  O  O182  1  0.31603000  0.36229000  0.24418000  1.0
  O  O183  1  0.84321000  0.46955000  0.80882000  1.0
  O  O184  1  0.11387000  0.43707000  0.20462000  1.0
  O  O185  1  0.46006000  0.19379000  0.18954000  1.0
  O  O186  1  0.36986000  0.51136000  0.19227000  1.0
  O  O187  1  0.51632000  0.77232000  0.81157000  1.0
  O  O188  1  0.85527000  0.62741000  0.79839000  1.0
  O  O189  1  0.68568000  0.42249000  0.79348000  1.0
  O  O190  1  0.36674000  0.76573000  0.75075000  1.0
  O  O191  1  0.12468000  0.24836000  0.24944000  1.0
