# generated using pymatgen
data_ScH18(C5O2)3
_symmetry_space_group_name_H-M   'P 1'
_cell_length_a   9.00985000
_cell_length_b   17.62390000
_cell_length_c   31.24078367
_cell_angle_alpha   87.87638052
_cell_angle_beta   81.70657124
_cell_angle_gamma   75.19060000
_symmetry_Int_Tables_number   1
_chemical_formula_structural   ScH18(C5O2)3
_chemical_formula_sum   'Sc12 H216 C180 O72'
_cell_volume   4745.74270875
_cell_formula_units_Z   12
loop_
 _symmetry_equiv_pos_site_id
 _symmetry_equiv_pos_as_xyz
  1  'x, y, z'
loop_
 _atom_site_type_symbol
 _atom_site_label
 _atom_site_symmetry_multiplicity
 _atom_site_fract_x
 _atom_site_fract_y
 _atom_site_fract_z
 _atom_site_occupancy
  Sc  Sc0  1  0.40999000  0.85150000  0.83341000  1.0
  Sc  Sc1  1  0.73817000  0.85155000  0.16664000  1.0
  Sc  Sc2  1  0.49376333  0.35144000  0.66666667  1.0
  Sc  Sc3  1  0.15501000  0.35152000  0.33339000  1.0
  Sc  Sc4  1  0.92829000  0.80743000  0.83339000  1.0
  Sc  Sc5  1  0.26401000  0.80751000  0.16654000  1.0
  Sc  Sc6  1  0.01186333  0.30758000  0.66666667  1.0
  Sc  Sc7  1  0.68084667  0.30762000  0.33333333  1.0
  Sc  Sc8  1  0.07371000  0.85268000  0.49998000  1.0
  Sc  Sc9  1  0.82372000  0.35251000  0.00003000  1.0
  Sc  Sc10  1  0.59590000  0.80804000  0.50007000  1.0
  Sc  Sc11  1  0.34606000  0.30801000  0.00000000  1.0
  H  H12  1  0.45530000  0.85449000  0.70990000  1.0
  H  H13  1  0.68998000  0.85452000  0.29011000  1.0
  H  H14  1  0.41528000  0.35457000  0.79015000  1.0
  H  H15  1  0.22997000  0.35461000  0.20991000  1.0
  H  H16  1  0.50601000  0.84095000  0.62899000  1.0
  H  H17  1  0.65257000  0.84101000  0.37102000  1.0
  H  H18  1  0.38518000  0.34111000  0.87108000  1.0
  H  H19  1  0.27346000  0.34102000  0.12899000  1.0
  H  H20  1  0.02436000  0.85573000  0.62643000  1.0
  H  H21  1  0.11937000  0.85583000  0.37366000  1.0
  H  H22  1  0.90099000  0.35578000  0.87367000  1.0
  H  H23  1  0.74298000  0.35571000  0.12634000  1.0
  H  H24  1  0.97570000  0.86343000  0.70765000  1.0
  H  H25  1  0.16050000  0.86358000  0.29245000  1.0
  H  H26  1  0.93343000  0.36346000  0.79246000  1.0
  H  H27  1  0.70294000  0.36353000  0.20754000  1.0
  H  H28  1  0.26641000  0.07714000  0.61790000  1.0
  H  H29  1  0.65685000  0.07696000  0.38203000  1.0
  H  H30  1  0.13420000  0.57714000  0.88226000  1.0
  H  H31  1  0.28848000  0.57728000  0.11778000  1.0
  H  H32  1  0.43411000  0.96581000  0.57192000  1.0
  H  H33  1  0.60037000  0.96562000  0.42799000  1.0
  H  H34  1  0.25595000  0.46586000  0.92828000  1.0
  H  H35  1  0.27825000  0.46593000  0.07180000  1.0
  H  H36  1  0.82122000  0.06727000  0.56853000  1.0
  H  H37  1  0.11184000  0.06721000  0.43141000  1.0
  H  H38  1  0.63981000  0.56728000  0.93152000  1.0
  H  H39  1  0.79287000  0.56704000  0.06858000  1.0
  H  H40  1  0.65309000  0.17887000  0.61429000  1.0
  H  H41  1  0.16850000  0.17889000  0.38571000  1.0
  H  H42  1  0.51731000  0.67888000  0.88576000  1.0
  H  H43  1  0.80352000  0.67870000  0.11432000  1.0
  H  H44  1  0.42837000  0.08277000  0.78656000  1.0
  H  H45  1  0.48889000  0.08272000  0.21343000  1.0
  H  H46  1  0.46466000  0.58263000  0.71360000  1.0
  H  H47  1  0.95237000  0.58299000  0.28641000  1.0
  H  H48  1  0.91627000  0.99714000  0.79227000  1.0
  H  H49  1  0.08616000  0.99751000  0.20765000  1.0
  H  H50  1  0.95844000  0.49750000  0.70765000  1.0
  H  H51  1  0.54432000  0.49734000  0.29231000  1.0
  H  H52  1  0.96447000  0.11437000  0.75079000  1.0
  H  H53  1  0.92114000  0.11468000  0.24924000  1.0
  H  H54  1  0.96491000  0.61475000  0.74916000  1.0
  H  H55  1  0.42025000  0.61451000  0.25080000  1.0
  H  H56  1  0.47610000  0.20048000  0.74536000  1.0
  H  H57  1  0.32384000  0.20037000  0.25473000  1.0
  H  H58  1  0.47093000  0.70039000  0.75479000  1.0
  H  H59  1  0.82804000  0.70061000  0.24515000  1.0
  H  H60  1  0.15602000  0.05710000  0.89631000  1.0
  H  H61  1  0.78684000  0.05721000  0.10372000  1.0
  H  H62  1  0.30283000  0.55728000  0.60364000  1.0
  H  H63  1  0.14051000  0.55715000  0.39631000  1.0
  H  H64  1  0.99127000  0.18065000  0.93274000  1.0
  H  H65  1  0.82819000  0.18074000  0.06724000  1.0
  H  H66  1  0.17440000  0.68089000  0.56723000  1.0
  H  H67  1  0.14525000  0.68069000  0.43278000  1.0
  H  H68  1  0.60556000  0.07602000  0.95589000  1.0
  H  H69  1  0.31842000  0.07589000  0.04398000  1.0
  H  H70  1  0.81170000  0.57627000  0.54419000  1.0
  H  H71  1  0.61257000  0.57607000  0.45582000  1.0
  H  H72  1  0.77034000  0.95255000  0.91945000  1.0
  H  H73  1  0.27695000  0.95243000  0.08045000  1.0
  H  H74  1  0.94013000  0.45277000  0.58059000  1.0
  H  H75  1  0.60767000  0.45263000  0.41938000  1.0
  H  H76  1  0.86123000  0.79077000  0.95802000  1.0
  H  H77  1  0.34864000  0.79078000  0.04195000  1.0
  H  H78  1  0.06931000  0.29092000  0.54187000  1.0
  H  H79  1  0.64024000  0.29090000  0.45811000  1.0
  H  H80  1  0.82590000  0.79278000  0.03909000  1.0
  H  H81  1  0.38188000  0.79295000  0.96088000  1.0
  H  H82  1  0.11470000  0.29295000  0.46080000  1.0
  H  H83  1  0.59270000  0.29315000  0.53917000  1.0
  H  H84  1  0.28082000  0.01778000  0.74967000  1.0
  H  H85  1  0.70120000  0.01789000  0.25025000  1.0
  H  H86  1  0.27987000  0.51786000  0.75023000  1.0
  H  H87  1  0.20194000  0.51787000  0.24970000  1.0
  H  H88  1  0.22663000  0.11402000  0.72626000  1.0
  H  H89  1  0.65919000  0.11414000  0.27364000  1.0
  H  H90  1  0.20230000  0.61408000  0.77366000  1.0
  H  H91  1  0.18355000  0.61408000  0.22625000  1.0
  H  H92  1  0.40258000  0.04573000  0.70510000  1.0
  H  H93  1  0.55149000  0.04586000  0.29482000  1.0
  H  H94  1  0.35716000  0.54578000  0.79479000  1.0
  H  H95  1  0.09675000  0.54587000  0.20514000  1.0
  H  H96  1  0.22097000  0.02979000  0.69722000  1.0
  H  H97  1  0.74904000  0.02989000  0.30270000  1.0
  H  H98  1  0.16770000  0.52981000  0.80271000  1.0
  H  H99  1  0.30221000  0.52976000  0.19722000  1.0
  H  H100  1  0.68855000  0.00667000  0.69381000  1.0
  H  H101  1  0.30521000  0.00669000  0.30621000  1.0
  H  H102  1  0.63193000  0.50707000  0.80630000  1.0
  H  H103  1  0.86120000  0.50714000  0.19373000  1.0
  H  H104  1  0.68231000  0.90834000  0.70818000  1.0
  H  H105  1  0.40981000  0.90839000  0.29182000  1.0
  H  H106  1  0.64015000  0.40874000  0.79192000  1.0
  H  H107  1  0.95128000  0.40881000  0.20813000  1.0
  H  H108  1  0.79208000  0.92801000  0.65827000  1.0
  H  H109  1  0.28046000  0.92797000  0.34175000  1.0
  H  H110  1  0.70002000  0.42840000  0.84183000  1.0
  H  H111  1  0.87165000  0.42844000  0.15824000  1.0
  H  H112  1  0.58562000  0.95640000  0.66469000  1.0
  H  H113  1  0.45848000  0.95642000  0.33531000  1.0
  H  H114  1  0.49998000  0.45675000  0.83542000  1.0
  H  H115  1  0.04342000  0.45678000  0.16459000  1.0
  H  H116  1  0.98199000  0.02624000  0.68174000  1.0
  H  H117  1  0.99123000  0.02633000  0.31822000  1.0
  H  H118  1  0.91407000  0.52632000  0.81816000  1.0
  H  H119  1  0.55909000  0.52627000  0.18181000  1.0
  H  H120  1  0.84333000  0.08919000  0.65263000  1.0
  H  H121  1  0.06693000  0.08923000  0.34735000  1.0
  H  H122  1  0.74645000  0.58928000  0.84731000  1.0
  H  H123  1  0.66379000  0.58914000  0.15258000  1.0
  H  H124  1  0.01461000  0.02713000  0.62408000  1.0
  H  H125  1  0.95746333  0.02723000  0.37587000  1.0
  H  H126  1  0.88935000  0.52723000  0.87581000  1.0
  H  H127  1  0.58271000  0.52710000  0.12416000  1.0
  H  H128  1  0.02629000  0.11008000  0.65398000  1.0
  H  H129  1  0.86311000  0.11021000  0.34593000  1.0
  H  H130  1  0.93081000  0.61016000  0.84586000  1.0
  H  H131  1  0.45851000  0.61011000  0.15409000  1.0
  H  H132  1  0.15275000  0.10196000  0.81123000  1.0
  H  H133  1  0.74515000  0.10181000  0.18869000  1.0
  H  H134  1  0.21480000  0.60188000  0.68853000  1.0
  H  H135  1  0.18371000  0.60206000  0.31128000  1.0
  H  H136  1  0.22081000  0.18723000  0.81783000  1.0
  H  H137  1  0.59177000  0.18710000  0.18213000  1.0
  H  H138  1  0.28929000  0.68722000  0.68203000  1.0
  H  H139  1  0.02382000  0.68735000  0.31786000  1.0
  H  H140  1  0.03247000  0.18281000  0.84277000  1.0
  H  H141  1  0.78448000  0.18270000  0.15716000  1.0
  H  H142  1  0.12601000  0.68280000  0.65703000  1.0
  H  H143  1  0.19160000  0.68289000  0.34283000  1.0
  H  H144  1  0.07054000  0.19259000  0.78548000  1.0
  H  H145  1  0.73680000  0.19241000  0.21445000  1.0
  H  H146  1  0.10664000  0.69242000  0.71433000  1.0
  H  H147  1  0.20115000  0.69267000  0.28554000  1.0
  H  H148  1  0.60055000  0.25448000  0.83003000  1.0
  H  H149  1  0.14462000  0.25451000  0.17007000  1.0
  H  H150  1  0.68071000  0.75431000  0.67003000  1.0
  H  H151  1  0.56467000  0.75412000  0.33013000  1.0
  H  H152  1  0.79448000  0.26322000  0.82749000  1.0
  H  H153  1  0.94191000  0.26329000  0.17264000  1.0
  H  H154  1  0.87208000  0.76310000  0.67256000  1.0
  H  H155  1  0.36455000  0.76289000  0.32755000  1.0
  H  H156  1  0.66678000  0.27957000  0.87766000  1.0
  H  H157  1  0.05319000  0.27968000  0.12245000  1.0
  H  H158  1  0.79448000  0.77951000  0.62240000  1.0
  H  H159  1  0.42559000  0.77917000  0.37775000  1.0
  H  H160  1  0.73788000  0.18269000  0.85548000  1.0
  H  H161  1  0.07895000  0.18278000  0.14462000  1.0
  H  H162  1  0.84353000  0.68260000  0.64456000  1.0
  H  H163  1  0.47358000  0.68232000  0.35553000  1.0
  H  H164  1  0.55970000  0.58555000  0.62136000  1.0
  H  H165  1  0.85515000  0.58536000  0.37868000  1.0
  H  H166  1  0.43093000  0.08529000  0.87871000  1.0
  H  H167  1  0.48348000  0.08565000  0.12132000  1.0
  H  H168  1  0.61508000  0.65983000  0.58635000  1.0
  H  H169  1  0.72553000  0.65963000  0.41369000  1.0
  H  H170  1  0.45128000  0.15954000  0.91372000  1.0
  H  H171  1  0.38883000  0.15989000  0.08629000  1.0
  H  H172  1  0.41529000  0.66330000  0.60175000  1.0
  H  H173  1  0.92189000  0.66307000  0.39830000  1.0
  H  H174  1  0.26690000  0.16300000  0.89831000  1.0
  H  H175  1  0.56977000  0.16337000  0.10169000  1.0
  H  H176  1  0.52661000  0.68339000  0.64064000  1.0
  H  H177  1  0.79047000  0.68322000  0.35940000  1.0
  H  H178  1  0.41710000  0.18315000  0.85942000  1.0
  H  H179  1  0.39947000  0.18350000  0.14058000  1.0
  H  H180  1  0.33651000  0.04995000  0.96090000  1.0
  H  H181  1  0.61353000  0.05003000  0.03906000  1.0
  H  H182  1  0.54735000  0.55025000  0.53912000  1.0
  H  H183  1  0.90216000  0.55011000  0.46092000  1.0
  H  H184  1  0.40816000  0.95788000  0.98640000  1.0
  H  H185  1  0.63385000  0.95798000  0.01355000  1.0
  H  H186  1  0.64460000  0.45821000  0.51361000  1.0
  H  H187  1  0.89717000  0.45802000  0.48641000  1.0
  H  H188  1  0.30854000  0.96165000  0.94055000  1.0
  H  H189  1  0.72974000  0.96169000  0.05940000  1.0
  H  H190  1  0.49914000  0.46190000  0.55946000  1.0
  H  H191  1  0.03890000  0.46185000  0.44058000  1.0
  H  H192  1  0.49673000  0.97802000  0.93371000  1.0
  H  H193  1  0.52517000  0.97810000  0.06625000  1.0
  H  H194  1  0.68045000  0.47832000  0.56630000  1.0
  H  H195  1  0.84122000  0.47815000  0.43371000  1.0
  H  H196  1  0.93431000  0.93259000  0.00100000  1.0
  H  H197  1  0.13316000  0.93258000  0.99910000  1.0
  H  H198  1  0.18524000  0.43271000  0.49899000  1.0
  H  H199  1  0.38219000  0.43274000  0.50086000  1.0
  H  H200  1  0.08197000  0.85824000  0.97120000  1.0
  H  H201  1  0.05979000  0.85827000  0.02894000  1.0
  H  H202  1  0.30313000  0.35842000  0.52883000  1.0
  H  H203  1  0.33864000  0.35836000  0.47108000  1.0
  H  H204  1  0.07462000  0.03285000  0.54634000  1.0
  H  H205  1  0.89221000  0.03294000  0.45357000  1.0
  H  H206  1  0.87106000  0.53284000  0.95364000  1.0
  H  H207  1  0.59652000  0.53274000  0.04641000  1.0
  H  H208  1  0.05817000  0.11429000  0.51001000  1.0
  H  H209  1  0.82726000  0.11434000  0.48989000  1.0
  H  H210  1  0.81820000  0.61430000  0.98994000  1.0
  H  H211  1  0.56804000  0.61423000  0.01012000  1.0
  H  H212  1  0.23578000  0.07425000  0.53085000  1.0
  H  H213  1  0.68966000  0.07429000  0.46908000  1.0
  H  H214  1  0.01666000  0.57428000  0.96913000  1.0
  H  H215  1  0.40948000  0.57429000  0.03094000  1.0
  H  H216  1  0.07104000  0.12834000  0.56561000  1.0
  H  H217  1  0.80022000  0.12843000  0.43430000  1.0
  H  H218  1  0.88673000  0.62834000  0.93434000  1.0
  H  H219  1  0.48555000  0.62826000  0.06572000  1.0
  H  H220  1  0.31160000  0.21947000  0.52122000  1.0
  H  H221  1  0.46905000  0.21951000  0.47903000  1.0
  H  H222  1  0.08278000  0.71953000  0.97881000  1.0
  H  H223  1  0.19782000  0.71960000  0.02104000  1.0
  H  H224  1  0.36502000  0.14574000  0.48023000  1.0
  H  H225  1  0.48941000  0.14572000  0.52000000  1.0
  H  H226  1  0.09493000  0.64586000  0.01985000  1.0
  H  H227  1  0.25928000  0.64576000  0.98012000  1.0
  C  C228  1  0.18684000  0.86093000  0.76142000  1.0
  C  C229  1  0.95195000  0.86092000  0.23861000  1.0
  C  C230  1  0.19854000  0.36087000  0.73866000  1.0
  C  C231  1  0.44049000  0.36103000  0.26138000  1.0
  C  C232  1  0.36243000  0.85379000  0.69127000  1.0
  C  C233  1  0.78347000  0.85385000  0.30876000  1.0
  C  C234  1  0.30380000  0.35390000  0.80881000  1.0
  C  C235  1  0.34211000  0.35391000  0.19125000  1.0
  C  C236  1  0.39012000  0.84701000  0.64651000  1.0
  C  C237  1  0.76244000  0.84709000  0.35353000  1.0
  C  C238  1  0.28676000  0.34715000  0.85357000  1.0
  C  C239  1  0.36586000  0.34710000  0.14648000  1.0
  C  C240  1  0.26799000  0.84735000  0.62324000  1.0
  C  C241  1  0.88422000  0.84740000  0.37681000  1.0
  C  C242  1  0.14139000  0.34746000  0.87684000  1.0
  C  C243  1  0.51095000  0.34736000  0.12320000  1.0
  C  C244  1  0.11786000  0.85494000  0.64513000  1.0
  C  C245  1  0.02675000  0.85504000  0.35493000  1.0
  C  C246  1  0.01312000  0.35502000  0.85496000  1.0
  C  C247  1  0.63165000  0.35497000  0.14507000  1.0
  C  C248  1  0.09088000  0.85944000  0.69003000  1.0
  C  C249  1  0.04931000  0.85956000  0.31004000  1.0
  C  C250  1  0.03100000  0.35951000  0.81007000  1.0
  C  C251  1  0.60929000  0.35953000  0.18996000  1.0
  C  C252  1  0.21311000  0.85872000  0.71323000  1.0
  C  C253  1  0.92789000  0.85879000  0.28681000  1.0
  C  C254  1  0.17646000  0.35878000  0.78685000  1.0
  C  C255  1  0.46459000  0.35883000  0.21319000  1.0
  C  C256  1  0.29860000  0.83818000  0.57520000  1.0
  C  C257  1  0.86290000  0.83805000  0.42484000  1.0
  C  C258  1  0.12409000  0.33819000  0.92487000  1.0
  C  C259  1  0.53768000  0.33801000  0.07518000  1.0
  C  C260  1  0.73704000  0.94320000  0.54019000  1.0
  C  C261  1  0.31994000  0.94308000  0.45973000  1.0
  C  C262  1  0.52743000  0.44314000  0.95985000  1.0
  C  C263  1  0.02957000  0.44304000  0.04024000  1.0
  C  C264  1  0.45008000  0.13465000  0.61877000  1.0
  C  C265  1  0.41567000  0.13459000  0.38118000  1.0
  C  C266  1  0.31877000  0.63466000  0.88132000  1.0
  C  C267  1  0.04630000  0.63464000  0.11874000  1.0
  C  C268  1  0.38782000  0.07453000  0.60703000  1.0
  C  C269  1  0.53802000  0.07439000  0.39289000  1.0
  C  C270  1  0.24477000  0.57453000  0.89311000  1.0
  C  C271  1  0.18052000  0.57458000  0.10695000  1.0
  C  C272  1  0.48106000  0.01267000  0.58151000  1.0
  C  C273  1  0.50660000  0.01250000  0.41840000  1.0
  C  C274  1  0.31252000  0.51269000  0.91865000  1.0
  C  C275  1  0.17476000  0.51268000  0.08143000  1.0
  C  C276  1  0.63753000  0.00992000  0.56756000  1.0
  C  C277  1  0.35284000  0.00978000  0.43235000  1.0
  C  C278  1  0.45511000  0.50993000  0.93255000  1.0
  C  C279  1  0.03496000  0.50983000  0.06756000  1.0
  C  C280  1  0.69985000  0.06986000  0.57948000  1.0
  C  C281  1  0.23063000  0.06978000  0.42046000  1.0
  C  C282  1  0.52934000  0.56988000  0.92060000  1.0
  C  C283  1  0.90070000  0.56971000  0.07950000  1.0
  C  C284  1  0.60665000  0.13169000  0.60494000  1.0
  C  C285  1  0.26207000  0.13166000  0.39502000  1.0
  C  C286  1  0.46150000  0.63172000  0.89514000  1.0
  C  C287  1  0.90655000  0.63157000  0.10495000  1.0
  C  C288  1  0.35111000  0.20314000  0.64491000  1.0
  C  C289  1  0.44617000  0.20315000  0.35509000  1.0
  C  C290  1  0.24589000  0.70309000  0.85514000  1.0
  C  C291  1  0.05069000  0.70313000  0.14486000  1.0
  C  C292  1  0.75285000  0.23396000  0.71961000  1.0
  C  C293  1  0.01349000  0.23406000  0.28042000  1.0
  C  C294  1  0.72180000  0.73412000  0.78040000  1.0
  C  C295  1  0.54342000  0.73410000  0.21955000  1.0
  C  C296  1  0.54512000  0.09045000  0.77883000  1.0
  C  C297  1  0.36445000  0.09048000  0.22116000  1.0
  C  C298  1  0.57365000  0.59044000  0.72127000  1.0
  C  C299  1  0.83565000  0.59062000  0.27870000  1.0
  C  C300  1  0.66901000  0.03263000  0.79176000  1.0
  C  C301  1  0.29812000  0.03280000  0.20818000  1.0
  C  C302  1  0.71063000  0.53277000  0.70827000  1.0
  C  C303  1  0.75662000  0.53284000  0.29171000  1.0
  C  C304  1  0.82036000  0.04209000  0.78209000  1.0
  C  C305  1  0.13732000  0.04236000  0.21786000  1.0
  C  C306  1  0.85226000  0.54237000  0.71788000  1.0
  C  C307  1  0.60547000  0.54228000  0.28207000  1.0
  C  C308  1  0.84729000  0.10745000  0.75905000  1.0
  C  C309  1  0.04524000  0.10767000  0.24096000  1.0
  C  C310  1  0.85600000  0.60773000  0.74093000  1.0
  C  C311  1  0.53615000  0.60759000  0.25901000  1.0
  C  C312  1  0.72359000  0.16475000  0.74555000  1.0
  C  C313  1  0.11186000  0.16484000  0.25450000  1.0
  C  C314  1  0.71866000  0.66488000  0.75449000  1.0
  C  C315  1  0.61608000  0.66487000  0.24546000  1.0
  C  C316  1  0.57196000  0.15596000  0.75590000  1.0
  C  C317  1  0.27234000  0.15596000  0.24414000  1.0
  C  C318  1  0.57741000  0.65596000  0.74419000  1.0
  C  C319  1  0.76619000  0.65609000  0.25576000  1.0
  C  C320  1  0.64121000  0.95973000  0.81393000  1.0
  C  C321  1  0.39857000  0.95987000  0.18601000  1.0
  C  C322  1  0.70520000  0.45981000  0.68614000  1.0
  C  C323  1  0.83507000  0.45993000  0.31389000  1.0
  C  C324  1  0.07089000  0.92479000  0.88356000  1.0
  C  C325  1  0.00405000  0.92485000  0.11645000  1.0
  C  C326  1  0.20484000  0.42503000  0.61652000  1.0
  C  C327  1  0.37065000  0.42488000  0.38352000  1.0
  C  C328  1  0.03570000  0.06178000  0.90965000  1.0
  C  C329  1  0.90246000  0.06185000  0.09033000  1.0
  C  C330  1  0.19580000  0.56198000  0.59032000  1.0
  C  C331  1  0.24283000  0.56184000  0.40965000  1.0
  C  C332  1  0.94433000  0.13017000  0.92990000  1.0
  C  C333  1  0.92554000  0.13021000  0.07005000  1.0
  C  C334  1  0.12461000  0.63040000  0.57008000  1.0
  C  C335  1  0.24555000  0.63021000  0.42993000  1.0
  C  C336  1  0.78856000  0.13561000  0.94628000  1.0
  C  C337  1  0.07589000  0.13556000  0.05364000  1.0
  C  C338  1  0.98508000  0.63585000  0.55377000  1.0
  C  C339  1  0.37956000  0.63564000  0.44628000  1.0
  C  C340  1  0.72596000  0.07139000  0.94267000  1.0
  C  C341  1  0.20264000  0.07130000  0.05722000  1.0
  C  C342  1  0.91895000  0.57161000  0.55738000  1.0
  C  C343  1  0.50999000  0.57145000  0.44263000  1.0
  C  C344  1  0.81731000  0.00298000  0.92240000  1.0
  C  C345  1  0.17960000  0.00290000  0.07751000  1.0
  C  C346  1  0.99010000  0.50318000  0.57763000  1.0
  C  C347  1  0.50732000  0.50304000  0.42234000  1.0
  C  C348  1  0.97263000  0.99789000  0.90566000  1.0
  C  C349  1  0.02935000  0.99791000  0.09430000  1.0
  C  C350  1  0.12871000  0.49810000  0.59435000  1.0
  C  C351  1  0.37377000  0.49796000  0.40563000  1.0
  C  C352  1  0.68970000  0.21065000  0.96630000  1.0
  C  C353  1  0.09984000  0.21059000  0.03362000  1.0
  C  C354  1  0.90599000  0.71090000  0.53380000  1.0
  C  C355  1  0.38345000  0.71066000  0.46635000  1.0
  C  C356  1  0.64457000  0.79577000  0.90644000  1.0
  C  C357  1  0.56006000  0.79579000  0.09353000  1.0
  C  C358  1  0.80124000  0.29591000  0.59355000  1.0
  C  C359  1  0.90335000  0.29582000  0.40643000  1.0
  C  C360  1  0.62389000  0.79192000  0.95476000  1.0
  C  C361  1  0.58482000  0.79184000  0.04522000  1.0
  C  C362  1  0.82865000  0.29212000  0.54523000  1.0
  C  C363  1  0.87976000  0.29200000  0.45475000  1.0
  C  C364  1  0.74953000  0.79087000  0.97679000  1.0
  C  C365  1  0.46023000  0.79087000  0.02318000  1.0
  C  C366  1  0.97624000  0.29107000  0.52314000  1.0
  C  C367  1  0.73314000  0.29105000  0.47684000  1.0
  C  C368  1  0.72993000  0.79168000  0.02175000  1.0
  C  C369  1  0.47897000  0.79177000  0.97822000  1.0
  C  C370  1  0.00144000  0.29187000  0.47818000  1.0
  C  C371  1  0.70708000  0.29198000  0.52180000  1.0
  C  C372  1  0.28233000  0.05195000  0.71970000  1.0
  C  C373  1  0.66553000  0.05206000  0.28021000  1.0
  C  C374  1  0.25148000  0.55200000  0.78021000  1.0
  C  C375  1  0.19627000  0.55201000  0.21972000  1.0
  C  C376  1  0.68718000  0.94974000  0.68127000  1.0
  C  C377  1  0.36356000  0.94975000  0.31874000  1.0
  C  C378  1  0.61807000  0.45013000  0.81884000  1.0
  C  C379  1  0.93192000  0.45019000  0.18120000  1.0
  C  C380  1  0.96714000  0.06326000  0.65302000  1.0
  C  C381  1  0.96902000  0.06335000  0.34693000  1.0
  C  C382  1  0.87065000  0.56335000  0.84687000  1.0
  C  C383  1  0.56544000  0.56325000  0.15308000  1.0
  C  C384  1  0.11935000  0.16600000  0.81425000  1.0
  C  C385  1  0.71450000  0.16585000  0.18568000  1.0
  C  C386  1  0.18431000  0.66593000  0.68556000  1.0
  C  C387  1  0.15010000  0.66609000  0.31430000  1.0
  C  C388  1  0.69993000  0.24512000  0.84773000  1.0
  C  C389  1  0.05453000  0.24520000  0.15238000  1.0
  C  C390  1  0.79777000  0.74500000  0.65232000  1.0
  C  C391  1  0.45691000  0.74475000  0.34780000  1.0
  C  C392  1  0.52965000  0.64772000  0.61249000  1.0
  C  C393  1  0.82307000  0.64753000  0.38755000  1.0
  C  C394  1  0.39199000  0.14746000  0.88757000  1.0
  C  C395  1  0.46024000  0.14780000  0.11244000  1.0
  C  C396  1  0.38718000  0.98705000  0.95555000  1.0
  C  C397  1  0.62571000  0.98712000  0.04440000  1.0
  C  C398  1  0.59275000  0.48734000  0.54446000  1.0
  C  C399  1  0.91984000  0.48720000  0.45557000  1.0
  C  C400  1  0.05228000  0.89547000  0.00006000  1.0
  C  C401  1  0.30228000  0.39560000  0.49994000  1.0
  C  C402  1  0.10947000  0.08738000  0.53834000  1.0
  C  C403  1  0.80282000  0.08745000  0.46157000  1.0
  C  C404  1  0.89787000  0.58739000  0.96163000  1.0
  C  C405  1  0.51523000  0.58734000  0.03843000  1.0
  C  C406  1  0.40875000  0.18266000  0.50012000  1.0
  C  C407  1  0.15868000  0.68273000  0.99996000  1.0
  O  O408  1  0.28718000  0.88041000  0.78052000  1.0
  O  O409  1  0.83203000  0.88029000  0.21955000  1.0
  O  O410  1  0.31819000  0.38019000  0.71957000  1.0
  O  O411  1  0.30154000  0.38044000  0.28045000  1.0
  O  O412  1  0.06603000  0.84306000  0.78071000  1.0
  O  O413  1  0.09058000  0.84307000  0.21930000  1.0
  O  O414  1  0.09705000  0.34299000  0.71937000  1.0
  O  O415  1  0.55984000  0.34319000  0.28068000  1.0
  O  O416  1  0.43903000  0.81514000  0.55770000  1.0
  O  O417  1  0.74531000  0.81519000  0.44235000  1.0
  O  O418  1  0.24710000  0.31530000  0.94234000  1.0
  O  O419  1  0.43774000  0.31503000  0.05769000  1.0
  O  O420  1  0.18214000  0.85370000  0.55471000  1.0
  O  O421  1  0.96423000  0.85322000  0.44531000  1.0
  O  O422  1  0.98718000  0.35348000  0.94538000  1.0
  O  O423  1  0.65937000  0.35328000  0.05470000  1.0
  O  O424  1  0.88163000  0.93861000  0.53136000  1.0
  O  O425  1  0.17997000  0.93840000  0.46842000  1.0
  O  O426  1  0.66340000  0.43843000  0.96854000  1.0
  O  O427  1  0.89837000  0.43834000  0.03149000  1.0
  O  O428  1  0.67193000  0.89399000  0.52719000  1.0
  O  O429  1  0.43410000  0.89397000  0.47288000  1.0
  O  O430  1  0.44930000  0.39397000  0.97294000  1.0
  O  O431  1  0.15690000  0.39387000  0.02719000  1.0
  O  O432  1  0.41731000  0.25229000  0.65752000  1.0
  O  O433  1  0.33083000  0.25236000  0.34250000  1.0
  O  O434  1  0.32466000  0.75224000  0.84249000  1.0
  O  O435  1  0.92276000  0.75226000  0.15752000  1.0
  O  O436  1  0.20561000  0.20957000  0.65325000  1.0
  O  O437  1  0.58524000  0.20956000  0.34675000  1.0
  O  O438  1  0.10878000  0.70945000  0.84678000  1.0
  O  O439  1  0.18147000  0.70958000  0.15316000  1.0
  O  O440  1  0.89230000  0.23905000  0.70960000  1.0
  O  O441  1  0.86891000  0.23925000  0.29035000  1.0
  O  O442  1  0.85117000  0.73932000  0.79039000  1.0
  O  O443  1  0.40882000  0.73920000  0.20960000  1.0
  O  O444  1  0.63622000  0.28493000  0.70874000  1.0
  O  O445  1  0.07924000  0.28497000  0.29131000  1.0
  O  O446  1  0.59421000  0.78503000  0.79124000  1.0
  O  O447  1  0.61988000  0.78509000  0.20868000  1.0
  O  O448  1  0.75781000  0.90859000  0.82454000  1.0
  O  O449  1  0.33285000  0.90881000  0.17543000  1.0
  O  O450  1  0.83249000  0.40870000  0.67559000  1.0
  O  O451  1  0.75885000  0.40884000  0.32449000  1.0
  O  O452  1  0.50317000  0.95139000  0.82087000  1.0
  O  O453  1  0.54499000  0.95140000  0.17906000  1.0
  O  O454  1  0.57415000  0.45139000  0.67920000  1.0
  O  O455  1  0.97451000  0.45153000  0.32085000  1.0
  O  O456  1  0.21505000  0.91976000  0.87289000  1.0
  O  O457  1  0.86486000  0.91998000  0.12723000  1.0
  O  O458  1  0.33830000  0.42004000  0.62722000  1.0
  O  O459  1  0.24221000  0.41990000  0.37281000  1.0
  O  O460  1  0.00623000  0.87080000  0.87687000  1.0
  O  O461  1  0.12265000  0.87077000  0.12307000  1.0
  O  O462  1  0.13341000  0.37107000  0.62327000  1.0
  O  O463  1  0.49596000  0.37086000  0.37685000  1.0
  O  O464  1  0.75596000  0.26458000  0.97153000  1.0
  O  O465  1  0.97973000  0.26457000  0.02841000  1.0
  O  O466  1  0.97726000  0.76491000  0.52858000  1.0
  O  O467  1  0.25806000  0.76458000  0.47165000  1.0
  O  O468  1  0.54453000  0.21744000  0.97641000  1.0
  O  O469  1  0.23824000  0.21733000  0.02350000  1.0
  O  O470  1  0.77092000  0.71761000  0.52372000  1.0
  O  O471  1  0.51181000  0.71739000  0.47642000  1.0
  O  O472  1  0.78221000  0.77674000  0.88637000  1.0
  O  O473  1  0.44124000  0.77695000  0.11360000  1.0
  O  O474  1  0.91892000  0.27704000  0.61358000  1.0
  O  O475  1  0.80461000  0.27695000  0.38638000  1.0
  O  O476  1  0.52343000  0.81791000  0.88801000  1.0
  O  O477  1  0.65911000  0.81789000  0.11195000  1.0
  O  O478  1  0.66170000  0.31783000  0.61203000  1.0
  O  O479  1  0.02091000  0.31784000  0.38799000  1.0
