# generated using pymatgen
data_Cu4H26C40N12O19
_symmetry_space_group_name_H-M   'P 1'
_cell_length_a   10.40860000
_cell_length_b   12.22230000
_cell_length_c   18.98120000
_cell_angle_alpha   107.04000000
_cell_angle_beta   93.88940000
_cell_angle_gamma   94.89250000
_symmetry_Int_Tables_number   1
_chemical_formula_structural   Cu4H26C40N12O19
_chemical_formula_sum   'Cu8 H52 C80 N24 O38'
_cell_volume   2289.36798533
_cell_formula_units_Z   2
loop_
 _symmetry_equiv_pos_site_id
 _symmetry_equiv_pos_as_xyz
  1  'x, y, z'
loop_
 _atom_site_type_symbol
 _atom_site_label
 _atom_site_symmetry_multiplicity
 _atom_site_fract_x
 _atom_site_fract_y
 _atom_site_fract_z
 _atom_site_occupancy
  Cu  Cu0  1  0.10987000  0.47530000  0.22636000  1.0
  Cu  Cu1  1  0.89016000  0.52472000  0.77365000  1.0
  Cu  Cu2  1  0.34066000  0.54818000  0.29011000  1.0
  Cu  Cu3  1  0.65933000  0.45180000  0.70989000  1.0
  Cu  Cu4  1  0.58937000  0.20859000  0.39197000  1.0
  Cu  Cu5  1  0.41063000  0.79139000  0.60801000  1.0
  Cu  Cu6  1  0.88383000  0.82798000  0.03239000  1.0
  Cu  Cu7  1  0.11618000  0.17201000  0.96761000  1.0
  H  H8  1  0.02819000  0.27275000  0.58270000  1.0
  H  H9  1  0.97180000  0.72725000  0.41731000  1.0
  H  H10  1  0.50765000  0.66335000  0.91647000  1.0
  H  H11  1  0.49236000  0.33665000  0.08353000  1.0
  H  H12  1  0.21611000  0.18240000  0.60817000  1.0
  H  H13  1  0.78386000  0.81759000  0.39183000  1.0
  H  H14  1  0.17176000  0.51873000  0.99437000  1.0
  H  H15  1  0.82824000  0.48126000  0.00562000  1.0
  H  H16  1  0.13496000  0.11781000  0.13562000  1.0
  H  H17  1  0.86503000  0.88220000  0.86438000  1.0
  H  H18  1  0.32550000  0.44777000  0.49239000  1.0
  H  H19  1  0.67449000  0.55224000  0.50762000  1.0
  H  H20  1  0.05791000  0.15004000  0.31879000  1.0
  H  H21  1  0.94211000  0.84995000  0.68122000  1.0
  H  H22  1  0.52620000  0.64409000  0.13834000  1.0
  H  H23  1  0.47378000  0.35591000  0.86166000  1.0
  H  H24  1  0.42621000  0.89559000  0.05539000  1.0
  H  H25  1  0.57377000  0.10439000  0.94461000  1.0
  H  H26  1  0.44826000  0.23522000  0.70283000  1.0
  H  H27  1  0.55173000  0.76476000  0.29715000  1.0
  H  H28  1  0.93354000  0.37653000  0.39034000  1.0
  H  H29  1  0.06645000  0.62348000  0.60967000  1.0
  H  H30  1  0.40531000  0.53764000  0.80090000  1.0
  H  H31  1  0.59471000  0.46236000  0.19909000  1.0
  H  H32  1  0.53735000  0.96641000  0.25797000  1.0
  H  H33  1  0.46268000  0.03359000  0.74205000  1.0
  H  H34  1  0.18342000  0.53202000  0.70540000  1.0
  H  H35  1  0.81658000  0.46799000  0.29460000  1.0
  H  H36  1  0.74942000  0.84601000  0.20809000  1.0
  H  H37  1  0.25060000  0.15400000  0.79192000  1.0
  H  H38  1  0.93236000  0.78727000  0.27676000  1.0
  H  H39  1  0.06767000  0.21272000  0.72326000  1.0
  H  H40  1  0.33610000  0.91366000  0.33112000  1.0
  H  H41  1  0.66393000  0.08634000  0.66887000  1.0
  H  H42  1  0.63420000  0.20361000  0.52253000  1.0
  H  H43  1  0.36579000  0.79637000  0.47747000  1.0
  H  H44  1  0.54304000  0.29906000  0.52689000  1.0
  H  H45  1  0.45694000  0.70092000  0.47311000  1.0
  H  H46  1  0.53458000  0.24797000  0.19341000  1.0
  H  H47  1  0.46543000  0.75203000  0.80657000  1.0
  H  H48  1  0.73252000  0.21427000  0.18854000  1.0
  H  H49  1  0.26747000  0.78573000  0.81143000  1.0
  H  H50  1  0.92678000  0.63148000  0.94836000  1.0
  H  H51  1  0.07327000  0.36854000  0.05163000  1.0
  H  H52  1  0.06064000  0.71543000  0.98700000  1.0
  H  H53  1  0.93938000  0.28460000  0.01301000  1.0
  H  H54  1  0.41597000  0.33063000  0.37854000  1.0
  H  H55  1  0.58400000  0.66939000  0.62148000  1.0
  H  H56  1  0.54420000  0.42348000  0.39195000  1.0
  H  H57  1  0.45577000  0.57654000  0.60807000  1.0
  H  H58  1  0.94238000  0.09548000  0.13862000  1.0
  H  H59  1  0.05759000  0.90450000  0.86135000  1.0
  C  C60  1  0.05867000  0.31362000  0.54177000  1.0
  C  C61  1  0.94130000  0.68638000  0.45824000  1.0
  C  C62  1  0.46130000  0.63856000  0.96007000  1.0
  C  C63  1  0.53872000  0.36145000  0.03994000  1.0
  C  C64  1  0.33319000  0.58929000  0.94919000  1.0
  C  C65  1  0.66682000  0.41071000  0.05081000  1.0
  C  C66  1  0.18651000  0.35996000  0.54310000  1.0
  C  C67  1  0.81346000  0.64004000  0.45691000  1.0
  C  C68  1  0.28826000  0.25664000  0.62472000  1.0
  C  C69  1  0.71172000  0.74335000  0.37528000  1.0
  C  C70  1  0.16967000  0.46759000  0.37584000  1.0
  C  C71  1  0.83033000  0.53240000  0.62416000  1.0
  C  C72  1  0.53091000  0.65763000  0.02887000  1.0
  C  C73  1  0.46912000  0.34237000  0.97113000  1.0
  C  C74  1  0.27155000  0.55851000  0.00488000  1.0
  C  C75  1  0.72845000  0.44149000  0.99511000  1.0
  C  C76  1  0.23602000  0.10319000  0.13280000  1.0
  C  C77  1  0.76397000  0.89677000  0.86719000  1.0
  C  C78  1  0.82926000  0.26992000  0.48148000  1.0
  C  C79  1  0.17070000  0.73009000  0.51853000  1.0
  C  C80  1  0.22495000  0.41471000  0.49180000  1.0
  C  C81  1  0.77503000  0.58529000  0.50821000  1.0
  C  C82  1  0.96722000  0.32084000  0.48648000  1.0
  C  C83  1  0.03274000  0.67916000  0.51353000  1.0
  C  C84  1  0.07957000  0.06264000  0.31393000  1.0
  C  C85  1  0.92047000  0.93736000  0.68607000  1.0
  C  C86  1  0.98115000  0.97138000  0.29845000  1.0
  C  C87  1  0.01887000  0.02862000  0.70156000  1.0
  C  C88  1  0.47083000  0.62876000  0.08511000  1.0
  C  C89  1  0.52918000  0.37125000  0.91489000  1.0
  C  C90  1  0.40000000  0.97867000  0.08755000  1.0
  C  C91  1  0.59998000  0.02131000  0.91244000  1.0
  C  C92  1  0.28751000  0.54750000  0.13677000  1.0
  C  C93  1  0.71246000  0.45252000  0.86323000  1.0
  C  C94  1  0.31556000  0.13806000  0.33989000  1.0
  C  C95  1  0.68445000  0.86197000  0.66009000  1.0
  C  C96  1  0.40254000  0.28295000  0.67023000  1.0
  C  C97  1  0.59744000  0.71703000  0.32976000  1.0
  C  C98  1  0.00468000  0.37353000  0.43407000  1.0
  C  C99  1  0.99530000  0.62646000  0.56594000  1.0
  C  C100  1  0.13235000  0.42053000  0.43669000  1.0
  C  C101  1  0.86763000  0.57948000  0.56332000  1.0
  C  C102  1  0.20822000  0.04077000  0.32401000  1.0
  C  C103  1  0.79182000  0.95924000  0.67599000  1.0
  C  C104  1  0.30558000  0.55069000  0.81102000  1.0
  C  C105  1  0.69442000  0.44931000  0.18897000  1.0
  C  C106  1  0.64015000  0.98601000  0.27523000  1.0
  C  C107  1  0.35987000  0.01400000  0.72479000  1.0
  C  C108  1  0.19626000  0.54761000  0.76475000  1.0
  C  C109  1  0.80373000  0.45240000  0.23525000  1.0
  C  C110  1  0.66920000  0.70958000  0.04418000  1.0
  C  C111  1  0.33081000  0.29042000  0.95583000  1.0
  C  C112  1  0.16864000  0.71843000  0.29404000  1.0
  C  C113  1  0.83139000  0.28155000  0.70597000  1.0
  C  C114  1  0.49517000  0.06985000  0.12336000  1.0
  C  C115  1  0.50482000  0.93013000  0.87662000  1.0
  C  C116  1  0.74340000  0.92581000  0.25188000  1.0
  C  C117  1  0.25662000  0.07420000  0.74813000  1.0
  C  C118  1  0.13744000  0.83875000  0.30270000  1.0
  C  C119  1  0.86259000  0.16125000  0.69732000  1.0
  C  C120  1  0.00867000  0.85907000  0.29079000  1.0
  C  C121  1  0.99136000  0.14093000  0.70922000  1.0
  C  C122  1  0.23652000  0.92954000  0.32035000  1.0
  C  C123  1  0.76351000  0.07047000  0.67964000  1.0
  C  C124  1  0.34193000  0.57908000  0.07354000  1.0
  C  C125  1  0.65807000  0.42092000  0.92645000  1.0
  C  C126  1  0.33131000  0.19332000  0.16822000  1.0
  C  C127  1  0.66869000  0.80666000  0.83175000  1.0
  C  C128  1  0.16361000  0.90067000  0.05405000  1.0
  C  C129  1  0.83638000  0.09931000  0.94595000  1.0
  C  C130  1  0.29252000  0.30944000  0.20639000  1.0
  C  C131  1  0.70750000  0.69057000  0.79361000  1.0
  C  C132  1  0.26934000  0.99584000  0.09303000  1.0
  C  C133  1  0.73064000  0.00414000  0.90695000  1.0
  C  C134  1  0.46198000  0.17651000  0.16466000  1.0
  C  C135  1  0.53802000  0.82347000  0.83533000  1.0
  C  C136  1  0.73632000  0.12896000  0.15111000  1.0
  C  C137  1  0.26368000  0.87103000  0.84887000  1.0
  C  C138  1  0.83938000  0.07010000  0.12654000  1.0
  C  C139  1  0.16061000  0.92988000  0.87344000  1.0
  N  N140  1  0.38715000  0.42502000  0.62270000  1.0
  N  N141  1  0.61284000  0.57497000  0.37730000  1.0
  N  N142  1  0.09471000  0.56719000  0.80714000  1.0
  N  N143  1  0.90528000  0.43281000  0.19286000  1.0
  N  N144  1  0.28219000  0.34648000  0.59638000  1.0
  N  N145  1  0.71779000  0.65351000  0.40363000  1.0
  N  N146  1  0.79014000  0.96478000  0.07992000  1.0
  N  N147  1  0.20986000  0.03519000  0.92007000  1.0
  N  N148  1  0.26245000  0.57218000  0.87960000  1.0
  N  N149  1  0.73756000  0.42781000  0.12039000  1.0
  N  N150  1  0.68807000  0.08550000  0.32895000  1.0
  N  N151  1  0.31195000  0.91451000  0.67106000  1.0
  N  N152  1  0.84885000  0.99387000  0.29378000  1.0
  N  N153  1  0.15117000  0.00614000  0.70624000  1.0
  N  N154  1  0.13435000  0.58188000  0.87653000  1.0
  N  N155  1  0.86565000  0.41813000  0.12347000  1.0
  N  N156  1  0.81477000  0.09086000  0.34040000  1.0
  N  N157  1  0.18525000  0.90914000  0.65962000  1.0
  N  N158  1  0.45954000  0.38552000  0.66729000  1.0
  N  N159  1  0.54047000  0.61446000  0.33270000  1.0
  N  N160  1  0.66264000  0.95503000  0.07418000  1.0
  N  N161  1  0.33736000  0.04495000  0.92582000  1.0
  N  N162  1  0.62917000  0.05456000  0.11745000  1.0
  N  N163  1  0.37084000  0.94543000  0.88253000  1.0
  O  O164  1  0.17287000  0.32157000  0.19679000  1.0
  O  O165  1  0.82714000  0.67844000  0.80322000  1.0
  O  O166  1  0.75211000  0.30022000  0.43563000  1.0
  O  O167  1  0.24791000  0.69984000  0.56437000  1.0
  O  O168  1  0.71832000  0.73650000  0.98969000  1.0
  O  O169  1  0.28166000  0.26345000  0.01030000  1.0
  O  O170  1  0.36646000  0.57595000  0.19521000  1.0
  O  O171  1  0.63353000  0.42408000  0.80479000  1.0
  O  O172  1  0.07970000  0.63916000  0.25865000  1.0
  O  O173  1  0.92031000  0.36085000  0.74133000  1.0
  O  O174  1  0.07954000  0.45948000  0.32516000  1.0
  O  O175  1  0.92044000  0.54056000  0.67486000  1.0
  O  O176  1  0.28018000  0.70539000  0.31989000  1.0
  O  O177  1  0.71982000  0.29460000  0.68015000  1.0
  O  O178  1  0.28723000  0.50885000  0.37807000  1.0
  O  O179  1  0.71279000  0.49109000  0.62191000  1.0
  O  O180  1  0.04790000  0.92484000  0.06958000  1.0
  O  O181  1  0.95210000  0.07517000  0.93043000  1.0
  O  O182  1  0.43075000  0.10815000  0.34641000  1.0
  O  O183  1  0.56926000  0.89186000  0.65355000  1.0
  O  O184  1  0.17273000  0.49731000  0.12980000  1.0
  O  O185  1  0.82724000  0.50267000  0.87018000  1.0
  O  O186  1  0.72948000  0.72605000  0.10652000  1.0
  O  O187  1  0.27049000  0.27395000  0.89351000  1.0
  O  O188  1  0.28706000  0.23770000  0.34507000  1.0
  O  O189  1  0.71291000  0.76232000  0.65494000  1.0
  O  O190  1  0.38265000  0.38642000  0.24279000  1.0
  O  O191  1  0.61738000  0.61360000  0.75719000  1.0
  O  O192  1  0.79908000  0.20514000  0.51951000  1.0
  O  O193  1  0.20092000  0.79488000  0.48051000  1.0
  O  O194  1  0.19293000  0.80926000  0.01061000  1.0
  O  O195  1  0.80709000  0.19074000  0.98939000  1.0
  O  O196  1  0.54322000  0.21574000  0.50771000  1.0
  O  O197  1  0.45676000  0.78423000  0.49228000  1.0
  O  O198  1  0.96906000  0.68860000  0.99389000  1.0
  O  O199  1  0.03097000  0.31140000  0.00611000  1.0
  O  O200  1  0.50379000  0.35938000  0.40722000  1.0
  O  O201  1  0.49618000  0.64064000  0.59281000  1.0
