# generated using pymatgen
data_CdH32C46S2(N5O4)2
_symmetry_space_group_name_H-M   'P 1'
_cell_length_a   6.81905000
_cell_length_b   10.83070000
_cell_length_c   15.66060000
_cell_angle_alpha   98.73240000
_cell_angle_beta   102.46900000
_cell_angle_gamma   95.73930000
_symmetry_Int_Tables_number   1
_chemical_formula_structural   CdH32C46S2(N5O4)2
_chemical_formula_sum   'Cd1 H32 C46 S2 N10 O8'
_cell_volume   1105.62740794
_cell_formula_units_Z   1
loop_
 _symmetry_equiv_pos_site_id
 _symmetry_equiv_pos_as_xyz
  1  'x, y, z'
loop_
 _atom_site_type_symbol
 _atom_site_label
 _atom_site_symmetry_multiplicity
 _atom_site_fract_x
 _atom_site_fract_y
 _atom_site_fract_z
 _atom_site_occupancy
  Cd  Cd0  1  0.50000000  0.00000000  0.50000000  1.0
  H  H1  1  0.70331000  0.28360000  0.59887000  1.0
  H  H2  1  0.29668000  0.71640000  0.40113000  1.0
  H  H3  1  0.80377000  0.49809000  0.57069000  1.0
  H  H4  1  0.19622000  0.50191000  0.42931000  1.0
  H  H5  1  0.78212000  0.52809000  0.41125000  1.0
  H  H6  1  0.21788000  0.47192000  0.58875000  1.0
  H  H7  1  0.57382000  0.12925000  0.33044000  1.0
  H  H8  1  0.42619000  0.87075000  0.66956000  1.0
  H  H9  1  0.77076000  0.51315000  0.14184000  1.0
  H  H10  1  0.22924000  0.48685000  0.85816000  1.0
  H  H11  1  0.43198000  0.40236000  0.09412000  1.0
  H  H12  1  0.56802000  0.59764000  0.90588000  1.0
  H  H13  1  0.05447000  0.39800000  0.11083000  1.0
  H  H14  1  0.94553000  0.60200000  0.88917000  1.0
  H  H15  1  0.02070000  0.17246000  0.12473000  1.0
  H  H16  1  0.97931000  0.82754000  0.87527000  1.0
  H  H17  1  0.65617000  0.05160000  0.07906000  1.0
  H  H18  1  0.34383000  0.94840000  0.92094000  1.0
  H  H19  1  0.38021000  0.17506000  0.02269000  1.0
  H  H20  1  0.61979000  0.82494000  0.97731000  1.0
  H  H21  1  0.80298000  0.45987000  0.98745000  1.0
  H  H22  1  0.19702000  0.54013000  0.01255000  1.0
  H  H23  1  0.46880000  0.33954000  0.93703000  1.0
  H  H24  1  0.53120000  0.66046000  0.06297000  1.0
  H  H25  1  0.11891000  0.07936000  0.87101000  1.0
  H  H26  1  0.88108000  0.92065000  0.12898000  1.0
  H  H27  1  0.17814000  0.94161000  0.73881000  1.0
  H  H28  1  0.82186000  0.05840000  0.26119000  1.0
  H  H29  1  0.92494000  0.91710000  0.59143000  1.0
  H  H30  1  0.07506000  0.08290000  0.40857000  1.0
  H  H31  1  0.56998000  0.15352000  0.70272000  1.0
  H  H32  1  0.43001000  0.84648000  0.29728000  1.0
  C  C33  1  0.69726000  0.29962000  0.53137000  1.0
  C  C34  1  0.30274000  0.70038000  0.46863000  1.0
  C  C35  1  0.75280000  0.41963000  0.51517000  1.0
  C  C36  1  0.24720000  0.58037000  0.48483000  1.0
  C  C37  1  0.74388000  0.43582000  0.42801000  1.0
  C  C38  1  0.25612000  0.56418000  0.57199000  1.0
  C  C39  1  0.68108000  0.33005000  0.36053000  1.0
  C  C40  1  0.31891000  0.66995000  0.63947000  1.0
  C  C41  1  0.62651000  0.21292000  0.38189000  1.0
  C  C42  1  0.37349000  0.78708000  0.61811000  1.0
  C  C43  1  0.83585000  0.40245000  0.24342000  1.0
  C  C44  1  0.16415000  0.59755000  0.75658000  1.0
  C  C45  1  0.76317000  0.41251000  0.14645000  1.0
  C  C46  1  0.23683000  0.58749000  0.85355000  1.0
  C  C47  1  0.54558000  0.34207000  0.11740000  1.0
  C  C48  1  0.45442000  0.65793000  0.88260000  1.0
  C  C49  1  0.50148000  0.29963000  0.20050000  1.0
  C  C50  1  0.49852000  0.70037000  0.79950000  1.0
  C  C51  1  0.89854000  0.34935000  0.08966000  1.0
  C  C52  1  0.10146000  0.65065000  0.91034000  1.0
  C  C53  1  0.88484000  0.21206000  0.09782000  1.0
  C  C54  1  0.11516000  0.78793000  0.90218000  1.0
  C  C55  1  0.69555000  0.14968000  0.07400000  1.0
  C  C56  1  0.30445000  0.85032000  0.92600000  1.0
  C  C57  1  0.53320000  0.22804000  0.04223000  1.0
  C  C58  1  0.46680000  0.77196000  0.95777000  1.0
  C  C59  1  0.80125000  0.35949000  0.99221000  1.0
  C  C60  1  0.19875000  0.64051000  0.00779000  1.0
  C  C61  1  0.91836000  0.29996000  0.92858000  1.0
  C  C62  1  0.08164000  0.70003000  0.07142000  1.0
  C  C63  1  0.59785000  0.18081000  0.88848000  1.0
  C  C64  1  0.40215000  0.81920000  0.11152000  1.0
  C  C65  1  0.58700000  0.28409000  0.96344000  1.0
  C  C66  1  0.41301000  0.71592000  0.03656000  1.0
  C  C67  1  0.83829000  0.12498000  0.79616000  1.0
  C  C68  1  0.16170000  0.87502000  0.20384000  1.0
  C  C69  1  0.01096000  0.06527000  0.80706000  1.0
  C  C70  1  0.98904000  0.93473000  0.19293000  1.0
  C  C71  1  0.04382000  0.98884000  0.73298000  1.0
  C  C72  1  0.95618000  0.01117000  0.26701000  1.0
  C  C73  1  0.90501000  0.97476000  0.65161000  1.0
  C  C74  1  0.09498000  0.02524000  0.34839000  1.0
  C  C75  1  0.70594000  0.10736000  0.71260000  1.0
  C  C76  1  0.29405000  0.89264000  0.28740000  1.0
  C  C77  1  0.26368000  0.19175000  0.61871000  1.0
  C  C78  1  0.73633000  0.80825000  0.38129000  1.0
  S  S79  1  0.24152000  0.30120000  0.69730000  1.0
  S  S80  1  0.75847000  0.69880000  0.30270000  1.0
  N  N81  1  0.63393000  0.19853000  0.46604000  1.0
  N  N82  1  0.36608000  0.80147000  0.53396000  1.0
  N  N83  1  0.67212000  0.34320000  0.27087000  1.0
  N  N84  1  0.32789000  0.65680000  0.72913000  1.0
  N  N85  1  0.78815000  0.20263000  0.86785000  1.0
  N  N86  1  0.21184000  0.79737000  0.13215000  1.0
  N  N87  1  0.73880000  0.03353000  0.64187000  1.0
  N  N88  1  0.26120000  0.96647000  0.35813000  1.0
  N  N89  1  0.27908000  0.10931000  0.56182000  1.0
  N  N90  1  0.72092000  0.89069000  0.43818000  1.0
  O  O91  1  0.34701000  0.23754000  0.20655000  1.0
  O  O92  1  0.65299000  0.76245000  0.79345000  1.0
  O  O93  1  0.00638000  0.43558000  0.29007000  1.0
  O  O94  1  0.99363000  0.56441000  0.70992000  1.0
  O  O95  1  0.47067000  0.09028000  0.85194000  1.0
  O  O96  1  0.52933000  0.90972000  0.14806000  1.0
  O  O97  1  0.09777000  0.32959000  0.93005000  1.0
  O  O98  1  0.90223000  0.67041000  0.06995000  1.0
