# generated using pymatgen
data_NiMoH16C20(NO)4
_symmetry_space_group_name_H-M   'P 1'
_cell_length_a   13.17340000
_cell_length_b   13.17340000
_cell_length_c   29.25160000
_cell_angle_alpha   90.00000000
_cell_angle_beta   90.00000000
_cell_angle_gamma   89.99990000
_symmetry_Int_Tables_number   1
_chemical_formula_structural   NiMoH16C20(NO)4
_chemical_formula_sum   'Ni8 Mo8 H128 C160 N32 O32'
_cell_volume   5076.27783767
_cell_formula_units_Z   8
loop_
 _symmetry_equiv_pos_site_id
 _symmetry_equiv_pos_as_xyz
  1  'x, y, z'
loop_
 _atom_site_type_symbol
 _atom_site_label
 _atom_site_symmetry_multiplicity
 _atom_site_fract_x
 _atom_site_fract_y
 _atom_site_fract_z
 _atom_site_occupancy
  Ni  Ni0  1  0.71667000  0.73168000  0.36851000  1.0
  Ni  Ni1  1  0.28333000  0.26832000  0.86851000  1.0
  Ni  Ni2  1  0.23168000  0.78333000  0.11850000  1.0
  Ni  Ni3  1  0.76832000  0.21667000  0.61850000  1.0
  Ni  Ni4  1  0.21667000  0.76832000  0.38150000  1.0
  Ni  Ni5  1  0.78333000  0.23168000  0.88149000  1.0
  Ni  Ni6  1  0.73168000  0.71667000  0.63149000  1.0
  Ni  Ni7  1  0.26832000  0.28333000  0.13149000  1.0
  Mo  Mo8  1  0.45612000  0.62539000  0.38009000  1.0
  Mo  Mo9  1  0.54388000  0.37461000  0.88009000  1.0
  Mo  Mo10  1  0.12540000  0.04388000  0.13009000  1.0
  Mo  Mo11  1  0.87461000  0.95612000  0.63009000  1.0
  Mo  Mo12  1  0.95612000  0.87461000  0.36991000  1.0
  Mo  Mo13  1  0.04388000  0.12539000  0.86990000  1.0
  Mo  Mo14  1  0.62540000  0.45612000  0.61991000  1.0
  Mo  Mo15  1  0.37460000  0.54388000  0.11991000  1.0
  H  H16  1  0.52907000  0.84622000  0.39079000  1.0
  H  H17  1  0.47093000  0.15378000  0.89079000  1.0
  H  H18  1  0.34622000  0.97092000  0.14079000  1.0
  H  H19  1  0.65378000  0.02907000  0.64079000  1.0
  H  H20  1  0.02908000  0.65378000  0.35921000  1.0
  H  H21  1  0.97093000  0.34622000  0.85921000  1.0
  H  H22  1  0.84622000  0.52908000  0.60921000  1.0
  H  H23  1  0.15378000  0.47093000  0.10921000  1.0
  H  H24  1  0.47813000  0.99004000  0.44092000  1.0
  H  H25  1  0.52187000  0.00996000  0.94092000  1.0
  H  H26  1  0.49004000  0.02186000  0.19092000  1.0
  H  H27  1  0.50996000  0.97814000  0.69092000  1.0
  H  H28  1  0.97814000  0.50996000  0.30908000  1.0
  H  H29  1  0.02187000  0.49004000  0.80908000  1.0
  H  H30  1  0.99004000  0.47814000  0.55908000  1.0
  H  H31  1  0.00996000  0.52187000  0.05908000  1.0
  H  H32  1  0.76533000  0.95209000  0.51099000  1.0
  H  H33  1  0.23467000  0.04791000  0.01099000  1.0
  H  H34  1  0.45209000  0.73467000  0.26099000  1.0
  H  H35  1  0.54791000  0.26533000  0.76099000  1.0
  H  H36  1  0.26533000  0.54791000  0.23901000  1.0
  H  H37  1  0.73467000  0.45209000  0.73901000  1.0
  H  H38  1  0.95209000  0.76533000  0.48901000  1.0
  H  H39  1  0.04791000  0.23467000  0.98901000  1.0
  H  H40  1  0.80575000  0.81671000  0.45477000  1.0
  H  H41  1  0.19426000  0.18329000  0.95477000  1.0
  H  H42  1  0.31671000  0.69425000  0.20477000  1.0
  H  H43  1  0.68329000  0.30575000  0.70477000  1.0
  H  H44  1  0.30574000  0.68329000  0.29523000  1.0
  H  H45  1  0.69426000  0.31671000  0.79523000  1.0
  H  H46  1  0.81671000  0.80575000  0.54523000  1.0
  H  H47  1  0.18329000  0.19425000  0.04523000  1.0
  H  H48  1  0.94478000  0.13188000  0.56436000  1.0
  H  H49  1  0.05522000  0.86812000  0.06436000  1.0
  H  H50  1  0.63188000  0.55522000  0.31436000  1.0
  H  H51  1  0.36812000  0.44478000  0.81436000  1.0
  H  H52  1  0.44478000  0.36812000  0.18564000  1.0
  H  H53  1  0.55522000  0.63188000  0.68564000  1.0
  H  H54  1  0.13188000  0.94478000  0.43564000  1.0
  H  H55  1  0.86812000  0.05522000  0.93564000  1.0
  H  H56  1  0.01278000  0.14706000  0.48397000  1.0
  H  H57  1  0.98722000  0.85294000  0.98397000  1.0
  H  H58  1  0.64706000  0.48722000  0.23397000  1.0
  H  H59  1  0.35294000  0.51278000  0.73397000  1.0
  H  H60  1  0.51278000  0.35294000  0.26603000  1.0
  H  H61  1  0.48722000  0.64706000  0.76603000  1.0
  H  H62  1  0.14706000  0.01278000  0.51603000  1.0
  H  H63  1  0.85294000  0.98722000  0.01603000  1.0
  H  H64  1  0.95113000  0.28826000  0.43472000  1.0
  H  H65  1  0.04887000  0.71174000  0.93472000  1.0
  H  H66  1  0.78826000  0.54887000  0.18472000  1.0
  H  H67  1  0.21174000  0.45113000  0.68472000  1.0
  H  H68  1  0.45113000  0.21174000  0.31528000  1.0
  H  H69  1  0.54887000  0.78826000  0.81528000  1.0
  H  H70  1  0.28826000  0.95113000  0.56528000  1.0
  H  H71  1  0.71174000  0.04887000  0.06528000  1.0
  H  H72  1  0.75727000  0.38030000  0.54683000  1.0
  H  H73  1  0.24273000  0.61970000  0.04683000  1.0
  H  H74  1  0.88030000  0.74273000  0.29683000  1.0
  H  H75  1  0.11970000  0.25727000  0.79683000  1.0
  H  H76  1  0.25727000  0.11970000  0.20317000  1.0
  H  H77  1  0.74273000  0.88030000  0.70317000  1.0
  H  H78  1  0.38030000  0.75727000  0.45317000  1.0
  H  H79  1  0.61970000  0.24273000  0.95317000  1.0
  H  H80  1  0.62652000  0.61278000  0.45053000  1.0
  H  H81  1  0.37348000  0.38722000  0.95053000  1.0
  H  H82  1  0.11278000  0.87348000  0.20053000  1.0
  H  H83  1  0.88722000  0.12652000  0.70053000  1.0
  H  H84  1  0.12652000  0.88722000  0.29947000  1.0
  H  H85  1  0.87348000  0.11278000  0.79947000  1.0
  H  H86  1  0.61278000  0.62652000  0.54947000  1.0
  H  H87  1  0.38722000  0.37348000  0.04947000  1.0
  H  H88  1  0.67517000  0.46623000  0.49792000  1.0
  H  H89  1  0.32483000  0.53377000  0.99792000  1.0
  H  H90  1  0.96623000  0.82483000  0.24792000  1.0
  H  H91  1  0.03377000  0.17517000  0.74792000  1.0
  H  H92  1  0.17517000  0.03377000  0.25208000  1.0
  H  H93  1  0.82483000  0.96623000  0.75208000  1.0
  H  H94  1  0.46623000  0.67517000  0.50208000  1.0
  H  H95  1  0.53377000  0.32483000  0.00208000  1.0
  H  H96  1  0.94916000  0.44381000  0.41556000  1.0
  H  H97  1  0.05083000  0.55619000  0.91556000  1.0
  H  H98  1  0.94381000  0.55084000  0.16556000  1.0
  H  H99  1  0.05619000  0.44916000  0.66556000  1.0
  H  H100  1  0.44916000  0.05619000  0.33444000  1.0
  H  H101  1  0.55084000  0.94381000  0.83444000  1.0
  H  H102  1  0.44381000  0.94916000  0.58444000  1.0
  H  H103  1  0.55619000  0.05084000  0.08444000  1.0
  H  H104  1  0.88772000  0.59464000  0.37279000  1.0
  H  H105  1  0.11228000  0.40536000  0.87279000  1.0
  H  H106  1  0.09464000  0.61229000  0.12279000  1.0
  H  H107  1  0.90536000  0.38771000  0.62279000  1.0
  H  H108  1  0.38772000  0.90536000  0.37721000  1.0
  H  H109  1  0.61229000  0.09464000  0.87721000  1.0
  H  H110  1  0.59464000  0.88771000  0.62721000  1.0
  H  H111  1  0.40536000  0.11229000  0.12721000  1.0
  H  H112  1  0.53552000  0.26959000  0.60547000  1.0
  H  H113  1  0.46448000  0.73041000  0.10547000  1.0
  H  H114  1  0.76958000  0.96448000  0.35547000  1.0
  H  H115  1  0.23042000  0.03552000  0.85547000  1.0
  H  H116  1  0.03552000  0.23042000  0.14453000  1.0
  H  H117  1  0.96448000  0.76959000  0.64453000  1.0
  H  H118  1  0.26959000  0.53552000  0.39453000  1.0
  H  H119  1  0.73041000  0.46448000  0.89453000  1.0
  H  H120  1  0.39583000  0.21304000  0.55389000  1.0
  H  H121  1  0.60417000  0.78696000  0.05389000  1.0
  H  H122  1  0.71304000  0.10416000  0.30389000  1.0
  H  H123  1  0.28696000  0.89584000  0.80389000  1.0
  H  H124  1  0.89583000  0.28696000  0.19611000  1.0
  H  H125  1  0.10416000  0.71304000  0.69611000  1.0
  H  H126  1  0.21304000  0.39583000  0.44611000  1.0
  H  H127  1  0.78696000  0.60416000  0.94611000  1.0
  H  H128  1  0.43030000  0.07864000  0.49577000  1.0
  H  H129  1  0.56970000  0.92135000  0.99577000  1.0
  H  H130  1  0.57864000  0.06970000  0.24577000  1.0
  H  H131  1  0.42136000  0.93030000  0.74577000  1.0
  H  H132  1  0.93030000  0.42135000  0.25423000  1.0
  H  H133  1  0.06970000  0.57865000  0.75423000  1.0
  H  H134  1  0.07864000  0.43030000  0.50423000  1.0
  H  H135  1  0.92136000  0.56970000  0.00423000  1.0
  H  H136  1  0.74338000  0.08447000  0.54066000  1.0
  H  H137  1  0.25662000  0.91553000  0.04066000  1.0
  H  H138  1  0.58447000  0.75662000  0.29066000  1.0
  H  H139  1  0.41553000  0.24338000  0.79066000  1.0
  H  H140  1  0.24338000  0.41553000  0.20934000  1.0
  H  H141  1  0.75662000  0.58447000  0.70934000  1.0
  H  H142  1  0.08447000  0.74338000  0.45934000  1.0
  H  H143  1  0.91553000  0.25662000  0.95934000  1.0
  C  C144  1  0.57903000  0.87395000  0.41774000  1.0
  C  C145  1  0.42097000  0.12605000  0.91774000  1.0
  C  C146  1  0.37395000  0.92096000  0.16774000  1.0
  C  C147  1  0.62605000  0.07904000  0.66774000  1.0
  C  C148  1  0.07904000  0.62605000  0.33226000  1.0
  C  C149  1  0.92097000  0.37395000  0.83226000  1.0
  C  C150  1  0.87395000  0.57904000  0.58226000  1.0
  C  C151  1  0.12605000  0.42097000  0.08226000  1.0
  C  C152  1  0.55135000  0.95346000  0.44622000  1.0
  C  C153  1  0.44865000  0.04654000  0.94622000  1.0
  C  C154  1  0.45346000  0.94864000  0.19622000  1.0
  C  C155  1  0.54654000  0.05135000  0.69622000  1.0
  C  C156  1  0.05135000  0.54654000  0.30378000  1.0
  C  C157  1  0.94865000  0.45346000  0.80378000  1.0
  C  C158  1  0.95346000  0.55135000  0.55378000  1.0
  C  C159  1  0.04654000  0.44865000  0.05378000  1.0
  C  C160  1  0.61745000  0.98546000  0.48109000  1.0
  C  C161  1  0.38255000  0.01454000  0.98109000  1.0
  C  C162  1  0.48546000  0.88255000  0.23109000  1.0
  C  C163  1  0.51454000  0.11745000  0.73109000  1.0
  C  C164  1  0.11745000  0.51454000  0.26891000  1.0
  C  C165  1  0.88255000  0.48546000  0.76891000  1.0
  C  C166  1  0.98546000  0.61745000  0.51891000  1.0
  C  C167  1  0.01454000  0.38255000  0.01891000  1.0
  C  C168  1  0.71015000  0.93334000  0.48463000  1.0
  C  C169  1  0.28985000  0.06666000  0.98463000  1.0
  C  C170  1  0.43333000  0.78985000  0.23463000  1.0
  C  C171  1  0.56666000  0.21015000  0.73463000  1.0
  C  C172  1  0.21015000  0.56666000  0.26537000  1.0
  C  C173  1  0.78985000  0.43334000  0.76537000  1.0
  C  C174  1  0.93334000  0.71015000  0.51537000  1.0
  C  C175  1  0.06666000  0.28985000  0.01537000  1.0
  C  C176  1  0.73321000  0.85611000  0.45404000  1.0
  C  C177  1  0.26679000  0.14389000  0.95404000  1.0
  C  C178  1  0.35611000  0.76679000  0.20404000  1.0
  C  C179  1  0.64389000  0.23321000  0.70404000  1.0
  C  C180  1  0.23321000  0.64389000  0.29596000  1.0
  C  C181  1  0.76679000  0.35611000  0.79596000  1.0
  C  C182  1  0.85611000  0.73321000  0.54596000  1.0
  C  C183  1  0.14389000  0.26679000  0.04596000  1.0
  C  C184  1  0.92130000  0.19291000  0.54152000  1.0
  C  C185  1  0.07870000  0.80709000  0.04152000  1.0
  C  C186  1  0.69291000  0.57870000  0.29152000  1.0
  C  C187  1  0.30709000  0.42130000  0.79152000  1.0
  C  C188  1  0.42130000  0.30709000  0.20848000  1.0
  C  C189  1  0.57870000  0.69291000  0.70848000  1.0
  C  C190  1  0.19291000  0.92130000  0.45848000  1.0
  C  C191  1  0.80709000  0.07870000  0.95848000  1.0
  C  C192  1  0.95892000  0.20256000  0.49722000  1.0
  C  C193  1  0.04109000  0.79744000  0.99722000  1.0
  C  C194  1  0.70256000  0.54109000  0.24722000  1.0
  C  C195  1  0.29744000  0.45891000  0.74722000  1.0
  C  C196  1  0.45892000  0.29744000  0.25278000  1.0
  C  C197  1  0.54109000  0.70256000  0.75278000  1.0
  C  C198  1  0.20256000  0.95892000  0.50278000  1.0
  C  C199  1  0.79744000  0.04108000  0.00278000  1.0
  C  C200  1  0.92402000  0.28153000  0.46980000  1.0
  C  C201  1  0.07598000  0.71847000  0.96980000  1.0
  C  C202  1  0.78153000  0.57599000  0.21980000  1.0
  C  C203  1  0.21847000  0.42402000  0.71980000  1.0
  C  C204  1  0.42402000  0.21847000  0.28020000  1.0
  C  C205  1  0.57599000  0.78153000  0.78020000  1.0
  C  C206  1  0.28153000  0.92402000  0.53020000  1.0
  C  C207  1  0.71847000  0.07598000  0.03020000  1.0
  C  C208  1  0.85231000  0.35046000  0.48719000  1.0
  C  C209  1  0.14769000  0.64955000  0.98719000  1.0
  C  C210  1  0.85045000  0.64769000  0.23719000  1.0
  C  C211  1  0.14954000  0.35231000  0.73719000  1.0
  C  C212  1  0.35231000  0.14954000  0.26281000  1.0
  C  C213  1  0.64769000  0.85046000  0.76281000  1.0
  C  C214  1  0.35045000  0.85231000  0.51281000  1.0
  C  C215  1  0.64954000  0.14769000  0.01281000  1.0
  C  C216  1  0.81595000  0.33243000  0.53162000  1.0
  C  C217  1  0.18405000  0.66757000  0.03162000  1.0
  C  C218  1  0.83243000  0.68405000  0.28162000  1.0
  C  C219  1  0.16757000  0.31595000  0.78163000  1.0
  C  C220  1  0.31595000  0.16757000  0.21837000  1.0
  C  C221  1  0.68405000  0.83243000  0.71837000  1.0
  C  C222  1  0.33243000  0.81595000  0.46837000  1.0
  C  C223  1  0.66757000  0.18405000  0.96837000  1.0
  C  C224  1  0.69843000  0.57416000  0.44430000  1.0
  C  C225  1  0.30157000  0.42584000  0.94430000  1.0
  C  C226  1  0.07416000  0.80157000  0.19430000  1.0
  C  C227  1  0.92584000  0.19843000  0.69430000  1.0
  C  C228  1  0.19843000  0.92584000  0.30570000  1.0
  C  C229  1  0.80157000  0.07416000  0.80570000  1.0
  C  C230  1  0.57416000  0.69843000  0.55570000  1.0
  C  C231  1  0.42584000  0.30157000  0.05570000  1.0
  C  C232  1  0.72606000  0.49003000  0.47037000  1.0
  C  C233  1  0.27394000  0.50997000  0.97037000  1.0
  C  C234  1  0.99003000  0.77394000  0.22037000  1.0
  C  C235  1  0.00997000  0.22606000  0.72037000  1.0
  C  C236  1  0.22606000  0.00997000  0.27963000  1.0
  C  C237  1  0.77394000  0.99003000  0.77963000  1.0
  C  C238  1  0.49003000  0.72606000  0.52963000  1.0
  C  C239  1  0.50997000  0.27394000  0.02963000  1.0
  C  C240  1  0.81718000  0.43908000  0.46057000  1.0
  C  C241  1  0.18282000  0.56092000  0.96057000  1.0
  C  C242  1  0.93908000  0.68283000  0.21057000  1.0
  C  C243  1  0.06092000  0.31718000  0.71057000  1.0
  C  C244  1  0.31718000  0.06092000  0.28943000  1.0
  C  C245  1  0.68282000  0.93908000  0.78943000  1.0
  C  C246  1  0.43908000  0.81717000  0.53943000  1.0
  C  C247  1  0.56092000  0.18283000  0.03943000  1.0
  C  C248  1  0.87624000  0.47741000  0.42443000  1.0
  C  C249  1  0.12376000  0.52259000  0.92443000  1.0
  C  C250  1  0.97741000  0.62376000  0.17443000  1.0
  C  C251  1  0.02259000  0.37624000  0.67443000  1.0
  C  C252  1  0.37624000  0.02259000  0.32557000  1.0
  C  C253  1  0.62376000  0.97741000  0.82557000  1.0
  C  C254  1  0.47741000  0.87624000  0.57557000  1.0
  C  C255  1  0.52259000  0.12376000  0.07557000  1.0
  C  C256  1  0.84327000  0.56173000  0.40037000  1.0
  C  C257  1  0.15673000  0.43827000  0.90037000  1.0
  C  C258  1  0.06173000  0.65673000  0.15037000  1.0
  C  C259  1  0.93827000  0.34327000  0.65037000  1.0
  C  C260  1  0.34327000  0.93827000  0.34963000  1.0
  C  C261  1  0.65673000  0.06173000  0.84963000  1.0
  C  C262  1  0.56173000  0.84327000  0.59963000  1.0
  C  C263  1  0.43827000  0.15673000  0.09963000  1.0
  C  C264  1  0.54979000  0.21455000  0.57832000  1.0
  C  C265  1  0.45021000  0.78545000  0.07832000  1.0
  C  C266  1  0.71455000  0.95021000  0.32831000  1.0
  C  C267  1  0.28545000  0.04979000  0.82831000  1.0
  C  C268  1  0.04979000  0.28545000  0.17168000  1.0
  C  C269  1  0.95021000  0.71455000  0.67168000  1.0
  C  C270  1  0.21455000  0.54979000  0.42168000  1.0
  C  C271  1  0.78545000  0.45021000  0.92168000  1.0
  C  C272  1  0.47170000  0.18134000  0.54982000  1.0
  C  C273  1  0.52830000  0.81866000  0.04982000  1.0
  C  C274  1  0.68133000  0.02830000  0.29982000  1.0
  C  C275  1  0.31866000  0.97170000  0.79982000  1.0
  C  C276  1  0.97170000  0.31866000  0.20018000  1.0
  C  C277  1  0.02830000  0.68134000  0.70018000  1.0
  C  C278  1  0.18134000  0.47170000  0.45018000  1.0
  C  C279  1  0.81866000  0.52830000  0.95018000  1.0
  C  C280  1  0.49178000  0.10729000  0.51711000  1.0
  C  C281  1  0.50822000  0.89271000  0.01711000  1.0
  C  C282  1  0.60729000  0.00822000  0.26711000  1.0
  C  C283  1  0.39271000  0.99178000  0.76711000  1.0
  C  C284  1  0.99178000  0.39271000  0.23289000  1.0
  C  C285  1  0.00822000  0.60729000  0.73289000  1.0
  C  C286  1  0.10729000  0.49178000  0.48289000  1.0
  C  C287  1  0.89271000  0.50822000  0.98289000  1.0
  C  C288  1  0.59061000  0.06813000  0.51294000  1.0
  C  C289  1  0.40939000  0.93187000  0.01294000  1.0
  C  C290  1  0.56813000  0.90939000  0.26294000  1.0
  C  C291  1  0.43187000  0.09061000  0.76294000  1.0
  C  C292  1  0.09061000  0.43187000  0.23706000  1.0
  C  C293  1  0.90939000  0.56813000  0.73706000  1.0
  C  C294  1  0.06813000  0.59061000  0.48706000  1.0
  C  C295  1  0.93187000  0.40939000  0.98706000  1.0
  C  C296  1  0.66467000  0.10941000  0.54191000  1.0
  C  C297  1  0.33533000  0.89059000  0.04191000  1.0
  C  C298  1  0.60941000  0.83533000  0.29191000  1.0
  C  C299  1  0.39059000  0.16467000  0.79191000  1.0
  C  C300  1  0.16467000  0.39059000  0.20809000  1.0
  C  C301  1  0.83533000  0.60941000  0.70809000  1.0
  C  C302  1  0.10941000  0.66467000  0.45809000  1.0
  C  C303  1  0.89059000  0.33533000  0.95809000  1.0
  N  N304  1  0.66903000  0.82607000  0.42104000  1.0
  N  N305  1  0.33097000  0.17393000  0.92104000  1.0
  N  N306  1  0.32607000  0.83097000  0.17103000  1.0
  N  N307  1  0.67393000  0.16903000  0.67103000  1.0
  N  N308  1  0.16903000  0.67393000  0.32896000  1.0
  N  N309  1  0.83097000  0.32607000  0.82896000  1.0
  N  N310  1  0.82607000  0.66903000  0.57896000  1.0
  N  N311  1  0.17393000  0.33097000  0.07896000  1.0
  N  N312  1  0.75560000  0.60974000  0.40970000  1.0
  N  N313  1  0.24440000  0.39026000  0.90970000  1.0
  N  N314  1  0.10973000  0.74440000  0.15970000  1.0
  N  N315  1  0.89027000  0.25560000  0.65970000  1.0
  N  N316  1  0.25560000  0.89027000  0.34030000  1.0
  N  N317  1  0.74440000  0.10974000  0.84030000  1.0
  N  N318  1  0.60973000  0.75560000  0.59030000  1.0
  N  N319  1  0.39026000  0.24440000  0.09030000  1.0
  N  N320  1  0.84940000  0.25599000  0.55800000  1.0
  N  N321  1  0.15060000  0.74401000  0.05800000  1.0
  N  N322  1  0.75599000  0.65060000  0.30800000  1.0
  N  N323  1  0.24401000  0.34940000  0.80800000  1.0
  N  N324  1  0.34940000  0.24401000  0.19200000  1.0
  N  N325  1  0.65060000  0.75599000  0.69200000  1.0
  N  N326  1  0.25599000  0.84940000  0.44200000  1.0
  N  N327  1  0.74401000  0.15060000  0.94200000  1.0
  N  N328  1  0.64518000  0.17943000  0.57394000  1.0
  N  N329  1  0.35482000  0.82057000  0.07394000  1.0
  N  N330  1  0.67943000  0.85482000  0.32394000  1.0
  N  N331  1  0.32057000  0.14518000  0.82394000  1.0
  N  N332  1  0.14518000  0.32057000  0.17606000  1.0
  N  N333  1  0.85482000  0.67943000  0.67606000  1.0
  N  N334  1  0.17943000  0.64518000  0.42606000  1.0
  N  N335  1  0.82057000  0.35482000  0.92606000  1.0
  O  O336  1  0.46160000  0.59600000  0.43871000  1.0
  O  O337  1  0.53840000  0.40400000  0.93871000  1.0
  O  O338  1  0.09600000  0.03840000  0.18871000  1.0
  O  O339  1  0.90400000  0.96160000  0.68871000  1.0
  O  O340  1  0.96160000  0.90400000  0.31129000  1.0
  O  O341  1  0.03840000  0.09600000  0.81129000  1.0
  O  O342  1  0.59600000  0.46160000  0.56129000  1.0
  O  O343  1  0.40400000  0.53840000  0.06129000  1.0
  O  O344  1  0.57519000  0.67770000  0.36076000  1.0
  O  O345  1  0.42480000  0.32230000  0.86076000  1.0
  O  O346  1  0.17770000  0.92480000  0.11076000  1.0
  O  O347  1  0.82230000  0.07520000  0.61076000  1.0
  O  O348  1  0.07519000  0.82230000  0.38924000  1.0
  O  O349  1  0.92481000  0.17770000  0.88924000  1.0
  O  O350  1  0.67770000  0.57520000  0.63924000  1.0
  O  O351  1  0.32230000  0.42480000  0.13924000  1.0
  O  O352  1  0.42522000  0.51746000  0.34777000  1.0
  O  O353  1  0.57478000  0.48254000  0.84777000  1.0
  O  O354  1  0.01746000  0.07478000  0.09777000  1.0
  O  O355  1  0.98254000  0.92522000  0.59777000  1.0
  O  O356  1  0.92523000  0.98254000  0.40223000  1.0
  O  O357  1  0.07477000  0.01746000  0.90223000  1.0
  O  O358  1  0.51747000  0.42522000  0.65223000  1.0
  O  O359  1  0.48254000  0.57478000  0.15223000  1.0
  O  O360  1  0.36040000  0.72200000  0.37276000  1.0
  O  O361  1  0.63960000  0.27800000  0.87276000  1.0
  O  O362  1  0.22200000  0.13960000  0.12276000  1.0
  O  O363  1  0.77800000  0.86040000  0.62276000  1.0
  O  O364  1  0.86040000  0.77801000  0.37724000  1.0
  O  O365  1  0.13960000  0.22199000  0.87724000  1.0
  O  O366  1  0.72200000  0.36040000  0.62724000  1.0
  O  O367  1  0.27800000  0.63960000  0.12724000  1.0
