# generated using pymatgen
data_Zn2H21C38S3N2O11
_symmetry_space_group_name_H-M   'P 1'
_cell_length_a   12.74400000
_cell_length_b   13.85150000
_cell_length_c   28.06860000
_cell_angle_alpha   89.79920000
_cell_angle_beta   89.77640000
_cell_angle_gamma   89.90700000
_symmetry_Int_Tables_number   1
_chemical_formula_structural   Zn2H21C38S3N2O11
_chemical_formula_sum   'Zn4 H42 C76 S6 N4 O22'
_cell_volume   4954.69338538
_cell_formula_units_Z   2
loop_
 _symmetry_equiv_pos_site_id
 _symmetry_equiv_pos_as_xyz
  1  'x, y, z'
loop_
 _atom_site_type_symbol
 _atom_site_label
 _atom_site_symmetry_multiplicity
 _atom_site_fract_x
 _atom_site_fract_y
 _atom_site_fract_z
 _atom_site_occupancy
  Zn  Zn0  1  0.50137000  0.39974000  0.49896000  1.0
  Zn  Zn1  1  0.49793000  0.60039000  0.49881000  1.0
  Zn  Zn2  1  0.50162000  0.60067000  0.04417000  1.0
  Zn  Zn3  1  0.49908000  0.40003000  0.04435000  1.0
  H  H4  1  0.38446000  0.24730000  0.55221000  1.0
  H  H5  1  0.31037000  0.08817000  0.58589000  1.0
  H  H6  1  0.61329000  0.25135000  0.44836000  1.0
  H  H7  1  0.61537000  0.75329000  0.44696000  1.0
  H  H8  1  0.69011000  0.91188000  0.41382000  1.0
  H  H9  1  0.38586000  0.74863000  0.55048000  1.0
  H  H10  1  0.50003000  0.65764000  0.65128000  1.0
  H  H11  1  0.50064000  0.74737000  0.72873000  1.0
  H  H12  1  0.49887000  0.35011000  0.64835000  1.0
  H  H13  1  0.49986000  0.34212000  0.89182000  1.0
  H  H14  1  0.49925000  0.25244000  0.81440000  1.0
  H  H15  1  0.50048000  0.64968000  0.89480000  1.0
  H  H16  1  0.38504000  0.75370000  0.99121000  1.0
  H  H17  1  0.31177000  0.91312000  0.95770000  1.0
  H  H18  1  0.61376000  0.74835000  0.09429000  1.0
  H  H19  1  0.61680000  0.24650000  0.09586000  1.0
  H  H20  1  0.69131000  0.08743000  0.12870000  1.0
  H  H21  1  0.38791000  0.25223000  0.99285000  1.0
  H  H22  1  0.30033000  0.83498000  0.58934000  1.0
  H  H23  1  0.69900000  0.16528000  0.40987000  1.0
  H  H24  1  0.50322000  0.75169000  0.85389000  1.0
  H  H25  1  0.50125000  0.24816000  0.68923000  1.0
  H  H26  1  0.30217000  0.16634000  0.95428000  1.0
  H  H27  1  0.69976000  0.83394000  0.13246000  1.0
  H  H28  1  0.57075000  0.69962000  0.36002000  1.0
  H  H29  1  0.50023000  0.73193000  0.30744000  1.0
  H  H30  1  0.43279000  0.69912000  0.36111000  1.0
  H  H31  1  0.57074000  0.29984000  0.18290000  1.0
  H  H32  1  0.49998000  0.26777000  0.23567000  1.0
  H  H33  1  0.43280000  0.30096000  0.18219000  1.0
  H  H34  1  0.19521000  0.29967000  0.53154000  1.0
  H  H35  1  0.07969000  0.26774000  0.49949000  1.0
  H  H36  1  0.19796000  0.30047000  0.46890000  1.0
  H  H37  1  0.80221000  0.69953000  0.53113000  1.0
  H  H38  1  0.92031000  0.73200000  0.50042000  1.0
  H  H39  1  0.80438000  0.70053000  0.46850000  1.0
  H  H40  1  0.19550000  0.70151000  0.01240000  1.0
  H  H41  1  0.07982000  0.73367000  0.04476000  1.0
  H  H42  1  0.19809000  0.70099000  0.07503000  1.0
  H  H43  1  0.80369000  0.30178000  0.01372000  1.0
  H  H44  1  0.92169000  0.26962000  0.04430000  1.0
  H  H45  1  0.80544000  0.30145000  0.07636000  1.0
  C  C46  1  0.49814000  0.50337000  0.59257000  1.0
  C  C47  1  0.29395000  0.50295000  0.49969000  1.0
  C  C48  1  0.50168000  0.49696000  0.40528000  1.0
  C  C49  1  0.70548000  0.49750000  0.49869000  1.0
  C  C50  1  0.49920000  0.49634000  0.95058000  1.0
  C  C51  1  0.29466000  0.49827000  0.04419000  1.0
  C  C52  1  0.50189000  0.50278000  0.13788000  1.0
  C  C53  1  0.70613000  0.50416000  0.04458000  1.0
  C  C54  1  0.43478000  0.20317000  0.52946000  1.0
  C  C55  1  0.43146000  0.10181000  0.53101000  1.0
  C  C56  1  0.36311000  0.04948000  0.56194000  1.0
  C  C57  1  0.56466000  0.20426000  0.47056000  1.0
  C  C58  1  0.56887000  0.10337000  0.46880000  1.0
  C  C59  1  0.63805000  0.04995000  0.43751000  1.0
  C  C60  1  0.56512000  0.79720000  0.46982000  1.0
  C  C61  1  0.56889000  0.89853000  0.46859000  1.0
  C  C62  1  0.63746000  0.95073000  0.43774000  1.0
  C  C63  1  0.43497000  0.79584000  0.52856000  1.0
  C  C64  1  0.43133000  0.89675000  0.53070000  1.0
  C  C65  1  0.36238000  0.95023000  0.56209000  1.0
  C  C66  1  0.50048000  0.05109000  0.49976000  1.0
  C  C67  1  0.49992000  0.94915000  0.49988000  1.0
  C  C68  1  0.50161000  0.58018000  0.32300000  1.0
  C  C69  1  0.50169000  0.41955000  0.22014000  1.0
  C  C70  1  0.50180000  0.49957000  0.35284000  1.0
  C  C71  1  0.50193000  0.50017000  0.19032000  1.0
  C  C72  1  0.50201000  0.44953000  0.26839000  1.0
  C  C73  1  0.50198000  0.55018000  0.27477000  1.0
  C  C74  1  0.49907000  0.58988000  0.67116000  1.0
  C  C75  1  0.49929000  0.59048000  0.72120000  1.0
  C  C76  1  0.50004000  0.67841000  0.74759000  1.0
  C  C77  1  0.49857000  0.41493000  0.67043000  1.0
  C  C78  1  0.49877000  0.41174000  0.72026000  1.0
  C  C79  1  0.49893000  0.32217000  0.74676000  1.0
  C  C80  1  0.49924000  0.40992000  0.87197000  1.0
  C  C81  1  0.49904000  0.40934000  0.82193000  1.0
  C  C82  1  0.49897000  0.32140000  0.79554000  1.0
  C  C83  1  0.49975000  0.58487000  0.87272000  1.0
  C  C84  1  0.49969000  0.58807000  0.82289000  1.0
  C  C85  1  0.50026000  0.67764000  0.79638000  1.0
  C  C86  1  0.49849000  0.50311000  0.64599000  1.0
  C  C87  1  0.49897000  0.50028000  0.74630000  1.0
  C  C88  1  0.49934000  0.49666000  0.89716000  1.0
  C  C89  1  0.49915000  0.49956000  0.79683000  1.0
  C  C90  1  0.11332000  0.41940000  0.49995000  1.0
  C  C91  1  0.88621000  0.58045000  0.49987000  1.0
  C  C92  1  0.17860000  0.49997000  0.50004000  1.0
  C  C93  1  0.82084000  0.49995000  0.49932000  1.0
  C  C94  1  0.99250000  0.55023000  0.50018000  1.0
  C  C95  1  0.00697000  0.44954000  0.49997000  1.0
  C  C96  1  0.43556000  0.79752000  0.01377000  1.0
  C  C97  1  0.43273000  0.89891000  0.01217000  1.0
  C  C98  1  0.36462000  0.95157000  0.98144000  1.0
  C  C99  1  0.56528000  0.79573000  0.07228000  1.0
  C  C100  1  0.56985000  0.89659000  0.07401000  1.0
  C  C101  1  0.63903000  0.94964000  0.10511000  1.0
  C  C102  1  0.56667000  0.20283000  0.07308000  1.0
  C  C103  1  0.57033000  0.10148000  0.07427000  1.0
  C  C104  1  0.63863000  0.04888000  0.10493000  1.0
  C  C105  1  0.43686000  0.20483000  0.01464000  1.0
  C  C106  1  0.43313000  0.10395000  0.01247000  1.0
  C  C107  1  0.36415000  0.05081000  0.98129000  1.0
  C  C108  1  0.50180000  0.94926000  0.04321000  1.0
  C  C109  1  0.50147000  0.05120000  0.04311000  1.0
  C  C110  1  0.11383000  0.58197000  0.04437000  1.0
  C  C111  1  0.88710000  0.42115000  0.04454000  1.0
  C  C112  1  0.17930000  0.50132000  0.04431000  1.0
  C  C113  1  0.82151000  0.50169000  0.04461000  1.0
  C  C114  1  0.99332000  0.45127000  0.04443000  1.0
  C  C115  1  0.00754000  0.55195000  0.04445000  1.0
  C  C116  1  0.50118000  0.68351000  0.33848000  1.0
  C  C117  1  0.50113000  0.31623000  0.20464000  1.0
  C  C118  1  0.14790000  0.31604000  0.49988000  1.0
  C  C119  1  0.85194000  0.68390000  0.50005000  1.0
  C  C120  1  0.14814000  0.68531000  0.04422000  1.0
  C  C121  1  0.85314000  0.31772000  0.04466000  1.0
  S  S122  1  0.50186000  0.38997000  0.32246000  1.0
  S  S123  1  0.50189000  0.60976000  0.22070000  1.0
  S  S124  1  0.11129000  0.60965000  0.50024000  1.0
  S  S125  1  0.88810000  0.39022000  0.49947000  1.0
  S  S126  1  0.11223000  0.39172000  0.04440000  1.0
  S  S127  1  0.88850000  0.61137000  0.04444000  1.0
  N  N128  1  0.49932000  0.25136000  0.50011000  1.0
  N  N129  1  0.50012000  0.74886000  0.49884000  1.0
  N  N130  1  0.49979000  0.74899000  0.04295000  1.0
  N  N131  1  0.50188000  0.25152000  0.04424000  1.0
  O  O132  1  0.49997000  0.42153000  0.57190000  1.0
  O  O133  1  0.49612000  0.58532000  0.57183000  1.0
  O  O134  1  0.33673000  0.58641000  0.49994000  1.0
  O  O135  1  0.34221000  0.42209000  0.49906000  1.0
  O  O136  1  0.49937000  0.57821000  0.42664000  1.0
  O  O137  1  0.50371000  0.41389000  0.42526000  1.0
  O  O138  1  0.66213000  0.41425000  0.49811000  1.0
  O  O139  1  0.65776000  0.57859000  0.49884000  1.0
  O  O140  1  0.50106000  0.57814000  0.97127000  1.0
  O  O141  1  0.49722000  0.41438000  0.97132000  1.0
  O  O142  1  0.33776000  0.41481000  0.04383000  1.0
  O  O143  1  0.34261000  0.57915000  0.04446000  1.0
  O  O144  1  0.50007000  0.42148000  0.11655000  1.0
  O  O145  1  0.50353000  0.58582000  0.11788000  1.0
  O  O146  1  0.66249000  0.58741000  0.04497000  1.0
  O  O147  1  0.65867000  0.42309000  0.04407000  1.0
  O  O148  1  0.29530000  0.90483000  0.59251000  1.0
  O  O149  1  0.70510000  0.09542000  0.40710000  1.0
  O  O150  1  0.50085000  0.76417000  0.81973000  1.0
  O  O151  1  0.49886000  0.23565000  0.72340000  1.0
  O  O152  1  0.29714000  0.09651000  0.95110000  1.0
  O  O153  1  0.70591000  0.90378000  0.13529000  1.0
