# generated using pymatgen
data_CoH10C17NO4
_symmetry_space_group_name_H-M   'P 1'
_cell_length_a   13.13660000
_cell_length_b   13.19610000
_cell_length_c   13.61680000
_cell_angle_alpha   84.91130000
_cell_angle_beta   70.14870000
_cell_angle_gamma   83.15340000
_symmetry_Int_Tables_number   1
_chemical_formula_structural   CoH10C17NO4
_chemical_formula_sum   'Co4 H40 C68 N4 O16'
_cell_volume   2201.45753644
_cell_formula_units_Z   4
loop_
 _symmetry_equiv_pos_site_id
 _symmetry_equiv_pos_as_xyz
  1  'x, y, z'
loop_
 _atom_site_type_symbol
 _atom_site_label
 _atom_site_symmetry_multiplicity
 _atom_site_fract_x
 _atom_site_fract_y
 _atom_site_fract_z
 _atom_site_occupancy
  Co  Co0  1  0.18577000  0.81723000  0.18704000  1.0
  Co  Co1  1  0.13572000  0.82277000  0.36573000  1.0
  Co  Co2  1  0.81423000  0.18277000  0.81297000  1.0
  Co  Co3  1  0.86427000  0.17723000  0.63431000  1.0
  H  H4  1  0.87738000  0.80328000  0.15397000  1.0
  H  H5  1  0.74376000  0.78485000  0.06675000  1.0
  H  H6  1  0.55071000  0.78377000  0.07450000  1.0
  H  H7  1  0.43994000  0.83541000  0.40293000  1.0
  H  H8  1  0.57523000  0.85587000  0.49173000  1.0
  H  H9  1  0.76757000  0.85806000  0.48192000  1.0
  H  H10  1  0.11636000  0.14981000  0.41461000  1.0
  H  H11  1  0.09341000  0.31585000  0.49368000  1.0
  H  H12  1  0.10397000  0.50460000  0.47204000  1.0
  H  H13  1  0.20094000  0.49168000  0.13821000  1.0
  H  H14  1  0.22430000  0.32411000  0.05858000  1.0
  H  H15  1  0.21683000  0.13427000  0.08079000  1.0
  H  H16  1  0.11214000  0.96637000  0.03676000  1.0
  H  H17  1  0.08482000  0.97074000  0.86487000  1.0
  H  H18  1  0.24870000  0.66421000  0.82821000  1.0
  H  H19  1  0.26361000  0.67283000  0.00418000  1.0
  H  H20  1  0.10084000  0.97827000  0.71434000  1.0
  H  H21  1  0.08449000  0.97362000  0.53975000  1.0
  H  H22  1  0.17877000  0.66338000  0.52613000  1.0
  H  H23  1  0.19761000  0.65307000  0.70215000  1.0
  H  H24  1  0.12262000  0.19671000  0.84603000  1.0
  H  H25  1  0.25624000  0.21514000  0.93325000  1.0
  H  H26  1  0.44928000  0.21623000  0.92550000  1.0
  H  H27  1  0.56006000  0.16460000  0.59707000  1.0
  H  H28  1  0.42477000  0.14413000  0.50827000  1.0
  H  H29  1  0.23243000  0.14194000  0.51808000  1.0
  H  H30  1  0.88363000  0.85019000  0.58539000  1.0
  H  H31  1  0.90659000  0.68415000  0.50632000  1.0
  H  H32  1  0.89603000  0.49540000  0.52796000  1.0
  H  H33  1  0.79906000  0.50832000  0.86179000  1.0
  H  H34  1  0.77571000  0.67589000  0.94142000  1.0
  H  H35  1  0.78317000  0.86573000  0.91921000  1.0
  H  H36  1  0.88786000  0.03363000  0.96324000  1.0
  H  H37  1  0.91518000  0.02926000  0.13513000  1.0
  H  H38  1  0.75131000  0.33579000  0.17179000  1.0
  H  H39  1  0.73639000  0.32717000  0.99582000  1.0
  H  H40  1  0.89916000  0.02172000  0.28566000  1.0
  H  H41  1  0.91551000  0.02638000  0.46025000  1.0
  H  H42  1  0.82124000  0.33662000  0.47386000  1.0
  H  H43  1  0.80241000  0.34693000  0.29784000  1.0
  C  C44  1  0.94961000  0.83213000  0.30755000  1.0
  C  C45  1  0.83353000  0.83070000  0.31618000  1.0
  C  C46  1  0.81028000  0.81470000  0.22712000  1.0
  C  C47  1  0.70210000  0.81241000  0.23025000  1.0
  C  C48  1  0.67664000  0.79618000  0.13981000  1.0
  C  C49  1  0.57065000  0.79502000  0.14398000  1.0
  C  C50  1  0.48490000  0.80889000  0.24048000  1.0
  C  C51  1  0.50750000  0.82474000  0.33000000  1.0
  C  C52  1  0.61549000  0.82748000  0.32764000  1.0
  C  C53  1  0.64145000  0.84410000  0.41790000  1.0
  C  C54  1  0.74782000  0.84539000  0.41273000  1.0
  C  C55  1  0.36915000  0.80759000  0.24775000  1.0
  C  C56  1  0.16108000  0.01917000  0.26003000  1.0
  C  C57  1  0.16575000  0.13163000  0.24920000  1.0
  C  C58  1  0.14047000  0.18794000  0.33697000  1.0
  C  C59  1  0.14417000  0.29508000  0.32735000  1.0
  C  C60  1  0.11852000  0.35450000  0.41623000  1.0
  C  C61  1  0.12384000  0.45854000  0.40435000  1.0
  C  C62  1  0.15394000  0.50852000  0.30316000  1.0
  C  C63  1  0.17843000  0.45232000  0.21538000  1.0
  C  C64  1  0.17464000  0.34526000  0.22488000  1.0
  C  C65  1  0.20040000  0.28544000  0.13622000  1.0
  C  C66  1  0.19619000  0.18130000  0.14792000  1.0
  C  C67  1  0.15846000  0.62110000  0.29185000  1.0
  C  C68  1  0.14010000  0.90093000  0.98760000  1.0
  C  C69  1  0.12572000  0.90242000  0.89107000  1.0
  C  C70  1  0.16387000  0.81677000  0.82949000  1.0
  C  C71  1  0.21534000  0.73299000  0.87136000  1.0
  C  C72  1  0.22558000  0.73736000  0.96920000  1.0
  C  C73  1  0.15152000  0.81599000  0.72557000  1.0
  C  C74  1  0.11863000  0.90590000  0.67687000  1.0
  C  C75  1  0.10939000  0.90413000  0.57847000  1.0
  C  C76  1  0.16208000  0.73103000  0.57168000  1.0
  C  C77  1  0.17290000  0.72664000  0.66999000  1.0
  C  C78  1  0.05040000  0.16787000  0.69245000  1.0
  C  C79  1  0.16647000  0.16930000  0.68382000  1.0
  C  C80  1  0.18972000  0.18530000  0.77288000  1.0
  C  C81  1  0.29790000  0.18759000  0.76975000  1.0
  C  C82  1  0.32336000  0.20382000  0.86019000  1.0
  C  C83  1  0.42934000  0.20498000  0.85602000  1.0
  C  C84  1  0.51509000  0.19111000  0.75952000  1.0
  C  C85  1  0.49250000  0.17526000  0.67000000  1.0
  C  C86  1  0.38451000  0.17252000  0.67236000  1.0
  C  C87  1  0.35856000  0.15590000  0.58210000  1.0
  C  C88  1  0.25218000  0.15461000  0.58727000  1.0
  C  C89  1  0.63084000  0.19242000  0.75225000  1.0
  C  C90  1  0.83891000  0.98082000  0.73997000  1.0
  C  C91  1  0.83424000  0.86836000  0.75080000  1.0
  C  C92  1  0.85953000  0.81206000  0.66303000  1.0
  C  C93  1  0.85583000  0.70492000  0.67265000  1.0
  C  C94  1  0.88148000  0.64550000  0.58377000  1.0
  C  C95  1  0.87616000  0.54146000  0.59565000  1.0
  C  C96  1  0.84606000  0.49149000  0.69684000  1.0
  C  C97  1  0.82157000  0.54769000  0.78462000  1.0
  C  C98  1  0.82536000  0.65475000  0.77512000  1.0
  C  C99  1  0.79960000  0.71455000  0.86377000  1.0
  C  C100  1  0.80380000  0.81869000  0.85208000  1.0
  C  C101  1  0.84154000  0.37891000  0.70815000  1.0
  C  C102  1  0.85990000  0.09907000  0.01240000  1.0
  C  C103  1  0.87429000  0.09758000  0.10894000  1.0
  C  C104  1  0.83614000  0.18323000  0.17051000  1.0
  C  C105  1  0.78466000  0.26700000  0.12864000  1.0
  C  C106  1  0.77442000  0.26264000  0.03080000  1.0
  C  C107  1  0.84849000  0.18401000  0.27442000  1.0
  C  C108  1  0.88137000  0.09409000  0.32312000  1.0
  C  C109  1  0.89061000  0.09587000  0.42153000  1.0
  C  C110  1  0.83793000  0.26897000  0.42832000  1.0
  C  C111  1  0.82711000  0.27336000  0.33000000  1.0
  N  N112  1  0.18885000  0.81990000  0.02694000  1.0
  N  N113  1  0.13064000  0.81815000  0.52616000  1.0
  N  N114  1  0.81115000  0.18009000  0.97307000  1.0
  N  N115  1  0.86936000  0.18185000  0.47384000  1.0
  O  O116  1  0.01991000  0.83051000  0.21597000  1.0
  O  O117  1  0.97318000  0.83548000  0.39103000  1.0
  O  O118  1  0.29836000  0.80963000  0.33911000  1.0
  O  O119  1  0.34615000  0.80555000  0.16393000  1.0
  O  O120  1  0.18227000  0.97077000  0.17693000  1.0
  O  O121  1  0.13596000  0.97524000  0.35159000  1.0
  O  O122  1  0.13451000  0.66994000  0.37508000  1.0
  O  O123  1  0.18527000  0.66469000  0.20016000  1.0
  O  O124  1  0.98011000  0.16949000  0.78403000  1.0
  O  O125  1  0.02684000  0.16452000  0.60897000  1.0
  O  O126  1  0.70163000  0.19038000  0.66090000  1.0
  O  O127  1  0.65382000  0.19445000  0.83608000  1.0
  O  O128  1  0.81773000  0.02921000  0.82308000  1.0
  O  O129  1  0.86404000  0.02475000  0.64842000  1.0
  O  O130  1  0.86549000  0.33007000  0.62493000  1.0
  O  O131  1  0.81473000  0.33533000  0.79985000  1.0
