# generated using pymatgen
data_Mn2H15C19NO9
_symmetry_space_group_name_H-M   'P 1'
_cell_length_a   9.70578000
_cell_length_b   11.98920000
_cell_length_c   12.17110000
_cell_angle_alpha   104.08800000
_cell_angle_beta   108.41000000
_cell_angle_gamma   109.38200000
_symmetry_Int_Tables_number   1
_chemical_formula_structural   Mn2H15C19NO9
_chemical_formula_sum   'Mn4 H30 C38 N2 O18'
_cell_volume   1167.77320413
_cell_formula_units_Z   2
loop_
 _symmetry_equiv_pos_site_id
 _symmetry_equiv_pos_as_xyz
  1  'x, y, z'
loop_
 _atom_site_type_symbol
 _atom_site_label
 _atom_site_symmetry_multiplicity
 _atom_site_fract_x
 _atom_site_fract_y
 _atom_site_fract_z
 _atom_site_occupancy
  Mn  Mn0  1  0.78424000  0.87195000  0.66729000  1.0
  Mn  Mn1  1  0.21575000  0.12804000  0.33271000  1.0
  Mn  Mn2  1  0.00000000  0.00000000  0.00000000  1.0
  Mn  Mn3  1  0.00000000  1.00000000  0.50000000  1.0
  H  H4  1  0.51399000  0.48111000  0.62855000  1.0
  H  H5  1  0.48602000  0.51889000  0.37145000  1.0
  H  H6  1  0.42823000  0.27066000  0.85944000  1.0
  H  H7  1  0.57177000  0.72934000  0.14056000  1.0
  H  H8  1  0.65592000  0.45687000  0.04991000  1.0
  H  H9  1  0.34408000  0.54313000  0.95009000  1.0
  H  H10  1  0.80227000  0.66132000  0.02804000  1.0
  H  H11  1  0.19774000  0.33867000  0.97196000  1.0
  H  H12  1  0.28523000  0.14751000  0.99041000  1.0
  H  H13  1  0.71477000  0.85249000  0.00959000  1.0
  H  H14  1  0.58033000  0.24953000  0.12811000  1.0
  H  H15  1  0.41967000  0.75046000  0.87189000  1.0
  H  H16  1  0.76281000  0.18565000  0.04762000  1.0
  H  H17  1  0.23718000  0.81434000  0.95237000  1.0
  H  H18  1  0.35423000  0.92970000  0.69208000  1.0
  H  H19  1  0.64576000  0.07030000  0.30792000  1.0
  H  H20  1  0.62761000  0.08936000  0.51584000  1.0
  H  H21  1  0.37240000  0.91065000  0.48416000  1.0
  H  H22  1  0.62768000  0.24293000  0.56596000  1.0
  H  H23  1  0.37234000  0.75709000  0.43404000  1.0
  H  H24  1  0.56350000  0.13284000  0.63544000  1.0
  H  H25  1  0.43651000  0.86717000  0.36455000  1.0
  H  H26  1  0.99854000  0.37219000  0.86027000  1.0
  H  H27  1  0.00146000  0.62782000  0.13974000  1.0
  H  H28  1  0.79774000  0.32566000  0.84833000  1.0
  H  H29  1  0.20226000  0.67435000  0.15167000  1.0
  H  H30  1  0.86248000  0.41632000  0.76260000  1.0
  H  H31  1  0.13753000  0.58369000  0.23741000  1.0
  H  H32  1  0.03309000  0.21486000  0.75820000  1.0
  H  H33  1  0.96691000  0.78513000  0.24182000  1.0
  C  C34  1  0.75353000  0.70722000  0.81823000  1.0
  C  C35  1  0.24648000  0.29279000  0.18177000  1.0
  C  C36  1  0.66704000  0.58324000  0.82791000  1.0
  C  C37  1  0.33297000  0.41675000  0.17209000  1.0
  C  C38  1  0.54382000  0.47627000  0.72085000  1.0
  C  C39  1  0.45618000  0.52373000  0.27915000  1.0
  C  C40  1  0.45674000  0.36434000  0.73313000  1.0
  C  C41  1  0.54326000  0.63566000  0.26686000  1.0
  C  C42  1  0.49743000  0.35820000  0.85175000  1.0
  C  C43  1  0.50257000  0.64180000  0.14826000  1.0
  C  C44  1  0.62485000  0.46282000  0.95794000  1.0
  C  C45  1  0.37515000  0.53718000  0.04206000  1.0
  C  C46  1  0.70733000  0.57577000  0.94637000  1.0
  C  C47  1  0.29267000  0.42423000  0.05362000  1.0
  C  C48  1  0.12304000  0.96975000  0.75310000  1.0
  C  C49  1  0.87696000  0.03025000  0.24691000  1.0
  C  C50  1  0.30066000  0.03166000  0.83308000  1.0
  C  C51  1  0.69933000  0.96833000  0.16692000  1.0
  C  C52  1  0.36548000  0.12148000  0.95606000  1.0
  C  C53  1  0.63451000  0.87851000  0.04393000  1.0
  C  C54  1  0.53150000  0.17942000  0.03281000  1.0
  C  C55  1  0.46850000  0.82058000  0.96719000  1.0
  C  C56  1  0.63339000  0.14543000  0.98839000  1.0
  C  C57  1  0.36660000  0.85457000  0.01162000  1.0
  C  C58  1  0.56963000  0.05485000  0.86568000  1.0
  C  C59  1  0.43036000  0.94514000  0.13431000  1.0
  C  C60  1  0.40380000  0.00022000  0.78709000  1.0
  C  C61  1  0.59619000  0.99977000  0.21291000  1.0
  C  C62  1  0.64841000  0.16852000  0.59607000  1.0
  C  C63  1  0.35160000  0.83149000  0.40393000  1.0
  C  C64  1  0.87219000  0.34104000  0.79653000  1.0
  C  C65  1  0.12781000  0.65897000  0.20348000  1.0
  C  C66  1  0.90796000  0.16346000  0.68364000  1.0
  C  C67  1  0.09205000  0.83654000  0.31637000  1.0
  C  C68  1  0.32192000  0.25047000  0.61920000  1.0
  C  C69  1  0.67809000  0.74954000  0.38080000  1.0
  C  C70  1  0.68011000  0.01166000  0.82546000  1.0
  C  C71  1  0.31989000  0.98834000  0.17454000  1.0
  N  N72  1  0.81478000  0.22242000  0.69083000  1.0
  N  N73  1  0.18522000  0.77759000  0.30918000  1.0
  O  O74  1  0.72479000  0.70854000  0.70927000  1.0
  O  O75  1  0.27522000  0.29145000  0.29073000  1.0
  O  O76  1  0.84895000  0.80382000  0.92164000  1.0
  O  O77  1  0.15104000  0.19618000  0.07835000  1.0
  O  O78  1  0.02847000  0.97348000  0.80740000  1.0
  O  O79  1  0.97153000  0.02652000  0.19260000  1.0
  O  O80  1  0.06613000  0.91460000  0.63441000  1.0
  O  O81  1  0.93386000  0.08540000  0.36559000  1.0
  O  O82  1  0.85970000  0.05560000  0.59862000  1.0
  O  O83  1  0.14030000  0.94441000  0.40139000  1.0
  O  O84  1  0.20593000  0.17433000  0.63192000  1.0
  O  O85  1  0.79406000  0.82567000  0.36808000  1.0
  O  O86  1  0.33625000  0.23892000  0.51717000  1.0
  O  O87  1  0.66374000  0.76108000  0.48282000  1.0
  O  O88  1  0.62580000  0.93592000  0.71123000  1.0
  O  O89  1  0.37420000  0.06408000  0.28877000  1.0
  O  O90  1  0.82368000  0.05254000  0.90831000  1.0
  O  O91  1  0.17631000  0.94745000  0.09169000  1.0
