# generated using pymatgen
data_ZnH6C10INO4
_symmetry_space_group_name_H-M   'P 1'
_cell_length_a   9.78962000
_cell_length_b   11.28230000
_cell_length_c   13.30010000
_cell_angle_alpha   95.03220000
_cell_angle_beta   105.94700000
_cell_angle_gamma   100.13400000
_symmetry_Int_Tables_number   1
_chemical_formula_structural   ZnH6C10INO4
_chemical_formula_sum   'Zn2 H12 C20 I2 N2 O8'
_cell_volume   1375.98043654
_cell_formula_units_Z   2
loop_
 _symmetry_equiv_pos_site_id
 _symmetry_equiv_pos_as_xyz
  1  'x, y, z'
loop_
 _atom_site_type_symbol
 _atom_site_label
 _atom_site_symmetry_multiplicity
 _atom_site_fract_x
 _atom_site_fract_y
 _atom_site_fract_z
 _atom_site_occupancy
  Zn  Zn0  1  0.65004000  0.50391000  0.54766000  1.0
  Zn  Zn1  1  0.34837000  0.49656000  0.45981000  1.0
  H  H2  1  0.36983000  0.58320000  0.15021000  1.0
  H  H3  1  0.14111000  0.47750000  0.58593000  1.0
  H  H4  1  0.93196000  0.48126000  0.64228000  1.0
  H  H5  1  0.06632000  0.51940000  0.36542000  1.0
  H  H6  1  0.62897000  0.41603000  0.85719000  1.0
  H  H7  1  0.30940000  0.65902000  0.97588000  1.0
  H  H8  1  0.68973000  0.34047000  0.03190000  1.0
  H  H9  1  0.37119000  0.88613000  0.47546000  1.0
  H  H10  1  0.62681000  0.11473000  0.53532000  1.0
  H  H11  1  0.70434000  0.91373000  0.54978000  1.0
  H  H12  1  0.29371000  0.08701000  0.45852000  1.0
  H  H13  1  0.85750000  0.52323000  0.42181000  1.0
  C  C14  1  0.44145000  0.26531000  0.49268000  1.0
  C  C15  1  0.62189000  0.39568000  0.05831000  1.0
  C  C16  1  0.38948000  0.60245000  0.84839000  1.0
  C  C17  1  0.60966000  0.39718000  0.15934000  1.0
  C  C18  1  0.55779000  0.46756000  0.88370000  1.0
  C  C19  1  0.44127000  0.53189000  0.12382000  1.0
  C  C20  1  0.54582000  0.46495000  0.98702000  1.0
  C  C21  1  0.45338000  0.53452000  0.02056000  1.0
  C  C22  1  0.40865000  0.13102000  0.48566000  1.0
  C  C23  1  0.58941000  0.86967000  0.52340000  1.0
  C  C24  1  0.51349000  0.06561000  0.50916000  1.0
  C  C25  1  0.55684000  0.73531000  0.51555000  1.0
  C  C26  1  0.48452000  0.93515000  0.50102000  1.0
  C  C27  1  0.07433000  0.49423000  0.50972000  1.0
  C  C28  1  0.92422000  0.50653000  0.49807000  1.0
  C  C29  1  0.49564000  0.52246000  0.70347000  1.0
  C  C30  1  0.50301000  0.47732000  0.30411000  1.0
  C  C31  1  0.51832000  0.46628000  0.19417000  1.0
  C  C32  1  0.48064000  0.53320000  0.81349000  1.0
  C  C33  1  0.37731000  0.60395000  0.94942000  1.0
  I  I34  1  0.72352000  0.28371000  0.25403000  1.0
  I  I35  1  0.27609000  0.71609000  0.75357000  1.0
  N  N36  1  0.13323000  0.50345000  0.43502000  1.0
  N  N37  1  0.86514000  0.49721000  0.57267000  1.0
  O  O38  1  0.57389000  0.32133000  0.52963000  1.0
  O  O39  1  0.42417000  0.67938000  0.48084000  1.0
  O  O40  1  0.33225000  0.31455000  0.46028000  1.0
  O  O41  1  0.66644000  0.68579000  0.54500000  1.0
  O  O42  1  0.62235000  0.52210000  0.69609000  1.0
  O  O43  1  0.37702000  0.48111000  0.31150000  1.0
  O  O44  1  0.38041000  0.51095000  0.62743000  1.0
  O  O45  1  0.61746000  0.48576000  0.38020000  1.0
