# generated using pymatgen
data_MnPH7(CO4)2
_symmetry_space_group_name_H-M   'P 1'
_cell_length_a   5.84601000
_cell_length_b   7.92835000
_cell_length_c   15.49030000
_cell_angle_alpha   90.00000000
_cell_angle_beta   90.00000000
_cell_angle_gamma   110.35900000
_symmetry_Int_Tables_number   1
_chemical_formula_structural   MnPH7(CO4)2
_chemical_formula_sum   'Mn4 P4 H28 C8 O32'
_cell_volume   673.11290665
_cell_formula_units_Z   4
loop_
 _symmetry_equiv_pos_site_id
 _symmetry_equiv_pos_as_xyz
  1  'x, y, z'
loop_
 _atom_site_type_symbol
 _atom_site_label
 _atom_site_symmetry_multiplicity
 _atom_site_fract_x
 _atom_site_fract_y
 _atom_site_fract_z
 _atom_site_occupancy
  Mn  Mn0  1  0.73857000  0.48803000  0.63524000  1.0
  Mn  Mn1  1  0.26144000  0.01198000  0.13524000  1.0
  Mn  Mn2  1  0.26143000  0.51197000  0.36476000  1.0
  Mn  Mn3  1  0.73857000  0.98803000  0.86476000  1.0
  P  P4  1  0.98890000  0.16690000  0.67877000  1.0
  P  P5  1  0.01109000  0.33309000  0.17877000  1.0
  P  P6  1  0.01110000  0.83309000  0.32123000  1.0
  P  P7  1  0.98891000  0.66691000  0.82123000  1.0
  H  H8  1  0.28294000  0.51986000  0.63187000  1.0
  H  H9  1  0.71706000  0.98014000  0.13187000  1.0
  H  H10  1  0.71706000  0.48014000  0.36813000  1.0
  H  H11  1  0.28294000  0.01986000  0.86813000  1.0
  H  H12  1  0.45690000  0.67389000  0.57176000  1.0
  H  H13  1  0.54310000  0.82611000  0.07176000  1.0
  H  H14  1  0.54310000  0.32611000  0.42824000  1.0
  H  H15  1  0.45690000  0.17389000  0.92824000  1.0
  H  H16  1  0.05608000  0.79095000  0.55255000  1.0
  H  H17  1  0.94393000  0.70906000  0.05255000  1.0
  H  H18  1  0.94392000  0.20906000  0.44745000  1.0
  H  H19  1  0.05608000  0.29094000  0.94745000  1.0
  H  H20  1  0.95877000  0.64989000  0.47758000  1.0
  H  H21  1  0.04123000  0.85011000  0.97758000  1.0
  H  H22  1  0.04123000  0.35011000  0.52242000  1.0
  H  H23  1  0.95877000  0.14989000  0.02242000  1.0
  H  H24  1  0.47492000  0.23735000  0.77618000  1.0
  H  H25  1  0.52508000  0.26265000  0.27618000  1.0
  H  H26  1  0.52508000  0.76265000  0.22382000  1.0
  H  H27  1  0.47492000  0.73735000  0.72382000  1.0
  H  H28  1  0.77210000  0.99645000  0.56853000  1.0
  H  H29  1  0.22790000  0.50355000  0.06853000  1.0
  H  H30  1  0.22790000  0.00355000  0.43147000  1.0
  H  H31  1  0.77210000  0.49645000  0.93147000  1.0
  H  H32  1  0.26953000  0.00210000  0.69419000  1.0
  H  H33  1  0.73047000  0.49790000  0.19419000  1.0
  H  H34  1  0.73047000  0.99790000  0.30581000  1.0
  H  H35  1  0.26953000  0.50210000  0.80581000  1.0
  C  C36  1  0.28902000  0.13548000  0.66796000  1.0
  C  C37  1  0.71098000  0.36452000  0.16796000  1.0
  C  C38  1  0.71098000  0.86451000  0.33204000  1.0
  C  C39  1  0.28902000  0.63549000  0.83204000  1.0
  C  C40  1  0.35939000  0.14235000  0.57319000  1.0
  C  C41  1  0.64061000  0.35765000  0.07319000  1.0
  C  C42  1  0.64060000  0.85764000  0.42681000  1.0
  C  C43  1  0.35940000  0.64236000  0.92681000  1.0
  O  O44  1  0.44749000  0.61693000  0.62961000  1.0
  O  O45  1  0.55252000  0.88307000  0.12961000  1.0
  O  O46  1  0.55252000  0.38306000  0.37039000  1.0
  O  O47  1  0.44748000  0.11693000  0.87039000  1.0
  O  O48  1  0.52072000  0.28379000  0.54378000  1.0
  O  O49  1  0.47928000  0.21621000  0.04378000  1.0
  O  O50  1  0.47929000  0.71620000  0.45622000  1.0
  O  O51  1  0.52071000  0.78379000  0.95622000  1.0
  O  O52  1  0.95565000  0.66322000  0.54122000  1.0
  O  O53  1  0.04434000  0.83678000  0.04122000  1.0
  O  O54  1  0.04434000  0.33678000  0.45878000  1.0
  O  O55  1  0.95566000  0.16322000  0.95878000  1.0
  O  O56  1  0.46642000  0.27691000  0.71496000  1.0
  O  O57  1  0.53358000  0.22309000  0.21496000  1.0
  O  O58  1  0.53358000  0.72308000  0.28504000  1.0
  O  O59  1  0.46642000  0.77691000  0.78504000  1.0
  O  O60  1  0.01658000  0.34533000  0.63248000  1.0
  O  O61  1  0.98342000  0.15467000  0.13248000  1.0
  O  O62  1  0.98342000  0.65467000  0.36752000  1.0
  O  O63  1  0.01658000  0.84533000  0.86752000  1.0
  O  O64  1  0.93698000  0.16830000  0.77413000  1.0
  O  O65  1  0.06302000  0.33170000  0.27413000  1.0
  O  O66  1  0.06302000  0.83170000  0.22588000  1.0
  O  O67  1  0.93698000  0.66830000  0.72587000  1.0
  O  O68  1  0.78632000  0.00346000  0.63535000  1.0
  O  O69  1  0.21368000  0.49654000  0.13535000  1.0
  O  O70  1  0.21368000  0.99654000  0.36465000  1.0
  O  O71  1  0.78632000  0.50346000  0.86465000  1.0
  O  O72  1  0.24057000  0.00640000  0.52829000  1.0
  O  O73  1  0.75943000  0.49360000  0.02829000  1.0
  O  O74  1  0.75943000  0.99360000  0.47171000  1.0
  O  O75  1  0.24057000  0.50640000  0.97171000  1.0
