# generated using pymatgen
data_Zn4H6C18N6O13
_symmetry_space_group_name_H-M   'P 1'
_cell_length_a   17.97960000
_cell_length_b   18.19550000
_cell_length_c   18.22920000
_cell_angle_alpha   60.93820000
_cell_angle_beta   60.61450000
_cell_angle_gamma   60.49070000
_symmetry_Int_Tables_number   1
_chemical_formula_structural   Zn4H6C18N6O13
_chemical_formula_sum   'Zn8 H12 C36 N12 O26'
_cell_volume   4281.63187248
_cell_formula_units_Z   2
loop_
 _symmetry_equiv_pos_site_id
 _symmetry_equiv_pos_as_xyz
  1  'x, y, z'
loop_
 _atom_site_type_symbol
 _atom_site_label
 _atom_site_symmetry_multiplicity
 _atom_site_fract_x
 _atom_site_fract_y
 _atom_site_fract_z
 _atom_site_occupancy
  Zn  Zn0  1  0.96274000  0.93996000  0.14743000  1.0
  Zn  Zn1  1  0.14236000  0.93618000  0.97322000  1.0
  Zn  Zn2  1  0.96404000  0.11260000  0.97566000  1.0
  Zn  Zn3  1  0.96437000  0.93638000  0.97167000  1.0
  Zn  Zn4  1  0.55127000  0.52497000  0.38631000  1.0
  Zn  Zn5  1  0.37486000  0.52397000  0.56072000  1.0
  Zn  Zn6  1  0.55561000  0.52614000  0.55970000  1.0
  Zn  Zn7  1  0.55328000  0.35040000  0.56014000  1.0
  H  H8  1  0.29022000  0.56899000  0.31524000  1.0
  H  H9  1  0.21980000  0.88902000  0.22363000  1.0
  H  H10  1  0.82756000  0.27381000  0.31471000  1.0
  H  H11  1  0.67733000  0.18931000  0.22169000  1.0
  H  H12  1  0.59782000  0.80213000  0.31454000  1.0
  H  H13  1  0.92437000  0.65671000  0.21560000  1.0
  H  H14  1  0.30338000  0.26730000  0.60994000  1.0
  H  H15  1  0.21557000  0.19252000  0.92939000  1.0
  H  H16  1  0.29516000  0.57282000  0.83677000  1.0
  H  H17  1  0.22450000  0.89330000  0.69037000  1.0
  H  H18  1  0.59922000  0.27491000  0.83440000  1.0
  H  H19  1  0.92626000  0.18937000  0.69292000  1.0
  C  C20  1  0.14800000  0.84116000  0.15633000  1.0
  C  C21  1  0.20543000  0.78116000  0.21582000  1.0
  C  C22  1  0.27456000  0.64092000  0.29415000  1.0
  C  C23  1  0.30646000  0.67676000  0.32134000  1.0
  C  C24  1  0.23647000  0.81703000  0.24384000  1.0
  C  C25  1  0.36526000  0.61790000  0.37957000  1.0
  C  C26  1  0.86497000  0.12224000  0.15741000  1.0
  C  C27  1  0.80525000  0.18049000  0.21608000  1.0
  C  C28  1  0.79432000  0.25470000  0.29338000  1.0
  C  C29  1  0.69980000  0.28323000  0.31959000  1.0
  C  C30  1  0.71072000  0.20875000  0.24253000  1.0
  C  C31  1  0.64167000  0.34171000  0.37799000  1.0
  C  C32  1  0.86892000  0.84156000  0.15296000  1.0
  C  C33  1  0.81151000  0.78209000  0.21166000  1.0
  C  C34  1  0.67122000  0.76983000  0.29210000  1.0
  C  C35  1  0.71062000  0.67678000  0.31823000  1.0
  C  C36  1  0.85095000  0.68904000  0.23783000  1.0
  C  C37  1  0.65228000  0.61823000  0.37762000  1.0
  C  C38  1  0.15004000  0.11915000  0.88097000  1.0
  C  C39  1  0.20858000  0.17758000  0.82162000  1.0
  C  C40  1  0.28358000  0.25018000  0.68178000  1.0
  C  C41  1  0.31082000  0.28181000  0.71778000  1.0
  C  C42  1  0.23567000  0.20939000  0.85756000  1.0
  C  C43  1  0.36882000  0.34072000  0.65864000  1.0
  C  C44  1  0.15005000  0.84263000  0.87434000  1.0
  C  C45  1  0.20858000  0.78432000  0.81565000  1.0
  C  C46  1  0.27892000  0.64492000  0.80425000  1.0
  C  C47  1  0.31087000  0.68183000  0.71154000  1.0
  C  C48  1  0.24061000  0.82122000  0.72294000  1.0
  C  C49  1  0.36925000  0.62272000  0.65366000  1.0
  C  C50  1  0.86993000  0.11964000  0.87656000  1.0
  C  C51  1  0.81274000  0.17886000  0.81681000  1.0
  C  C52  1  0.67278000  0.25541000  0.80303000  1.0
  C  C53  1  0.71269000  0.28518000  0.71048000  1.0
  C  C54  1  0.85269000  0.20876000  0.72429000  1.0
  C  C55  1  0.65445000  0.34407000  0.65170000  1.0
  N  N56  1  0.22418000  0.69316000  0.24078000  1.0
  N  N57  1  0.28767000  0.76480000  0.29634000  1.0
  N  N58  1  0.84751000  0.20315000  0.24134000  1.0
  N  N59  1  0.65748000  0.26049000  0.29451000  1.0
  N  N60  1  0.72170000  0.82287000  0.23874000  1.0
  N  N61  1  0.80043000  0.63596000  0.29138000  1.0
  N  N62  1  0.23244000  0.19763000  0.73372000  1.0
  N  N63  1  0.28721000  0.26151000  0.80566000  1.0
  N  N64  1  0.22757000  0.69614000  0.85669000  1.0
  N  N65  1  0.29203000  0.76998000  0.67047000  1.0
  N  N66  1  0.72276000  0.20198000  0.85664000  1.0
  N  N67  1  0.80267000  0.26202000  0.67063000  1.0
  O  O68  1  0.00883000  0.98122000  0.01641000  1.0
  O  O69  1  0.19025000  0.86147000  0.07314000  1.0
  O  O70  1  0.06311000  0.86630000  0.19599000  1.0
  O  O71  1  0.32445000  0.59060000  0.46263000  1.0
  O  O72  1  0.44988000  0.60127000  0.33926000  1.0
  O  O73  1  0.88607000  0.16262000  0.07412000  1.0
  O  O74  1  0.88759000  0.03870000  0.19735000  1.0
  O  O75  1  0.62169000  0.30127000  0.46123000  1.0
  O  O76  1  0.62039000  0.42524000  0.33786000  1.0
  O  O77  1  0.89355000  0.85908000  0.06960000  1.0
  O  O78  1  0.88734000  0.86731000  0.19368000  1.0
  O  O79  1  0.63081000  0.59880000  0.46084000  1.0
  O  O80  1  0.62922000  0.59575000  0.33786000  1.0
  O  O81  1  0.06521000  0.16003000  0.90472000  1.0
  O  O82  1  0.19139000  0.03553000  0.90180000  1.0
  O  O83  1  0.45382000  0.30089000  0.63926000  1.0
  O  O84  1  0.32678000  0.42398000  0.63360000  1.0
  O  O85  1  0.06515000  0.86463000  0.89515000  1.0
  O  O86  1  0.19169000  0.86446000  0.89616000  1.0
  O  O87  1  0.45416000  0.60075000  0.63294000  1.0
  O  O88  1  0.32744000  0.59981000  0.63312000  1.0
  O  O89  1  0.89130000  0.16010000  0.89988000  1.0
  O  O90  1  0.89162000  0.03611000  0.89642000  1.0
  O  O91  1  0.63449000  0.30338000  0.62728000  1.0
  O  O92  1  0.62971000  0.42762000  0.63430000  1.0
  O  O93  1  0.50837000  0.48173000  0.51738000  1.0
