# generated using pymatgen
data_LaH7(C3O4)2
_symmetry_space_group_name_H-M   'P 1'
_cell_length_a   8.77776000
_cell_length_b   9.45629133
_cell_length_c   12.91990000
_cell_angle_alpha   86.04577686
_cell_angle_beta   70.15770000
_cell_angle_gamma   62.35116968
_symmetry_Int_Tables_number   1
_chemical_formula_structural   LaH7(C3O4)2
_chemical_formula_sum   'La4 H28 C24 O32'
_cell_volume   888.49663144
_cell_formula_units_Z   4
loop_
 _symmetry_equiv_pos_site_id
 _symmetry_equiv_pos_as_xyz
  1  'x, y, z'
loop_
 _atom_site_type_symbol
 _atom_site_label
 _atom_site_symmetry_multiplicity
 _atom_site_fract_x
 _atom_site_fract_y
 _atom_site_fract_z
 _atom_site_occupancy
  La  La0  1  0.50208000  0.49781000  0.32904000  1.0
  La  La1  1  0.17096000  0.99789000  0.82910000  1.0
  La  La2  1  0.49792000  0.50219000  0.67096000  1.0
  La  La3  1  0.82904000  0.00211000  0.17090000  1.0
  H  H4  1  0.19244000  0.47933000  0.96116000  1.0
  H  H5  1  0.86684000  0.97928000  0.46124000  1.0
  H  H6  1  0.80756000  0.52067000  0.03884000  1.0
  H  H7  1  0.13316000  0.02072000  0.53876000  1.0
  H  H8  1  0.36033000  0.47140000  0.00960000  1.0
  H  H9  1  0.65844000  0.97141000  0.50963000  1.0
  H  H10  1  0.63967000  0.52860000  0.99040000  1.0
  H  H11  1  0.34156000  0.02859000  0.49037000  1.0
  H  H12  1  0.04202000  0.37809000  0.11635000  1.0
  H  H13  1  0.96333000  0.87824000  0.61650000  1.0
  H  H14  1  0.95798000  0.62191000  0.88365000  1.0
  H  H15  1  0.03667000  0.12176000  0.38350000  1.0
  H  H16  1  0.21404000  0.34337000  0.17209000  1.0
  H  H17  1  0.77038000  0.84344000  0.67213000  1.0
  H  H18  1  0.78596000  0.65663000  0.82791000  1.0
  H  H19  1  0.22962000  0.15656000  0.32787000  1.0
  H  H20  1  0.80144000  0.68830000  0.17998000  1.0
  H  H21  1  0.83017000  0.18838000  0.68000000  1.0
  H  H22  1  0.19856000  0.31170000  0.82002000  1.0
  H  H23  1  0.16983000  0.81162000  0.32000000  1.0
  H  H24  1  0.14085000  0.48133000  0.39412000  1.0
  H  H25  1  0.48360000  0.98131000  0.89412000  1.0
  H  H26  1  0.85915000  0.51867000  0.60588000  1.0
  H  H27  1  0.51640000  0.01869000  0.10588000  1.0
  H  H28  1  0.18084000  0.45191000  0.50775000  1.0
  H  H29  1  0.35957000  0.95184000  0.00776000  1.0
  H  H30  1  0.81916000  0.54809000  0.49225000  1.0
  H  H31  1  0.64044000  0.04815000  0.99224000  1.0
  C  C32  1  0.15290000  0.64570000  0.20504000  1.0
  C  C33  1  0.49623000  0.14579000  0.70503000  1.0
  C  C34  1  0.84710000  0.35430000  0.79496000  1.0
  C  C35  1  0.50377000  0.85421000  0.29497000  1.0
  C  C36  1  0.08403000  0.58388000  0.13122000  1.0
  C  C37  1  0.70067000  0.08396000  0.63125000  1.0
  C  C38  1  0.91597000  0.41612000  0.86878000  1.0
  C  C39  1  0.29933000  0.91604000  0.36875000  1.0
  C  C40  1  0.21913000  0.54838000  0.01154000  1.0
  C  C41  1  0.72076000  0.04837000  0.51157000  1.0
  C  C42  1  0.78087000  0.45162000  0.98846000  1.0
  C  C43  1  0.27924000  0.95163000  0.48843000  1.0
  C  C44  1  0.21355000  0.69522000  0.95431000  1.0
  C  C45  1  0.63690000  0.19516000  0.45424000  1.0
  C  C46  1  0.78645000  0.30478000  0.04569000  1.0
  C  C47  1  0.36310000  0.80484000  0.54576000  1.0
  C  C48  1  0.07600000  0.43036000  0.17291000  1.0
  C  C49  1  0.82054000  0.93047000  0.67300000  1.0
  C  C50  1  0.92400000  0.56964000  0.82709000  1.0
  C  C51  1  0.17946000  0.06953000  0.32700000  1.0
  C  C52  1  0.93905000  0.46036000  0.29086000  1.0
  C  C53  1  0.80951000  0.96045000  0.79098000  1.0
  C  C54  1  0.06095000  0.53964000  0.70914000  1.0
  C  C55  1  0.19049000  0.03955000  0.20902000  1.0
  O  O56  1  0.30895000  0.55102000  0.20966000  1.0
  O  O57  1  0.43018000  0.05117000  0.70969000  1.0
  O  O58  1  0.69106000  0.44898000  0.79034000  1.0
  O  O59  1  0.56982000  0.94883000  0.29031000  1.0
  O  O60  1  0.05271000  0.78953000  0.25245000  1.0
  O  O61  1  0.40527000  0.28967000  0.75241000  1.0
  O  O62  1  0.94730000  0.21047000  0.74755000  1.0
  O  O63  1  0.59473000  0.71033000  0.24759000  1.0
  O  O64  1  0.90806000  0.70460000  0.13070000  1.0
  O  O65  1  0.75643000  0.20470000  0.63075000  1.0
  O  O66  1  0.09194000  0.29540000  0.86930000  1.0
  O  O67  1  0.24357000  0.79530000  0.36925000  1.0
  O  O68  1  0.11630000  0.83616000  0.00577000  1.0
  O  O69  1  0.54175000  0.33613000  0.50567000  1.0
  O  O70  1  0.88371000  0.16384000  0.99423000  1.0
  O  O71  1  0.45825000  0.66387000  0.49433000  1.0
  O  O72  1  0.30909000  0.67574000  0.85205000  1.0
  O  O73  1  0.66331000  0.17569000  0.35194000  1.0
  O  O74  1  0.69091000  0.32426000  0.14795000  1.0
  O  O75  1  0.33668000  0.82431000  0.64806000  1.0
  O  O76  1  0.81706000  0.41637000  0.30986000  1.0
  O  O77  1  0.95644000  0.91644000  0.81007000  1.0
  O  O78  1  0.18294000  0.58363000  0.69014000  1.0
  O  O79  1  0.04357000  0.08356000  0.18993000  1.0
  O  O80  1  0.95484000  0.52980000  0.36462000  1.0
  O  O81  1  0.65053000  0.02985000  0.86469000  1.0
  O  O82  1  0.04516000  0.47020000  0.63538000  1.0
  O  O83  1  0.34946000  0.97015000  0.13531000  1.0
  O  O84  1  0.24056000  0.44866000  0.42545000  1.0
  O  O85  1  0.38526000  0.94864000  0.92546000  1.0
  O  O86  1  0.75944000  0.55134000  0.57455000  1.0
  O  O87  1  0.61474000  0.05136000  0.07453000  1.0
