# generated using pymatgen
data_HgH11C11I2N3
_symmetry_space_group_name_H-M   'P 1'
_cell_length_a   8.65837000
_cell_length_b   12.43840000
_cell_length_c   13.43230000
_cell_angle_alpha   90.00000000
_cell_angle_beta   90.00000000
_cell_angle_gamma   94.96620000
_symmetry_Int_Tables_number   1
_chemical_formula_structural   HgH11C11I2N3
_chemical_formula_sum   'Hg4 H44 C44 I8 N12'
_cell_volume   1441.17794376
_cell_formula_units_Z   4
loop_
 _symmetry_equiv_pos_site_id
 _symmetry_equiv_pos_as_xyz
  1  'x, y, z'
loop_
 _atom_site_type_symbol
 _atom_site_label
 _atom_site_symmetry_multiplicity
 _atom_site_fract_x
 _atom_site_fract_y
 _atom_site_fract_z
 _atom_site_occupancy
  Hg  Hg0  1  0.76761000  0.21538000  0.35230000  1.0
  Hg  Hg1  1  0.73239000  0.28462000  0.85230000  1.0
  Hg  Hg2  1  0.23239000  0.78462000  0.64770000  1.0
  Hg  Hg3  1  0.26760000  0.71538000  0.14770000  1.0
  H  H4  1  0.78341000  0.45285000  0.24419000  1.0
  H  H5  1  0.71659000  0.04715000  0.74419000  1.0
  H  H6  1  0.21659000  0.54715000  0.75581000  1.0
  H  H7  1  0.28341000  0.95285000  0.25581000  1.0
  H  H8  1  0.64381000  0.63441000  0.45559000  1.0
  H  H9  1  0.85619000  0.86559000  0.95559000  1.0
  H  H10  1  0.35619000  0.36558000  0.54441000  1.0
  H  H11  1  0.14380000  0.13441000  0.04440000  1.0
  H  H12  1  0.79848000  0.64983000  0.61450000  1.0
  H  H13  1  0.70152000  0.85017000  0.11450000  1.0
  H  H14  1  0.20152000  0.35016000  0.38550000  1.0
  H  H15  1  0.29848000  0.14983000  0.88550000  1.0
  H  H16  1  0.92976000  0.48852000  0.67264000  1.0
  H  H17  1  0.57024000  0.01149000  0.17264000  1.0
  H  H18  1  0.07025000  0.51148000  0.32736000  1.0
  H  H19  1  0.42976000  0.98852000  0.82736000  1.0
  H  H20  1  0.91073000  0.32357000  0.56684000  1.0
  H  H21  1  0.58927000  0.17643000  0.06684000  1.0
  H  H22  1  0.08927000  0.67643000  0.43316000  1.0
  H  H23  1  0.41073000  0.82357000  0.93316000  1.0
  H  H24  1  0.49877000  0.39117000  0.35788000  1.0
  H  H25  1  0.00123000  0.10883000  0.85788000  1.0
  H  H26  1  0.50123000  0.60882000  0.64212000  1.0
  H  H27  1  0.99877000  0.89117000  0.14212000  1.0
  H  H28  1  0.53355000  0.53074000  0.32851000  1.0
  H  H29  1  0.96645000  0.96926000  0.82851000  1.0
  H  H30  1  0.46645000  0.46926000  0.67149000  1.0
  H  H31  1  0.03355000  0.03074000  0.17149000  1.0
  H  H32  1  0.79596000  0.38283000  0.07582000  1.0
  H  H33  1  0.70404000  0.11717000  0.57582000  1.0
  H  H34  1  0.20404000  0.61717000  0.92418000  1.0
  H  H35  1  0.29596000  0.88282000  0.42418000  1.0
  H  H36  1  0.35837000  0.41809000  0.22456000  1.0
  H  H37  1  0.14163000  0.08191000  0.72456000  1.0
  H  H38  1  0.64163000  0.58191000  0.77544000  1.0
  H  H39  1  0.85837000  0.91810000  0.27544000  1.0
  H  H40  1  0.22749000  0.37722000  0.06243000  1.0
  H  H41  1  0.27251000  0.12279000  0.56244000  1.0
  H  H42  1  0.77251000  0.62279000  0.93756000  1.0
  H  H43  1  0.72749000  0.87722000  0.43757000  1.0
  H  H44  1  0.38766000  0.33734000  0.91315000  1.0
  H  H45  1  0.11234000  0.16266000  0.41315000  1.0
  H  H46  1  0.61234000  0.66267000  0.08685000  1.0
  H  H47  1  0.88766000  0.83733000  0.58685000  1.0
  C  C48  1  0.69413000  0.47012000  0.43012000  1.0
  C  C49  1  0.80587000  0.02988000  0.93012000  1.0
  C  C50  1  0.30588000  0.52988000  0.56988000  1.0
  C  C51  1  0.19412000  0.97012000  0.06988000  1.0
  C  C52  1  0.70403000  0.56700000  0.48329000  1.0
  C  C53  1  0.79597000  0.93300000  0.98329000  1.0
  C  C54  1  0.29597000  0.43300000  0.51671000  1.0
  C  C55  1  0.20403000  0.06700000  0.01671000  1.0
  C  C56  1  0.78941000  0.57526000  0.57134000  1.0
  C  C57  1  0.71059000  0.92474000  0.07134000  1.0
  C  C58  1  0.21059000  0.42474000  0.42866000  1.0
  C  C59  1  0.28941000  0.07526000  0.92866000  1.0
  C  C60  1  0.86341000  0.48661000  0.60358000  1.0
  C  C61  1  0.63659000  0.01339000  0.10359000  1.0
  C  C62  1  0.13659000  0.51339000  0.39641000  1.0
  C  C63  1  0.36341000  0.98661000  0.89642000  1.0
  C  C64  1  0.85203000  0.39384000  0.54496000  1.0
  C  C65  1  0.64797000  0.10616000  0.04496000  1.0
  C  C66  1  0.14798000  0.60616000  0.45504000  1.0
  C  C67  1  0.35202000  0.89384000  0.95504000  1.0
  C  C68  1  0.59025000  0.45577000  0.34061000  1.0
  C  C69  1  0.90974000  0.04422000  0.84061000  1.0
  C  C70  1  0.40975000  0.54422000  0.65939000  1.0
  C  C71  1  0.09025000  0.95577000  0.15939000  1.0
  C  C72  1  0.66972000  0.38197000  0.07635000  1.0
  C  C73  1  0.83029000  0.11803000  0.57635000  1.0
  C  C74  1  0.33028000  0.61803000  0.92365000  1.0
  C  C75  1  0.16972000  0.88197000  0.42365000  1.0
  C  C76  1  0.58963000  0.40354000  0.16484000  1.0
  C  C77  1  0.91037000  0.09646000  0.66484000  1.0
  C  C78  1  0.41037000  0.59646000  0.83516000  1.0
  C  C79  1  0.08963000  0.90355000  0.33516000  1.0
  C  C80  1  0.42674000  0.40068000  0.15943000  1.0
  C  C81  1  0.07326000  0.09932000  0.65943000  1.0
  C  C82  1  0.57327000  0.59932000  0.84057000  1.0
  C  C83  1  0.92674000  0.90069000  0.34057000  1.0
  C  C84  1  0.35299000  0.37742000  0.06906000  1.0
  C  C85  1  0.14701000  0.12258000  0.56906000  1.0
  C  C86  1  0.64701000  0.62258000  0.93094000  1.0
  C  C87  1  0.85300000  0.87742000  0.43094000  1.0
  C  C88  1  0.44038000  0.35606000  0.98560000  1.0
  C  C89  1  0.05962000  0.14394000  0.48560000  1.0
  C  C90  1  0.55962000  0.64394000  0.01439000  1.0
  C  C91  1  0.94038000  0.85606000  0.51440000  1.0
  I  I92  1  0.00303000  0.25388000  0.21853000  1.0
  I  I93  1  0.49697000  0.24612000  0.71853000  1.0
  I  I94  1  0.99697000  0.74612000  0.78147000  1.0
  I  I95  1  0.50302000  0.75388000  0.28147000  1.0
  I  I96  1  0.46604000  0.13562000  0.36043000  1.0
  I  I97  1  0.03396000  0.36438000  0.86044000  1.0
  I  I98  1  0.53396000  0.86437000  0.63957000  1.0
  I  I99  1  0.96603000  0.63562000  0.13957000  1.0
  N  N100  1  0.76953000  0.38536000  0.46028000  1.0
  N  N101  1  0.73047000  0.11464000  0.96028000  1.0
  N  N102  1  0.23047000  0.61464000  0.53972000  1.0
  N  N103  1  0.26953000  0.88536000  0.03972000  1.0
  N  N104  1  0.67051000  0.42356000  0.25204000  1.0
  N  N105  1  0.82949000  0.07644000  0.75203000  1.0
  N  N106  1  0.32949000  0.57643000  0.74796000  1.0
  N  N107  1  0.17051000  0.92357000  0.24796000  1.0
  N  N108  1  0.59578000  0.35849000  0.99078000  1.0
  N  N109  1  0.90422000  0.14151000  0.49078000  1.0
  N  N110  1  0.40422000  0.64151000  0.00922000  1.0
  N  N111  1  0.09578000  0.85849000  0.50922000  1.0
