# generated using pymatgen
data_MnH16C20(S3N2)2
_symmetry_space_group_name_H-M   'P 1'
_cell_length_a   7.98634000
_cell_length_b   7.98641000
_cell_length_c   19.26340000
_cell_angle_alpha   89.94460000
_cell_angle_beta   89.94450000
_cell_angle_gamma   115.95500000
_symmetry_Int_Tables_number   1
_chemical_formula_structural   MnH16C20(S3N2)2
_chemical_formula_sum   'Mn2 H32 C40 S12 N8'
_cell_volume   1104.73471271
_cell_formula_units_Z   2
loop_
 _symmetry_equiv_pos_site_id
 _symmetry_equiv_pos_as_xyz
  1  'x, y, z'
loop_
 _atom_site_type_symbol
 _atom_site_label
 _atom_site_symmetry_multiplicity
 _atom_site_fract_x
 _atom_site_fract_y
 _atom_site_fract_z
 _atom_site_occupancy
  Mn  Mn0  1  0.16585000  0.83415000  0.25000000  1.0
  Mn  Mn1  1  0.83395000  0.16605000  0.75000000  1.0
  H  H2  1  0.74108000  0.61117000  0.23253000  1.0
  H  H3  1  0.25947000  0.39135000  0.73298000  1.0
  H  H4  1  0.38885000  0.25891000  0.26747000  1.0
  H  H5  1  0.60864000  0.74054000  0.76702000  1.0
  H  H6  1  0.53400000  0.34836000  0.15783000  1.0
  H  H7  1  0.46696000  0.65369000  0.65770000  1.0
  H  H8  1  0.65165000  0.46599000  0.34217000  1.0
  H  H9  1  0.34630000  0.53305000  0.84229000  1.0
  H  H10  1  0.67877000  0.22066000  0.06797000  1.0
  H  H11  1  0.32278000  0.77917000  0.56682000  1.0
  H  H12  1  0.77934000  0.32122000  0.43203000  1.0
  H  H13  1  0.22084000  0.67723000  0.93319000  1.0
  H  H14  1  0.02335000  0.37005000  0.05623000  1.0
  H  H15  1  0.97817000  0.62910000  0.55525000  1.0
  H  H16  1  0.62995000  0.97665000  0.44378000  1.0
  H  H17  1  0.37092000  0.02184000  0.94476000  1.0
  H  H18  1  0.99834000  0.41267000  0.27267000  1.0
  H  H19  1  0.99967000  0.58713000  0.77226000  1.0
  H  H20  1  0.58734000  0.00166000  0.22734000  1.0
  H  H21  1  0.41288000  0.00033000  0.72774000  1.0
  H  H22  1  0.05627000  0.20273000  0.35368000  1.0
  H  H23  1  0.94175000  0.79660000  0.85355000  1.0
  H  H24  1  0.79728000  0.94374000  0.14632000  1.0
  H  H25  1  0.20340000  0.05825000  0.64644000  1.0
  H  H26  1  0.30828000  0.34236000  0.44345000  1.0
  H  H27  1  0.69036000  0.65619000  0.94385000  1.0
  H  H28  1  0.65765000  0.69173000  0.05655000  1.0
  H  H29  1  0.34382000  0.30961000  0.55614000  1.0
  H  H30  1  0.48698000  0.68915000  0.44963000  1.0
  H  H31  1  0.51263000  0.30909000  0.95009000  1.0
  H  H32  1  0.31085000  0.51303000  0.05038000  1.0
  H  H33  1  0.69092000  0.48733000  0.54989000  1.0
  C  C34  1  0.79844000  0.55366000  0.19298000  1.0
  C  C35  1  0.20237000  0.44788000  0.69300000  1.0
  C  C36  1  0.44635000  0.20156000  0.30702000  1.0
  C  C37  1  0.55212000  0.79765000  0.80700000  1.0
  C  C38  1  0.68454000  0.40718000  0.15109000  1.0
  C  C39  1  0.31650000  0.59396000  0.65078000  1.0
  C  C40  1  0.59283000  0.31545000  0.34891000  1.0
  C  C41  1  0.40604000  0.68351000  0.84922000  1.0
  C  C42  1  0.76445000  0.33805000  0.10077000  1.0
  C  C43  1  0.23701000  0.66217000  0.60000000  1.0
  C  C44  1  0.66195000  0.23554000  0.39923000  1.0
  C  C45  1  0.33784000  0.76300000  0.90000000  1.0
  C  C46  1  0.95672000  0.42177000  0.09433000  1.0
  C  C47  1  0.04473000  0.57799000  0.59358000  1.0
  C  C48  1  0.57822000  0.04327000  0.40568000  1.0
  C  C49  1  0.42200000  0.95528000  0.90642000  1.0
  C  C50  1  0.06494000  0.56971000  0.13797000  1.0
  C  C51  1  0.93613000  0.43050000  0.63754000  1.0
  C  C52  1  0.43029000  0.93506000  0.36203000  1.0
  C  C53  1  0.56951000  0.06388000  0.86246000  1.0
  C  C54  1  0.10488000  0.46948000  0.31254000  1.0
  C  C55  1  0.89379000  0.53020000  0.81247000  1.0
  C  C56  1  0.53052000  0.89512000  0.18747000  1.0
  C  C57  1  0.46981000  0.10621000  0.68752000  1.0
  C  C58  1  0.13743000  0.35325000  0.35833000  1.0
  C  C59  1  0.86126000  0.64605000  0.85841000  1.0
  C  C60  1  0.64675000  0.86257000  0.14167000  1.0
  C  C61  1  0.35395000  0.13874000  0.64158000  1.0
  C  C62  1  0.27691000  0.43186000  0.40848000  1.0
  C  C63  1  0.72204000  0.56703000  0.90880000  1.0
  C  C64  1  0.56814000  0.72310000  0.09152000  1.0
  C  C65  1  0.43298000  0.27794000  0.59119000  1.0
  C  C66  1  0.37652000  0.62374000  0.41157000  1.0
  C  C67  1  0.62303000  0.37503000  0.91197000  1.0
  C  C68  1  0.37626000  0.62349000  0.08844000  1.0
  C  C69  1  0.62498000  0.37695000  0.58802000  1.0
  C  C70  1  0.26613000  0.66429000  0.13577000  1.0
  C  C71  1  0.73487000  0.33618000  0.63542000  1.0
  C  C72  1  0.33571000  0.73387000  0.36424000  1.0
  C  C73  1  0.66381000  0.26514000  0.86457000  1.0
  S  S74  1  0.06672000  0.14623000  0.81415000  1.0
  S  S75  1  0.93307000  0.85381000  0.31427000  1.0
  S  S76  1  0.85377000  0.93327000  0.68585000  1.0
  S  S77  1  0.14620000  0.06692000  0.18573000  1.0
  S  S78  1  0.06857000  0.23771000  0.91412000  1.0
  S  S79  1  0.93065000  0.76231000  0.41434000  1.0
  S  S80  1  0.76229000  0.93141000  0.58588000  1.0
  S  S81  1  0.23769000  0.06934000  0.08566000  1.0
  S  S82  1  0.88947000  0.03257000  0.97921000  1.0
  S  S83  1  0.11018000  0.96747000  0.47903000  1.0
  S  S84  1  0.96742000  0.11051000  0.52079000  1.0
  S  S85  1  0.03252000  0.88981000  0.02097000  1.0
  N  N86  1  0.98691000  0.63580000  0.18815000  1.0
  N  N87  1  0.01385000  0.36505000  0.68807000  1.0
  N  N88  1  0.36420000  0.01309000  0.31185000  1.0
  N  N89  1  0.63495000  0.98615000  0.81193000  1.0
  N  N90  1  0.34289000  0.79899000  0.18525000  1.0
  N  N91  1  0.65752000  0.20191000  0.68519000  1.0
  N  N92  1  0.20101000  0.65711000  0.31476000  1.0
  N  N93  1  0.79810000  0.34249000  0.81481000  1.0
