# generated using pymatgen
data_CoH17C30(NO2)3
_symmetry_space_group_name_H-M   'P 1'
_cell_length_a   10.03520000
_cell_length_b   12.45920000
_cell_length_c   29.39010000
_cell_angle_alpha   89.99850000
_cell_angle_beta   89.99880000
_cell_angle_gamma   109.97600000
_symmetry_Int_Tables_number   1
_chemical_formula_structural   CoH17C30(NO2)3
_chemical_formula_sum   'Co4 H68 C120 N12 O24'
_cell_volume   3453.57775814
_cell_formula_units_Z   4
loop_
 _symmetry_equiv_pos_site_id
 _symmetry_equiv_pos_as_xyz
  1  'x, y, z'
loop_
 _atom_site_type_symbol
 _atom_site_label
 _atom_site_symmetry_multiplicity
 _atom_site_fract_x
 _atom_site_fract_y
 _atom_site_fract_z
 _atom_site_occupancy
  Co  Co0  1  0.04356000  0.36151000  0.05957000  1.0
  Co  Co1  1  0.45645000  0.63850000  0.55957000  1.0
  Co  Co2  1  0.95644000  0.63849000  0.94044000  1.0
  Co  Co3  1  0.54357000  0.36151000  0.44043000  1.0
  H  H4  1  0.40407000  0.85591000  0.80808000  1.0
  H  H5  1  0.09591000  0.14407000  0.30807000  1.0
  H  H6  1  0.59591000  0.14409000  0.19192000  1.0
  H  H7  1  0.90407000  0.85597000  0.69191000  1.0
  H  H8  1  0.71925000  0.27436000  0.95533000  1.0
  H  H9  1  0.78076000  0.72562000  0.45533000  1.0
  H  H10  1  0.28075000  0.72564000  0.04467000  1.0
  H  H11  1  0.21925000  0.27438000  0.54467000  1.0
  H  H12  1  0.30152000  0.30290000  0.94821000  1.0
  H  H13  1  0.19849000  0.69708000  0.44821000  1.0
  H  H14  1  0.69847000  0.69709000  0.05179000  1.0
  H  H15  1  0.80152000  0.30292000  0.55179000  1.0
  H  H16  1  0.54038000  0.38028000  0.07208000  1.0
  H  H17  1  0.95962000  0.61974000  0.57209000  1.0
  H  H18  1  0.45961000  0.61971000  0.92791000  1.0
  H  H19  1  0.04038000  0.38028000  0.42791000  1.0
  H  H20  1  0.34086000  0.32277000  0.87869000  1.0
  H  H21  1  0.15916000  0.67722000  0.37869000  1.0
  H  H22  1  0.65913000  0.67723000  0.12131000  1.0
  H  H23  1  0.84085000  0.32278000  0.62131000  1.0
  H  H24  1  0.32139000  0.26179000  0.79907000  1.0
  H  H25  1  0.17861000  0.73820000  0.29906000  1.0
  H  H26  1  0.67861000  0.73822000  0.20093000  1.0
  H  H27  1  0.82139000  0.26181000  0.70093000  1.0
  H  H28  1  0.63828000  0.10471000  0.82171000  1.0
  H  H29  1  0.86173000  0.89527000  0.32171000  1.0
  H  H30  1  0.36171000  0.89528000  0.17830000  1.0
  H  H31  1  0.13828000  0.10473000  0.67829000  1.0
  H  H32  1  0.64790000  0.15638000  0.90213000  1.0
  H  H33  1  0.85211000  0.84360000  0.40213000  1.0
  H  H34  1  0.35208000  0.84361000  0.09787000  1.0
  H  H35  1  0.14790000  0.15641000  0.59787000  1.0
  H  H36  1  0.46107000  0.32111000  0.73928000  1.0
  H  H37  1  0.03893000  0.67888000  0.23927000  1.0
  H  H38  1  0.53892000  0.67890000  0.26072000  1.0
  H  H39  1  0.96107000  0.32112000  0.76073000  1.0
  H  H40  1  0.70267000  0.02958000  0.62720000  1.0
  H  H41  1  0.79736000  0.97041000  0.12719000  1.0
  H  H42  1  0.29736000  0.97043000  0.37280000  1.0
  H  H43  1  0.20264000  0.02957000  0.87279000  1.0
  H  H44  1  0.67410000  0.85584000  0.57996000  1.0
  H  H45  1  0.82591000  0.14415000  0.07996000  1.0
  H  H46  1  0.32591000  0.14416000  0.42003000  1.0
  H  H47  1  0.17409000  0.85583000  0.92003000  1.0
  H  H48  1  0.27748000  0.68578000  0.63445000  1.0
  H  H49  1  0.22251000  0.31423000  0.13445000  1.0
  H  H50  1  0.72252000  0.31423000  0.36554000  1.0
  H  H51  1  0.77748000  0.68576000  0.86556000  1.0
  H  H52  1  0.29609000  0.84655000  0.68784000  1.0
  H  H53  1  0.20391000  0.15346000  0.18784000  1.0
  H  H54  1  0.70392000  0.15346000  0.31215000  1.0
  H  H55  1  0.79608000  0.84653000  0.81216000  1.0
  H  H56  1  0.57623000  0.28112000  0.59073000  1.0
  H  H57  1  0.92375000  0.71888000  0.09073000  1.0
  H  H58  1  0.42378000  0.71888000  0.40927000  1.0
  H  H59  1  0.07624000  0.28112000  0.90927000  1.0
  H  H60  1  0.55848000  0.44097000  0.54336000  1.0
  H  H61  1  0.94150000  0.55904000  0.04336000  1.0
  H  H62  1  0.44152000  0.55904000  0.45664000  1.0
  H  H63  1  0.05852000  0.44096000  0.95664000  1.0
  H  H64  1  0.30462000  0.52228000  0.63920000  1.0
  H  H65  1  0.19538000  0.47772000  0.13920000  1.0
  H  H66  1  0.69537000  0.47771000  0.36080000  1.0
  H  H67  1  0.80462000  0.52227000  0.86081000  1.0
  H  H68  1  0.32323000  0.37330000  0.69239000  1.0
  H  H69  1  0.17677000  0.62670000  0.19238000  1.0
  H  H70  1  0.67677000  0.62670000  0.30762000  1.0
  H  H71  1  0.82323000  0.37329000  0.80763000  1.0
  C  C72  1  0.76730000  0.32902000  0.04381000  1.0
  C  C73  1  0.73271000  0.67097000  0.54382000  1.0
  C  C74  1  0.23270000  0.67098000  0.95618000  1.0
  C  C75  1  0.26730000  0.32905000  0.45618000  1.0
  C  C76  1  0.64063000  0.32506000  0.01619000  1.0
  C  C77  1  0.85938000  0.67494000  0.51619000  1.0
  C  C78  1  0.35937000  0.67494000  0.98381000  1.0
  C  C79  1  0.14062000  0.32506000  0.48381000  1.0
  C  C80  1  0.62993000  0.29202000  0.97051000  1.0
  C  C81  1  0.87008000  0.70797000  0.47051000  1.0
  C  C82  1  0.37007000  0.70799000  0.02949000  1.0
  C  C83  1  0.12993000  0.29202000  0.52949000  1.0
  C  C84  1  0.50833000  0.28264000  0.94493000  1.0
  C  C85  1  0.99168000  0.71735000  0.44493000  1.0
  C  C86  1  0.49167000  0.71736000  0.05507000  1.0
  C  C87  1  0.00833000  0.28264000  0.55507000  1.0
  C  C88  1  0.39939000  0.31092000  0.96614000  1.0
  C  C89  1  0.10062000  0.68906000  0.46614000  1.0
  C  C90  1  0.60061000  0.68908000  0.03386000  1.0
  C  C91  1  0.89940000  0.31094000  0.53387000  1.0
  C  C92  1  0.41168000  0.34795000  0.01134000  1.0
  C  C93  1  0.08833000  0.65206000  0.51135000  1.0
  C  C94  1  0.58831000  0.65204000  0.98866000  1.0
  C  C95  1  0.91168000  0.34795000  0.48866000  1.0
  C  C96  1  0.53191000  0.35396000  0.03657000  1.0
  C  C97  1  0.96809000  0.64604000  0.53658000  1.0
  C  C98  1  0.46808000  0.64604000  0.96343000  1.0
  C  C99  1  0.03191000  0.35396000  0.46342000  1.0
  C  C100  1  0.29401000  0.37476000  0.03398000  1.0
  C  C101  1  0.20599000  0.62524000  0.53398000  1.0
  C  C102  1  0.70600000  0.62526000  0.96602000  1.0
  C  C103  1  0.79399000  0.37475000  0.46602000  1.0
  C  C104  1  0.49603000  0.24469000  0.89703000  1.0
  C  C105  1  0.00398000  0.75529000  0.39703000  1.0
  C  C106  1  0.50397000  0.75532000  0.10297000  1.0
  C  C107  1  0.99602000  0.24470000  0.60297000  1.0
  C  C108  1  0.40421000  0.27266000  0.86677000  1.0
  C  C109  1  0.09580000  0.72731000  0.36677000  1.0
  C  C110  1  0.59579000  0.72734000  0.13322000  1.0
  C  C111  1  0.90421000  0.27269000  0.63323000  1.0
  C  C112  1  0.39532000  0.24017000  0.82140000  1.0
  C  C113  1  0.10469000  0.75981000  0.32140000  1.0
  C  C114  1  0.60468000  0.75984000  0.17860000  1.0
  C  C115  1  0.89532000  0.24019000  0.67860000  1.0
  C  C116  1  0.47934000  0.17954000  0.80395000  1.0
  C  C117  1  0.02066000  0.82044000  0.30395000  1.0
  C  C118  1  0.52067000  0.82048000  0.19604000  1.0
  C  C119  1  0.97933000  0.17955000  0.69605000  1.0
  C  C120  1  0.56939000  0.14969000  0.83415000  1.0
  C  C121  1  0.93061000  0.85029000  0.33415000  1.0
  C  C122  1  0.43060000  0.85031000  0.16585000  1.0
  C  C123  1  0.06939000  0.14971000  0.66585000  1.0
  C  C124  1  0.57660000  0.18091000  0.87974000  1.0
  C  C125  1  0.92341000  0.81907000  0.37974000  1.0
  C  C126  1  0.42340000  0.81909000  0.12026000  1.0
  C  C127  1  0.07660000  0.18093000  0.62026000  1.0
  C  C128  1  0.47857000  0.15764000  0.75468000  1.0
  C  C129  1  0.02144000  0.84235000  0.25468000  1.0
  C  C130  1  0.52143000  0.84236000  0.24532000  1.0
  C  C131  1  0.97858000  0.15765000  0.74532000  1.0
  C  C132  1  0.46839000  0.24263000  0.72508000  1.0
  C  C133  1  0.03160000  0.75736000  0.22507000  1.0
  C  C134  1  0.53161000  0.75738000  0.27492000  1.0
  C  C135  1  0.96839000  0.24263000  0.77493000  1.0
  C  C136  1  0.47505000  0.23042000  0.67799000  1.0
  C  C137  1  0.02494000  0.76957000  0.17799000  1.0
  C  C138  1  0.52496000  0.76958000  0.32201000  1.0
  C  C139  1  0.97504000  0.23042000  0.82201000  1.0
  C  C140  1  0.50159000  0.05491000  0.68675000  1.0
  C  C141  1  0.99842000  0.94509000  0.18674000  1.0
  C  C142  1  0.49843000  0.94510000  0.31325000  1.0
  C  C143  1  0.00157000  0.05490000  0.81326000  1.0
  C  C144  1  0.49288000  0.05901000  0.73465000  1.0
  C  C145  1  0.00714000  0.94099000  0.23464000  1.0
  C  C146  1  0.50713000  0.94100000  0.26535000  1.0
  C  C147  1  0.99288000  0.05901000  0.76535000  1.0
  C  C148  1  0.50241000  0.96119000  0.76250000  1.0
  C  C149  1  0.99761000  0.03880000  0.26250000  1.0
  C  C150  1  0.49759000  0.03882000  0.23751000  1.0
  C  C151  1  0.00239000  0.96119000  0.73750000  1.0
  C  C152  1  0.50164000  0.95123000  0.66173000  1.0
  C  C153  1  0.99837000  0.04877000  0.16173000  1.0
  C  C154  1  0.49837000  0.04878000  0.33827000  1.0
  C  C155  1  0.00162000  0.95121000  0.83827000  1.0
  C  C156  1  0.60847000  0.95374000  0.63075000  1.0
  C  C157  1  0.89154000  0.04626000  0.13074000  1.0
  C  C158  1  0.39154000  0.04627000  0.36925000  1.0
  C  C159  1  0.10846000  0.95373000  0.86925000  1.0
  C  C160  1  0.59252000  0.85827000  0.60398000  1.0
  C  C161  1  0.90749000  0.14172000  0.10398000  1.0
  C  C162  1  0.40749000  0.14174000  0.39602000  1.0
  C  C163  1  0.09251000  0.85826000  0.89602000  1.0
  C  C164  1  0.37268000  0.76120000  0.63569000  1.0
  C  C165  1  0.12732000  0.23882000  0.13569000  1.0
  C  C166  1  0.62733000  0.23882000  0.36431000  1.0
  C  C167  1  0.87267000  0.76118000  0.86431000  1.0
  C  C168  1  0.38314000  0.85154000  0.66475000  1.0
  C  C169  1  0.11686000  0.14847000  0.16474000  1.0
  C  C170  1  0.61687000  0.14848000  0.33525000  1.0
  C  C171  1  0.88313000  0.85151000  0.83526000  1.0
  C  C172  1  0.45905000  0.31830000  0.64697000  1.0
  C  C173  1  0.04095000  0.68170000  0.14697000  1.0
  C  C174  1  0.54096000  0.68171000  0.35303000  1.0
  C  C175  1  0.95905000  0.31829000  0.85303000  1.0
  C  C176  1  0.51933000  0.33537000  0.60341000  1.0
  C  C177  1  0.98065000  0.66463000  0.10342000  1.0
  C  C178  1  0.48067000  0.66463000  0.39659000  1.0
  C  C179  1  0.01934000  0.33536000  0.89658000  1.0
  C  C180  1  0.50798000  0.42363000  0.57661000  1.0
  C  C181  1  0.99199000  0.57637000  0.07661000  1.0
  C  C182  1  0.49201000  0.57637000  0.42340000  1.0
  C  C183  1  0.00802000  0.42362000  0.92339000  1.0
  C  C184  1  0.36887000  0.47023000  0.63085000  1.0
  C  C185  1  0.13112000  0.52978000  0.13084000  1.0
  C  C186  1  0.63112000  0.52977000  0.36916000  1.0
  C  C187  1  0.86888000  0.47023000  0.86916000  1.0
  C  C188  1  0.37990000  0.38678000  0.66011000  1.0
  C  C189  1  0.12009000  0.61322000  0.16011000  1.0
  C  C190  1  0.62009000  0.61321000  0.33989000  1.0
  C  C191  1  0.87991000  0.38678000  0.83990000  1.0
  N  N192  1  0.49569000  0.13883000  0.65918000  1.0
  N  N193  1  0.00429000  0.86116000  0.15917000  1.0
  N  N194  1  0.50432000  0.86117000  0.34082000  1.0
  N  N195  1  0.99568000  0.13883000  0.84082000  1.0
  N  N196  1  0.47504000  0.76372000  0.60542000  1.0
  N  N197  1  0.02496000  0.23628000  0.10542000  1.0
  N  N198  1  0.52497000  0.23629000  0.39457000  1.0
  N  N199  1  0.97504000  0.76371000  0.89458000  1.0
  N  N200  1  0.43571000  0.49158000  0.59030000  1.0
  N  N201  1  0.06428000  0.50843000  0.09029000  1.0
  N  N202  1  0.56429000  0.50843000  0.40971000  1.0
  N  N203  1  0.93572000  0.49155000  0.90971000  1.0
  O  O204  1  0.87738000  0.32709000  0.02058000  1.0
  O  O205  1  0.62263000  0.67291000  0.52058000  1.0
  O  O206  1  0.12262000  0.67292000  0.97942000  1.0
  O  O207  1  0.37737000  0.32709000  0.47942000  1.0
  O  O208  1  0.76551000  0.33385000  0.08633000  1.0
  O  O209  1  0.73448000  0.66612000  0.58633000  1.0
  O  O210  1  0.23450000  0.66615000  0.91367000  1.0
  O  O211  1  0.26551000  0.33386000  0.41366000  1.0
  O  O212  1  0.17655000  0.35407000  0.01141000  1.0
  O  O213  1  0.32345000  0.64594000  0.51142000  1.0
  O  O214  1  0.82346000  0.64596000  0.98859000  1.0
  O  O215  1  0.67655000  0.35407000  0.48860000  1.0
  O  O216  1  0.30593000  0.41127000  0.07427000  1.0
  O  O217  1  0.19408000  0.58874000  0.57428000  1.0
  O  O218  1  0.69408000  0.58872000  0.92574000  1.0
  O  O219  1  0.80589000  0.41125000  0.42573000  1.0
  O  O220  1  0.60142000  0.92513000  0.76072000  1.0
  O  O221  1  0.89858000  0.07485000  0.26070000  1.0
  O  O222  1  0.39856000  0.07488000  0.23929000  1.0
  O  O223  1  0.10142000  0.92513000  0.73929000  1.0
  O  O224  1  0.38848000  0.91684000  0.79002000  1.0
  O  O225  1  0.11152000  0.08316000  0.29001000  1.0
  O  O226  1  0.61150000  0.08317000  0.20999000  1.0
  O  O227  1  0.88849000  0.91687000  0.70999000  1.0
