# generated using pymatgen
data_CuH9C11N6
_symmetry_space_group_name_H-M   'P 1'
_cell_length_a   5.77221000
_cell_length_b   9.37506000
_cell_length_c   10.60230000
_cell_angle_alpha   70.33460000
_cell_angle_beta   76.07120000
_cell_angle_gamma   80.59810000
_symmetry_Int_Tables_number   1
_chemical_formula_structural   CuH9C11N6
_chemical_formula_sum   'Cu2 H18 C22 N12'
_cell_volume   522.25798085
_cell_formula_units_Z   2
loop_
 _symmetry_equiv_pos_site_id
 _symmetry_equiv_pos_as_xyz
  1  'x, y, z'
loop_
 _atom_site_type_symbol
 _atom_site_label
 _atom_site_symmetry_multiplicity
 _atom_site_fract_x
 _atom_site_fract_y
 _atom_site_fract_z
 _atom_site_occupancy
  Cu  Cu0  1  0.79085000  0.45448000  0.41221000  1.0
  Cu  Cu1  1  0.20918000  0.54552000  0.58779000  1.0
  H  H2  1  0.90680000  0.12170000  0.42680000  1.0
  H  H3  1  0.09322000  0.87829000  0.57319000  1.0
  H  H4  1  0.15481000  0.90862000  0.35963000  1.0
  H  H5  1  0.84520000  0.09137000  0.64036000  1.0
  H  H6  1  0.64090000  0.89513000  0.13032000  1.0
  H  H7  1  0.35909000  0.10489000  0.86967000  1.0
  H  H8  1  0.39023000  0.10614000  0.20025000  1.0
  H  H9  1  0.60977000  0.89387000  0.79975000  1.0
  H  H10  1  0.24234000  0.79419000  0.13231000  1.0
  H  H11  1  0.75767000  0.20582000  0.86766000  1.0
  H  H12  1  0.12189000  0.66973000  0.29418000  1.0
  H  H13  1  0.87813000  0.33028000  0.70579000  1.0
  H  H14  1  0.07380000  0.80592000  0.92534000  1.0
  H  H15  1  0.92614000  0.19406000  0.07463000  1.0
  H  H16  1  0.74497000  0.64882000  0.89052000  1.0
  H  H17  1  0.25493000  0.35116000  0.10952000  1.0
  H  H18  1  0.55679000  0.47742000  0.15565000  1.0
  H  H19  1  0.44313000  0.52259000  0.84441000  1.0
  C  C20  1  0.62873000  0.12807000  0.32022000  1.0
  C  C21  1  0.37130000  0.87192000  0.67979000  1.0
  C  C22  1  0.84628000  0.07168000  0.36318000  1.0
  C  C23  1  0.15374000  0.92832000  0.63681000  1.0
  C  C24  1  0.98745000  0.95265000  0.32369000  1.0
  C  C25  1  0.01256000  0.04735000  0.67630000  1.0
  C  C26  1  0.91623000  0.88684000  0.24029000  1.0
  C  C27  1  0.08379000  0.11316000  0.75970000  1.0
  C  C28  1  0.70027000  0.94431000  0.19558000  1.0
  C  C29  1  0.29972000  0.05570000  0.80441000  1.0
  C  C30  1  0.55846000  0.06328000  0.23479000  1.0
  C  C31  1  0.44156000  0.93672000  0.76521000  1.0
  C  C32  1  0.46624000  0.24471000  0.36756000  1.0
  C  C33  1  0.53379000  0.75529000  0.63244000  1.0
  C  C34  1  0.07379000  0.75593000  0.20205000  1.0
  C  C35  1  0.92621000  0.24406000  0.79793000  1.0
  C  C36  1  0.95474000  0.72534000  0.00017000  1.0
  C  C37  1  0.04522000  0.27465000  0.99983000  1.0
  C  C38  1  0.78410000  0.64625000  0.98638000  1.0
  C  C39  1  0.21587000  0.35375000  0.01365000  1.0
  C  C40  1  0.69060000  0.55843000  0.12031000  1.0
  C  C41  1  0.30937000  0.44156000  0.87971000  1.0
  N  N42  1  0.50876000  0.33527000  0.43491000  1.0
  N  N43  1  0.49128000  0.66472000  0.56509000  1.0
  N  N44  1  0.29434000  0.41277000  0.46542000  1.0
  N  N45  1  0.70569000  0.58722000  0.53459000  1.0
  N  N46  1  0.13291000  0.37181000  0.41543000  1.0
  N  N47  1  0.86712000  0.62819000  0.58458000  1.0
  N  N48  1  0.23640000  0.26892000  0.35317000  1.0
  N  N49  1  0.76362000  0.73108000  0.64684000  1.0
  N  N50  1  0.95914000  0.68286000  0.13555000  1.0
  N  N51  1  0.04087000  0.31713000  0.86444000  1.0
  N  N52  1  0.79586000  0.58128000  0.21132000  1.0
  N  N53  1  0.20414000  0.41874000  0.78869000  1.0
