# generated using pymatgen
data_H10Pb3(CO)12
_symmetry_space_group_name_H-M   'P 1'
_cell_length_a   8.24525000
_cell_length_b   9.90484000
_cell_length_c   10.69649900
_cell_angle_alpha   86.81541302
_cell_angle_beta   67.35063881
_cell_angle_gamma   89.95040000
_symmetry_Int_Tables_number   1
_chemical_formula_structural   H10Pb3(CO)12
_chemical_formula_sum   'H20 Pb6 C24 O24'
_cell_volume   804.74566746
_cell_formula_units_Z   2
loop_
 _symmetry_equiv_pos_site_id
 _symmetry_equiv_pos_as_xyz
  1  'x, y, z'
loop_
 _atom_site_type_symbol
 _atom_site_label
 _atom_site_symmetry_multiplicity
 _atom_site_fract_x
 _atom_site_fract_y
 _atom_site_fract_z
 _atom_site_occupancy
  H  H0  1  0.43972000  0.06206000  0.34203000  1.0
  H  H1  1  0.78130000  0.43814000  0.65814000  1.0
  H  H2  1  0.56028000  0.93798000  0.65789000  1.0
  H  H3  1  0.21866000  0.56185000  0.34179000  1.0
  H  H4  1  0.59718000  0.17106000  0.04529000  1.0
  H  H5  1  0.64228000  0.32925000  0.95488000  1.0
  H  H6  1  0.40274000  0.82902000  0.95463000  1.0
  H  H7  1  0.35752000  0.67076000  0.04505000  1.0
  H  H8  1  0.44774000  0.03550000  0.10790000  1.0
  H  H9  1  0.55547000  0.46502000  0.89215000  1.0
  H  H10  1  0.55224000  0.96456000  0.89206000  1.0
  H  H11  1  0.44456000  0.53509000  0.10771000  1.0
  H  H12  1  0.28784000  0.29541000  0.36619000  1.0
  H  H13  1  0.65423000  0.20489000  0.63381000  1.0
  H  H14  1  0.71214000  0.70466000  0.63368000  1.0
  H  H15  1  0.34598000  0.79510000  0.36604000  1.0
  H  H16  1  0.35010000  0.30100000  0.18794000  1.0
  H  H17  1  0.53810000  0.19916000  0.81201000  1.0
  H  H18  1  0.64994000  0.69898000  0.81191000  1.0
  H  H19  1  0.46207000  0.80069000  0.18782000  1.0
  Pb  Pb20  1  0.95614000  0.75010000  0.00018000  1.0
  Pb  Pb21  1  0.04331000  0.24995000  0.00055000  1.0
  Pb  Pb22  1  0.84808000  0.95754000  0.37048000  1.0
  Pb  Pb23  1  0.21783000  0.54236000  0.63000000  1.0
  Pb  Pb24  1  0.15196000  0.04243000  0.63013000  1.0
  Pb  Pb25  1  0.78218000  0.45744000  0.37020000  1.0
  C  C26  1  0.61184000  0.23212000  0.29620000  1.0
  C  C27  1  0.90785000  0.26800000  0.70406000  1.0
  C  C28  1  0.38813000  0.76791000  0.70375000  1.0
  C  C29  1  0.09226000  0.73209000  0.29590000  1.0
  C  C30  1  0.48229000  0.14579000  0.26389000  1.0
  C  C31  1  0.74597000  0.35442000  0.73632000  1.0
  C  C32  1  0.51770000  0.85425000  0.73605000  1.0
  C  C33  1  0.25406000  0.64557000  0.26363000  1.0
  C  C34  1  0.55390000  0.08803000  0.12440000  1.0
  C  C35  1  0.67805000  0.41229000  0.87577000  1.0
  C  C36  1  0.44608000  0.91205000  0.87553000  1.0
  C  C37  1  0.32192000  0.58774000  0.12416000  1.0
  C  C38  1  0.70912000  0.99646000  0.09473000  1.0
  C  C39  1  0.80369000  0.50357000  0.90549000  1.0
  C  C40  1  0.29081000  0.00357000  0.90525000  1.0
  C  C41  1  0.19629000  0.49631000  0.09460000  1.0
  C  C42  1  0.32116000  0.23258000  0.27819000  1.0
  C  C43  1  0.59934000  0.26767000  0.72183000  1.0
  C  C44  1  0.67886000  0.76746000  0.72170000  1.0
  C  C45  1  0.40080000  0.73225000  0.27806000  1.0
  C  C46  1  0.15609000  0.14992000  0.30250000  1.0
  C  C47  1  0.45862000  0.35046000  0.69731000  1.0
  C  C48  1  0.84392000  0.85012000  0.69746000  1.0
  C  C49  1  0.54153000  0.64948000  0.30260000  1.0
  O  O50  1  0.61074000  0.21894000  0.41584000  1.0
  O  O51  1  0.02620000  0.28114000  0.58438000  1.0
  O  O52  1  0.38910000  0.78120000  0.58415000  1.0
  O  O53  1  0.97394000  0.71901000  0.41562000  1.0
  O  O54  1  0.70773000  0.32155000  0.20704000  1.0
  O  O55  1  0.91479000  0.17845000  0.79313000  1.0
  O  O56  1  0.29239000  0.67840000  0.79288000  1.0
  O  O57  1  0.08530000  0.82165000  0.20686000  1.0
  O  O58  1  0.03999000  0.19404000  0.26031000  1.0
  O  O59  1  0.30040000  0.30652000  0.73942000  1.0
  O  O60  1  0.95988000  0.80607000  0.73981000  1.0
  O  O61  1  0.69972000  0.69354000  0.26057000  1.0
  O  O62  1  0.13445000  0.03642000  0.37165000  1.0
  O  O63  1  0.50606000  0.46393000  0.62810000  1.0
  O  O64  1  0.86565000  0.96360000  0.62825000  1.0
  O  O65  1  0.49418000  0.53599000  0.37173000  1.0
  O  O66  1  0.82523000  0.01983000  0.14366000  1.0
  O  O67  1  0.96861000  0.47970000  0.85671000  1.0
  O  O68  1  0.17458000  0.97998000  0.85647000  1.0
  O  O69  1  0.03133000  0.52005000  0.14346000  1.0
  O  O70  1  0.72003000  0.90127000  0.01736000  1.0
  O  O71  1  0.73744000  0.59891000  0.98271000  1.0
  O  O72  1  0.27989000  0.09881000  0.98253000  1.0
  O  O73  1  0.26255000  0.40091000  0.01747000  1.0
