# generated using pymatgen
data_CuH6C10N3
_symmetry_space_group_name_H-M   'P 1'
_cell_length_a   32.90670000
_cell_length_b   32.93150000
_cell_length_c   33.64200000
_cell_angle_alpha   89.70420000
_cell_angle_beta   92.83120000
_cell_angle_gamma   89.82660000
_symmetry_Int_Tables_number   1
_chemical_formula_structural   CuH6C10N3
_chemical_formula_sum   'Cu12 H72 C120 N36'
_cell_volume   36411.54364375
_cell_formula_units_Z   12
loop_
 _symmetry_equiv_pos_site_id
 _symmetry_equiv_pos_as_xyz
  1  'x, y, z'
loop_
 _atom_site_type_symbol
 _atom_site_label
 _atom_site_symmetry_multiplicity
 _atom_site_fract_x
 _atom_site_fract_y
 _atom_site_fract_z
 _atom_site_occupancy
  Cu  Cu0  1  0.87595000  0.91256000  0.83313000  1.0
  Cu  Cu1  1  0.83888000  0.87641000  0.91035000  1.0
  Cu  Cu2  1  0.91131000  0.82995000  0.87021000  1.0
  Cu  Cu3  1  0.13205000  0.59053000  0.33883000  1.0
  Cu  Cu4  1  0.17167000  0.62630000  0.41922000  1.0
  Cu  Cu5  1  0.09015000  0.66495000  0.37895000  1.0
  Cu  Cu6  1  0.36107000  0.09997000  0.66890000  1.0
  Cu  Cu7  1  0.32836000  0.12574000  0.58235000  1.0
  Cu  Cu8  1  0.41504000  0.15462000  0.61506000  1.0
  Cu  Cu9  1  0.62430000  0.41361000  0.16421000  1.0
  Cu  Cu10  1  0.66154000  0.37352000  0.08895000  1.0
  Cu  Cu11  1  0.58709000  0.33133000  0.12878000  1.0
  H  H12  1  0.81404000  0.98570000  0.81392000  1.0
  H  H13  1  0.77340000  0.94448000  0.92777000  1.0
  H  H14  1  0.97781000  0.80908000  0.80731000  1.0
  H  H15  1  0.93928000  0.92895000  0.76716000  1.0
  H  H16  1  0.82214000  0.81611000  0.98126000  1.0
  H  H17  1  0.92587000  0.75710000  0.93177000  1.0
  H  H18  1  0.19634000  0.52274000  0.32024000  1.0
  H  H19  1  0.24505000  0.56341000  0.43513000  1.0
  H  H20  1  0.01678000  0.68249000  0.31519000  1.0
  H  H21  1  0.06897000  0.57387000  0.26624000  1.0
  H  H22  1  0.18693000  0.68692000  0.49172000  1.0
  H  H23  1  0.07110000  0.73173000  0.44261000  1.0
  H  H24  1  0.29485000  0.03480000  0.69071000  1.0
  H  H25  1  0.25972000  0.05841000  0.56695000  1.0
  H  H26  1  0.49707000  0.15782000  0.66949000  1.0
  H  H27  1  0.41605000  0.09951000  0.74966000  1.0
  H  H28  1  0.31206000  0.19016000  0.51149000  1.0
  H  H29  1  0.43665000  0.21840000  0.54859000  1.0
  H  H30  1  0.68636000  0.48665000  0.17978000  1.0
  H  H31  1  0.73097000  0.43678000  0.07124000  1.0
  H  H32  1  0.52092000  0.31279000  0.19196000  1.0
  H  H33  1  0.56223000  0.43142000  0.23120000  1.0
  H  H34  1  0.67708000  0.31175000  0.01971000  1.0
  H  H35  1  0.56949000  0.25881000  0.06777000  1.0
  H  H36  1  0.70884000  0.08005000  0.93366000  1.0
  H  H37  1  0.67852000  0.05933000  0.80985000  1.0
  H  H38  1  0.73203000  0.00575000  0.80845000  1.0
  H  H39  1  0.76175000  0.02578000  0.93300000  1.0
  H  H40  1  0.31568000  0.42772000  0.43570000  1.0
  H  H41  1  0.32838000  0.45211000  0.31142000  1.0
  H  H42  1  0.27565000  0.50641000  0.31346000  1.0
  H  H43  1  0.26423000  0.48308000  0.43862000  1.0
  H  H44  1  0.19572000  0.92287000  0.57169000  1.0
  H  H45  1  0.16613000  0.95526000  0.69030000  1.0
  H  H46  1  0.21612000  0.01183000  0.68986000  1.0
  H  H47  1  0.24524000  0.97977000  0.57045000  1.0
  H  H48  1  0.80007000  0.57066000  0.06110000  1.0
  H  H49  1  0.82097000  0.55698000  0.18750000  1.0
  H  H50  1  0.76677000  0.50432000  0.18853000  1.0
  H  H51  1  0.74717000  0.51666000  0.06138000  1.0
  H  H52  1  0.07212000  0.93218000  0.70421000  1.0
  H  H53  1  0.04544000  0.80788000  0.67550000  1.0
  H  H54  1  0.99307000  0.80638000  0.72646000  1.0
  H  H55  1  0.01934000  0.93142000  0.75473000  1.0
  H  H56  1  0.45413000  0.30898000  0.32149000  1.0
  H  H57  1  0.43086000  0.43555000  0.29857000  1.0
  H  H58  1  0.48301000  0.43585000  0.24742000  1.0
  H  H59  1  0.50569000  0.30855000  0.26980000  1.0
  H  H60  1  0.94584000  0.69138000  0.17913000  1.0
  H  H61  1  0.93185000  0.56280000  0.19538000  1.0
  H  H62  1  0.98715000  0.56310000  0.24873000  1.0
  H  H63  1  0.99950000  0.69253000  0.23402000  1.0
  H  H64  1  0.51842000  0.14954000  0.85406000  1.0
  H  H65  1  0.60427000  0.10924000  0.77054000  1.0
  H  H66  1  0.54985000  0.11034000  0.71638000  1.0
  H  H67  1  0.46319000  0.14857000  0.80067000  1.0
  H  H68  1  0.93876000  0.68993000  0.06562000  1.0
  H  H69  1  0.80834000  0.68420000  0.05343000  1.0
  H  H70  1  0.80817000  0.73689000  0.00004000  1.0
  H  H71  1  0.93920000  0.74078000  0.01056000  1.0
  H  H72  1  0.31838000  0.32568000  0.44301000  1.0
  H  H73  1  0.43979000  0.28896000  0.41821000  1.0
  H  H74  1  0.43743000  0.23476000  0.46996000  1.0
  H  H75  1  0.31509000  0.27092000  0.49404000  1.0
  H  H76  1  0.55873000  0.18913000  0.93501000  1.0
  H  H77  1  0.68903000  0.18216000  0.94879000  1.0
  H  H78  1  0.68867000  0.23444000  0.00198000  1.0
  H  H79  1  0.55774000  0.24000000  0.98946000  1.0
  H  H80  1  0.18872000  0.81950000  0.56465000  1.0
  H  H81  1  0.06098000  0.79753000  0.57422000  1.0
  H  H82  1  0.06292000  0.74587000  0.52060000  1.0
  H  H83  1  0.19156000  0.76658000  0.51235000  1.0
  C  C84  1  0.35507000  0.40308000  0.37206000  1.0
  C  C85  1  0.38069000  0.34366000  0.39763000  1.0
  C  C86  1  0.40852000  0.37254000  0.34375000  1.0
  C  C87  1  0.65766000  0.10362000  0.87286000  1.0
  C  C88  1  0.59729000  0.12870000  0.84744000  1.0
  C  C89  1  0.62459000  0.15278000  0.90598000  1.0
  C  C90  1  0.84563000  0.59838000  0.12398000  1.0
  C  C91  1  0.87376000  0.65344000  0.09515000  1.0
  C  C92  1  0.90315000  0.62654000  0.15199000  1.0
  C  C93  1  0.14838000  0.90175000  0.63111000  1.0
  C  C94  1  0.09346000  0.87112000  0.65681000  1.0
  C  C95  1  0.12311000  0.84353000  0.60350000  1.0
  C  C96  1  0.80859000  0.97010000  0.84164000  1.0
  C  C97  1  0.78085000  0.97932000  0.87072000  1.0
  C  C98  1  0.78853000  0.94960000  0.90024000  1.0
  C  C99  1  0.96314000  0.83829000  0.80195000  1.0
  C  C100  1  0.97169000  0.86871000  0.77418000  1.0
  C  C101  1  0.94410000  0.89991000  0.78209000  1.0
  C  C102  1  0.84727000  0.80634000  0.96385000  1.0
  C  C103  1  0.87385000  0.77323000  0.96998000  1.0
  C  C104  1  0.90085000  0.77677000  0.93912000  1.0
  C  C105  1  0.20347000  0.53800000  0.34822000  1.0
  C  C106  1  0.23458000  0.52983000  0.37725000  1.0
  C  C107  1  0.22778000  0.55813000  0.40733000  1.0
  C  C108  1  0.03496000  0.65622000  0.30805000  1.0
  C  C109  1  0.02913000  0.62818000  0.27700000  1.0
  C  C110  1  0.06103000  0.60017000  0.28360000  1.0
  C  C111  1  0.15895000  0.69338000  0.47437000  1.0
  C  C112  1  0.12855000  0.72227000  0.48096000  1.0
  C  C113  1  0.09935000  0.71561000  0.44984000  1.0
  C  C114  1  0.29067000  0.04613000  0.66042000  1.0
  C  C115  1  0.26402000  0.03277000  0.62935000  1.0
  C  C116  1  0.27344000  0.05755000  0.59696000  1.0
  C  C117  1  0.47225000  0.14302000  0.68389000  1.0
  C  C118  1  0.47037000  0.12899000  0.72322000  1.0
  C  C119  1  0.43052000  0.11423000  0.72515000  1.0
  C  C120  1  0.34224000  0.19238000  0.52584000  1.0
  C  C121  1  0.37484000  0.21758000  0.51653000  1.0
  C  C122  1  0.40621000  0.20609000  0.54415000  1.0
  C  C123  1  0.69260000  0.46909000  0.15356000  1.0
  C  C124  1  0.72204000  0.47535000  0.12535000  1.0
  C  C125  1  0.71476000  0.44422000  0.09759000  1.0
  C  C126  1  0.53618000  0.34161000  0.19702000  1.0
  C  C127  1  0.52847000  0.37211000  0.22470000  1.0
  C  C128  1  0.55664000  0.40259000  0.21646000  1.0
  C  C129  1  0.65114000  0.30348000  0.03669000  1.0
  C  C130  1  0.62314000  0.27178000  0.03048000  1.0
  C  C131  1  0.59561000  0.27701000  0.06065000  1.0
  C  C132  1  0.71413000  0.06348000  0.90644000  1.0
  C  C133  1  0.69045000  0.07310000  0.87175000  1.0
  C  C134  1  0.69741000  0.05211000  0.83648000  1.0
  C  C135  1  0.72731000  0.02227000  0.83588000  1.0
  C  C136  1  0.75057000  0.01186000  0.87071000  1.0
  C  C137  1  0.74346000  0.03307000  0.90595000  1.0
  C  C138  1  0.30696000  0.44550000  0.40922000  1.0
  C  C139  1  0.32514000  0.43641000  0.37341000  1.0
  C  C140  1  0.31388000  0.45896000  0.33906000  1.0
  C  C141  1  0.28439000  0.48918000  0.34034000  1.0
  C  C142  1  0.26606000  0.49851000  0.37615000  1.0
  C  C143  1  0.27830000  0.47645000  0.41067000  1.0
  C  C144  1  0.20028000  0.94277000  0.59728000  1.0
  C  C145  1  0.17784000  0.93545000  0.63104000  1.0
  C  C146  1  0.18382000  0.96079000  0.66427000  1.0
  C  C147  1  0.21186000  0.99228000  0.66390000  1.0
  C  C148  1  0.23429000  0.99993000  0.63006000  1.0
  C  C149  1  0.22773000  0.97468000  0.59671000  1.0
  C  C150  1  0.79275000  0.55563000  0.08878000  1.0
  C  C151  1  0.81378000  0.56705000  0.12428000  1.0
  C  C152  1  0.80425000  0.54817000  0.16014000  1.0
  C  C153  1  0.77399000  0.51888000  0.16054000  1.0
  C  C154  1  0.75323000  0.50677000  0.12500000  1.0
  C  C155  1  0.76331000  0.52549000  0.08910000  1.0
  C  C156  1  0.05438000  0.90489000  0.70917000  1.0
  C  C157  1  0.06209000  0.87013000  0.68668000  1.0
  C  C158  1  0.03963000  0.83470000  0.69323000  1.0
  C  C159  1  0.01052000  0.83399000  0.72183000  1.0
  C  C160  1  0.00245000  0.86883000  0.74426000  1.0
  C  C161  1  0.02481000  0.90432000  0.73721000  1.0
  C  C162  1  0.46051000  0.33654000  0.30487000  1.0
  C  C163  1  0.43923000  0.37229000  0.31325000  1.0
  C  C164  1  0.44768000  0.40798000  0.29218000  1.0
  C  C165  1  0.47691000  0.40799000  0.26376000  1.0
  C  C166  1  0.49808000  0.37218000  0.25492000  1.0
  C  C167  1  0.48917000  0.33644000  0.27589000  1.0
  C  C168  1  0.95483000  0.66353000  0.19490000  1.0
  C  C169  1  0.93550000  0.62704000  0.18393000  1.0
  C  C170  1  0.94724000  0.59096000  0.20380000  1.0
  C  C171  1  0.97810000  0.59131000  0.23354000  1.0
  C  C172  1  0.99716000  0.62788000  0.24521000  1.0
  C  C173  1  0.98474000  0.66400000  0.22556000  1.0
  C  C174  1  0.52486000  0.14049000  0.82389000  1.0
  C  C175  1  0.56474000  0.12923000  0.81566000  1.0
  C  C176  1  0.57332000  0.11825000  0.77668000  1.0
  C  C177  1  0.54285000  0.11892000  0.74658000  1.0
  C  C178  1  0.50259000  0.12932000  0.75477000  1.0
  C  C179  1  0.49414000  0.13990000  0.79400000  1.0
  C  C180  1  0.91037000  0.70011000  0.05068000  1.0
  C  C181  1  0.87358000  0.68394000  0.06290000  1.0
  C  C182  1  0.83681000  0.69714000  0.04410000  1.0
  C  C183  1  0.83689000  0.72655000  0.01430000  1.0
  C  C184  1  0.87369000  0.74252000  0.00150000  1.0
  C  C185  1  0.91044000  0.72846000  0.01995000  1.0
  C  C186  1  0.34410000  0.30526000  0.44894000  1.0
  C  C187  1  0.37923000  0.31075000  0.42745000  1.0
  C  C188  1  0.41271000  0.28486000  0.43517000  1.0
  C  C189  1  0.41127000  0.25474000  0.46417000  1.0
  C  C190  1  0.37611000  0.24897000  0.48574000  1.0
  C  C191  1  0.34242000  0.27459000  0.47731000  1.0
  C  C192  1  0.58696000  0.19883000  0.95035000  1.0
  C  C193  1  0.62389000  0.18236000  0.93867000  1.0
  C  C194  1  0.66046000  0.19524000  0.95780000  1.0
  C  C195  1  0.66010000  0.22447000  0.98739000  1.0
  C  C196  1  0.62317000  0.24088000  0.99952000  1.0
  C  C197  1  0.58659000  0.22721000  0.98075000  1.0
  C  C198  1  0.16143000  0.80284000  0.55509000  1.0
  C  C199  1  0.12468000  0.81183000  0.57275000  1.0
  C  C200  1  0.08937000  0.79072000  0.56022000  1.0
  C  C201  1  0.09061000  0.76196000  0.53020000  1.0
  C  C202  1  0.12738000  0.75253000  0.51256000  1.0
  C  C203  1  0.16283000  0.77323000  0.52588000  1.0
  N  N204  1  0.35330000  0.37386000  0.40000000  1.0
  N  N205  1  0.40903000  0.34163000  0.37018000  1.0
  N  N206  1  0.38195000  0.40380000  0.34321000  1.0
  N  N207  1  0.62949000  0.10429000  0.84244000  1.0
  N  N208  1  0.59268000  0.15253000  0.87931000  1.0
  N  N209  1  0.65734000  0.12837000  0.90456000  1.0
  N  N210  1  0.84364000  0.62587000  0.09417000  1.0
  N  N211  1  0.90419000  0.65519000  0.12336000  1.0
  N  N212  1  0.87471000  0.59738000  0.15356000  1.0
  N  N213  1  0.12018000  0.90204000  0.65871000  1.0
  N  N214  1  0.09337000  0.84130000  0.62953000  1.0
  N  N215  1  0.15143000  0.87289000  0.60318000  1.0
  N  N216  1  0.81840000  0.92451000  0.88939000  1.0
  N  N217  1  0.83120000  0.93751000  0.85323000  1.0
  N  N218  1  0.92079000  0.88875000  0.81210000  1.0
  N  N219  1  0.93292000  0.85068000  0.82477000  1.0
  N  N220  1  0.89089000  0.80943000  0.91627000  1.0
  N  N221  1  0.85789000  0.82802000  0.93188000  1.0
  N  N222  1  0.19520000  0.58149000  0.39678000  1.0
  N  N223  1  0.17988000  0.56867000  0.36026000  1.0
  N  N224  1  0.08416000  0.61093000  0.31602000  1.0
  N  N225  1  0.06775000  0.64547000  0.33146000  1.0
  N  N226  1  0.11161000  0.68525000  0.42645000  1.0
  N  N227  1  0.14844000  0.67113000  0.44191000  1.0
  N  N228  1  0.30325000  0.08375000  0.60807000  1.0
  N  N229  1  0.31424000  0.07637000  0.64741000  1.0
  N  N230  1  0.41033000  0.11901000  0.68954000  1.0
  N  N231  1  0.43615000  0.13721000  0.66402000  1.0
  N  N232  1  0.39317000  0.17645000  0.56814000  1.0
  N  N233  1  0.35355000  0.16763000  0.55654000  1.0
  N  N234  1  0.68350000  0.42108000  0.10867000  1.0
  N  N235  1  0.66947000  0.43675000  0.14317000  1.0
  N  N236  1  0.57946000  0.39094000  0.18630000  1.0
  N  N237  1  0.56646000  0.35325000  0.17393000  1.0
  N  N238  1  0.60663000  0.30929000  0.08319000  1.0
  N  N239  1  0.64085000  0.32594000  0.06804000  1.0
