# generated using pymatgen
data_MgH5C10N2O3
_symmetry_space_group_name_H-M   'P 1'
_cell_length_a   6.87248000
_cell_length_b   31.95030000
_cell_length_c   31.95020000
_cell_angle_alpha   119.48500000
_cell_angle_beta   94.10760000
_cell_angle_gamma   94.12010000
_symmetry_Int_Tables_number   1
_chemical_formula_structural   MgH5C10N2O3
_chemical_formula_sum   'Mg6 H30 C60 N12 O18'
_cell_volume   6044.72355377
_cell_formula_units_Z   6
loop_
 _symmetry_equiv_pos_site_id
 _symmetry_equiv_pos_as_xyz
  1  'x, y, z'
loop_
 _atom_site_type_symbol
 _atom_site_label
 _atom_site_symmetry_multiplicity
 _atom_site_fract_x
 _atom_site_fract_y
 _atom_site_fract_z
 _atom_site_occupancy
  Mg  Mg0  1  0.58477000  0.69801000  0.33034000  1.0
  Mg  Mg1  1  0.88678000  0.63232000  0.30198000  1.0
  Mg  Mg2  1  0.25447000  0.66965000  0.36768000  1.0
  Mg  Mg3  1  0.29639000  0.30487000  0.67391000  1.0
  Mg  Mg4  1  0.99150000  0.36904000  0.69514000  1.0
  Mg  Mg5  1  0.62248000  0.32612000  0.63097000  1.0
  H  H6  1  0.11731000  0.55892000  0.16667000  1.0
  H  H7  1  0.55816000  0.60770000  0.44103000  1.0
  H  H8  1  0.95047000  0.83327000  0.39223000  1.0
  H  H9  1  0.30169000  0.52781000  0.09376000  1.0
  H  H10  1  0.77367000  0.56594000  0.47221000  1.0
  H  H11  1  0.20761000  0.90623000  0.43399000  1.0
  H  H12  1  0.82630000  0.61701000  0.18595000  1.0
  H  H13  1  0.20924000  0.56897000  0.38305000  1.0
  H  H14  1  0.64026000  0.81409000  0.43104000  1.0
  H  H15  1  0.68862000  0.49926000  0.00653000  1.0
  H  H16  1  0.18908000  0.50733000  0.50080000  1.0
  H  H17  1  0.68222000  0.99345000  0.49262000  1.0
  H  H18  1  0.88829000  0.46606000  0.93644000  1.0
  H  H19  1  0.42189000  0.47036000  0.53395000  1.0
  H  H20  1  0.95191000  0.06356000  0.52960000  1.0
  H  H21  1  0.36477000  0.57836000  0.02302000  1.0
  H  H22  1  0.78584000  0.44464000  0.42162000  1.0
  H  H23  1  0.34155000  0.97700000  0.55540000  1.0
  H  H24  1  0.16194000  0.61239000  0.09328000  1.0
  H  H25  1  0.54902000  0.48088000  0.38759000  1.0
  H  H26  1  0.06853000  0.90672000  0.51912000  1.0
  H  H27  1  0.58183000  0.49187000  0.90385000  1.0
  H  H28  1  0.09012000  0.41199000  0.50812000  1.0
  H  H29  1  0.67798000  0.09620000  0.58806000  1.0
  H  H30  1  0.76690000  0.45265000  0.83198000  1.0
  H  H31  1  0.31426000  0.37927000  0.54730000  1.0
  H  H32  1  0.93497000  0.16808000  0.62071000  1.0
  H  H33  1  0.05177000  0.40337000  0.81391000  1.0
  H  H34  1  0.64846000  0.41051000  0.59659000  1.0
  H  H35  1  0.23785000  0.18613000  0.58948000  1.0
  C  C36  1  0.24895000  0.61908000  0.25755000  1.0
  C  C37  1  0.62986000  0.63845000  0.38090000  1.0
  C  C38  1  0.99135000  0.74244000  0.36153000  1.0
  C  C39  1  0.36798000  0.60401000  0.21699000  1.0
  C  C40  1  0.76390000  0.61296000  0.39599000  1.0
  C  C41  1  0.15091000  0.78301000  0.38704000  1.0
  C  C42  1  0.27298000  0.57090000  0.17015000  1.0
  C  C43  1  0.70190000  0.59922000  0.42909000  1.0
  C  C44  1  0.10266000  0.82984000  0.40076000  1.0
  C  C45  1  0.37291000  0.55384000  0.12997000  1.0
  C  C46  1  0.81882000  0.57610000  0.44616000  1.0
  C  C47  1  0.24269000  0.87004000  0.42387000  1.0
  C  C48  1  0.57206000  0.57175000  0.13577000  1.0
  C  C49  1  0.00013000  0.56404000  0.42829000  1.0
  C  C50  1  0.43612000  0.86426000  0.43596000  1.0
  C  C51  1  0.67099000  0.60431000  0.18183000  1.0
  C  C52  1  0.06665000  0.57754000  0.39574000  1.0
  C  C53  1  0.48905000  0.81820000  0.42248000  1.0
  C  C54  1  0.57414000  0.62047000  0.22337000  1.0
  C  C55  1  0.95366000  0.60290000  0.37954000  1.0
  C  C56  1  0.35073000  0.77664000  0.39712000  1.0
  C  C57  1  0.91682000  0.55747000  0.05391000  1.0
  C  C58  1  0.35877000  0.49639000  0.44251000  1.0
  C  C59  1  0.86291000  0.94608000  0.50350000  1.0
  C  C60  1  0.83601000  0.51625000  0.00943000  1.0
  C  C61  1  0.31928000  0.49316000  0.48375000  1.0
  C  C62  1  0.82669000  0.99056000  0.50676000  1.0
  C  C63  1  0.94537000  0.49809000  0.97097000  1.0
  C  C64  1  0.44676000  0.47282000  0.50188000  1.0
  C  C65  1  0.97445000  0.02904000  0.52711000  1.0
  C  C66  1  0.13754000  0.52059000  0.97617000  1.0
  C  C67  1  0.61638000  0.45551000  0.47936000  1.0
  C  C68  1  0.16136000  0.02384000  0.54445000  1.0
  C  C69  1  0.21587000  0.56208000  0.01999000  1.0
  C  C70  1  0.65312000  0.45785000  0.43787000  1.0
  C  C71  1  0.19575000  0.98001000  0.54211000  1.0
  C  C72  1  0.10485000  0.58074000  0.05849000  1.0
  C  C73  1  0.52346000  0.47769000  0.41922000  1.0
  C  C74  1  0.04623000  0.94150000  0.52223000  1.0
  C  C75  1  0.30487000  0.44967000  0.86249000  1.0
  C  C76  1  0.85532000  0.41282000  0.55030000  1.0
  C  C77  1  0.44241000  0.13756000  0.58723000  1.0
  C  C78  1  0.50894000  0.46402000  0.86849000  1.0
  C  C79  1  0.04507000  0.40448000  0.53597000  1.0
  C  C80  1  0.64047000  0.13156000  0.59557000  1.0
  C  C81  1  0.60956000  0.44218000  0.82865000  1.0
  C  C82  1  0.16742000  0.38644000  0.55779000  1.0
  C  C83  1  0.78094000  0.17140000  0.61358000  1.0
  C  C84  1  0.51540000  0.40627000  0.78234000  1.0
  C  C85  1  0.10917000  0.37603000  0.59369000  1.0
  C  C86  1  0.73305000  0.21771000  0.62400000  1.0
  C  C87  1  0.63365000  0.38722000  0.74147000  1.0
  C  C88  1  0.24632000  0.35423000  0.61279000  1.0
  C  C89  1  0.89211000  0.25858000  0.64577000  1.0
  C  C90  1  0.30895000  0.39126000  0.77652000  1.0
  C  C91  1  0.91774000  0.38523000  0.60869000  1.0
  C  C92  1  0.53246000  0.22353000  0.61482000  1.0
  C  C93  1  0.20908000  0.41382000  0.81754000  1.0
  C  C94  1  0.79533000  0.40371000  0.58614000  1.0
  C  C95  1  0.39151000  0.18251000  0.59634000  1.0
  N  N96  1  0.66064000  0.55360000  0.09262000  1.0
  N  N97  1  0.10678000  0.53904000  0.44643000  1.0
  N  N98  1  0.56796000  0.90740000  0.46093000  1.0
  N  N99  1  0.82423000  0.57709000  0.09637000  1.0
  N  N100  1  0.24673000  0.51927000  0.42292000  1.0
  N  N101  1  0.72776000  0.90362000  0.48065000  1.0
  N  N102  1  0.26304000  0.50325000  0.93970000  1.0
  N  N103  1  0.75945000  0.43642000  0.49670000  1.0
  N  N104  1  0.32331000  0.06032000  0.56359000  1.0
  N  N105  1  0.18084000  0.46869000  0.89921000  1.0
  N  N106  1  0.71210000  0.43052000  0.53129000  1.0
  N  N107  1  0.28165000  0.10080000  0.56949000  1.0
  O  O108  1  0.06747000  0.60308000  0.25028000  1.0
  O  O109  1  0.46439000  0.64718000  0.39691000  1.0
  O  O110  1  0.81716000  0.74972000  0.35279000  1.0
  O  O111  1  0.33311000  0.64940000  0.30094000  1.0
  O  O112  1  0.68375000  0.65152000  0.35059000  1.0
  O  O113  1  0.03215000  0.69906000  0.34847000  1.0
  O  O114  1  0.67901000  0.65023000  0.26684000  1.0
  O  O115  1  0.02877000  0.61660000  0.34977000  1.0
  O  O116  1  0.41218000  0.73318000  0.38342000  1.0
  O  O117  1  0.81455000  0.40304000  0.74704000  1.0
  O  O118  1  0.41135000  0.34396000  0.59697000  1.0
  O  O119  1  0.06744000  0.25300000  0.65599000  1.0
  O  O120  1  0.54847000  0.35380000  0.69926000  1.0
  O  O121  1  0.19461000  0.34549000  0.64625000  1.0
  O  O122  1  0.84918000  0.30078000  0.65453000  1.0
  O  O123  1  0.20395000  0.35755000  0.73457000  1.0
  O  O124  1  0.84641000  0.37697000  0.64239000  1.0
  O  O125  1  0.46945000  0.26548000  0.62306000  1.0
