# generated using pymatgen
data_CoH48C38(NO)4
_symmetry_space_group_name_H-M   'P 1'
_cell_length_a   8.32820000
_cell_length_b   11.03180000
_cell_length_c   11.53920000
_cell_angle_alpha   103.56100000
_cell_angle_beta   97.35330000
_cell_angle_gamma   98.22810000
_symmetry_Int_Tables_number   1
_chemical_formula_structural   CoH48C38(NO)4
_chemical_formula_sum   'Co1 H48 C38 N4 O4'
_cell_volume   1005.51807979
_cell_formula_units_Z   1
loop_
 _symmetry_equiv_pos_site_id
 _symmetry_equiv_pos_as_xyz
  1  'x, y, z'
loop_
 _atom_site_type_symbol
 _atom_site_label
 _atom_site_symmetry_multiplicity
 _atom_site_fract_x
 _atom_site_fract_y
 _atom_site_fract_z
 _atom_site_occupancy
  Co  Co0  1  0.49978000  0.99975000  0.50001000  1.0
  H  H1  1  0.84740000  0.07898000  0.51517000  1.0
  H  H2  1  0.15257000  0.92105000  0.48484000  1.0
  H  H3  1  0.03569000  0.27888000  0.51511000  1.0
  H  H4  1  0.96432000  0.72117000  0.48493000  1.0
  H  H5  1  0.60265000  0.44218000  0.44837000  1.0
  H  H6  1  0.39737000  0.55786000  0.55167000  1.0
  H  H7  1  0.43164000  0.23359000  0.44969000  1.0
  H  H8  1  0.56841000  0.76640000  0.55031000  1.0
  H  H9  1  0.82057000  0.04389000  0.85477000  1.0
  H  H10  1  0.17945000  0.95613000  0.14523000  1.0
  H  H11  1  0.49938000  0.28605000  0.01264000  1.0
  H  H12  1  0.50061000  0.71393000  0.98736000  1.0
  H  H13  1  0.55153000  0.20027000  0.16631000  1.0
  H  H14  1  0.44847000  0.79974000  0.83370000  1.0
  H  H15  1  0.72475000  0.16428000  0.25007000  1.0
  H  H16  1  0.27524000  0.83571000  0.74993000  1.0
  H  H17  1  0.60417000  0.04756000  0.12374000  1.0
  H  H18  1  0.39582000  0.95245000  0.87628000  1.0
  H  H19  1  0.91800000  0.37114000  0.06769000  1.0
  H  H20  1  0.08201000  0.62884000  0.93228000  1.0
  H  H21  1  0.90441000  0.35853000  0.21755000  1.0
  H  H22  1  0.09562000  0.64144000  0.78242000  1.0
  H  H23  1  0.73534000  0.39257000  0.12800000  1.0
  H  H24  1  0.26469000  0.60743000  0.87199000  1.0
  H  H25  1  0.87424000  0.02167000  0.04633000  1.0
  H  H26  1  0.12575000  0.97832000  0.95367000  1.0
  H  H27  1  0.98176000  0.14561000  0.17180000  1.0
  H  H28  1  0.01824000  0.85437000  0.82820000  1.0
  H  H29  1  0.00241000  0.15403000  0.02234000  1.0
  H  H30  1  0.99759000  0.84595000  0.97765000  1.0
  H  H31  1  0.23193000  0.28777000  0.99554000  1.0
  H  H32  1  0.76806000  0.71221000  0.00445000  1.0
  H  H33  1  0.13583000  0.38628000  0.91776000  1.0
  H  H34  1  0.86415000  0.61371000  0.08224000  1.0
  H  H35  1  0.35004000  0.42633000  0.97416000  1.0
  H  H36  1  0.64994000  0.57366000  0.02584000  1.0
  H  H37  1  0.13303000  0.11157000  0.66386000  1.0
  H  H38  1  0.86697000  0.88843000  0.33613000  1.0
  H  H39  1  0.01229000  0.20748000  0.75001000  1.0
  H  H40  1  0.98772000  0.79251000  0.24998000  1.0
  H  H41  1  0.10996000  0.09792000  0.81129000  1.0
  H  H42  1  0.89004000  0.90207000  0.18869000  1.0
  H  H43  1  0.40672000  0.43392000  0.76350000  1.0
  H  H44  1  0.59329000  0.56608000  0.23652000  1.0
  H  H45  1  0.19000000  0.40289000  0.71404000  1.0
  H  H46  1  0.81001000  0.59712000  0.28596000  1.0
  H  H47  1  0.31587000  0.30605000  0.63595000  1.0
  H  H48  1  0.68414000  0.69395000  0.36406000  1.0
  C  C49  1  0.80025000  0.16217000  0.50068000  1.0
  C  C50  1  0.19972000  0.83786000  0.49932000  1.0
  C  C51  1  0.90280000  0.27235000  0.50090000  1.0
  C  C52  1  0.09722000  0.72771000  0.49915000  1.0
  C  C53  1  0.83266000  0.37774000  0.48530000  1.0
  C  C54  1  0.16734000  0.62229000  0.51473000  1.0
  C  C55  1  0.66004000  0.36356000  0.46453000  1.0
  C  C56  1  0.33999000  0.63648000  0.53552000  1.0
  C  C57  1  0.56552000  0.24975000  0.46498000  1.0
  C  C58  1  0.43453000  0.75025000  0.53501000  1.0
  C  C59  1  0.47537000  0.12847000  0.72035000  1.0
  C  C60  1  0.52455000  0.87144000  0.27965000  1.0
  C  C61  1  0.61802000  0.07090000  0.73454000  1.0
  C  C62  1  0.38189000  0.92901000  0.26547000  1.0
  C  C63  1  0.71456000  0.09074000  0.84871000  1.0
  C  C64  1  0.28546000  0.90926000  0.15130000  1.0
  C  C65  1  0.67190000  0.16875000  0.94895000  1.0
  C  C66  1  0.32809000  0.83124000  0.05103000  1.0
  C  C67  1  0.53077000  0.22550000  0.93293000  1.0
  C  C68  1  0.46922000  0.77449000  0.06706000  1.0
  C  C69  1  0.42960000  0.20777000  0.82237000  1.0
  C  C70  1  0.57040000  0.79223000  0.17763000  1.0
  C  C71  1  0.76925000  0.19448000  0.07630000  1.0
  C  C72  1  0.23075000  0.80550000  0.92369000  1.0
  C  C73  1  0.65503000  0.14904000  0.15875000  1.0
  C  C74  1  0.34498000  0.85096000  0.84126000  1.0
  C  C75  1  0.83532000  0.33777000  0.12520000  1.0
  C  C76  1  0.16470000  0.66221000  0.87478000  1.0
  C  C77  1  0.91521000  0.12471000  0.07871000  1.0
  C  C78  1  0.08478000  0.87528000  0.92128000  1.0
  C  C79  1  0.27713000  0.26911000  0.80937000  1.0
  C  C80  1  0.72286000  0.73089000  0.19063000  1.0
  C  C81  1  0.24834000  0.34661000  0.93162000  1.0
  C  C82  1  0.75165000  0.65337000  0.06837000  1.0
  C  C83  1  0.12373000  0.16507000  0.75492000  1.0
  C  C84  1  0.87628000  0.83493000  0.24507000  1.0
  C  C85  1  0.29873000  0.35831000  0.72547000  1.0
  C  C86  1  0.70128000  0.64170000  0.27453000  1.0
  N  N87  1  0.63480000  0.15161000  0.48501000  1.0
  N  N88  1  0.36524000  0.84841000  0.51491000  1.0
  N  N89  1  0.92138000  0.49661000  0.48979000  1.0
  N  N90  1  0.07860000  0.50348000  0.51023000  1.0
  O  O91  1  0.39337000  0.10168000  0.60816000  1.0
  O  O92  1  0.60675000  0.89847000  0.39182000  1.0
  O  O93  1  0.65168000  0.99840000  0.63454000  1.0
  O  O94  1  0.34840000  0.00170000  0.36545000  1.0
