# generated using pymatgen
data_HgH2CN5Cl
_symmetry_space_group_name_H-M   'P 1'
_cell_length_a   6.21132000
_cell_length_b   9.04705000
_cell_length_c   9.04991000
_cell_angle_alpha   89.27860000
_cell_angle_beta   89.99890000
_cell_angle_gamma   89.99980000
_symmetry_Int_Tables_number   1
_chemical_formula_structural   HgH2CN5Cl
_chemical_formula_sum   'Hg4 H8 C4 N20 Cl4'
_cell_volume   508.51144261
_cell_formula_units_Z   4
loop_
 _symmetry_equiv_pos_site_id
 _symmetry_equiv_pos_as_xyz
  1  'x, y, z'
loop_
 _atom_site_type_symbol
 _atom_site_label
 _atom_site_symmetry_multiplicity
 _atom_site_fract_x
 _atom_site_fract_y
 _atom_site_fract_z
 _atom_site_occupancy
  Hg  Hg0  1  0.75010000  0.85948000  0.35847000  1.0
  Hg  Hg1  1  0.25011000  0.64052000  0.14153000  1.0
  Hg  Hg2  1  0.24990000  0.14053000  0.64153000  1.0
  Hg  Hg3  1  0.74992000  0.35948000  0.85847000  1.0
  H  H4  1  0.74382000  0.99643000  0.85690000  1.0
  H  H5  1  0.24383000  0.50355000  0.64311000  1.0
  H  H6  1  0.25617000  0.00356000  0.14311000  1.0
  H  H7  1  0.75617000  0.49643000  0.35689000  1.0
  H  H8  1  0.74350000  0.85785000  0.99518000  1.0
  H  H9  1  0.24350000  0.64215000  0.50480000  1.0
  H  H10  1  0.25650000  0.14216000  0.00482000  1.0
  H  H11  1  0.75650000  0.35784000  0.49518000  1.0
  C  C12  1  0.75566000  0.07081000  0.06959000  1.0
  C  C13  1  0.25569000  0.42919000  0.43041000  1.0
  C  C14  1  0.24431000  0.92920000  0.93042000  1.0
  C  C15  1  0.74433000  0.57080000  0.56958000  1.0
  N  N16  1  0.74639000  0.96746000  0.96638000  1.0
  N  N17  1  0.24638000  0.53253000  0.53362000  1.0
  N  N18  1  0.25361000  0.03254000  0.03362000  1.0
  N  N19  1  0.75360000  0.46746000  0.46638000  1.0
  N  N20  1  0.76271000  0.21959000  0.04759000  1.0
  N  N21  1  0.26270000  0.28040000  0.45241000  1.0
  N  N22  1  0.23730000  0.78040000  0.95241000  1.0
  N  N23  1  0.73729000  0.71959000  0.54758000  1.0
  N  N24  1  0.77588000  0.28472000  0.18306000  1.0
  N  N25  1  0.27588000  0.21530000  0.31692000  1.0
  N  N26  1  0.22413000  0.71531000  0.81693000  1.0
  N  N27  1  0.72412000  0.78472000  0.68306000  1.0
  N  N28  1  0.77576000  0.18416000  0.28353000  1.0
  N  N29  1  0.27575000  0.31583000  0.21650000  1.0
  N  N30  1  0.22425000  0.81584000  0.71651000  1.0
  N  N31  1  0.72425000  0.68415000  0.78353000  1.0
  N  N32  1  0.76248000  0.04871000  0.21834000  1.0
  N  N33  1  0.26246000  0.45129000  0.28167000  1.0
  N  N34  1  0.23753000  0.95129000  0.78167000  1.0
  N  N35  1  0.73753000  0.54871000  0.71833000  1.0
  Cl  Cl36  1  0.24924000  0.85124000  0.35232000  1.0
  Cl  Cl37  1  0.74924000  0.64876000  0.14768000  1.0
  Cl  Cl38  1  0.75075000  0.14875000  0.64768000  1.0
  Cl  Cl39  1  0.25075000  0.35125000  0.85231000  1.0
