# generated using pymatgen
data_AgH5C7N3ClO3
_symmetry_space_group_name_H-M   'P 1'
_cell_length_a   7.10729000
_cell_length_b   9.63119000
_cell_length_c   13.70280000
_cell_angle_alpha   84.44690000
_cell_angle_beta   89.99970000
_cell_angle_gamma   89.99950000
_symmetry_Int_Tables_number   1
_chemical_formula_structural   AgH5C7N3ClO3
_chemical_formula_sum   'Ag4 H20 C28 N12 Cl4 O12'
_cell_volume   933.57742179
_cell_formula_units_Z   4
loop_
 _symmetry_equiv_pos_site_id
 _symmetry_equiv_pos_as_xyz
  1  'x, y, z'
loop_
 _atom_site_type_symbol
 _atom_site_label
 _atom_site_symmetry_multiplicity
 _atom_site_fract_x
 _atom_site_fract_y
 _atom_site_fract_z
 _atom_site_occupancy
  Ag  Ag0  1  0.02157000  0.16501000  0.93642000  1.0
  Ag  Ag1  1  0.52159000  0.33498000  0.56359000  1.0
  Ag  Ag2  1  0.97842000  0.83498000  0.06359000  1.0
  Ag  Ag3  1  0.47841000  0.66503000  0.43640000  1.0
  H  H4  1  0.03074000  0.34545000  0.25484000  1.0
  H  H5  1  0.53073000  0.15456000  0.24516000  1.0
  H  H6  1  0.96926000  0.65453000  0.74517000  1.0
  H  H7  1  0.46927000  0.84546000  0.75483000  1.0
  H  H8  1  0.21170000  0.91972000  0.33550000  1.0
  H  H9  1  0.71171000  0.58028000  0.16451000  1.0
  H  H10  1  0.78828000  0.08027000  0.66452000  1.0
  H  H11  1  0.28831000  0.41973000  0.83547000  1.0
  H  H12  1  0.24176000  0.15054000  0.62335000  1.0
  H  H13  1  0.74175000  0.34946000  0.87666000  1.0
  H  H14  1  0.75826000  0.84946000  0.37666000  1.0
  H  H15  1  0.25826000  0.65054000  0.12333000  1.0
  H  H16  1  0.14439000  0.30589000  0.59263000  1.0
  H  H17  1  0.64437000  0.19412000  0.90737000  1.0
  H  H18  1  0.85562000  0.69411000  0.40738000  1.0
  H  H19  1  0.35563000  0.80589000  0.09262000  1.0
  H  H20  1  0.08517000  0.39906000  0.42605000  1.0
  H  H21  1  0.58514000  0.10095000  0.07396000  1.0
  H  H22  1  0.91485000  0.60093000  0.57396000  1.0
  H  H23  1  0.41486000  0.89906000  0.92603000  1.0
  C  C24  1  0.09952000  0.10028000  0.18459000  1.0
  C  C25  1  0.59952000  0.39973000  0.31542000  1.0
  C  C26  1  0.90047000  0.89971000  0.81544000  1.0
  C  C27  1  0.40049000  0.60028000  0.68456000  1.0
  C  C28  1  0.08294000  0.26485000  0.30930000  1.0
  C  C29  1  0.58293000  0.23516000  0.19071000  1.0
  C  C30  1  0.91706000  0.73514000  0.69071000  1.0
  C  C31  1  0.41708000  0.76486000  0.80928000  1.0
  C  C32  1  0.18461000  0.02498000  0.35436000  1.0
  C  C33  1  0.68461000  0.47502000  0.14564000  1.0
  C  C34  1  0.81538000  0.97500000  0.64565000  1.0
  C  C35  1  0.31540000  0.52499000  0.85434000  1.0
  C  C36  1  0.18641000  0.19443000  0.47580000  1.0
  C  C37  1  0.68639000  0.30558000  0.02421000  1.0
  C  C38  1  0.81360000  0.80556000  0.52421000  1.0
  C  C39  1  0.31361000  0.69443000  0.97578000  1.0
  C  C40  1  0.12099000  0.12961000  0.28310000  1.0
  C  C41  1  0.62099000  0.37039000  0.21691000  1.0
  C  C42  1  0.87900000  0.87037000  0.71691000  1.0
  C  C43  1  0.37902000  0.62962000  0.78307000  1.0
  C  C44  1  0.11438000  0.29526000  0.40451000  1.0
  C  C45  1  0.61436000  0.20474000  0.09549000  1.0
  C  C46  1  0.88562000  0.70473000  0.59550000  1.0
  C  C47  1  0.38565000  0.79527000  0.90450000  1.0
  C  C48  1  0.21571000  0.05795000  0.44938000  1.0
  C  C49  1  0.71570000  0.44206000  0.05063000  1.0
  C  C50  1  0.78429000  0.94204000  0.55063000  1.0
  C  C51  1  0.28430000  0.55795000  0.94936000  1.0
  N  N52  1  0.08484000  0.07645000  0.10268000  1.0
  N  N53  1  0.58484000  0.42355000  0.39733000  1.0
  N  N54  1  0.91514000  0.92355000  0.89732000  1.0
  N  N55  1  0.41515000  0.57645000  0.60267000  1.0
  N  N56  1  0.23336000  0.23197000  0.56880000  1.0
  N  N57  1  0.73334000  0.26804000  0.93121000  1.0
  N  N58  1  0.76666000  0.76803000  0.43121000  1.0
  N  N59  1  0.26666000  0.73196000  0.06878000  1.0
  N  N60  1  0.35951000  0.11947000  0.81124000  1.0
  N  N61  1  0.85953000  0.38052000  0.68876000  1.0
  N  N62  1  0.64047000  0.88053000  0.18876000  1.0
  N  N63  1  0.14047000  0.61947000  0.31124000  1.0
  Cl  Cl64  1  0.28923000  0.92930000  0.53806000  1.0
  Cl  Cl65  1  0.78924000  0.57070000  0.96194000  1.0
  Cl  Cl66  1  0.71077000  0.07069000  0.46195000  1.0
  Cl  Cl67  1  0.21077000  0.42931000  0.03804000  1.0
  O  O68  1  0.21701000  0.09841000  0.76015000  1.0
  O  O69  1  0.71702000  0.40158000  0.73985000  1.0
  O  O70  1  0.78298000  0.90158000  0.23985000  1.0
  O  O71  1  0.28298000  0.59842000  0.26014000  1.0
  O  O72  1  0.52432000  0.10466000  0.78092000  1.0
  O  O73  1  0.02433000  0.39535000  0.71909000  1.0
  O  O74  1  0.47567000  0.89536000  0.21909000  1.0
  O  O75  1  0.97567000  0.60464000  0.28091000  1.0
  O  O76  1  0.33628000  0.15634000  0.89891000  1.0
  O  O77  1  0.83631000  0.34366000  0.60110000  1.0
  O  O78  1  0.66370000  0.84366000  0.10110000  1.0
  O  O79  1  0.16370000  0.65635000  0.39890000  1.0
