# generated using pymatgen
data_CuH16C20S3(NO)4
_symmetry_space_group_name_H-M   'P 1'
_cell_length_a   10.80060000
_cell_length_b   11.83500000
_cell_length_c   12.11400000
_cell_angle_alpha   61.71570000
_cell_angle_beta   68.46300000
_cell_angle_gamma   83.80680000
_symmetry_Int_Tables_number   1
_chemical_formula_structural   CuH16C20S3(NO)4
_chemical_formula_sum   'Cu2 H32 C40 S6 N8 O8'
_cell_volume   1264.25876999
_cell_formula_units_Z   2
loop_
 _symmetry_equiv_pos_site_id
 _symmetry_equiv_pos_as_xyz
  1  'x, y, z'
loop_
 _atom_site_type_symbol
 _atom_site_label
 _atom_site_symmetry_multiplicity
 _atom_site_fract_x
 _atom_site_fract_y
 _atom_site_fract_z
 _atom_site_occupancy
  Cu  Cu0  1  0.50000000  0.50000000  0.50000000  1.0
  Cu  Cu1  1  0.50000000  0.00000000  0.00001000  1.0
  H  H2  1  0.26945000  0.60754000  0.41958000  1.0
  H  H3  1  0.73056000  0.39247000  0.58040000  1.0
  H  H4  1  0.15379000  0.59247000  0.28495000  1.0
  H  H5  1  0.84621000  0.40753000  0.71503000  1.0
  H  H6  1  0.40228000  0.28707000  0.25540000  1.0
  H  H7  1  0.59771000  0.71291000  0.74462000  1.0
  H  H8  1  0.50478000  0.31121000  0.39841000  1.0
  H  H9  1  0.49522000  0.68878000  0.60160000  1.0
  H  H10  1  0.13937000  0.17334000  0.28324000  1.0
  H  H11  1  0.86063000  0.82666000  0.71676000  1.0
  H  H12  1  0.25146000  0.00519000  0.22329000  1.0
  H  H13  1  0.74854000  0.99481000  0.77671000  1.0
  H  H14  1  0.52151000  0.27552000  0.86321000  1.0
  H  H15  1  0.47849000  0.72448000  0.13679000  1.0
  H  H16  1  0.42353000  0.45809000  0.91206000  1.0
  H  H17  1  0.57646000  0.54191000  0.08793000  1.0
  H  H18  1  0.22533000  0.85350000  0.19259000  1.0
  H  H19  1  0.77466000  0.14650000  0.80743000  1.0
  H  H20  1  0.03812000  0.76456000  0.17824000  1.0
  H  H21  1  0.96188000  0.23544000  0.82177000  1.0
  H  H22  1  0.27298000  0.89008000  0.75633000  1.0
  H  H23  1  0.72703000  0.10993000  0.24368000  1.0
  H  H24  1  0.44688000  0.98261000  0.78419000  1.0
  H  H25  1  0.55312000  0.01739000  0.21583000  1.0
  H  H26  1  0.82852000  0.86482000  0.08982000  1.0
  H  H27  1  0.17149000  0.13518000  0.91018000  1.0
  H  H28  1  0.62582000  0.76054000  0.30027000  1.0
  H  H29  1  0.37417000  0.23946000  0.69971000  1.0
  H  H30  1  0.71722000  0.39593000  0.34787000  1.0
  H  H31  1  0.28277000  0.60407000  0.65213000  1.0
  H  H32  1  0.92047000  0.48353000  0.13428000  1.0
  H  H33  1  0.07953000  0.51646000  0.86572000  1.0
  C  C34  1  0.29678000  0.53751000  0.38170000  1.0
  C  C35  1  0.70322000  0.46250000  0.61829000  1.0
  C  C36  1  0.23249000  0.52939000  0.30534000  1.0
  C  C37  1  0.76751000  0.47061000  0.69465000  1.0
  C  C38  1  0.27291000  0.44331000  0.25196000  1.0
  C  C39  1  0.72709000  0.55669000  0.74804000  1.0
  C  C40  1  0.37087000  0.36074000  0.28741000  1.0
  C  C41  1  0.62913000  0.63925000  0.71260000  1.0
  C  C42  1  0.42961000  0.37398000  0.36581000  1.0
  C  C43  1  0.57038000  0.62602000  0.63419000  1.0
  C  C44  1  0.27383000  0.32874000  0.10210000  1.0
  C  C45  1  0.72617000  0.67126000  0.89790000  1.0
  C  C46  1  0.22382000  0.20077000  0.18924000  1.0
  C  C47  1  0.77618000  0.79923000  0.81076000  1.0
  C  C48  1  0.28640000  0.10624000  0.15549000  1.0
  C  C49  1  0.71360000  0.89376000  0.84450000  1.0
  C  C50  1  0.43849000  0.25953000  0.95538000  1.0
  C  C51  1  0.56151000  0.74047000  0.04461000  1.0
  C  C52  1  0.38268000  0.35903000  0.98256000  1.0
  C  C53  1  0.61732000  0.64097000  0.01744000  1.0
  C  C54  1  0.23023000  0.86468000  0.09594000  1.0
  C  C55  1  0.76976000  0.13532000  0.90407000  1.0
  C  C56  1  0.12641000  0.81187000  0.08819000  1.0
  C  C57  1  0.87359000  0.18813000  0.91182000  1.0
  C  C58  1  0.13977000  0.81805000  0.96587000  1.0
  C  C59  1  0.86024000  0.18195000  0.03413000  1.0
  C  C60  1  0.25669000  0.88174000  0.85441000  1.0
  C  C61  1  0.74332000  0.11826000  0.14560000  1.0
  C  C62  1  0.35454000  0.93384000  0.86977000  1.0
  C  C63  1  0.64547000  0.06615000  0.13025000  1.0
  C  C64  1  0.89062000  0.68187000  0.09516000  1.0
  C  C65  1  0.10938000  0.31813000  0.90484000  1.0
  C  C66  1  0.80846000  0.76059000  0.14357000  1.0
  C  C67  1  0.19154000  0.23941000  0.85642000  1.0
  C  C68  1  0.69635000  0.70399000  0.26043000  1.0
  C  C69  1  0.30365000  0.29601000  0.73956000  1.0
  C  C70  1  0.74545000  0.49910000  0.28382000  1.0
  C  C71  1  0.25455000  0.50090000  0.71617000  1.0
  C  C72  1  0.85853000  0.54873000  0.16707000  1.0
  C  C73  1  0.14147000  0.45127000  0.83293000  1.0
  S  S74  1  0.19991000  0.45287000  0.14058000  1.0
  S  S75  1  0.80010000  0.54713000  0.85942000  1.0
  S  S76  1  0.02633000  0.74683000  0.93962000  1.0
  S  S77  1  0.97368000  0.25316000  0.06038000  1.0
  S  S78  1  0.36318000  0.82566000  0.36768000  1.0
  S  S79  1  0.63682000  0.17434000  0.63232000  1.0
  N  N80  1  0.39679000  0.46364000  0.40825000  1.0
  N  N81  1  0.60321000  0.53637000  0.59174000  1.0
  N  N82  1  0.39141000  0.13555000  0.04109000  1.0
  N  N83  1  0.60859000  0.86444000  0.95891000  1.0
  N  N84  1  0.34207000  0.92539000  0.98872000  1.0
  N  N85  1  0.65793000  0.07460000  0.01130000  1.0
  N  N86  1  0.66548000  0.57580000  0.32811000  1.0
  N  N87  1  0.33452000  0.42421000  0.67188000  1.0
  O  O88  1  0.41426000  0.70946000  0.45972000  1.0
  O  O89  1  0.58574000  0.29054000  0.54028000  1.0
  O  O90  1  0.44236000  0.84773000  0.22606000  1.0
  O  O91  1  0.55764000  0.15226000  0.77394000  1.0
  O  O92  1  0.21965000  0.79894000  0.39786000  1.0
  O  O93  1  0.78035000  0.20105000  0.60214000  1.0
  O  O94  1  0.38541000  0.93922000  0.38072000  1.0
  O  O95  1  0.61456000  0.06079000  0.61928000  1.0
