# generated using pymatgen
data_CdAg2H32C28(N5O2)2
_symmetry_space_group_name_H-M   'P 1'
_cell_length_a   7.19786000
_cell_length_b   9.39504000
_cell_length_c   12.78390000
_cell_angle_alpha   75.63170000
_cell_angle_beta   86.68610000
_cell_angle_gamma   70.54860000
_symmetry_Int_Tables_number   1
_chemical_formula_structural   CdAg2H32C28(N5O2)2
_chemical_formula_sum   'Cd1 Ag2 H32 C28 N10 O4'
_cell_volume   789.36929912
_cell_formula_units_Z   1
loop_
 _symmetry_equiv_pos_site_id
 _symmetry_equiv_pos_as_xyz
  1  'x, y, z'
loop_
 _atom_site_type_symbol
 _atom_site_label
 _atom_site_symmetry_multiplicity
 _atom_site_fract_x
 _atom_site_fract_y
 _atom_site_fract_z
 _atom_site_occupancy
  Cd  Cd0  1  0.50000000  0.50000000  0.00000000  1.0
  Ag  Ag1  1  0.80524000  0.95054000  0.94637000  1.0
  Ag  Ag2  1  0.19476000  0.04946000  0.05362000  1.0
  H  H3  1  0.15267000  0.40461000  0.11790000  1.0
  H  H4  1  0.84733000  0.59539000  0.88210000  1.0
  H  H5  1  0.04426000  0.29621000  0.30005000  1.0
  H  H6  1  0.95574000  0.70379000  0.69995000  1.0
  H  H7  1  0.57232000  0.31731000  0.43359000  1.0
  H  H8  1  0.42769000  0.68269000  0.56641000  1.0
  H  H9  1  0.65602000  0.42559000  0.24577000  1.0
  H  H10  1  0.34398000  0.57441000  0.75423000  1.0
  H  H11  1  0.37903000  0.90560000  0.73674000  1.0
  H  H12  1  0.62097000  0.09440000  0.26326000  1.0
  H  H13  1  0.26406000  0.00301000  0.83797000  1.0
  H  H14  1  0.73594000  0.99699000  0.16203000  1.0
  H  H15  1  0.49660000  0.01248000  0.78996000  1.0
  H  H16  1  0.50340000  0.98752000  0.21004000  1.0
  H  H17  1  0.39755000  0.29604000  0.73321000  1.0
  H  H18  1  0.60245000  0.70397000  0.26679000  1.0
  H  H19  1  0.16960000  0.30498000  0.79555000  1.0
  H  H20  1  0.83040000  0.69502000  0.20445000  1.0
  H  H21  1  0.17329000  0.41066000  0.65852000  1.0
  H  H22  1  0.82671000  0.58934000  0.34148000  1.0
  H  H23  1  0.90041000  0.02428000  0.59530000  1.0
  H  H24  1  0.09959000  0.97572000  0.40470000  1.0
  H  H25  1  0.03730000  0.93869000  0.71924000  1.0
  H  H26  1  0.96269000  0.06131000  0.28076000  1.0
  H  H27  1  0.16323000  0.94286000  0.59480000  1.0
  H  H28  1  0.83677000  0.05714000  0.40520000  1.0
  H  H29  1  0.86410000  0.37519000  0.68781000  1.0
  H  H30  1  0.13590000  0.62481000  0.31219000  1.0
  H  H31  1  0.87712000  0.19539000  0.77994000  1.0
  H  H32  1  0.12289000  0.80461000  0.22006000  1.0
  H  H33  1  0.73583000  0.25641000  0.65766000  1.0
  H  H34  1  0.26417000  0.74359000  0.34234000  1.0
  C  C35  1  0.59149000  0.15449000  0.95147000  1.0
  C  C36  1  0.40851000  0.84551000  0.04852000  1.0
  C  C37  1  0.03395000  0.75551000  0.94286000  1.0
  C  C38  1  0.96606000  0.24449000  0.05714000  1.0
  C  C39  1  0.24073000  0.38340000  0.19015000  1.0
  C  C40  1  0.75927000  0.61660000  0.80986000  1.0
  C  C41  1  0.18105000  0.32258000  0.29172000  1.0
  C  C42  1  0.81895000  0.67742000  0.70828000  1.0
  C  C43  1  0.29930000  0.29723000  0.38274000  1.0
  C  C44  1  0.70070000  0.70277000  0.61726000  1.0
  C  C45  1  0.47409000  0.33506000  0.36649000  1.0
  C  C46  1  0.52591000  0.66494000  0.63351000  1.0
  C  C47  1  0.52154000  0.39557000  0.26180000  1.0
  C  C48  1  0.47846000  0.60443000  0.73820000  1.0
  C  C49  1  0.24074000  0.23822000  0.49105000  1.0
  C  C50  1  0.75926000  0.76178000  0.50896000  1.0
  C  C51  1  0.25168000  0.15790000  0.68172000  1.0
  C  C52  1  0.74832000  0.84210000  0.31828000  1.0
  C  C53  1  0.04874000  0.16704000  0.63897000  1.0
  C  C54  1  0.95126000  0.83296000  0.36103000  1.0
  C  C55  1  0.35415000  0.01029000  0.76585000  1.0
  C  C56  1  0.64585000  0.98971000  0.23415000  1.0
  C  C57  1  0.24593000  0.30235000  0.71888000  1.0
  C  C58  1  0.75407000  0.69765000  0.28111000  1.0
  C  C59  1  0.03813000  0.00776000  0.63633000  1.0
  C  C60  1  0.96187000  0.99224000  0.36366000  1.0
  C  C61  1  0.87071000  0.25536000  0.69400000  1.0
  C  C62  1  0.12928000  0.74464000  0.30600000  1.0
  N  N63  1  0.47741000  0.27376000  0.95939000  1.0
  N  N64  1  0.52259000  0.72624000  0.04060000  1.0
  N  N65  1  0.16848000  0.64259000  0.94430000  1.0
  N  N66  1  0.83153000  0.35740000  0.05571000  1.0
  N  N67  1  0.40783000  0.41908000  0.17514000  1.0
  N  N68  1  0.59217000  0.58092000  0.82486000  1.0
  N  N69  1  0.36550000  0.16438000  0.57837000  1.0
  N  N70  1  0.63450000  0.83562000  0.42163000  1.0
  N  N71  1  0.05237000  0.25517000  0.52239000  1.0
  N  N72  1  0.94763000  0.74483000  0.47761000  1.0
  O  O73  1  0.55371000  0.11670000  0.57839000  1.0
  O  O74  1  0.44628000  0.88330000  0.42161000  1.0
  O  O75  1  0.89522000  0.32882000  0.46384000  1.0
  O  O76  1  0.10478000  0.67119000  0.53617000  1.0
