# generated using pymatgen
data_CuH12C19NO4
_symmetry_space_group_name_H-M   'P 1'
_cell_length_a   13.95120000
_cell_length_b   15.19320000
_cell_length_c   15.22290000
_cell_angle_alpha   81.85580000
_cell_angle_beta   87.22140000
_cell_angle_gamma   86.65740000
_symmetry_Int_Tables_number   1
_chemical_formula_structural   CuH12C19NO4
_chemical_formula_sum   'Cu4 H48 C76 N4 O16'
_cell_volume   3186.07923205
_cell_formula_units_Z   4
loop_
 _symmetry_equiv_pos_site_id
 _symmetry_equiv_pos_as_xyz
  1  'x, y, z'
loop_
 _atom_site_type_symbol
 _atom_site_label
 _atom_site_symmetry_multiplicity
 _atom_site_fract_x
 _atom_site_fract_y
 _atom_site_fract_z
 _atom_site_occupancy
  Cu  Cu0  1  0.20173000  0.62191000  0.83480000  1.0
  Cu  Cu1  1  0.38516000  0.61305000  0.82942000  1.0
  Cu  Cu2  1  0.79827000  0.37809000  0.16520000  1.0
  Cu  Cu3  1  0.61484000  0.38695000  0.17058000  1.0
  H  H4  1  0.13907000  0.34862000  0.84251000  1.0
  H  H5  1  0.13808000  0.18582000  0.83685000  1.0
  H  H6  1  0.44633000  0.16529000  0.85421000  1.0
  H  H7  1  0.44610000  0.32751000  0.85920000  1.0
  H  H8  1  0.15926000  0.04760000  0.91550000  1.0
  H  H9  1  0.15667000  0.88674000  0.90045000  1.0
  H  H10  1  0.42301000  0.90265000  0.74707000  1.0
  H  H11  1  0.42338000  0.06496000  0.75646000  1.0
  H  H12  1  0.44412000  0.59282000  0.10434000  1.0
  H  H13  1  0.44724000  0.59443000  0.26603000  1.0
  H  H14  1  0.13745000  0.62490000  0.27927000  1.0
  H  H15  1  0.13610000  0.62722000  0.11597000  1.0
  H  H16  1  0.41828000  0.52074000  0.40085000  1.0
  H  H17  1  0.42344000  0.52784000  0.56277000  1.0
  H  H18  1  0.17162000  0.70474000  0.54916000  1.0
  H  H19  1  0.16973000  0.70369000  0.38617000  1.0
  H  H20  1  0.55243000  0.62910000  0.69161000  1.0
  H  H21  1  0.73176000  0.63616000  0.68430000  1.0
  H  H22  1  0.71806000  0.61733000  0.97064000  1.0
  H  H23  1  0.54019000  0.60984000  0.96540000  1.0
  H  H24  1  0.86261000  0.73333000  0.71666000  1.0
  H  H25  1  0.04215000  0.72782000  0.72463000  1.0
  H  H26  1  0.03897000  0.52467000  0.93531000  1.0
  H  H27  1  0.85919000  0.52276000  0.94015000  1.0
  H  H28  1  0.86093000  0.65138000  0.15749000  1.0
  H  H29  1  0.86192000  0.81418000  0.16315000  1.0
  H  H30  1  0.55367000  0.83471000  0.14579000  1.0
  H  H31  1  0.55390000  0.67249000  0.14081000  1.0
  H  H32  1  0.84074000  0.95240000  0.08450000  1.0
  H  H33  1  0.84333000  0.11326000  0.09955000  1.0
  H  H34  1  0.57699000  0.09735000  0.25293000  1.0
  H  H35  1  0.57662000  0.93504000  0.24354000  1.0
  H  H36  1  0.55588000  0.40718000  0.89566000  1.0
  H  H37  1  0.55276000  0.40557000  0.73397000  1.0
  H  H38  1  0.86255000  0.37510000  0.72073000  1.0
  H  H39  1  0.86390000  0.37278000  0.88402000  1.0
  H  H40  1  0.58172000  0.47926000  0.59915000  1.0
  H  H41  1  0.57656000  0.47216000  0.43723000  1.0
  H  H42  1  0.82838000  0.29525000  0.45084000  1.0
  H  H43  1  0.83027000  0.29631000  0.61383000  1.0
  H  H44  1  0.44757000  0.37090000  0.30839000  1.0
  H  H45  1  0.26824000  0.36384000  0.31570000  1.0
  H  H46  1  0.28194000  0.38267000  0.02936000  1.0
  H  H47  1  0.45981000  0.39016000  0.03460000  1.0
  H  H48  1  0.13739000  0.26667000  0.28334000  1.0
  H  H49  1  0.95785000  0.27218000  0.27537000  1.0
  H  H50  1  0.96103000  0.47533000  0.06469000  1.0
  H  H51  1  0.14081000  0.47724000  0.05986000  1.0
  C  C52  1  0.29328000  0.44698000  0.84826000  1.0
  C  C53  1  0.29266000  0.34840000  0.85051000  1.0
  C  C54  1  0.20585000  0.30753000  0.84569000  1.0
  C  C55  1  0.20577000  0.21653000  0.84283000  1.0
  C  C56  1  0.29219000  0.16378000  0.84399000  1.0
  C  C57  1  0.37867000  0.20512000  0.85071000  1.0
  C  C58  1  0.37887000  0.29607000  0.85422000  1.0
  C  C59  1  0.29161000  0.06793000  0.83708000  1.0
  C  C60  1  0.21622000  0.01666000  0.87678000  1.0
  C  C61  1  0.21478000  0.92662000  0.86936000  1.0
  C  C62  1  0.28966000  0.88500000  0.82312000  1.0
  C  C63  1  0.36529000  0.93529000  0.78339000  1.0
  C  C64  1  0.36575000  0.02573000  0.78976000  1.0
  C  C65  1  0.28951000  0.78725000  0.81944000  1.0
  C  C66  1  0.28958000  0.61224000  0.00154000  1.0
  C  C67  1  0.29008000  0.61165000  0.09957000  1.0
  C  C68  1  0.37724000  0.60160000  0.14277000  1.0
  C  C69  1  0.37843000  0.60127000  0.23400000  1.0
  C  C70  1  0.29245000  0.61096000  0.28483000  1.0
  C  C71  1  0.20518000  0.61988000  0.24095000  1.0
  C  C72  1  0.20386000  0.62036000  0.14959000  1.0
  C  C73  1  0.29401000  0.61220000  0.38144000  1.0
  C  C74  1  0.36538000  0.56299000  0.43267000  1.0
  C  C75  1  0.36817000  0.56622000  0.52338000  1.0
  C  C76  1  0.29827000  0.61733000  0.56583000  1.0
  C  C77  1  0.22588000  0.66531000  0.51573000  1.0
  C  C78  1  0.22448000  0.66352000  0.42479000  1.0
  C  C79  1  0.29903000  0.61993000  0.66352000  1.0
  C  C80  1  0.59262000  0.62714000  0.75171000  1.0
  C  C81  1  0.69203000  0.63194000  0.74810000  1.0
  C  C82  1  0.74018000  0.62737000  0.82750000  1.0
  C  C83  1  0.68462000  0.61958000  0.90716000  1.0
  C  C84  1  0.58554000  0.61583000  0.90468000  1.0
  C  C85  1  0.84580000  0.62838000  0.82827000  1.0
  C  C86  1  0.89871000  0.68583000  0.76644000  1.0
  C  C87  1  0.99834000  0.68338000  0.77061000  1.0
  C  C88  1  0.99632000  0.57081000  0.88930000  1.0
  C  C89  1  0.89666000  0.57004000  0.89159000  1.0
  C  C90  1  0.70672000  0.55302000  0.15174000  1.0
  C  C91  1  0.70734000  0.65160000  0.14949000  1.0
  C  C92  1  0.79415000  0.69247000  0.15431000  1.0
  C  C93  1  0.79423000  0.78347000  0.15717000  1.0
  C  C94  1  0.70781000  0.83622000  0.15601000  1.0
  C  C95  1  0.62133000  0.79488000  0.14929000  1.0
  C  C96  1  0.62113000  0.70393000  0.14578000  1.0
  C  C97  1  0.70839000  0.93207000  0.16292000  1.0
  C  C98  1  0.78378000  0.98334000  0.12322000  1.0
  C  C99  1  0.78522000  0.07338000  0.13064000  1.0
  C  C100  1  0.71034000  0.11500000  0.17688000  1.0
  C  C101  1  0.63471000  0.06471000  0.21661000  1.0
  C  C102  1  0.63425000  0.97427000  0.21024000  1.0
  C  C103  1  0.71049000  0.21275000  0.18056000  1.0
  C  C104  1  0.71042000  0.38776000  0.99846000  1.0
  C  C105  1  0.70992000  0.38835000  0.90043000  1.0
  C  C106  1  0.62276000  0.39840000  0.85723000  1.0
  C  C107  1  0.62157000  0.39873000  0.76600000  1.0
  C  C108  1  0.70755000  0.38904000  0.71518000  1.0
  C  C109  1  0.79482000  0.38012000  0.75905000  1.0
  C  C110  1  0.79614000  0.37964000  0.85041000  1.0
  C  C111  1  0.70599000  0.38780000  0.61856000  1.0
  C  C112  1  0.63462000  0.43701000  0.56733000  1.0
  C  C113  1  0.63183000  0.43378000  0.47662000  1.0
  C  C114  1  0.70173000  0.38267000  0.43417000  1.0
  C  C115  1  0.77411000  0.33469000  0.48427000  1.0
  C  C116  1  0.77552000  0.33648000  0.57521000  1.0
  C  C117  1  0.70097000  0.38007000  0.33648000  1.0
  C  C118  1  0.40738000  0.37286000  0.24829000  1.0
  C  C119  1  0.30797000  0.36806000  0.25190000  1.0
  C  C120  1  0.25982000  0.37263000  0.17250000  1.0
  C  C121  1  0.31538000  0.38042000  0.09284000  1.0
  C  C122  1  0.41446000  0.38417000  0.09532000  1.0
  C  C123  1  0.15421000  0.37162000  0.17173000  1.0
  C  C124  1  0.10129000  0.31417000  0.23356000  1.0
  C  C125  1  0.00166000  0.31662000  0.22939000  1.0
  C  C126  1  0.00368000  0.42919000  0.11070000  1.0
  C  C127  1  0.10335000  0.42996000  0.10841000  1.0
  N  N128  1  0.53996000  0.61885000  0.82843000  1.0
  N  N129  1  0.04665000  0.62662000  0.83067000  1.0
  N  N130  1  0.46004000  0.38115000  0.17157000  1.0
  N  N131  1  0.95336000  0.37338000  0.16933000  1.0
  O  O132  1  0.21352000  0.49098000  0.83301000  1.0
  O  O133  1  0.37290000  0.47992000  0.86069000  1.0
  O  O134  1  0.20969000  0.75053000  0.84025000  1.0
  O  O135  1  0.36826000  0.74756000  0.79795000  1.0
  O  O136  1  0.36906000  0.62613000  0.95793000  1.0
  O  O137  1  0.21013000  0.59881000  0.96842000  1.0
  O  O138  1  0.37835000  0.59793000  0.70173000  1.0
  O  O139  1  0.22013000  0.64337000  0.70143000  1.0
  O  O140  1  0.78648000  0.50902000  0.16699000  1.0
  O  O141  1  0.62710000  0.52008000  0.13931000  1.0
  O  O142  1  0.79031000  0.24947000  0.15975000  1.0
  O  O143  1  0.63174000  0.25244000  0.20205000  1.0
  O  O144  1  0.63094000  0.37387000  0.04207000  1.0
  O  O145  1  0.78987000  0.40119000  0.03158000  1.0
  O  O146  1  0.62165000  0.40207000  0.29827000  1.0
  O  O147  1  0.77987000  0.35663000  0.29857000  1.0
