# generated using pymatgen
data_Zn2H5(C4O3)3
_symmetry_space_group_name_H-M   'P 1'
_cell_length_a   13.07620000
_cell_length_b   13.07720000
_cell_length_c   16.09360000
_cell_angle_alpha   79.56450000
_cell_angle_beta   80.63980000
_cell_angle_gamma   89.41600000
_symmetry_Int_Tables_number   1
_chemical_formula_structural   Zn2H5(C4O3)3
_chemical_formula_sum   'Zn4 H10 C24 O18'
_cell_volume   2669.92490943
_cell_formula_units_Z   2
loop_
 _symmetry_equiv_pos_site_id
 _symmetry_equiv_pos_as_xyz
  1  'x, y, z'
loop_
 _atom_site_type_symbol
 _atom_site_label
 _atom_site_symmetry_multiplicity
 _atom_site_fract_x
 _atom_site_fract_y
 _atom_site_fract_z
 _atom_site_occupancy
  Zn  Zn0  1  0.42371000  0.41031000  0.44536000  1.0
  Zn  Zn1  1  0.58591000  0.41399000  0.57385000  1.0
  Zn  Zn2  1  0.39540000  0.57167000  0.57454000  1.0
  Zn  Zn3  1  0.58267000  0.60410000  0.41443000  1.0
  H  H4  1  0.41845000  0.91550000  0.53406000  1.0
  H  H5  1  0.55048000  0.09689000  0.65642000  1.0
  H  H6  1  0.43334000  0.40302000  0.02968000  1.0
  H  H7  1  0.10991000  0.39257000  0.42183000  1.0
  H  H8  1  0.06251000  0.52314000  0.56484000  1.0
  H  H9  1  0.61385000  0.92749000  0.39589000  1.0
  H  H10  1  0.61467000  0.65862000  0.99759000  1.0
  H  H11  1  0.82064000  0.34142000  0.44809000  1.0
  H  H12  1  0.87601000  0.69903000  0.44358000  1.0
  H  H13  1  0.58662000  0.22065000  0.35877000  1.0
  C  C14  1  0.77672000  0.52232000  0.47199000  1.0
  C  C15  1  0.55640000  0.95580000  0.44322000  1.0
  C  C16  1  0.54971000  0.10858000  0.51839000  1.0
  C  C17  1  0.21987000  0.47666000  0.51971000  1.0
  C  C18  1  0.55760000  0.06675000  0.44553000  1.0
  C  C19  1  0.53252000  0.22245000  0.51611000  1.0
  C  C20  1  0.48068000  0.77796000  0.48550000  1.0
  C  C21  1  0.48137000  0.47836000  0.73043000  1.0
  C  C22  1  0.51960000  0.51800000  0.27317000  1.0
  C  C23  1  0.47779000  0.47383000  0.82076000  1.0
  C  C24  1  0.47654000  0.46630000  0.98459000  1.0
  C  C25  1  0.52519000  0.52834000  0.10619000  1.0
  C  C26  1  0.52793000  0.53633000  0.01741000  1.0
  C  C27  1  0.90287000  0.33941000  0.45792000  1.0
  C  C28  1  0.93526000  0.63889000  0.43341000  1.0
  C  C29  1  0.57544000  0.13638000  0.35927000  1.0
  C  C30  1  0.56609000  0.05016000  0.60456000  1.0
  C  C31  1  0.47748000  0.47115000  0.89704000  1.0
  C  C32  1  0.52477000  0.52488000  0.18253000  1.0
  C  C33  1  0.10697000  0.48087000  0.51904000  1.0
  C  C34  1  0.06263000  0.43891000  0.46298000  1.0
  C  C35  1  0.89284000  0.52916000  0.45806000  1.0
  C  C36  1  0.95147000  0.44163000  0.46134000  1.0
  C  C37  1  0.48122000  0.89007000  0.48943000  1.0
  O  O38  1  0.49854000  0.49990000  0.50189000  1.0
  O  O39  1  0.54730000  0.41954000  0.69526000  1.0
  O  O40  1  0.56784000  0.58888000  0.29743000  1.0
  O  O41  1  0.41916000  0.54015000  0.69427000  1.0
  O  O42  1  0.46686000  0.44094000  0.32026000  1.0
  O  O43  1  0.58405000  0.61658000  0.96345000  1.0
  O  O44  1  0.95133000  0.25873000  0.46193000  1.0
  O  O45  1  0.02467000  0.66320000  0.40114000  1.0
  O  O46  1  0.58172000  0.10261000  0.29264000  1.0
  O  O47  1  0.59804000  0.96177000  0.61847000  1.0
  O  O48  1  0.46164000  0.26324000  0.47592000  1.0
  O  O49  1  0.55045000  0.74532000  0.43162000  1.0
  O  O50  1  0.73298000  0.45745000  0.53659000  1.0
  O  O51  1  0.25344000  0.53000000  0.56923000  1.0
  O  O52  1  0.73287000  0.58568000  0.41941000  1.0
  O  O53  1  0.27415000  0.42272000  0.47061000  1.0
  O  O54  1  0.58790000  0.26690000  0.55817000  1.0
  O  O55  1  0.41021000  0.72296000  0.53875000  1.0
