# generated using pymatgen
data_ZnH8C20SNO7
_symmetry_space_group_name_H-M   'P 1'
_cell_length_a   13.87000000
_cell_length_b   14.47860000
_cell_length_c   15.20920000
_cell_angle_alpha   92.60690000
_cell_angle_beta   91.74020000
_cell_angle_gamma   91.08720000
_symmetry_Int_Tables_number   1
_chemical_formula_structural   ZnH8C20SNO7
_chemical_formula_sum   'Zn2 H16 C40 S2 N2 O14'
_cell_volume   3049.08206808
_cell_formula_units_Z   2
loop_
 _symmetry_equiv_pos_site_id
 _symmetry_equiv_pos_as_xyz
  1  'x, y, z'
loop_
 _atom_site_type_symbol
 _atom_site_label
 _atom_site_symmetry_multiplicity
 _atom_site_fract_x
 _atom_site_fract_y
 _atom_site_fract_z
 _atom_site_occupancy
  Zn  Zn0  1  0.39735000  0.50017000  0.49909000  1.0
  Zn  Zn1  1  0.60252000  0.50178000  0.50043000  1.0
  H  H2  1  0.45968000  0.62463000  0.23429000  1.0
  H  H3  1  0.74866000  0.41042000  0.38688000  1.0
  H  H4  1  0.09823000  0.64502000  0.68158000  1.0
  H  H5  1  0.90224000  0.34995000  0.31905000  1.0
  H  H6  1  0.08137000  0.35040000  0.31913000  1.0
  H  H7  1  0.91947000  0.64216000  0.68319000  1.0
  H  H8  1  0.59900000  0.33310000  0.36790000  1.0
  H  H9  1  0.57716000  0.71339000  0.68250000  1.0
  H  H10  1  0.53435000  0.36787000  0.76500000  1.0
  H  H11  1  0.43971000  0.71570000  0.10476000  1.0
  H  H12  1  0.54695000  0.27360000  0.89544000  1.0
  H  H13  1  0.44530000  0.73104000  0.94596000  1.0
  H  H14  1  0.54683000  0.25954000  0.05473000  1.0
  H  H15  1  0.24270000  0.41164000  0.38795000  1.0
  H  H16  1  0.75820000  0.58275000  0.61266000  1.0
  H  H17  1  0.25276000  0.58959000  0.60971000  1.0
  C  C18  1  0.50104000  0.50934000  0.66924000  1.0
  C  C19  1  0.53409000  0.32629000  0.02739000  1.0
  C  C20  1  0.20044000  0.44946000  0.43655000  1.0
  C  C21  1  0.80022000  0.54537000  0.56364000  1.0
  C  C22  1  0.20629000  0.55055000  0.56151000  1.0
  C  C23  1  0.79436000  0.44724000  0.43706000  1.0
  C  C24  1  0.10552000  0.55180000  0.56551000  1.0
  C  C25  1  0.89518000  0.44409000  0.43441000  1.0
  C  C26  1  0.09938000  0.44527000  0.43400000  1.0
  C  C27  1  0.90128000  0.54912000  0.56684000  1.0
  C  C28  1  0.05138000  0.49793000  0.50006000  1.0
  C  C29  1  0.49524000  0.48747000  0.33103000  1.0
  C  C30  1  0.94940000  0.49690000  0.50054000  1.0
  C  C31  1  0.05575000  0.60412000  0.63181000  1.0
  C  C32  1  0.94490000  0.39087000  0.36870000  1.0
  C  C33  1  0.04348000  0.39122000  0.36872000  1.0
  C  C34  1  0.95718000  0.60257000  0.63259000  1.0
  C  C35  1  0.49330000  0.31783000  0.49364000  1.0
  C  C36  1  0.50909000  0.68000000  0.49550000  1.0
  C  C37  1  0.49407000  0.21867000  0.49217000  1.0
  C  C38  1  0.50913000  0.77928000  0.49063000  1.0
  C  C39  1  0.49779000  0.13399000  0.49107000  1.0
  C  C40  1  0.49794000  0.49129000  0.04735000  1.0
  C  C41  1  0.50762000  0.86398000  0.49007000  1.0
  C  C42  1  0.50157000  0.04160000  0.49026000  1.0
  C  C43  1  0.50509000  0.95644000  0.48992000  1.0
  C  C44  1  0.51690000  0.40116000  0.17993000  1.0
  C  C45  1  0.48723000  0.59190000  0.82292000  1.0
  C  C46  1  0.49570000  0.48091000  0.23189000  1.0
  C  C47  1  0.50433000  0.51292000  0.76871000  1.0
  C  C48  1  0.47575000  0.56369000  0.19278000  1.0
  C  C49  1  0.52063000  0.42881000  0.80733000  1.0
  C  C50  1  0.47686000  0.57074000  0.10149000  1.0
  C  C51  1  0.49965000  0.49967000  0.95416000  1.0
  C  C52  1  0.51868000  0.42054000  0.89869000  1.0
  C  C53  1  0.51715000  0.40440000  0.08639000  1.0
  C  C54  1  0.48258000  0.58692000  0.91581000  1.0
  C  C55  1  0.45710000  0.65616000  0.06197000  1.0
  C  C56  1  0.53447000  0.33442000  0.93836000  1.0
  C  C57  1  0.46003000  0.66449000  0.97321000  1.0
  S  S58  1  0.53565000  0.29613000  0.23777000  1.0
  S  S59  1  0.46819000  0.70279000  0.77844000  1.0
  N  N60  1  0.25088000  0.50066000  0.49863000  1.0
  N  N61  1  0.74936000  0.49622000  0.50034000  1.0
  O  O62  1  0.41953000  0.52091000  0.63214000  1.0
  O  O63  1  0.57153000  0.22455000  0.17971000  1.0
  O  O64  1  0.62236000  0.32387000  0.30520000  1.0
  O  O65  1  0.36628000  0.71551000  0.76652000  1.0
  O  O66  1  0.52857000  0.77143000  0.82625000  1.0
  O  O67  1  0.50980000  0.69178000  0.68119000  1.0
  O  O68  1  0.57466000  0.51365000  0.36900000  1.0
  O  O69  1  0.41593000  0.47221000  0.36741000  1.0
  O  O70  1  0.57921000  0.48919000  0.63141000  1.0
  O  O71  1  0.41888000  0.35834000  0.51950000  1.0
  O  O72  1  0.58939000  0.64420000  0.51687000  1.0
  O  O73  1  0.42888000  0.63807000  0.47860000  1.0
  O  O74  1  0.57127000  0.35817000  0.46860000  1.0
  O  O75  1  0.45015000  0.27944000  0.28687000  1.0
