# generated using pymatgen
data_Zn2H9C8NO8
_symmetry_space_group_name_H-M   'P 1'
_cell_length_a   6.08378000
_cell_length_b   7.39367000
_cell_length_c   12.24090000
_cell_angle_alpha   101.58400000
_cell_angle_beta   94.51450000
_cell_angle_gamma   96.31430000
_symmetry_Int_Tables_number   1
_chemical_formula_structural   Zn2H9C8NO8
_chemical_formula_sum   'Zn4 H18 C16 N2 O16'
_cell_volume   533.24567451
_cell_formula_units_Z   2
loop_
 _symmetry_equiv_pos_site_id
 _symmetry_equiv_pos_as_xyz
  1  'x, y, z'
loop_
 _atom_site_type_symbol
 _atom_site_label
 _atom_site_symmetry_multiplicity
 _atom_site_fract_x
 _atom_site_fract_y
 _atom_site_fract_z
 _atom_site_occupancy
  Zn  Zn0  1  0.42767000  0.65912000  0.08852000  1.0
  Zn  Zn1  1  0.57233000  0.34088000  0.91148000  1.0
  Zn  Zn2  1  0.08570000  0.42477000  0.82319000  1.0
  Zn  Zn3  1  0.91430000  0.57523000  0.17681000  1.0
  H  H4  1  0.62682000  0.00733000  0.12077000  1.0
  H  H5  1  0.37318000  0.99267000  0.87923000  1.0
  H  H6  1  0.74458000  0.89117000  0.01659000  1.0
  H  H7  1  0.25542000  0.10883000  0.98341000  1.0
  H  H8  1  0.04904000  0.71570000  0.02303000  1.0
  H  H9  1  0.95095000  0.28430000  0.97697000  1.0
  H  H10  1  0.57237000  0.36116000  0.13348000  1.0
  H  H11  1  0.42763000  0.63884000  0.86652000  1.0
  H  H12  1  0.90300000  0.86789000  0.53594000  1.0
  H  H13  1  0.09700000  0.13211000  0.46406000  1.0
  H  H14  1  0.22529000  0.64726000  0.40983000  1.0
  H  H15  1  0.77470000  0.35274000  0.59018000  1.0
  H  H16  1  0.13970000  0.66278000  0.60963000  1.0
  H  H17  1  0.86030000  0.33722000  0.39037000  1.0
  H  H18  1  0.00232000  0.96601000  0.71650000  1.0
  H  H19  1  0.99768000  0.03399000  0.28350000  1.0
  H  H20  1  0.79688000  0.03063000  0.80565000  1.0
  H  H21  1  0.20313000  0.96937000  0.19435000  1.0
  C  C22  1  0.73092000  0.82482000  0.54704000  1.0
  C  C23  1  0.26908000  0.17518000  0.45296000  1.0
  C  C24  1  0.57089000  0.75845000  0.45758000  1.0
  C  C25  1  0.42911000  0.24155000  0.54242000  1.0
  C  C26  1  0.35196000  0.70310000  0.48025000  1.0
  C  C27  1  0.64803000  0.29690000  0.51975000  1.0
  C  C28  1  0.30288000  0.71376000  0.58893000  1.0
  C  C29  1  0.69712000  0.28624000  0.41107000  1.0
  C  C30  1  0.46751000  0.78687000  0.68117000  1.0
  C  C31  1  0.53249000  0.21313000  0.31883000  1.0
  C  C32  1  0.62628000  0.73781000  0.33934000  1.0
  C  C33  1  0.37373000  0.26219000  0.66066000  1.0
  C  C34  1  0.85028000  0.91326000  0.74887000  1.0
  C  C35  1  0.14972000  0.08674000  0.25113000  1.0
  C  C36  1  0.90489000  0.76291000  0.81244000  1.0
  C  C37  1  0.09512000  0.23709000  0.18756000  1.0
  N  N38  1  0.68099000  0.84149000  0.65417000  1.0
  N  N39  1  0.31902000  0.15851000  0.34583000  1.0
  O  O40  1  0.83003000  0.72429000  0.32155000  1.0
  O  O41  1  0.16997000  0.27571000  0.67845000  1.0
  O  O42  1  0.64391000  0.88340000  0.07584000  1.0
  O  O43  1  0.35609000  0.11660000  0.92416000  1.0
  O  O44  1  0.46538000  0.73263000  0.26644000  1.0
  O  O45  1  0.53463000  0.26737000  0.73356000  1.0
  O  O46  1  0.43750000  0.80432000  0.78403000  1.0
  O  O47  1  0.56252000  0.19567000  0.21597000  1.0
  O  O48  1  0.92455000  0.80357000  0.91791000  1.0
  O  O49  1  0.07545000  0.19643000  0.08208000  1.0
  O  O50  1  0.93708000  0.60778000  0.75149000  1.0
  O  O51  1  0.06293000  0.39222000  0.24851000  1.0
  O  O52  1  0.11813000  0.69438000  0.09445000  1.0
  O  O53  1  0.88187000  0.30562000  0.90555000  1.0
  O  O54  1  0.62272000  0.45563000  0.09058000  1.0
  O  O55  1  0.37728000  0.54436000  0.90942000  1.0
