# generated using pymatgen
data_H8PbC10Br2N2O
_symmetry_space_group_name_H-M   'P 1'
_cell_length_a   4.20729000
_cell_length_b   8.51385000
_cell_length_c   18.29840000
_cell_angle_alpha   86.74220000
_cell_angle_beta   89.86280000
_cell_angle_gamma   75.98000000
_symmetry_Int_Tables_number   1
_chemical_formula_structural   H8PbC10Br2N2O
_chemical_formula_sum   'H16 Pb2 C20 Br4 N4 O2'
_cell_volume   634.85640356
_cell_formula_units_Z   2
loop_
 _symmetry_equiv_pos_site_id
 _symmetry_equiv_pos_as_xyz
  1  'x, y, z'
loop_
 _atom_site_type_symbol
 _atom_site_label
 _atom_site_symmetry_multiplicity
 _atom_site_fract_x
 _atom_site_fract_y
 _atom_site_fract_z
 _atom_site_occupancy
  H  H0  1  0.23010000  0.82180000  0.82690000  1.0
  H  H1  1  0.03502000  0.17528000  0.17198000  1.0
  H  H2  1  0.09035000  0.69910000  0.71444000  1.0
  H  H3  1  0.77564000  0.29730000  0.28478000  1.0
  H  H4  1  0.77062000  0.34393000  0.85763000  1.0
  H  H5  1  0.12239000  0.65996000  0.14266000  1.0
  H  H6  1  0.03391000  0.56720000  0.62642000  1.0
  H  H7  1  0.59769000  0.43098000  0.37294000  1.0
  H  H8  1  0.92657000  0.47844000  0.96241000  1.0
  H  H9  1  0.40636000  0.52452000  0.03725000  1.0
  H  H10  1  0.94980000  0.39895000  0.52583000  1.0
  H  H11  1  0.34844000  0.59802000  0.47416000  1.0
  H  H12  1  0.67226000  0.23378000  0.77422000  1.0
  H  H13  1  0.91434000  0.76813000  0.22616000  1.0
  H  H14  1  0.60138000  0.08370000  0.66774000  1.0
  H  H15  1  0.69551000  0.91651000  0.33303000  1.0
  Pb  Pb16  1  0.00275000  0.99983000  0.00169000  1.0
  Pb  Pb17  1  0.78975000  0.99978000  0.49956000  1.0
  C  C18  1  0.12516000  0.71661000  0.82878000  1.0
  C  C19  1  0.82974000  0.28171000  0.17031000  1.0
  C  C20  1  0.04617000  0.64474000  0.76772000  1.0
  C  C21  1  0.68153000  0.35348000  0.23163000  1.0
  C  C22  1  0.87081000  0.44917000  0.84635000  1.0
  C  C23  1  0.32183000  0.55293000  0.15348000  1.0
  C  C24  1  0.93511000  0.46187000  0.63901000  1.0
  C  C25  1  0.39655000  0.53681000  0.36074000  1.0
  C  C26  1  0.92245000  0.50524000  0.77455000  1.0
  C  C27  1  0.42568000  0.49484000  0.22513000  1.0
  C  C28  1  0.95162000  0.52306000  0.90625000  1.0
  C  C29  1  0.47339000  0.47885000  0.09332000  1.0
  C  C30  1  0.86183000  0.41693000  0.71110000  1.0
  C  C31  1  0.28000000  0.58296000  0.28881000  1.0
  C  C32  1  0.88780000  0.36823000  0.58201000  1.0
  C  C33  1  0.25732000  0.62974000  0.41806000  1.0
  C  C34  1  0.73730000  0.27811000  0.72066000  1.0
  C  C35  1  0.02132000  0.72247000  0.27960000  1.0
  C  C36  1  0.69681000  0.19206000  0.66071000  1.0
  C  C37  1  0.89613000  0.80769000  0.33981000  1.0
  Br  Br38  1  0.47190000  0.07735000  0.88620000  1.0
  Br  Br39  1  0.54114000  0.92984000  0.11867000  1.0
  Br  Br40  1  0.35008000  0.83025000  0.59572000  1.0
  Br  Br41  1  0.18542000  0.16886000  0.40285000  1.0
  N  N42  1  0.08532000  0.65336000  0.89747000  1.0
  N  N43  1  0.73107000  0.34682000  0.10184000  1.0
  N  N44  1  0.77171000  0.23476000  0.59209000  1.0
  N  N45  1  0.01133000  0.76367000  0.40833000  1.0
  O  O46  1  0.18509000  0.71275000  0.95573000  1.0
  O  O47  1  0.88864000  0.28762000  0.04327000  1.0
