# generated using pymatgen
data_HgH16C28(BrN)2
_symmetry_space_group_name_H-M   'P 1'
_cell_length_a   5.08260000
_cell_length_b   14.99220000
_cell_length_c   16.63350000
_cell_angle_alpha   104.16800000
_cell_angle_beta   90.04920000
_cell_angle_gamma   99.70060000
_symmetry_Int_Tables_number   1
_chemical_formula_structural   HgH16C28(BrN)2
_chemical_formula_sum   'Hg2 H32 C56 Br4 N4'
_cell_volume   1210.16134716
_cell_formula_units_Z   2
loop_
 _symmetry_equiv_pos_site_id
 _symmetry_equiv_pos_as_xyz
  1  'x, y, z'
loop_
 _atom_site_type_symbol
 _atom_site_label
 _atom_site_symmetry_multiplicity
 _atom_site_fract_x
 _atom_site_fract_y
 _atom_site_fract_z
 _atom_site_occupancy
  Hg  Hg0  1  0.91527000  0.99997000  0.24991000  1.0
  Hg  Hg1  1  0.08474000  0.00003000  0.75009000  1.0
  H  H2  1  0.58648000  0.00794000  0.41955000  1.0
  H  H3  1  0.57790000  0.99194000  0.08032000  1.0
  H  H4  1  0.41352000  0.99206000  0.58045000  1.0
  H  H5  1  0.42210000  0.00806000  0.91967000  1.0
  H  H6  1  0.27338000  0.09725000  0.51076000  1.0
  H  H7  1  0.17527000  0.90282000  0.98913000  1.0
  H  H8  1  0.72662000  0.90275000  0.48925000  1.0
  H  H9  1  0.82473000  0.09719000  0.01087000  1.0
  H  H10  1  0.38056000  0.29284000  0.35597000  1.0
  H  H11  1  0.08837000  0.70713000  0.14384000  1.0
  H  H12  1  0.61945000  0.70716000  0.64403000  1.0
  H  H13  1  0.91164000  0.29287000  0.85615000  1.0
  H  H14  1  0.69005000  0.19589000  0.27260000  1.0
  H  H15  1  0.49474000  0.80396000  0.22727000  1.0
  H  H16  1  0.30995000  0.80411000  0.72740000  1.0
  H  H17  1  0.50527000  0.19604000  0.77273000  1.0
  H  H18  1  0.66826000  0.23858000  0.64694000  1.0
  H  H19  1  0.42831000  0.76162000  0.85314000  1.0
  H  H20  1  0.33174000  0.76142000  0.35306000  1.0
  H  H21  1  0.57168000  0.23838000  0.14686000  1.0
  H  H22  1  0.33853000  0.32287000  0.73094000  1.0
  H  H23  1  0.01508000  0.67732000  0.76882000  1.0
  H  H24  1  0.66147000  0.67713000  0.26906000  1.0
  H  H25  1  0.98493000  0.32268000  0.23119000  1.0
  H  H26  1  0.27844000  0.47908000  0.71410000  1.0
  H  H27  1  0.79966000  0.52094000  0.78547000  1.0
  H  H28  1  0.72156000  0.52092000  0.28590000  1.0
  H  H29  1  0.20034000  0.47906000  0.21452000  1.0
  H  H30  1  0.54896000  0.55102000  0.61476000  1.0
  H  H31  1  0.99877000  0.44910000  0.88496000  1.0
  H  H32  1  0.45103000  0.44898000  0.38524000  1.0
  H  H33  1  0.00123000  0.55089000  0.11503000  1.0
  C  C34  1  0.53685000  0.07223000  0.40882000  1.0
  C  C35  1  0.46406000  0.92773000  0.09110000  1.0
  C  C36  1  0.46315000  0.92777000  0.59119000  1.0
  C  C37  1  0.53595000  0.07228000  0.90890000  1.0
  C  C38  1  0.36430000  0.12133000  0.45882000  1.0
  C  C39  1  0.24228000  0.87873000  0.04109000  1.0
  C  C40  1  0.63569000  0.87867000  0.54118000  1.0
  C  C41  1  0.75772000  0.12127000  0.95891000  1.0
  C  C42  1  0.30339000  0.20307000  0.44114000  1.0
  C  C43  1  0.10025000  0.79696000  0.05872000  1.0
  C  C44  1  0.69661000  0.79692000  0.55886000  1.0
  C  C45  1  0.89975000  0.20304000  0.94128000  1.0
  C  C46  1  0.42431000  0.23108000  0.37298000  1.0
  C  C47  1  0.19349000  0.76893000  0.12691000  1.0
  C  C48  1  0.57570000  0.76892000  0.62702000  1.0
  C  C49  1  0.80652000  0.23107000  0.87309000  1.0
  C  C50  1  0.59465000  0.17751000  0.32648000  1.0
  C  C51  1  0.41737000  0.82242000  0.17343000  1.0
  C  C52  1  0.40536000  0.82249000  0.67353000  1.0
  C  C53  1  0.58263000  0.17758000  0.82657000  1.0
  C  C54  1  0.12615000  0.25406000  0.49016000  1.0
  C  C55  1  0.87226000  0.74598000  0.00962000  1.0
  C  C56  1  0.87384000  0.74594000  0.50984000  1.0
  C  C57  1  0.12774000  0.25402000  0.99038000  1.0
  C  C58  1  0.97430000  0.29717000  0.53424000  1.0
  C  C59  1  0.67691000  0.70294000  0.96569000  1.0
  C  C60  1  0.02570000  0.70284000  0.46576000  1.0
  C  C61  1  0.32309000  0.29706000  0.03432000  1.0
  C  C62  1  0.79678000  0.34707000  0.58421000  1.0
  C  C63  1  0.44945000  0.65306000  0.91574000  1.0
  C  C64  1  0.20321000  0.65293000  0.41579000  1.0
  C  C65  1  0.55055000  0.34694000  0.08427000  1.0
  C  C66  1  0.64332000  0.30769000  0.64143000  1.0
  C  C67  1  0.33472000  0.69248000  0.85856000  1.0
  C  C68  1  0.35668000  0.69231000  0.35857000  1.0
  C  C69  1  0.66528000  0.30753000  0.14144000  1.0
  C  C70  1  0.46013000  0.35520000  0.68824000  1.0
  C  C71  1  0.10437000  0.64495000  0.81155000  1.0
  C  C72  1  0.53987000  0.64480000  0.31176000  1.0
  C  C73  1  0.89564000  0.35505000  0.18845000  1.0
  C  C74  1  0.42511000  0.44266000  0.67844000  1.0
  C  C75  1  0.98249000  0.55744000  0.82124000  1.0
  C  C76  1  0.57488000  0.55734000  0.32156000  1.0
  C  C77  1  0.01750000  0.44256000  0.17876000  1.0
  C  C78  1  0.57657000  0.48330000  0.62300000  1.0
  C  C79  1  0.09377000  0.51682000  0.87674000  1.0
  C  C80  1  0.42343000  0.51670000  0.37700000  1.0
  C  C81  1  0.90624000  0.48318000  0.12326000  1.0
  C  C82  1  0.76708000  0.43759000  0.57596000  1.0
  C  C83  1  0.32975000  0.56252000  0.92392000  1.0
  C  C84  1  0.23291000  0.56241000  0.42404000  1.0
  C  C85  1  0.67025000  0.43748000  0.07608000  1.0
  C  C86  1  0.92781000  0.48073000  0.52231000  1.0
  C  C87  1  0.44741000  0.51932000  0.97761000  1.0
  C  C88  1  0.07219000  0.51927000  0.47769000  1.0
  C  C89  1  0.55260000  0.48067000  0.02239000  1.0
  Br  Br90  1  0.97200000  0.88754000  0.33855000  1.0
  Br  Br91  1  0.08424000  0.11278000  0.16170000  1.0
  Br  Br92  1  0.02800000  0.11246000  0.66145000  1.0
  Br  Br93  1  0.91576000  0.88722000  0.83830000  1.0
  N  N94  1  0.64983000  0.09947000  0.34373000  1.0
  N  N95  1  0.55029000  0.90044000  0.15616000  1.0
  N  N96  1  0.35017000  0.90053000  0.65627000  1.0
  N  N97  1  0.44972000  0.09957000  0.84384000  1.0
