# generated using pymatgen
data_CdH9C10(NO2)3
_symmetry_space_group_name_H-M   'P 1'
_cell_length_a   6.82118000
_cell_length_b   12.24910000
_cell_length_c   13.76210000
_cell_angle_alpha   89.99980000
_cell_angle_beta   89.99990000
_cell_angle_gamma   89.99950000
_symmetry_Int_Tables_number   1
_chemical_formula_structural   CdH9C10(NO2)3
_chemical_formula_sum   'Cd4 H36 C40 N12 O24'
_cell_volume   1149.86908922
_cell_formula_units_Z   4
loop_
 _symmetry_equiv_pos_site_id
 _symmetry_equiv_pos_as_xyz
  1  'x, y, z'
loop_
 _atom_site_type_symbol
 _atom_site_label
 _atom_site_symmetry_multiplicity
 _atom_site_fract_x
 _atom_site_fract_y
 _atom_site_fract_z
 _atom_site_occupancy
  Cd  Cd0  1  0.96889000  0.99197000  0.23327000  1.0
  Cd  Cd1  1  0.03111000  0.00803000  0.73327000  1.0
  Cd  Cd2  1  0.53111000  0.49198000  0.73327000  1.0
  Cd  Cd3  1  0.46889000  0.50802000  0.23327000  1.0
  H  H4  1  0.88371000  0.30252000  0.47232000  1.0
  H  H5  1  0.11628000  0.69748000  0.97232000  1.0
  H  H6  1  0.61628000  0.80252000  0.97233000  1.0
  H  H7  1  0.38371000  0.19748000  0.47232000  1.0
  H  H8  1  0.61105000  0.89538000  0.29666000  1.0
  H  H9  1  0.38895000  0.10461000  0.79666000  1.0
  H  H10  1  0.88895000  0.39539000  0.79666000  1.0
  H  H11  1  0.11105000  0.60462000  0.29666000  1.0
  H  H12  1  0.61695000  0.88409000  0.17799000  1.0
  H  H13  1  0.38305000  0.11591000  0.67799000  1.0
  H  H14  1  0.88306000  0.38409000  0.67799000  1.0
  H  H15  1  0.11695000  0.61591000  0.17799000  1.0
  H  H16  1  0.41474000  0.00792000  0.23737000  1.0
  H  H17  1  0.58525000  0.99208000  0.73737000  1.0
  H  H18  1  0.08526000  0.50792000  0.73737000  1.0
  H  H19  1  0.91475000  0.49209000  0.23738000  1.0
  H  H20  1  0.32288000  0.10503000  0.29861000  1.0
  H  H21  1  0.67711000  0.89497000  0.79861000  1.0
  H  H22  1  0.17711000  0.60503000  0.79861000  1.0
  H  H23  1  0.82289000  0.39497000  0.29861000  1.0
  H  H24  1  0.00152000  0.51336000  0.47208000  1.0
  H  H25  1  0.99849000  0.48664000  0.97209000  1.0
  H  H26  1  0.49849000  0.01336000  0.97209000  1.0
  H  H27  1  0.50151000  0.98664000  0.47209000  1.0
  H  H28  1  0.11533000  0.81093000  0.34303000  1.0
  H  H29  1  0.88468000  0.18907000  0.84303000  1.0
  H  H30  1  0.38467000  0.31093000  0.84303000  1.0
  H  H31  1  0.61533000  0.68907000  0.34303000  1.0
  H  H32  1  0.86942000  0.80663000  0.63246000  1.0
  H  H33  1  0.13059000  0.19337000  0.13247000  1.0
  H  H34  1  0.63059000  0.30663000  0.13247000  1.0
  H  H35  1  0.36942000  0.69337000  0.63247000  1.0
  H  H36  1  0.88776000  0.60354000  0.62558000  1.0
  H  H37  1  0.11225000  0.39646000  0.12559000  1.0
  H  H38  1  0.61225000  0.10354000  0.12559000  1.0
  H  H39  1  0.38776000  0.89646000  0.62558000  1.0
  C  C40  1  0.99886000  0.60219000  0.47902000  1.0
  C  C41  1  0.00115000  0.39781000  0.97903000  1.0
  C  C42  1  0.50115000  0.10219000  0.97903000  1.0
  C  C43  1  0.49885000  0.89781000  0.47903000  1.0
  C  C44  1  0.05898000  0.76880000  0.40663000  1.0
  C  C45  1  0.94102000  0.23121000  0.90663000  1.0
  C  C46  1  0.44102000  0.26879000  0.90663000  1.0
  C  C47  1  0.55898000  0.73120000  0.40663000  1.0
  C  C48  1  0.99222000  0.82668000  0.48805000  1.0
  C  C49  1  0.00779000  0.17332000  0.98806000  1.0
  C  C50  1  0.50779000  0.32668000  0.98806000  1.0
  C  C51  1  0.49221000  0.67332000  0.48806000  1.0
  C  C52  1  0.92910000  0.76606000  0.56860000  1.0
  C  C53  1  0.07090000  0.23394000  0.06860000  1.0
  C  C54  1  0.57091000  0.26606000  0.06860000  1.0
  C  C55  1  0.42910000  0.73394000  0.56860000  1.0
  C  C56  1  0.93592000  0.65257000  0.56422000  1.0
  C  C57  1  0.06408000  0.34743000  0.06423000  1.0
  C  C58  1  0.56409000  0.15257000  0.06422000  1.0
  C  C59  1  0.43592000  0.84743000  0.56422000  1.0
  C  C60  1  0.97993000  0.94586000  0.48562000  1.0
  C  C61  1  0.02007000  0.05414000  0.98563000  1.0
  C  C62  1  0.52007000  0.44586000  0.98563000  1.0
  C  C63  1  0.47993000  0.55414000  0.48563000  1.0
  C  C64  1  0.94697000  0.11425000  0.53330000  1.0
  C  C65  1  0.05303000  0.88575000  0.03330000  1.0
  C  C66  1  0.55304000  0.61425000  0.03330000  1.0
  C  C67  1  0.44697000  0.38575000  0.53330000  1.0
  C  C68  1  0.92958000  0.11032000  0.43173000  1.0
  C  C69  1  0.07041000  0.88968000  0.93173000  1.0
  C  C70  1  0.57042000  0.61032000  0.93173000  1.0
  C  C71  1  0.42958000  0.38967000  0.43173000  1.0
  C  C72  1  0.89123000  0.19597000  0.35979000  1.0
  C  C73  1  0.10876000  0.80403000  0.85979000  1.0
  C  C74  1  0.60876000  0.69596000  0.85978000  1.0
  C  C75  1  0.39124000  0.30403000  0.35979000  1.0
  C  C76  1  0.93714000  0.20633000  0.60210000  1.0
  C  C77  1  0.06285000  0.79367000  0.10209000  1.0
  C  C78  1  0.56286000  0.70633000  0.10210000  1.0
  C  C79  1  0.43714000  0.29367000  0.60210000  1.0
  N  N80  1  0.97958000  0.01048000  0.56595000  1.0
  N  N81  1  0.02042000  0.98952000  0.06595000  1.0
  N  N82  1  0.52043000  0.51048000  0.06595000  1.0
  N  N83  1  0.47958000  0.48953000  0.56595000  1.0
  N  N84  1  0.95250000  0.00417000  0.40283000  1.0
  N  N85  1  0.04750000  0.99584000  0.90284000  1.0
  N  N86  1  0.54750000  0.50416000  0.90284000  1.0
  N  N87  1  0.45249000  0.49583000  0.40283000  1.0
  N  N88  1  0.05884000  0.65976000  0.40121000  1.0
  N  N89  1  0.94117000  0.34024000  0.90121000  1.0
  N  N90  1  0.44116000  0.15976000  0.90121000  1.0
  N  N91  1  0.55884000  0.84024000  0.40121000  1.0
  O  O92  1  0.87822000  0.17507000  0.27111000  1.0
  O  O93  1  0.12174000  0.82493000  0.77111000  1.0
  O  O94  1  0.62175000  0.67508000  0.77112000  1.0
  O  O95  1  0.37825000  0.32492000  0.27113000  1.0
  O  O96  1  0.86968000  0.29699000  0.39160000  1.0
  O  O97  1  0.13030000  0.70301000  0.89160000  1.0
  O  O98  1  0.63030000  0.79699000  0.89160000  1.0
  O  O99  1  0.36969000  0.20300000  0.39161000  1.0
  O  O100  1  0.90482000  0.30355000  0.56848000  1.0
  O  O101  1  0.09519000  0.69645000  0.06847000  1.0
  O  O102  1  0.59519000  0.80355000  0.06849000  1.0
  O  O103  1  0.40481000  0.19645000  0.56848000  1.0
  O  O104  1  0.96006000  0.18896000  0.69169000  1.0
  O  O105  1  0.03994000  0.81104000  0.19168000  1.0
  O  O106  1  0.53993000  0.68895000  0.19169000  1.0
  O  O107  1  0.46006000  0.31105000  0.69169000  1.0
  O  O108  1  0.63349000  0.93722000  0.23196000  1.0
  O  O109  1  0.36651000  0.06277000  0.73196000  1.0
  O  O110  1  0.86651000  0.43723000  0.73196000  1.0
  O  O111  1  0.13349000  0.56277000  0.23196000  1.0
  O  O112  1  0.29321000  0.05169000  0.24703000  1.0
  O  O113  1  0.70678000  0.94830000  0.74703000  1.0
  O  O114  1  0.20679000  0.55169000  0.74703000  1.0
  O  O115  1  0.79321000  0.44832000  0.24704000  1.0
