# generated using pymatgen
data_NiH24C26(S2N3)2
_symmetry_space_group_name_H-M   'P 1'
_cell_length_a   7.24652000
_cell_length_b   9.98969000
_cell_length_c   9.99556000
_cell_angle_alpha   111.66800000
_cell_angle_beta   100.01100000
_cell_angle_gamma   99.98320000
_symmetry_Int_Tables_number   1
_chemical_formula_structural   NiH24C26(S2N3)2
_chemical_formula_sum   'Ni1 H24 C26 S4 N6'
_cell_volume   639.51993799
_cell_formula_units_Z   1
loop_
 _symmetry_equiv_pos_site_id
 _symmetry_equiv_pos_as_xyz
  1  'x, y, z'
loop_
 _atom_site_type_symbol
 _atom_site_label
 _atom_site_symmetry_multiplicity
 _atom_site_fract_x
 _atom_site_fract_y
 _atom_site_fract_z
 _atom_site_occupancy
  Ni  Ni0  1  0.50000000  0.50000000  0.50000000  1.0
  H  H1  1  0.67065000  0.27992000  0.41412000  1.0
  H  H2  1  0.32944000  0.58634000  0.72171000  1.0
  H  H3  1  0.32935000  0.72008000  0.58588000  1.0
  H  H4  1  0.67056000  0.41366000  0.27829000  1.0
  H  H5  1  0.66090000  0.32559000  0.58927000  1.0
  H  H6  1  0.33929000  0.41105000  0.67597000  1.0
  H  H7  1  0.33909000  0.67442000  0.41073000  1.0
  H  H8  1  0.66071000  0.58895000  0.32403000  1.0
  H  H9  1  0.18885000  0.84560000  0.11901000  1.0
  H  H10  1  0.81197000  0.88154000  0.15552000  1.0
  H  H11  1  0.81115000  0.15440000  0.88099000  1.0
  H  H12  1  0.18804000  0.11846000  0.84448000  1.0
  H  H13  1  0.43480000  0.08329000  0.20419000  1.0
  H  H14  1  0.56486000  0.79629000  0.91861000  1.0
  H  H15  1  0.56520000  0.91671000  0.79581000  1.0
  H  H16  1  0.43514000  0.20371000  0.08139000  1.0
  H  H17  1  0.39481000  0.19161000  0.65603000  1.0
  H  H18  1  0.60591000  0.34430000  0.80973000  1.0
  H  H19  1  0.60519000  0.80838000  0.34397000  1.0
  H  H20  1  0.39410000  0.65570000  0.19027000  1.0
  H  H21  1  0.15073000  0.95445000  0.57190000  1.0
  H  H22  1  0.85072000  0.42849000  0.04637000  1.0
  H  H23  1  0.84928000  0.04555000  0.42810000  1.0
  H  H24  1  0.14928000  0.57151000  0.95363000  1.0
  C  C25  1  0.23347000  0.92121000  0.23695000  1.0
  C  C26  1  0.76731000  0.76353000  0.08001000  1.0
  C  C27  1  0.76653000  0.07879000  0.76305000  1.0
  C  C28  1  0.23269000  0.23647000  0.91999000  1.0
  C  C29  1  0.37068000  0.05615000  0.28472000  1.0
  C  C30  1  0.62952000  0.71572000  0.94539000  1.0
  C  C31  1  0.62932000  0.94385000  0.71528000  1.0
  C  C32  1  0.37048000  0.28427000  0.05461000  1.0
  C  C33  1  0.43395000  0.15507000  0.43601000  1.0
  C  C34  1  0.56627000  0.56439000  0.84638000  1.0
  C  C35  1  0.56605000  0.84493000  0.56399000  1.0
  C  C36  1  0.43373000  0.43561000  0.15362000  1.0
  C  C37  1  0.34991000  0.11803000  0.53785000  1.0
  C  C38  1  0.65087000  0.46255000  0.88322000  1.0
  C  C39  1  0.65010000  0.88197000  0.46215000  1.0
  C  C40  1  0.34913000  0.53745000  0.11677000  1.0
  C  C41  1  0.21198000  0.98345000  0.49099000  1.0
  C  C42  1  0.78923000  0.50945000  0.01754000  1.0
  C  C43  1  0.78802000  0.01655000  0.50901000  1.0
  C  C44  1  0.21078000  0.49055000  0.98246000  1.0
  C  C45  1  0.15405000  0.88315000  0.34066000  1.0
  C  C46  1  0.84730000  0.65984000  0.11781000  1.0
  C  C47  1  0.84595000  0.11686000  0.65934000  1.0
  C  C48  1  0.15271000  0.34016000  0.88218000  1.0
  C  C49  1  0.92664000  0.67131000  0.67090000  1.0
  C  C50  1  0.07333000  0.32868000  0.32909000  1.0
  S  S51  1  0.00095000  0.70616000  0.29458000  1.0
  S  S52  1  0.99906000  0.29384000  0.70542000  1.0
  S  S53  1  0.14471000  0.77138000  0.77056000  1.0
  S  S54  1  0.85529000  0.22863000  0.22944000  1.0
  N  N55  1  0.57783000  0.28991000  0.48265000  1.0
  N  N56  1  0.42221000  0.51776000  0.71181000  1.0
  N  N57  1  0.42217000  0.71009000  0.51735000  1.0
  N  N58  1  0.57779000  0.48224000  0.28819000  1.0
  N  N59  1  0.76737000  0.60028000  0.60006000  1.0
  N  N60  1  0.23265000  0.39974000  0.39996000  1.0
