# generated using pymatgen
data_ZnH8C6N8O5
_symmetry_space_group_name_H-M   'P 1'
_cell_length_a   8.52561000
_cell_length_b   8.71612000
_cell_length_c   15.65130000
_cell_angle_alpha   96.01190000
_cell_angle_beta   89.99960000
_cell_angle_gamma   90.00000000
_symmetry_Int_Tables_number   1
_chemical_formula_structural   ZnH8C6N8O5
_chemical_formula_sum   'Zn4 H32 C24 N32 O20'
_cell_volume   1156.65526216
_cell_formula_units_Z   4
loop_
 _symmetry_equiv_pos_site_id
 _symmetry_equiv_pos_as_xyz
  1  'x, y, z'
loop_
 _atom_site_type_symbol
 _atom_site_label
 _atom_site_symmetry_multiplicity
 _atom_site_fract_x
 _atom_site_fract_y
 _atom_site_fract_z
 _atom_site_occupancy
  Zn  Zn0  1  0.52777000  0.77128000  0.21200000  1.0
  Zn  Zn1  1  0.02774000  0.72872000  0.78800000  1.0
  Zn  Zn2  1  0.47224000  0.22873000  0.78800000  1.0
  Zn  Zn3  1  0.97225000  0.27127000  0.21200000  1.0
  H  H4  1  0.37068000  0.12915000  0.20126000  1.0
  H  H5  1  0.87067000  0.37085000  0.79874000  1.0
  H  H6  1  0.62931000  0.87085000  0.79874000  1.0
  H  H7  1  0.12932000  0.62914000  0.20126000  1.0
  H  H8  1  0.51868000  0.35177000  0.01258000  1.0
  H  H9  1  0.01868000  0.14823000  0.98742000  1.0
  H  H10  1  0.48132000  0.64824000  0.98742000  1.0
  H  H11  1  0.98131000  0.85175000  0.01258000  1.0
  H  H12  1  0.33694000  0.33018000  0.06398000  1.0
  H  H13  1  0.83694000  0.16983000  0.93603000  1.0
  H  H14  1  0.66306000  0.66983000  0.93603000  1.0
  H  H15  1  0.16305000  0.83016000  0.06397000  1.0
  H  H16  1  0.35870000  0.98313000  0.53219000  1.0
  H  H17  1  0.85869000  0.51688000  0.46781000  1.0
  H  H18  1  0.64132000  0.01688000  0.46781000  1.0
  H  H19  1  0.14131000  0.48312000  0.53219000  1.0
  H  H20  1  0.07520000  0.93812000  0.33214000  1.0
  H  H21  1  0.57516000  0.56189000  0.66785000  1.0
  H  H22  1  0.92481000  0.06191000  0.66785000  1.0
  H  H23  1  0.42483000  0.43811000  0.33215000  1.0
  H  H24  1  0.13688000  0.80076000  0.40070000  1.0
  H  H25  1  0.63687000  0.69925000  0.59929000  1.0
  H  H26  1  0.86311000  0.19925000  0.59929000  1.0
  H  H27  1  0.36312000  0.30075000  0.40071000  1.0
  H  H28  1  0.73995000  0.76137000  0.33150000  1.0
  H  H29  1  0.23993000  0.73862000  0.66850000  1.0
  H  H30  1  0.26006000  0.23862000  0.66850000  1.0
  H  H31  1  0.76007000  0.26138000  0.33150000  1.0
  H  H32  1  0.81482000  0.81835000  0.24628000  1.0
  H  H33  1  0.31480000  0.68165000  0.75371000  1.0
  H  H34  1  0.18518000  0.18165000  0.75371000  1.0
  H  H35  1  0.68520000  0.31836000  0.24629000  1.0
  C  C36  1  0.46224000  0.09413000  0.15463000  1.0
  C  C37  1  0.96223000  0.40587000  0.84538000  1.0
  C  C38  1  0.53776000  0.90587000  0.84537000  1.0
  C  C39  1  0.03777000  0.59412000  0.15463000  1.0
  C  C40  1  0.46454000  0.33181000  0.07406000  1.0
  C  C41  1  0.96453000  0.16819000  0.92594000  1.0
  C  C42  1  0.53547000  0.66819000  0.92594000  1.0
  C  C43  1  0.03546000  0.83180000  0.07406000  1.0
  C  C44  1  0.50583000  0.46289000  0.14311000  1.0
  C  C45  1  0.00582000  0.03711000  0.85689000  1.0
  C  C46  1  0.49417000  0.53711000  0.85689000  1.0
  C  C47  1  0.99418000  0.96288000  0.14311000  1.0
  C  C48  1  0.26310000  0.05745000  0.51629000  1.0
  C  C49  1  0.76309000  0.44256000  0.48371000  1.0
  C  C50  1  0.73692000  0.94255000  0.48371000  1.0
  C  C51  1  0.23691000  0.55745000  0.51629000  1.0
  C  C52  1  0.16860000  0.91027000  0.37634000  1.0
  C  C53  1  0.66858000  0.58973000  0.62366000  1.0
  C  C54  1  0.83141000  0.08974000  0.62366000  1.0
  C  C55  1  0.33142000  0.41027000  0.37634000  1.0
  C  C56  1  0.32181000  0.89206000  0.32704000  1.0
  C  C57  1  0.82179000  0.60793000  0.67296000  1.0
  C  C58  1  0.67819000  0.10794000  0.67296000  1.0
  C  C59  1  0.17821000  0.39207000  0.32704000  1.0
  N  N60  1  0.54384000  0.96329000  0.14603000  1.0
  N  N61  1  0.04383000  0.53672000  0.85397000  1.0
  N  N62  1  0.45616000  0.03672000  0.85397000  1.0
  N  N63  1  0.95616000  0.46327000  0.14603000  1.0
  N  N64  1  0.64800000  0.97258000  0.08075000  1.0
  N  N65  1  0.14799000  0.52742000  0.91925000  1.0
  N  N66  1  0.35200000  0.02742000  0.91925000  1.0
  N  N67  1  0.85201000  0.47256000  0.08075000  1.0
  N  N68  1  0.63190000  0.10349000  0.04965000  1.0
  N  N69  1  0.13189000  0.39651000  0.95035000  1.0
  N  N70  1  0.36810000  0.89651000  0.95035000  1.0
  N  N71  1  0.86810000  0.60347000  0.04965000  1.0
  N  N72  1  0.51498000  0.18083000  0.09472000  1.0
  N  N73  1  0.01497000  0.31917000  0.90528000  1.0
  N  N74  1  0.48502000  0.81917000  0.90529000  1.0
  N  N75  1  0.98502000  0.68082000  0.09472000  1.0
  N  N76  1  0.17131000  0.03354000  0.44608000  1.0
  N  N77  1  0.67129000  0.46646000  0.55392000  1.0
  N  N78  1  0.82870000  0.96646000  0.55392000  1.0
  N  N79  1  0.32870000  0.53354000  0.44608000  1.0
  N  N80  1  0.06477000  0.14920000  0.44806000  1.0
  N  N81  1  0.56476000  0.35079000  0.55194000  1.0
  N  N82  1  0.93524000  0.85081000  0.55195000  1.0
  N  N83  1  0.43524000  0.64921000  0.44806000  1.0
  N  N84  1  0.09123000  0.23890000  0.51809000  1.0
  N  N85  1  0.59122000  0.26110000  0.48191000  1.0
  N  N86  1  0.90879000  0.76110000  0.48192000  1.0
  N  N87  1  0.40878000  0.73891000  0.51809000  1.0
  N  N88  1  0.21397000  0.18500000  0.56213000  1.0
  N  N89  1  0.71396000  0.31500000  0.43787000  1.0
  N  N90  1  0.78605000  0.81500000  0.43787000  1.0
  N  N91  1  0.28604000  0.68500000  0.56213000  1.0
  O  O92  1  0.47977000  0.59749000  0.11992000  1.0
  O  O93  1  0.97975000  0.90251000  0.88008000  1.0
  O  O94  1  0.52023000  0.40252000  0.88009000  1.0
  O  O95  1  0.02025000  0.09748000  0.11991000  1.0
  O  O96  1  0.55534000  0.43633000  0.21542000  1.0
  O  O97  1  0.05532000  0.06367000  0.78458000  1.0
  O  O98  1  0.44466000  0.56367000  0.78458000  1.0
  O  O99  1  0.94467000  0.93632000  0.21542000  1.0
  O  O100  1  0.31824000  0.77788000  0.26638000  1.0
  O  O101  1  0.81823000  0.72213000  0.73361000  1.0
  O  O102  1  0.68175000  0.22212000  0.73362000  1.0
  O  O103  1  0.18177000  0.27787000  0.26639000  1.0
  O  O104  1  0.43583000  0.97890000  0.34352000  1.0
  O  O105  1  0.93579000  0.52107000  0.65649000  1.0
  O  O106  1  0.56417000  0.02109000  0.65648000  1.0
  O  O107  1  0.06420000  0.47893000  0.34351000  1.0
  O  O108  1  0.73322000  0.74737000  0.26652000  1.0
  O  O109  1  0.23320000  0.75262000  0.73348000  1.0
  O  O110  1  0.26678000  0.25263000  0.73348000  1.0
  O  O111  1  0.76679000  0.24737000  0.26652000  1.0
