# generated using pymatgen
data_HgH16C22(BrN2)2
_symmetry_space_group_name_H-M   'P 1'
_cell_length_a   5.07566000
_cell_length_b   7.54992000
_cell_length_c   26.83790000
_cell_angle_alpha   88.01780000
_cell_angle_beta   89.99960000
_cell_angle_gamma   89.99850000
_symmetry_Int_Tables_number   1
_chemical_formula_structural   HgH16C22(BrN2)2
_chemical_formula_sum   'Hg2 H32 C44 Br4 N8'
_cell_volume   1027.83511793
_cell_formula_units_Z   2
loop_
 _symmetry_equiv_pos_site_id
 _symmetry_equiv_pos_as_xyz
  1  'x, y, z'
loop_
 _atom_site_type_symbol
 _atom_site_label
 _atom_site_symmetry_multiplicity
 _atom_site_fract_x
 _atom_site_fract_y
 _atom_site_fract_z
 _atom_site_occupancy
  Hg  Hg0  1  0.38098000  0.74997000  0.25000000  1.0
  Hg  Hg1  1  0.61903000  0.25001000  0.75000000  1.0
  H  H2  1  0.11609000  0.12449000  0.29119000  1.0
  H  H3  1  0.11607000  0.37546000  0.20881000  1.0
  H  H4  1  0.88394000  0.87547000  0.70881000  1.0
  H  H5  1  0.88391000  0.62453000  0.79119000  1.0
  H  H6  1  0.78084000  0.23246000  0.35127000  1.0
  H  H7  1  0.78081000  0.26752000  0.14873000  1.0
  H  H8  1  0.21919000  0.76754000  0.64872000  1.0
  H  H9  1  0.21916000  0.73248000  0.85127000  1.0
  H  H10  1  0.53739000  0.00743000  0.40618000  1.0
  H  H11  1  0.53738000  0.49257000  0.09382000  1.0
  H  H12  1  0.46260000  0.99258000  0.59382000  1.0
  H  H13  1  0.46262000  0.50744000  0.90618000  1.0
  H  H14  1  0.01669000  0.60364000  0.34146000  1.0
  H  H15  1  0.01671000  0.89632000  0.15854000  1.0
  H  H16  1  0.98328000  0.39634000  0.65854000  1.0
  H  H17  1  0.98331000  0.10368000  0.84147000  1.0
  H  H18  1  0.71567000  0.51652000  0.40677000  1.0
  H  H19  1  0.71568000  0.98348000  0.09323000  1.0
  H  H20  1  0.28430000  0.48349000  0.59323000  1.0
  H  H21  1  0.28433000  0.01653000  0.90677000  1.0
  H  H22  1  0.17863000  0.84835000  0.49197000  1.0
  H  H23  1  0.17864000  0.65165000  0.00803000  1.0
  H  H24  1  0.82134000  0.15166000  0.50804000  1.0
  H  H25  1  0.82137000  0.34835000  0.99197000  1.0
  H  H26  1  0.86819000  0.90791000  0.56105000  1.0
  H  H27  1  0.86820000  0.59208000  0.93895000  1.0
  H  H28  1  0.13179000  0.09211000  0.43895000  1.0
  H  H29  1  0.13181000  0.40791000  0.06105000  1.0
  H  H30  1  0.60257000  0.66374000  0.59974000  1.0
  H  H31  1  0.60257000  0.83627000  0.90026000  1.0
  H  H32  1  0.39739000  0.33628000  0.40026000  1.0
  H  H33  1  0.39744000  0.16372000  0.09974000  1.0
  C  C34  1  0.01142000  0.03261000  0.31653000  1.0
  C  C35  1  0.01140000  0.46737000  0.18347000  1.0
  C  C36  1  0.98861000  0.96738000  0.68347000  1.0
  C  C37  1  0.98858000  0.53262000  0.81654000  1.0
  C  C38  1  0.82212000  0.09126000  0.34985000  1.0
  C  C39  1  0.82209000  0.40872000  0.15015000  1.0
  C  C40  1  0.17790000  0.90874000  0.65014000  1.0
  C  C41  1  0.17789000  0.59127000  0.84985000  1.0
  C  C42  1  0.68945000  0.96790000  0.38016000  1.0
  C  C43  1  0.68945000  0.53209000  0.11984000  1.0
  C  C44  1  0.31055000  0.03211000  0.61983000  1.0
  C  C45  1  0.31056000  0.46790000  0.88017000  1.0
  C  C46  1  0.75544000  0.78800000  0.37765000  1.0
  C  C47  1  0.75547000  0.71199000  0.12234000  1.0
  C  C48  1  0.24455000  0.21201000  0.62234000  1.0
  C  C49  1  0.24456000  0.28800000  0.87766000  1.0
  C  C50  1  0.95564000  0.74160000  0.34454000  1.0
  C  C51  1  0.95566000  0.75838000  0.15546000  1.0
  C  C52  1  0.04434000  0.25840000  0.65546000  1.0
  C  C53  1  0.04435000  0.24162000  0.84454000  1.0
  C  C54  1  0.62020000  0.64767000  0.40624000  1.0
  C  C55  1  0.62023000  0.85232000  0.09376000  1.0
  C  C56  1  0.37976000  0.35233000  0.59376000  1.0
  C  C57  1  0.37978000  0.14768000  0.90624000  1.0
  C  C58  1  0.25969000  0.53306000  0.44997000  1.0
  C  C59  1  0.25972000  0.96695000  0.05003000  1.0
  C  C60  1  0.74028000  0.46696000  0.55003000  1.0
  C  C61  1  0.74030000  0.03305000  0.94997000  1.0
  C  C62  1  0.07958000  0.57053000  0.48956000  1.0
  C  C63  1  0.07961000  0.92948000  0.01044000  1.0
  C  C64  1  0.92038000  0.42948000  0.51044000  1.0
  C  C65  1  0.92042000  0.07053000  0.98956000  1.0
  C  C66  1  0.05597000  0.74307000  0.50817000  1.0
  C  C67  1  0.05598000  0.75694000  0.99183000  1.0
  C  C68  1  0.94400000  0.25695000  0.49183000  1.0
  C  C69  1  0.94403000  0.24306000  0.00817000  1.0
  C  C70  1  0.88221000  0.77534000  0.54641000  1.0
  C  C71  1  0.88221000  0.72466000  0.95360000  1.0
  C  C72  1  0.11779000  0.22467000  0.45359000  1.0
  C  C73  1  0.11782000  0.27534000  0.04640000  1.0
  C  C74  1  0.72749000  0.63803000  0.56776000  1.0
  C  C75  1  0.72749000  0.86198000  0.93225000  1.0
  C  C76  1  0.27249000  0.36199000  0.43224000  1.0
  C  C77  1  0.27253000  0.13802000  0.06776000  1.0
  Br  Br78  1  0.48447000  0.45128000  0.29072000  1.0
  Br  Br79  1  0.48450000  0.04868000  0.20928000  1.0
  Br  Br80  1  0.51549000  0.54869000  0.70928000  1.0
  Br  Br81  1  0.51556000  0.95130000  0.79072000  1.0
  N  N82  1  0.07617000  0.86040000  0.31425000  1.0
  N  N83  1  0.07617000  0.63957000  0.18575000  1.0
  N  N84  1  0.92384000  0.13958000  0.68575000  1.0
  N  N85  1  0.92384000  0.36042000  0.81425000  1.0
  N  N86  1  0.39975000  0.67518000  0.42833000  1.0
  N  N87  1  0.39977000  0.82483000  0.07167000  1.0
  N  N88  1  0.60025000  0.32484000  0.57167000  1.0
  N  N89  1  0.60025000  0.17517000  0.92834000  1.0
