# generated using pymatgen
data_SnH10(CO)6
_symmetry_space_group_name_H-M   'P 1'
_cell_length_a   5.74759000
_cell_length_b   7.75851000
_cell_length_c   10.32610000
_cell_angle_alpha   89.99970000
_cell_angle_beta   89.99950000
_cell_angle_gamma   105.74800000
_symmetry_Int_Tables_number   1
_chemical_formula_structural   SnH10(CO)6
_chemical_formula_sum   'Sn2 H20 C12 O12'
_cell_volume   443.18519723
_cell_formula_units_Z   2
loop_
 _symmetry_equiv_pos_site_id
 _symmetry_equiv_pos_as_xyz
  1  'x, y, z'
loop_
 _atom_site_type_symbol
 _atom_site_label
 _atom_site_symmetry_multiplicity
 _atom_site_fract_x
 _atom_site_fract_y
 _atom_site_fract_z
 _atom_site_occupancy
  Sn  Sn0  1  0.50001000  0.49999000  0.50000000  1.0
  Sn  Sn1  1  0.00000000  0.00001000  0.00000000  1.0
  H  H2  1  0.62387000  0.39412000  0.27092000  1.0
  H  H3  1  0.87615000  0.10588000  0.77092000  1.0
  H  H4  1  0.37614000  0.60589000  0.72908000  1.0
  H  H5  1  0.12387000  0.89410000  0.22908000  1.0
  H  H6  1  0.86545000  0.40626000  0.38414000  1.0
  H  H7  1  0.63457000  0.09373000  0.88413000  1.0
  H  H8  1  0.13457000  0.59374000  0.61585000  1.0
  H  H9  1  0.36543000  0.90626000  0.11586000  1.0
  H  H10  1  0.82758000  0.60687000  0.31100000  1.0
  H  H11  1  0.67244000  0.89312000  0.81101000  1.0
  H  H12  1  0.17243000  0.39313000  0.68899000  1.0
  H  H13  1  0.32757000  0.10686000  0.18900000  1.0
  H  H14  1  0.52828000  0.20202000  0.64966000  1.0
  H  H15  1  0.97172000  0.29799000  0.14967000  1.0
  H  H16  1  0.47172000  0.79799000  0.35033000  1.0
  H  H17  1  0.02828000  0.70201000  0.85033000  1.0
  H  H18  1  0.70884000  0.37936000  0.71590000  1.0
  H  H19  1  0.79116000  0.12065000  0.21590000  1.0
  H  H20  1  0.29116000  0.62064000  0.28410000  1.0
  H  H21  1  0.20884000  0.87936000  0.78410000  1.0
  C  C22  1  0.86376000  0.99271000  0.43128000  1.0
  C  C23  1  0.63622000  0.50731000  0.93128000  1.0
  C  C24  1  0.13623000  0.00733000  0.56873000  1.0
  C  C25  1  0.36375000  0.49269000  0.06872000  1.0
  C  C26  1  0.90519000  0.87670000  0.53703000  1.0
  C  C27  1  0.59479000  0.62332000  0.03703000  1.0
  C  C28  1  0.09480000  0.12333000  0.46297000  1.0
  C  C29  1  0.40519000  0.37668000  0.96297000  1.0
  C  C30  1  0.73455000  0.47351000  0.34748000  1.0
  C  C31  1  0.76547000  0.02649000  0.84748000  1.0
  C  C32  1  0.26546000  0.52649000  0.65252000  1.0
  C  C33  1  0.23454000  0.97350000  0.15252000  1.0
  O  O34  1  0.65558000  0.31732000  0.63117000  1.0
  O  O35  1  0.84443000  0.18269000  0.13117000  1.0
  O  O36  1  0.34443000  0.68268000  0.36883000  1.0
  O  O37  1  0.15558000  0.81731000  0.86883000  1.0
  O  O38  1  0.79533000  0.72694000  0.58549000  1.0
  O  O39  1  0.70467000  0.77306000  0.08549000  1.0
  O  O40  1  0.20468000  0.27308000  0.41451000  1.0
  O  O41  1  0.29531000  0.22693000  0.91451000  1.0
  O  O42  1  0.70127000  0.98541000  0.34769000  1.0
  O  O43  1  0.79871000  0.51458000  0.84769000  1.0
  O  O44  1  0.29872000  0.01461000  0.65231000  1.0
  O  O45  1  0.20127000  0.48541000  0.15231000  1.0
