# generated using pymatgen
data_CuH12C13N6ClOF2
_symmetry_space_group_name_H-M   'P 1'
_cell_length_a   7.50322000
_cell_length_b   14.23780000
_cell_length_c   14.47300000
_cell_angle_alpha   104.35300000
_cell_angle_beta   90.00000000
_cell_angle_gamma   89.99990000
_symmetry_Int_Tables_number   1
_chemical_formula_structural   CuH12C13N6ClOF2
_chemical_formula_sum   'Cu4 H48 C52 N24 Cl4 O4 F8'
_cell_volume   1497.88116530
_cell_formula_units_Z   4
loop_
 _symmetry_equiv_pos_site_id
 _symmetry_equiv_pos_as_xyz
  1  'x, y, z'
loop_
 _atom_site_type_symbol
 _atom_site_label
 _atom_site_symmetry_multiplicity
 _atom_site_fract_x
 _atom_site_fract_y
 _atom_site_fract_z
 _atom_site_occupancy
  Cu  Cu0  1  0.16868000  0.99749000  0.88858000  1.0
  Cu  Cu1  1  0.66868000  0.50251000  0.11142000  1.0
  Cu  Cu2  1  0.83132000  0.00251000  0.11142000  1.0
  Cu  Cu3  1  0.33132000  0.49749000  0.88858000  1.0
  H  H4  1  0.12177000  0.82779000  0.17749000  1.0
  H  H5  1  0.62177000  0.67221000  0.82251000  1.0
  H  H6  1  0.87823000  0.17221000  0.82251000  1.0
  H  H7  1  0.37824000  0.32779000  0.17749000  1.0
  H  H8  1  0.27957000  0.14446000  0.07972000  1.0
  H  H9  1  0.77957000  0.35554000  0.92028000  1.0
  H  H10  1  0.72043000  0.85554000  0.92028000  1.0
  H  H11  1  0.22043000  0.64446000  0.07972000  1.0
  H  H12  1  0.33159000  0.84031000  0.01159000  1.0
  H  H13  1  0.83159000  0.65969000  0.98841000  1.0
  H  H14  1  0.66841000  0.15969000  0.98841000  1.0
  H  H15  1  0.16841000  0.34031000  0.01159000  1.0
  H  H16  1  0.92381000  0.67530000  0.23297000  1.0
  H  H17  1  0.42381000  0.82470000  0.76703000  1.0
  H  H18  1  0.07618000  0.32470000  0.76703000  1.0
  H  H19  1  0.57619000  0.17530000  0.23297000  1.0
  H  H20  1  0.36783000  0.63309000  0.23589000  1.0
  H  H21  1  0.86783000  0.86691000  0.76411000  1.0
  H  H22  1  0.63217000  0.36691000  0.76411000  1.0
  H  H23  1  0.13217000  0.13309000  0.23589000  1.0
  H  H24  1  0.56659000  0.94814000  0.24531000  1.0
  H  H25  1  0.06659000  0.55186000  0.75469000  1.0
  H  H26  1  0.43341000  0.05186000  0.75469000  1.0
  H  H27  1  0.93342000  0.44814000  0.24531000  1.0
  H  H28  1  0.52349000  0.83539000  0.16353000  1.0
  H  H29  1  0.02349000  0.66462000  0.83647000  1.0
  H  H30  1  0.47651000  0.16462000  0.83647000  1.0
  H  H31  1  0.97651000  0.33538000  0.16353000  1.0
  H  H32  1  0.49050000  0.88198000  0.39690000  1.0
  H  H33  1  0.99050000  0.61802000  0.60310000  1.0
  H  H34  1  0.50950000  0.11802000  0.60310000  1.0
  H  H35  1  0.00950000  0.38198000  0.39690000  1.0
  H  H36  1  0.31050000  0.79733000  0.38200000  1.0
  H  H37  1  0.81050000  0.70267000  0.61800000  1.0
  H  H38  1  0.68950000  0.20267000  0.61800000  1.0
  H  H39  1  0.18950000  0.29732000  0.38200000  1.0
  H  H40  1  0.27657000  0.17931000  0.49633000  1.0
  H  H41  1  0.77657000  0.32069000  0.50367000  1.0
  H  H42  1  0.72343000  0.82069000  0.50367000  1.0
  H  H43  1  0.22343000  0.67931000  0.49633000  1.0
  H  H44  1  0.78613000  0.03022000  0.39835000  1.0
  H  H45  1  0.28613000  0.46978000  0.60164000  1.0
  H  H46  1  0.21387000  0.96978000  0.60165000  1.0
  H  H47  1  0.71387000  0.53022000  0.39836000  1.0
  H  H48  1  0.95741000  0.89591000  0.29444000  1.0
  H  H49  1  0.45741000  0.60409000  0.70556000  1.0
  H  H50  1  0.04259000  0.10409000  0.70556000  1.0
  H  H51  1  0.54259000  0.39591000  0.29444000  1.0
  C  C52  1  0.30844000  0.07128000  0.08506000  1.0
  C  C53  1  0.80844000  0.42872000  0.91494000  1.0
  C  C54  1  0.69156000  0.92872000  0.91494000  1.0
  C  C55  1  0.19156000  0.57128000  0.08506000  1.0
  C  C56  1  0.33184000  0.91699000  0.04801000  1.0
  C  C57  1  0.83183000  0.58301000  0.95199000  1.0
  C  C58  1  0.66817000  0.08301000  0.95199000  1.0
  C  C59  1  0.16817000  0.41699000  0.04801000  1.0
  C  C60  1  0.78267000  0.68779000  0.24716000  1.0
  C  C61  1  0.28267000  0.81221000  0.75284000  1.0
  C  C62  1  0.21732000  0.31221000  0.75284000  1.0
  C  C63  1  0.71733000  0.18779000  0.24716000  1.0
  C  C64  1  0.50096000  0.66334000  0.24637000  1.0
  C  C65  1  0.00096000  0.83666000  0.75363000  1.0
  C  C66  1  0.49903000  0.33666000  0.75363000  1.0
  C  C67  1  0.99904000  0.16334000  0.24637000  1.0
  C  C68  1  0.46139000  0.90213000  0.20534000  1.0
  C  C69  1  0.96139000  0.59787000  0.79466000  1.0
  C  C70  1  0.53861000  0.09787000  0.79466000  1.0
  C  C71  1  0.03861000  0.40213000  0.20534000  1.0
  C  C72  1  0.31967000  0.87493000  0.27231000  1.0
  C  C73  1  0.81967000  0.62507000  0.72769000  1.0
  C  C74  1  0.68033000  0.12507000  0.72769000  1.0
  C  C75  1  0.18033000  0.37493000  0.27231000  1.0
  C  C76  1  0.41442000  0.82795000  0.34499000  1.0
  C  C77  1  0.91442000  0.67205000  0.65501000  1.0
  C  C78  1  0.58558000  0.17205000  0.65501000  1.0
  C  C79  1  0.08558000  0.32795000  0.34499000  1.0
  C  C80  1  0.21512000  0.96107000  0.33201000  1.0
  C  C81  1  0.71512000  0.53893000  0.66799000  1.0
  C  C82  1  0.78487000  0.03893000  0.66799000  1.0
  C  C83  1  0.28488000  0.46107000  0.33201000  1.0
  C  C84  1  0.29797000  0.04223000  0.39088000  1.0
  C  C85  1  0.79797000  0.45777000  0.60912000  1.0
  C  C86  1  0.70203000  0.95777000  0.60912000  1.0
  C  C87  1  0.20203000  0.54223000  0.39088000  1.0
  C  C88  1  0.20698000  0.11813000  0.45079000  1.0
  C  C89  1  0.70698000  0.38187000  0.54921000  1.0
  C  C90  1  0.79302000  0.88187000  0.54921000  1.0
  C  C91  1  0.29302000  0.61813000  0.45079000  1.0
  C  C92  1  0.02250000  0.11123000  0.45110000  1.0
  C  C93  1  0.52250000  0.38877000  0.54890000  1.0
  C  C94  1  0.97750000  0.88877000  0.54890000  1.0
  C  C95  1  0.47750000  0.61123000  0.45110000  1.0
  C  C96  1  0.93069000  0.03303000  0.39566000  1.0
  C  C97  1  0.43070000  0.46697000  0.60434000  1.0
  C  C98  1  0.06930000  0.96697000  0.60434000  1.0
  C  C99  1  0.56931000  0.53303000  0.39566000  1.0
  C  C100  1  0.02867000  0.95845000  0.33679000  1.0
  C  C101  1  0.52867000  0.54155000  0.66321000  1.0
  C  C102  1  0.97133000  0.04155000  0.66321000  1.0
  C  C103  1  0.47133000  0.45845000  0.33679000  1.0
  N  N104  1  0.38835000  0.95268000  0.13835000  1.0
  N  N105  1  0.88835000  0.54732000  0.86165000  1.0
  N  N106  1  0.61165000  0.04732000  0.86165000  1.0
  N  N107  1  0.11165000  0.45268000  0.13835000  1.0
  N  N108  1  0.37397000  0.05135000  0.16316000  1.0
  N  N109  1  0.87397000  0.44865000  0.83684000  1.0
  N  N110  1  0.62603000  0.94865000  0.83685000  1.0
  N  N111  1  0.12603000  0.55135000  0.16316000  1.0
  N  N112  1  0.27995000  0.99092000  0.01237000  1.0
  N  N113  1  0.77995000  0.50908000  0.98763000  1.0
  N  N114  1  0.72006000  0.00908000  0.98763000  1.0
  N  N115  1  0.22005000  0.49092000  0.01237000  1.0
  N  N116  1  0.53833000  0.75219000  0.30078000  1.0
  N  N117  1  0.03833000  0.74781000  0.69922000  1.0
  N  N118  1  0.46167000  0.24781000  0.69922000  1.0
  N  N119  1  0.96167000  0.25219000  0.30078000  1.0
  N  N120  1  0.71759000  0.76906000  0.30241000  1.0
  N  N121  1  0.21759000  0.73094000  0.69758000  1.0
  N  N122  1  0.28241000  0.23094000  0.69758000  1.0
  N  N123  1  0.78241000  0.26906000  0.30242000  1.0
  N  N124  1  0.65332000  0.62024000  0.21042000  1.0
  N  N125  1  0.15332000  0.87976000  0.78957000  1.0
  N  N126  1  0.34667000  0.37976000  0.78958000  1.0
  N  N127  1  0.84667000  0.12024000  0.21042000  1.0
  Cl  Cl128  1  0.09006000  0.15333000  0.91094000  1.0
  Cl  Cl129  1  0.59006000  0.34667000  0.08906000  1.0
  Cl  Cl130  1  0.90994000  0.84667000  0.08906000  1.0
  Cl  Cl131  1  0.40994000  0.65333000  0.91094000  1.0
  O  O132  1  0.20616000  0.80188000  0.21853000  1.0
  O  O133  1  0.70616000  0.69812000  0.78147000  1.0
  O  O134  1  0.79384000  0.19812000  0.78147000  1.0
  O  O135  1  0.29384000  0.30188000  0.21853000  1.0
  F  F136  1  0.48103000  0.04830000  0.39294000  1.0
  F  F137  1  0.98103000  0.45170000  0.60706000  1.0
  F  F138  1  0.51897000  0.95170000  0.60706000  1.0
  F  F139  1  0.01897000  0.54830000  0.39294000  1.0
  F  F140  1  0.92961000  0.18575000  0.50909000  1.0
  F  F141  1  0.42961000  0.31425000  0.49091000  1.0
  F  F142  1  0.07039000  0.81425000  0.49091000  1.0
  F  F143  1  0.57039000  0.68575000  0.50909000  1.0
