# generated using pymatgen
data_CdH18C21N6O7
_symmetry_space_group_name_H-M   'P 1'
_cell_length_a   10.26790000
_cell_length_b   10.86730000
_cell_length_c   11.42310000
_cell_angle_alpha   78.12910000
_cell_angle_beta   85.80220000
_cell_angle_gamma   69.66330000
_symmetry_Int_Tables_number   1
_chemical_formula_structural   CdH18C21N6O7
_chemical_formula_sum   'Cd2 H36 C42 N12 O14'
_cell_volume   1169.62370597
_cell_formula_units_Z   2
loop_
 _symmetry_equiv_pos_site_id
 _symmetry_equiv_pos_as_xyz
  1  'x, y, z'
loop_
 _atom_site_type_symbol
 _atom_site_label
 _atom_site_symmetry_multiplicity
 _atom_site_fract_x
 _atom_site_fract_y
 _atom_site_fract_z
 _atom_site_occupancy
  Cd  Cd0  1  0.35828000  0.86067000  0.87504000  1.0
  Cd  Cd1  1  0.64172000  0.13933000  0.12496000  1.0
  H  H2  1  0.20015000  0.47500000  0.85034000  1.0
  H  H3  1  0.79985000  0.52501000  0.14966000  1.0
  H  H4  1  0.03127000  0.59365000  0.58884000  1.0
  H  H5  1  0.96873000  0.40635000  0.41116000  1.0
  H  H6  1  0.89063000  0.86320000  0.83939000  1.0
  H  H7  1  0.10937000  0.13680000  0.16061000  1.0
  H  H8  1  0.76583000  0.52617000  0.83303000  1.0
  H  H9  1  0.23417000  0.47383000  0.16696000  1.0
  H  H10  1  0.62524000  0.66173000  0.29824000  1.0
  H  H11  1  0.37476000  0.33827000  0.70176000  1.0
  H  H12  1  0.50522000  0.07657000  0.69724000  1.0
  H  H13  1  0.49478000  0.92343000  0.30276000  1.0
  H  H14  1  0.58866000  0.43384000  0.36561000  1.0
  H  H15  1  0.41134000  0.56616000  0.63439000  1.0
  H  H16  1  0.49555000  0.38693000  0.26799000  1.0
  H  H17  1  0.50445000  0.61307000  0.73201000  1.0
  H  H18  1  0.37163000  0.57295000  0.07664000  1.0
  H  H19  1  0.62837000  0.42704000  0.92336000  1.0
  H  H20  1  0.09764000  0.77495000  0.45604000  1.0
  H  H21  1  0.90237000  0.22505000  0.54396000  1.0
  H  H22  1  0.30757000  0.71755000  0.32872000  1.0
  H  H23  1  0.69243000  0.28245000  0.67128000  1.0
  H  H24  1  0.43088000  0.23731000  0.37746000  1.0
  H  H25  1  0.56912000  0.76269000  0.62254000  1.0
  H  H26  1  0.52299000  0.23864000  0.50251000  1.0
  H  H27  1  0.47701000  0.76136000  0.49749000  1.0
  H  H28  1  0.17647000  0.35737000  0.59479000  1.0
  H  H29  1  0.82353000  0.64263000  0.40521000  1.0
  H  H30  1  0.15294000  0.00458000  0.60793000  1.0
  H  H31  1  0.84705000  0.99542000  0.39207000  1.0
  H  H32  1  0.96653000  0.19114000  0.87574000  1.0
  H  H33  1  0.03347000  0.80886000  0.12426000  1.0
  H  H34  1  0.23135000  0.12073000  0.91160000  1.0
  H  H35  1  0.76865000  0.87927000  0.08840000  1.0
  H  H36  1  0.30789000  0.05214000  0.03600000  1.0
  H  H37  1  0.69211000  0.94786000  0.96400000  1.0
  C  C38  1  0.16922000  0.73308000  0.85105000  1.0
  C  C39  1  0.83078000  0.26691000  0.14895000  1.0
  C  C40  1  0.05701000  0.67540000  0.84394000  1.0
  C  C41  1  0.94299000  0.32460000  0.15606000  1.0
  C  C42  1  0.09169000  0.53912000  0.84462000  1.0
  C  C43  1  0.90831000  0.46088000  0.15538000  1.0
  C  C44  1  0.12466000  0.56925000  0.53399000  1.0
  C  C45  1  0.87534000  0.43075000  0.46602000  1.0
  C  C46  1  0.91713000  0.75721000  0.83900000  1.0
  C  C47  1  0.08287000  0.24279000  0.16100000  1.0
  C  C48  1  0.66127000  0.78955000  0.83321000  1.0
  C  C49  1  0.33873000  0.21045000  0.16679000  1.0
  C  C50  1  0.84780000  0.56697000  0.83650000  1.0
  C  C51  1  0.15220000  0.43303000  0.16350000  1.0
  C  C52  1  0.98727000  0.48461000  0.84028000  1.0
  C  C53  1  0.01273000  0.51539000  0.15972000  1.0
  C  C54  1  0.81208000  0.70355000  0.83577000  1.0
  C  C55  1  0.18792000  0.29645000  0.16423000  1.0
  C  C56  1  0.55801000  0.67215000  0.22541000  1.0
  C  C57  1  0.44200000  0.32785000  0.77459000  1.0
  C  C58  1  0.41524000  0.08058000  0.65002000  1.0
  C  C59  1  0.58475000  0.91942000  0.34997000  1.0
  C  C60  1  0.02906000  0.34020000  0.83987000  1.0
  C  C61  1  0.97094000  0.65980000  0.16014000  1.0
  C  C62  1  0.49287000  0.46798000  0.31267000  1.0
  C  C63  1  0.50714000  0.53202000  0.68733000  1.0
  C  C64  1  0.42867000  0.62356000  0.11333000  1.0
  C  C65  1  0.57133000  0.37644000  0.88667000  1.0
  C  C66  1  0.36455000  0.50439000  0.39090000  1.0
  C  C67  1  0.63545000  0.49562000  0.60910000  1.0
  C  C68  1  0.16196000  0.67053000  0.45973000  1.0
  C  C69  1  0.83804000  0.32947000  0.54028000  1.0
  C  C70  1  0.32707000  0.40182000  0.46676000  1.0
  C  C71  1  0.67293000  0.59818000  0.53324000  1.0
  C  C72  1  0.28099000  0.63768000  0.38863000  1.0
  C  C73  1  0.71901000  0.36232000  0.61137000  1.0
  C  C74  1  0.41853000  0.25770000  0.46897000  1.0
  C  C75  1  0.58146000  0.74229000  0.53102000  1.0
  C  C76  1  0.20713000  0.43577000  0.53695000  1.0
  C  C77  1  0.79287000  0.56423000  0.46305000  1.0
  C  C78  1  0.23631000  0.04550000  0.60219000  1.0
  C  C79  1  0.76369000  0.95450000  0.39781000  1.0
  N  N80  1  0.49719000  0.57990000  0.21949000  1.0
  N  N81  1  0.50281000  0.42010000  0.78051000  1.0
  N  N82  1  0.44617000  0.73667000  0.05939000  1.0
  N  N83  1  0.55383000  0.26333000  0.94061000  1.0
  N  N84  1  0.25170000  0.13804000  0.51146000  1.0
  N  N85  1  0.74830000  0.86196000  0.48854000  1.0
  N  N86  1  0.33485000  0.00697000  0.68895000  1.0
  N  N87  1  0.66515000  0.99303000  0.31105000  1.0
  N  N88  1  0.36634000  0.15946000  0.54395000  1.0
  N  N89  1  0.63365000  0.84054000  0.45605000  1.0
  N  N90  1  0.52883000  0.76815000  0.12961000  1.0
  N  N91  1  0.47117000  0.23184000  0.87039000  1.0
  O  O92  1  0.29196000  0.65326000  0.87579000  1.0
  O  O93  1  0.70804000  0.34674000  0.12421000  1.0
  O  O94  1  0.13537000  0.86051000  0.83245000  1.0
  O  O95  1  0.86463000  0.13949000  0.16756000  1.0
  O  O96  1  0.62440000  0.90595000  0.85597000  1.0
  O  O97  1  0.37560000  0.09405000  0.14403000  1.0
  O  O98  1  0.57522000  0.73684000  0.80811000  1.0
  O  O99  1  0.42478000  0.26316000  0.19189000  1.0
  O  O100  1  0.14652000  0.27205000  0.81213000  1.0
  O  O101  1  0.85348000  0.72796000  0.18787000  1.0
  O  O102  1  0.92729000  0.28788000  0.87362000  1.0
  O  O103  1  0.07271000  0.71212000  0.12638000  1.0
  O  O104  1  0.25602000  0.03730000  0.97209000  1.0
  O  O105  1  0.74398000  0.96270000  0.02791000  1.0
