# generated using pymatgen
data_SnH12C5O2
_symmetry_space_group_name_H-M   'P 1'
_cell_length_a   7.84721000
_cell_length_b   9.36481000
_cell_length_c   10.66330000
_cell_angle_alpha   89.99940000
_cell_angle_beta   90.00000000
_cell_angle_gamma   89.99880000
_symmetry_Int_Tables_number   1
_chemical_formula_structural   SnH12C5O2
_chemical_formula_sum   'Sn4 H48 C20 O8'
_cell_volume   783.62065202
_cell_formula_units_Z   4
loop_
 _symmetry_equiv_pos_site_id
 _symmetry_equiv_pos_as_xyz
  1  'x, y, z'
loop_
 _atom_site_type_symbol
 _atom_site_label
 _atom_site_symmetry_multiplicity
 _atom_site_fract_x
 _atom_site_fract_y
 _atom_site_fract_z
 _atom_site_occupancy
  Sn  Sn0  1  0.74996000  0.17661000  0.90481000  1.0
  Sn  Sn1  1  0.75001000  0.32336000  0.40479000  1.0
  Sn  Sn2  1  0.25003000  0.82342000  0.09515000  1.0
  Sn  Sn3  1  0.24999000  0.67662000  0.59520000  1.0
  H  H4  1  0.75003000  0.84462000  0.24584000  1.0
  H  H5  1  0.74996000  0.65539000  0.74582000  1.0
  H  H6  1  0.24996000  0.15540000  0.75416000  1.0
  H  H7  1  0.25002000  0.34461000  0.25417000  1.0
  H  H8  1  0.86203000  0.96598000  0.34566000  1.0
  H  H9  1  0.63797000  0.53402000  0.84565000  1.0
  H  H10  1  0.36198000  0.03403000  0.65435000  1.0
  H  H11  1  0.13801000  0.46600000  0.15435000  1.0
  H  H12  1  0.13798000  0.03400000  0.65436000  1.0
  H  H13  1  0.36201000  0.46600000  0.15435000  1.0
  H  H14  1  0.63803000  0.96596000  0.34567000  1.0
  H  H15  1  0.86196000  0.53403000  0.84566000  1.0
  H  H16  1  0.75002000  0.01844000  0.69077000  1.0
  H  H17  1  0.75000000  0.48156000  0.19078000  1.0
  H  H18  1  0.24998000  0.98153000  0.30923000  1.0
  H  H19  1  0.25001000  0.51844000  0.80923000  1.0
  H  H20  1  0.86334000  0.92428000  0.81158000  1.0
  H  H21  1  0.63666000  0.57572000  0.31158000  1.0
  H  H22  1  0.36333000  0.07575000  0.18846000  1.0
  H  H23  1  0.13668000  0.42426000  0.68846000  1.0
  H  H24  1  0.13666000  0.07573000  0.18844000  1.0
  H  H25  1  0.36332000  0.42427000  0.68846000  1.0
  H  H26  1  0.63668000  0.92426000  0.81155000  1.0
  H  H27  1  0.86332000  0.57573000  0.31158000  1.0
  H  H28  1  0.03539000  0.34257000  0.88832000  1.0
  H  H29  1  0.46464000  0.15740000  0.38831000  1.0
  H  H30  1  0.53535000  0.65740000  0.11167000  1.0
  H  H31  1  0.96462000  0.84258000  0.61168000  1.0
  H  H32  1  0.96466000  0.65744000  0.11170000  1.0
  H  H33  1  0.53533000  0.84260000  0.61170000  1.0
  H  H34  1  0.46461000  0.34261000  0.88831000  1.0
  H  H35  1  0.03540000  0.15740000  0.38832000  1.0
  H  H36  1  0.08017000  0.18510000  0.97678000  1.0
  H  H37  1  0.41984000  0.31485000  0.47678000  1.0
  H  H38  1  0.58023000  0.81484000  0.02320000  1.0
  H  H39  1  0.91978000  0.68513000  0.52321000  1.0
  H  H40  1  0.91981000  0.81489000  0.02322000  1.0
  H  H41  1  0.58019000  0.68516000  0.52321000  1.0
  H  H42  1  0.41979000  0.18517000  0.97680000  1.0
  H  H43  1  0.08021000  0.31484000  0.47679000  1.0
  H  H44  1  0.96461000  0.32875000  0.04823000  1.0
  H  H45  1  0.53542000  0.17120000  0.54821000  1.0
  H  H46  1  0.46460000  0.67124000  0.95177000  1.0
  H  H47  1  0.03538000  0.82878000  0.45177000  1.0
  H  H48  1  0.03540000  0.67124000  0.95177000  1.0
  H  H49  1  0.46457000  0.82881000  0.45178000  1.0
  H  H50  1  0.53541000  0.32880000  0.04820000  1.0
  H  H51  1  0.96462000  0.17120000  0.54821000  1.0
  C  C52  1  0.75000000  0.06551000  0.18434000  1.0
  C  C53  1  0.74999000  0.43446000  0.68435000  1.0
  C  C54  1  0.25000000  0.93448000  0.81567000  1.0
  C  C55  1  0.25001000  0.56555000  0.31565000  1.0
  C  C56  1  0.75002000  0.95247000  0.28517000  1.0
  C  C57  1  0.74997000  0.54753000  0.78516000  1.0
  C  C58  1  0.24998000  0.04753000  0.71485000  1.0
  C  C59  1  0.25001000  0.45247000  0.21483000  1.0
  C  C60  1  0.75000000  0.98816000  0.78994000  1.0
  C  C61  1  0.75000000  0.51183000  0.28995000  1.0
  C  C62  1  0.25000000  0.01184000  0.21006000  1.0
  C  C63  1  0.25000000  0.48817000  0.71005000  1.0
  C  C64  1  0.98716000  0.27047000  0.96082000  1.0
  C  C65  1  0.51286000  0.22949000  0.46081000  1.0
  C  C66  1  0.48719000  0.72951000  0.03917000  1.0
  C  C67  1  0.01281000  0.77048000  0.53916000  1.0
  C  C68  1  0.01284000  0.72953000  0.03918000  1.0
  C  C69  1  0.48715000  0.77051000  0.53918000  1.0
  C  C70  1  0.51281000  0.27051000  0.96082000  1.0
  C  C71  1  0.98718000  0.22950000  0.46082000  1.0
  O  O72  1  0.74998000  0.02300000  0.07013000  1.0
  O  O73  1  0.75000000  0.47698000  0.57015000  1.0
  O  O74  1  0.25003000  0.97704000  0.92984000  1.0
  O  O75  1  0.25001000  0.52298000  0.42984000  1.0
  O  O76  1  0.75000000  0.30277000  0.71368000  1.0
  O  O77  1  0.75001000  0.19720000  0.21369000  1.0
  O  O78  1  0.25001000  0.69723000  0.28633000  1.0
  O  O79  1  0.24999000  0.80279000  0.78635000  1.0
