# generated using pymatgen
data_UH22C14(N2O5)2
_symmetry_space_group_name_H-M   'P 1'
_cell_length_a   5.65666000
_cell_length_b   7.91988000
_cell_length_c   11.13530000
_cell_angle_alpha   73.81570000
_cell_angle_beta   85.63410000
_cell_angle_gamma   76.02840000
_symmetry_Int_Tables_number   1
_chemical_formula_structural   UH22C14(N2O5)2
_chemical_formula_sum   'U1 H22 C14 N4 O10'
_cell_volume   464.89777947
_cell_formula_units_Z   1
loop_
 _symmetry_equiv_pos_site_id
 _symmetry_equiv_pos_as_xyz
  1  'x, y, z'
loop_
 _atom_site_type_symbol
 _atom_site_label
 _atom_site_symmetry_multiplicity
 _atom_site_fract_x
 _atom_site_fract_y
 _atom_site_fract_z
 _atom_site_occupancy
  U  U0  1  0.99999000  0.00000000  0.00000000  1.0
  H  H1  1  0.81301000  0.54095000  0.63920000  1.0
  H  H2  1  0.18700000  0.45904000  0.36081000  1.0
  H  H3  1  0.57132000  0.73631000  0.60362000  1.0
  H  H4  1  0.42868000  0.26368000  0.39638000  1.0
  H  H5  1  0.37190000  0.63378000  0.79483000  1.0
  H  H6  1  0.62811000  0.36624000  0.20518000  1.0
  H  H7  1  0.58532000  0.42504000  0.81677000  1.0
  H  H8  1  0.41466000  0.57497000  0.18323000  1.0
  H  H9  1  0.55755000  0.69121000  0.95834000  1.0
  H  H10  1  0.44250000  0.30875000  0.04168000  1.0
  H  H11  1  0.78912000  0.49337000  0.97082000  1.0
  H  H12  1  0.21095000  0.50661000  0.02917000  1.0
  H  H13  1  0.12849000  0.88503000  0.67277000  1.0
  H  H14  1  0.87149000  0.11499000  0.32722000  1.0
  H  H15  1  0.74029000  0.10898000  0.66630000  1.0
  H  H16  1  0.25969000  0.89103000  0.33370000  1.0
  H  H17  1  0.63903000  0.04996000  0.54102000  1.0
  H  H18  1  0.36094000  0.95004000  0.45898000  1.0
  H  H19  1  0.80046000  0.32889000  0.46084000  1.0
  H  H20  1  0.19953000  0.67112000  0.53916000  1.0
  H  H21  1  0.07952000  0.21489000  0.53806000  1.0
  H  H22  1  0.92046000  0.78511000  0.46194000  1.0
  C  C23  1  0.85766000  0.72673000  0.83582000  1.0
  C  C24  1  0.14236000  0.27327000  0.16418000  1.0
  C  C25  1  0.69727000  0.64705000  0.67746000  1.0
  C  C26  1  0.30273000  0.35295000  0.32254000  1.0
  C  C27  1  0.56662000  0.57022000  0.79994000  1.0
  C  C28  1  0.43338000  0.42979000  0.20007000  1.0
  C  C29  1  0.68666000  0.61355000  0.90368000  1.0
  C  C30  1  0.31338000  0.38643000  0.09633000  1.0
  C  C31  1  0.97568000  0.87362000  0.62246000  1.0
  C  C32  1  0.02430000  0.12638000  0.37753000  1.0
  C  C33  1  0.80279000  0.06129000  0.58316000  1.0
  C  C34  1  0.19718000  0.93872000  0.41684000  1.0
  C  C35  1  0.92755000  0.19618000  0.49077000  1.0
  C  C36  1  0.07243000  0.80382000  0.50922000  1.0
  N  N37  1  0.21937000  0.22785000  0.77740000  1.0
  N  N38  1  0.78064000  0.77215000  0.22260000  1.0
  N  N39  1  0.85208000  0.74928000  0.71292000  1.0
  N  N40  1  0.14791000  0.25073000  0.28708000  1.0
  O  O41  1  0.70596000  0.11744000  0.93053000  1.0
  O  O42  1  0.29403000  0.88257000  0.06945000  1.0
  O  O43  1  0.22753000  0.05946000  0.79169000  1.0
  O  O44  1  0.77243000  0.94054000  0.20829000  1.0
  O  O45  1  0.12449000  0.28905000  0.86963000  1.0
  O  O46  1  0.87552000  0.71094000  0.13039000  1.0
  O  O47  1  0.29378000  0.32292000  0.68161000  1.0
  O  O48  1  0.70626000  0.67708000  0.31840000  1.0
  O  O49  1  0.99492000  0.79306000  0.88602000  1.0
  O  O50  1  0.00510000  0.20695000  0.11397000  1.0
