# generated using pymatgen
data_AlH9C15ClO5
_symmetry_space_group_name_H-M   'P 1'
_cell_length_a   6.62449000
_cell_length_b   10.99045883
_cell_length_c   17.59710000
_cell_angle_alpha   92.52474344
_cell_angle_beta   97.80770000
_cell_angle_gamma   106.00413432
_symmetry_Int_Tables_number   1
_chemical_formula_structural   AlH9C15ClO5
_chemical_formula_sum   'Al2 H18 C30 Cl2 O10'
_cell_volume   1215.62814642
_cell_formula_units_Z   2
loop_
 _symmetry_equiv_pos_site_id
 _symmetry_equiv_pos_as_xyz
  1  'x, y, z'
loop_
 _atom_site_type_symbol
 _atom_site_label
 _atom_site_symmetry_multiplicity
 _atom_site_fract_x
 _atom_site_fract_y
 _atom_site_fract_z
 _atom_site_occupancy
  Al  Al0  1  0.01283000  0.49890000  0.50200000  1.0
  Al  Al1  1  0.51270000  0.49895000  0.50029000  1.0
  H  H2  1  0.35328000  0.65444000  0.54302000  1.0
  H  H3  1  0.67366000  0.34177000  0.46502000  1.0
  H  H4  1  0.82630000  0.41437000  0.27471000  1.0
  H  H5  1  0.74040000  0.41595000  0.13171000  1.0
  H  H6  1  0.49178000  0.56620000  0.26223000  1.0
  H  H7  1  0.51542000  0.42366000  0.73342000  1.0
  H  H8  1  0.18580000  0.58262000  0.73297000  1.0
  H  H9  1  0.25249000  0.58090000  0.87646000  1.0
  H  H10  1  0.53854000  0.76530000  0.39490000  1.0
  H  H11  1  0.80603000  0.23417000  0.40025000  1.0
  H  H12  1  0.36563000  0.11363000  0.55145000  1.0
  H  H13  1  0.24111000  0.87655000  0.54285000  1.0
  H  H14  1  0.13242000  0.89591000  0.32833000  1.0
  H  H15  1  0.22751000  0.76184000  0.31359000  1.0
  H  H16  1  0.26255000  0.88262000  0.24849000  1.0
  H  H17  1  0.39942000  0.11703000  0.25174000  1.0
  H  H18  1  0.49909000  0.24640000  0.32419000  1.0
  H  H19  1  0.26188000  0.12537000  0.33013000  1.0
  C  C20  1  0.86846000  0.72419000  0.48636000  1.0
  C  C21  1  0.80880000  0.50759000  0.63985000  1.0
  C  C22  1  0.14969000  0.27187000  0.50203000  1.0
  C  C23  1  0.21155000  0.48767000  0.36163000  1.0
  C  C24  1  0.16357000  0.48907000  0.27652000  1.0
  C  C25  1  0.95149000  0.44747000  0.23993000  1.0
  C  C26  1  0.90407000  0.44880000  0.16092000  1.0
  C  C27  1  0.06653000  0.49466000  0.11614000  1.0
  C  C28  1  0.27949000  0.53811000  0.15436000  1.0
  C  C29  1  0.32775000  0.53372000  0.23342000  1.0
  C  C30  1  0.01529000  0.49649000  0.03595000  1.0
  C  C31  1  0.96623000  0.49607000  0.96652000  1.0
  C  C32  1  0.92299000  0.49828000  0.88604000  1.0
  C  C33  1  0.71432000  0.45277000  0.84437000  1.0
  C  C34  1  0.67642000  0.45738000  0.76501000  1.0
  C  C35  1  0.84719000  0.50435000  0.72515000  1.0
  C  C36  1  0.05530000  0.54780000  0.76523000  1.0
  C  C37  1  0.09210000  0.54631000  0.84450000  1.0
  C  C38  1  0.93395000  0.86417000  0.48076000  1.0
  C  C39  1  0.79701000  0.93054000  0.44253000  1.0
  C  C40  1  0.13772000  0.92967000  0.51634000  1.0
  C  C41  1  0.59629000  0.86852000  0.39784000  1.0
  C  C42  1  0.47304000  0.93432000  0.35710000  1.0
  C  C43  1  0.07528000  0.13078000  0.48893000  1.0
  C  C44  1  0.20821000  0.06273000  0.52097000  1.0
  C  C45  1  0.87149000  0.06677000  0.44571000  1.0
  C  C46  1  0.74421000  0.13182000  0.40218000  1.0
  C  C47  1  0.54956000  0.06976000  0.35904000  1.0
  C  C48  1  0.26336000  0.86461000  0.30960000  1.0
  C  C49  1  0.42177000  0.14381000  0.31402000  1.0
  Cl  Cl50  1  0.48202000  0.59764000  0.10191000  1.0
  Cl  Cl51  1  0.50436000  0.39030000  0.89299000  1.0
  O  O52  1  0.00894000  0.66676000  0.47975000  1.0
  O  O53  1  0.61773000  0.48940000  0.60736000  1.0
  O  O54  1  0.34208000  0.32596000  0.49493000  1.0
  O  O55  1  0.05175000  0.46445000  0.39728000  1.0
  O  O56  1  0.01780000  0.32917000  0.52001000  1.0
  O  O57  1  0.40496000  0.50860000  0.39238000  1.0
  O  O58  1  0.68171000  0.67165000  0.50038000  1.0
  O  O59  1  0.97235000  0.52977000  0.60607000  1.0
  O  O60  1  0.30444000  0.56286000  0.53281000  1.0
  O  O61  1  0.72140000  0.43407000  0.46909000  1.0
