# generated using pymatgen
data_CoH20C16(NO3)2
_symmetry_space_group_name_H-M   'P 1'
_cell_length_a   8.65497000
_cell_length_b   9.39039000
_cell_length_c   9.88512000
_cell_angle_alpha   103.15300000
_cell_angle_beta   90.50730000
_cell_angle_gamma   90.47070000
_symmetry_Int_Tables_number   1
_chemical_formula_structural   CoH20C16(NO3)2
_chemical_formula_sum   'Co2 H40 C32 N4 O12'
_cell_volume   782.24844578
_cell_formula_units_Z   2
loop_
 _symmetry_equiv_pos_site_id
 _symmetry_equiv_pos_as_xyz
  1  'x, y, z'
loop_
 _atom_site_type_symbol
 _atom_site_label
 _atom_site_symmetry_multiplicity
 _atom_site_fract_x
 _atom_site_fract_y
 _atom_site_fract_z
 _atom_site_occupancy
  Co  Co0  1  0.00000000  0.00000000  0.00000000  1.0
  Co  Co1  1  0.50000000  0.50000000  0.50000000  1.0
  H  H2  1  0.88946000  0.82765000  0.79072000  1.0
  H  H3  1  0.38273000  0.66724000  0.70014000  1.0
  H  H4  1  0.11054000  0.17235000  0.20928000  1.0
  H  H5  1  0.61726000  0.33276000  0.29986000  1.0
  H  H6  1  0.06158000  0.82667000  0.72750000  1.0
  H  H7  1  0.56080000  0.67136000  0.76172000  1.0
  H  H8  1  0.93842000  0.17333000  0.27251000  1.0
  H  H9  1  0.43919000  0.32864000  0.23828000  1.0
  H  H10  1  0.71568000  0.05997000  0.37239000  1.0
  H  H11  1  0.20777000  0.45689000  0.12483000  1.0
  H  H12  1  0.28432000  0.94003000  0.62761000  1.0
  H  H13  1  0.79223000  0.54311000  0.87517000  1.0
  H  H14  1  0.71814000  0.74163000  0.62514000  1.0
  H  H15  1  0.21549000  0.77942000  0.87574000  1.0
  H  H16  1  0.28186000  0.25837000  0.37486000  1.0
  H  H17  1  0.78451000  0.22058000  0.12426000  1.0
  H  H18  1  0.53993000  0.70600000  0.04047000  1.0
  H  H19  1  0.03519000  0.80066000  0.46137000  1.0
  H  H20  1  0.46007000  0.29400000  0.95953000  1.0
  H  H21  1  0.96481000  0.19934000  0.53862000  1.0
  H  H22  1  0.45762000  0.83726000  0.96404000  1.0
  H  H23  1  0.94764000  0.66403000  0.52780000  1.0
  H  H24  1  0.54238000  0.16274000  0.03596000  1.0
  H  H25  1  0.05236000  0.33597000  0.47220000  1.0
  H  H26  1  0.43810000  0.66535000  0.27468000  1.0
  H  H27  1  0.93467000  0.84926000  0.22048000  1.0
  H  H28  1  0.56190000  0.33465000  0.72532000  1.0
  H  H29  1  0.06533000  0.15074000  0.77952000  1.0
  H  H30  1  0.81542000  0.97644000  0.58358000  1.0
  H  H31  1  0.31005000  0.54493000  0.91780000  1.0
  H  H32  1  0.18458000  0.02356000  0.41642000  1.0
  H  H33  1  0.68995000  0.45507000  0.08220000  1.0
  H  H34  1  0.37454000  0.91248000  0.19012000  1.0
  H  H35  1  0.86494000  0.60150000  0.29911000  1.0
  H  H36  1  0.62546000  0.08752000  0.80988000  1.0
  H  H37  1  0.13506000  0.39850000  0.70089000  1.0
  H  H38  1  0.53347000  0.03092000  0.19018000  1.0
  H  H39  1  0.01900000  0.47995000  0.29886000  1.0
  H  H40  1  0.46654000  0.96908000  0.80983000  1.0
  H  H41  1  0.98100000  0.52005000  0.70114000  1.0
  C  C42  1  0.69992000  0.85049000  0.97864000  1.0
  C  C43  1  0.18927000  0.64684000  0.51616000  1.0
  C  C44  1  0.30008000  0.14951000  0.02136000  1.0
  C  C45  1  0.81073000  0.35316000  0.48384000  1.0
  C  C46  1  0.56975000  0.86892000  0.30603000  1.0
  C  C47  1  0.06354000  0.64644000  0.18970000  1.0
  C  C48  1  0.43025000  0.13108000  0.69398000  1.0
  C  C49  1  0.93646000  0.35356000  0.81030000  1.0
  C  C50  1  0.67737000  0.95680000  0.39450000  1.0
  C  C51  1  0.17112000  0.56046000  0.10327000  1.0
  C  C52  1  0.32263000  0.04320000  0.60550000  1.0
  C  C53  1  0.82888000  0.43954000  0.89673000  1.0
  C  C54  1  0.67838000  0.78072000  0.53569000  1.0
  C  C55  1  0.17540000  0.73894000  0.96382000  1.0
  C  C56  1  0.32162000  0.21928000  0.46431000  1.0
  C  C57  1  0.82460000  0.26106000  0.03618000  1.0
  C  C58  1  0.54540000  0.82321000  0.04080000  1.0
  C  C59  1  0.03668000  0.68211000  0.45469000  1.0
  C  C60  1  0.45460000  0.17679000  0.95920000  1.0
  C  C61  1  0.96332000  0.31789000  0.54531000  1.0
  C  C62  1  0.52275000  0.73813000  0.33881000  1.0
  C  C63  1  0.01819000  0.77762000  0.15765000  1.0
  C  C64  1  0.47725000  0.26188000  0.66119000  1.0
  C  C65  1  0.98181000  0.22238000  0.84235000  1.0
  C  C66  1  0.73172000  0.91235000  0.51110000  1.0
  C  C67  1  0.22703000  0.60776000  0.98912000  1.0
  C  C68  1  0.26829000  0.08764000  0.48890000  1.0
  C  C69  1  0.77297000  0.39224000  0.01088000  1.0
  C  C70  1  0.50131000  0.91620000  0.18304000  1.0
  C  C71  1  0.99136000  0.59569000  0.30894000  1.0
  C  C72  1  0.49869000  0.08381000  0.81696000  1.0
  C  C73  1  0.00864000  0.40431000  0.69106000  1.0
  N  N74  1  0.57582000  0.69436000  0.45121000  1.0
  N  N75  1  0.07207000  0.82340000  0.04639000  1.0
  N  N76  1  0.42418000  0.30564000  0.54879000  1.0
  N  N77  1  0.92794000  0.17659000  0.95361000  1.0
  O  O78  1  0.72820000  0.77009000  0.85933000  1.0
  O  O79  1  0.22215000  0.72234000  0.63828000  1.0
  O  O80  1  0.27180000  0.22991000  0.14067000  1.0
  O  O81  1  0.77785000  0.27766000  0.36172000  1.0
  O  O82  1  0.78850000  0.95165000  0.04723000  1.0
  O  O83  1  0.27233000  0.54512000  0.44764000  1.0
  O  O84  1  0.21150000  0.04835000  0.95277000  1.0
  O  O85  1  0.72767000  0.45488000  0.55236000  1.0
  O  O86  1  0.97623000  0.89036000  0.77090000  1.0
  O  O87  1  0.47520000  0.60739000  0.71468000  1.0
  O  O88  1  0.02377000  0.10964000  0.22910000  1.0
  O  O89  1  0.52480000  0.39261000  0.28532000  1.0
