# generated using pymatgen
data_CdH16C22(NO3)2
_symmetry_space_group_name_H-M   'P 1'
_cell_length_a   8.94918000
_cell_length_b   10.98690000
_cell_length_c   11.90390000
_cell_angle_alpha   64.51250000
_cell_angle_beta   75.34210000
_cell_angle_gamma   89.33190000
_symmetry_Int_Tables_number   1
_chemical_formula_structural   CdH16C22(NO3)2
_chemical_formula_sum   'Cd2 H32 C44 N4 O12'
_cell_volume   1015.78762288
_cell_formula_units_Z   2
loop_
 _symmetry_equiv_pos_site_id
 _symmetry_equiv_pos_as_xyz
  1  'x, y, z'
loop_
 _atom_site_type_symbol
 _atom_site_label
 _atom_site_symmetry_multiplicity
 _atom_site_fract_x
 _atom_site_fract_y
 _atom_site_fract_z
 _atom_site_occupancy
  Cd  Cd0  1  0.49622000  0.30694000  0.59330000  1.0
  Cd  Cd1  1  0.50378000  0.69307000  0.40670000  1.0
  H  H2  1  0.86225000  0.62905000  0.60134000  1.0
  H  H3  1  0.13775000  0.37095000  0.39866000  1.0
  H  H4  1  0.67383000  0.67889000  0.63962000  1.0
  H  H5  1  0.32618000  0.32112000  0.36038000  1.0
  H  H6  1  0.76793000  0.49665000  0.02291000  1.0
  H  H7  1  0.23208000  0.50335000  0.97709000  1.0
  H  H8  1  0.45440000  0.55140000  0.78697000  1.0
  H  H9  1  0.54561000  0.44860000  0.21303000  1.0
  H  H10  1  0.65350000  0.04116000  0.36421000  1.0
  H  H11  1  0.34649000  0.95884000  0.63580000  1.0
  H  H12  1  0.68158000  0.20638000  0.23388000  1.0
  H  H13  1  0.31842000  0.79361000  0.76612000  1.0
  H  H14  1  0.15188000  0.19207000  0.29723000  1.0
  H  H15  1  0.84812000  0.80793000  0.70277000  1.0
  H  H16  1  0.72061000  0.93807000  0.53115000  1.0
  H  H17  1  0.27938000  0.06193000  0.46886000  1.0
  H  H18  1  0.21782000  0.49447000  0.65259000  1.0
  H  H19  1  0.78218000  0.50554000  0.34741000  1.0
  H  H20  1  0.00011000  0.48451000  0.83619000  1.0
  H  H21  1  0.99988000  0.51549000  0.16381000  1.0
  H  H22  1  0.94491000  0.27542000  0.05075000  1.0
  H  H23  1  0.05509000  0.72458000  0.94925000  1.0
  H  H24  1  0.00425000  0.04226000  0.17912000  1.0
  H  H25  1  0.99575000  0.95773000  0.82088000  1.0
  H  H26  1  0.15782000  0.84793000  0.19023000  1.0
  H  H27  1  0.84218000  0.15207000  0.80977000  1.0
  H  H28  1  0.36652000  0.75146000  0.08379000  1.0
  H  H29  1  0.63348000  0.24854000  0.91621000  1.0
  H  H30  1  0.58530000  0.78586000  0.88858000  1.0
  H  H31  1  0.41470000  0.21415000  0.11141000  1.0
  H  H32  1  0.63652000  0.01162000  0.69226000  1.0
  H  H33  1  0.36348000  0.98838000  0.30774000  1.0
  C  C34  1  0.67592000  0.47966000  0.64718000  1.0
  C  C35  1  0.32408000  0.52034000  0.35282000  1.0
  C  C36  1  0.74406000  0.59333000  0.66666667  1.0
  C  C37  1  0.25594000  0.40667000  0.33333333  1.0
  C  C38  1  0.62792000  0.52696000  0.89233000  1.0
  C  C39  1  0.37209000  0.47304000  0.10767000  1.0
  C  C40  1  0.64990000  0.49722000  0.01344000  1.0
  C  C41  1  0.35010000  0.50278000  0.98656000  1.0
  C  C42  1  0.47626000  0.52951000  0.87934000  1.0
  C  C43  1  0.52374000  0.47049000  0.12066000  1.0
  C  C44  1  0.62610000  0.20293000  0.42086000  1.0
  C  C45  1  0.37389000  0.79707000  0.57914000  1.0
  C  C46  1  0.70585000  0.14592000  0.32732000  1.0
  C  C47  1  0.29415000  0.85407000  0.67268000  1.0
  C  C48  1  0.92953000  0.07559000  0.40285000  1.0
  C  C49  1  0.07047000  0.92441000  0.59715000  1.0
  C  C50  1  0.08666000  0.10675000  0.38633000  1.0
  C  C51  1  0.91334000  0.89325000  0.61368000  1.0
  C  C52  1  0.84227000  0.96777000  0.51702000  1.0
  C  C53  1  0.15773000  0.03222000  0.48298000  1.0
  C  C54  1  0.18910000  0.40436000  0.74551000  1.0
  C  C55  1  0.81090000  0.59564000  0.25449000  1.0
  C  C56  1  0.06806000  0.39888000  0.85002000  1.0
  C  C57  1  0.93193000  0.60112000  0.14998000  1.0
  C  C58  1  0.03662000  0.28356000  0.96677000  1.0
  C  C59  1  0.96338000  0.71644000  0.03323000  1.0
  C  C60  1  0.12432000  0.17294000  0.97861000  1.0
  C  C61  1  0.87568000  0.82707000  0.02139000  1.0
  C  C62  1  0.09525000  0.04891000  0.09550000  1.0
  C  C63  1  0.90474000  0.95109000  0.90450000  1.0
  C  C64  1  0.17920000  0.94264000  0.10158000  1.0
  C  C65  1  0.82080000  0.05737000  0.89842000  1.0
  C  C66  1  0.30071000  0.95344000  0.99192000  1.0
  C  C67  1  0.69929000  0.04656000  0.00808000  1.0
  C  C68  1  0.39159000  0.84645000  0.99514000  1.0
  C  C69  1  0.60841000  0.15355000  0.00486000  1.0
  C  C70  1  0.51219000  0.86594000  0.88806000  1.0
  C  C71  1  0.48781000  0.13406000  0.11194000  1.0
  C  C72  1  0.54087000  0.99170000  0.77788000  1.0
  C  C73  1  0.45913000  0.00830000  0.22212000  1.0
  C  C74  1  0.33579000  0.07615000  0.87549000  1.0
  C  C75  1  0.66421000  0.92385000  0.12452000  1.0
  C  C76  1  0.24415000  0.18740000  0.86777000  1.0
  C  C77  1  0.75585000  0.81260000  0.13223000  1.0
  N  N78  1  0.27466000  0.30221000  0.75460000  1.0
  N  N79  1  0.72534000  0.69779000  0.24540000  1.0
  N  N80  1  0.45427000  0.09246000  0.77154000  1.0
  N  N81  1  0.54573000  0.90754000  0.22846000  1.0
  O  O82  1  0.67623000  0.35750000  0.72135000  1.0
  O  O83  1  0.32377000  0.64250000  0.27865000  1.0
  O  O84  1  0.61859000  0.51797000  0.54937000  1.0
  O  O85  1  0.38141000  0.48203000  0.45062000  1.0
  O  O86  1  0.76085000  0.55265000  0.79365000  1.0
  O  O87  1  0.23916000  0.44735000  0.20635000  1.0
  O  O88  1  0.47873000  0.18017000  0.46127000  1.0
  O  O89  1  0.52127000  0.81983000  0.53873000  1.0
  O  O90  1  0.70726000  0.27075000  0.45263000  1.0
  O  O91  1  0.29274000  0.72925000  0.54737000  1.0
  O  O92  1  0.87068000  0.15492000  0.30088000  1.0
  O  O93  1  0.12932000  0.84508000  0.69913000  1.0
