# generated using pymatgen
data_AlC21N3(OF2)6
_symmetry_space_group_name_H-M   'P 1'
_cell_length_a   3.97416000
_cell_length_b   28.14165000
_cell_length_c   28.14150000
_cell_angle_alpha   60.00052896
_cell_angle_beta   89.99980000
_cell_angle_gamma   89.99960000
_symmetry_Int_Tables_number   1
_chemical_formula_structural   AlC21N3(OF2)6
_chemical_formula_sum   'Al2 C42 N6 O12 F24'
_cell_volume   2725.68142339
_cell_formula_units_Z   2
loop_
 _symmetry_equiv_pos_site_id
 _symmetry_equiv_pos_as_xyz
  1  'x, y, z'
loop_
 _atom_site_type_symbol
 _atom_site_label
 _atom_site_symmetry_multiplicity
 _atom_site_fract_x
 _atom_site_fract_y
 _atom_site_fract_z
 _atom_site_occupancy
  Al  Al0  1  0.00204000  0.50000000  0.00000000  1.0
  Al  Al1  1  0.00204000  0.16666000  0.66667000  1.0
  C  C2  1  0.50123000  0.58373000  0.95376000  1.0
  C  C3  1  0.50121000  0.46251000  0.08374000  1.0
  C  C4  1  0.50122000  0.45376000  0.96251000  1.0
  C  C5  1  0.50121000  0.20415000  0.58294000  1.0
  C  C6  1  0.50124000  0.21291000  0.70416000  1.0
  C  C7  1  0.50122000  0.08293000  0.71292000  1.0
  C  C8  1  0.49924000  0.23238000  0.52162000  1.0
  C  C9  1  0.50546000  0.28973000  0.49013000  1.0
  C  C10  1  0.50216000  0.31698000  0.43299000  1.0
  C  C11  1  0.49973000  0.28702000  0.40473000  1.0
  C  C12  1  0.49685000  0.22900000  0.43714000  1.0
  C  C13  1  0.49280000  0.20246000  0.49421000  1.0
  C  C14  1  0.49684000  0.43766000  0.22954000  1.0
  C  C15  1  0.49972000  0.37964000  0.26194000  1.0
  C  C16  1  0.50217000  0.34969000  0.23368000  1.0
  C  C17  1  0.50547000  0.37694000  0.17654000  1.0
  C  C18  1  0.49923000  0.43428000  0.14506000  1.0
  C  C19  1  0.49279000  0.46420000  0.17246000  1.0
  C  C20  1  0.49923000  0.24601000  0.73238000  1.0
  C  C21  1  0.50547000  0.22015000  0.78973000  1.0
  C  C22  1  0.50218000  0.25003000  0.81697000  1.0
  C  C23  1  0.49972000  0.30825000  0.78702000  1.0
  C  C24  1  0.49684000  0.33386000  0.72901000  1.0
  C  C25  1  0.49280000  0.30333000  0.70247000  1.0
  C  C26  1  0.49686000  0.33280000  0.93766000  1.0
  C  C27  1  0.49973000  0.35842000  0.87965000  1.0
  C  C28  1  0.50216000  0.41664000  0.84969000  1.0
  C  C29  1  0.50546000  0.44652000  0.87694000  1.0
  C  C30  1  0.49923000  0.42066000  0.93429000  1.0
  C  C31  1  0.49280000  0.36334000  0.96420000  1.0
  C  C32  1  0.49923000  0.02161000  0.74601000  1.0
  C  C33  1  0.50547000  0.99013000  0.72014000  1.0
  C  C34  1  0.50218000  0.93299000  0.75004000  1.0
  C  C35  1  0.49973000  0.90473000  0.80825000  1.0
  C  C36  1  0.49685000  0.93713000  0.83386000  1.0
  C  C37  1  0.49280000  0.99421000  0.80332000  1.0
  C  C38  1  0.49684000  0.72953000  0.83281000  1.0
  C  C39  1  0.49972000  0.76193000  0.85842000  1.0
  C  C40  1  0.50217000  0.73367000  0.91664000  1.0
  C  C41  1  0.50546000  0.67654000  0.94652000  1.0
  C  C42  1  0.49923000  0.64505000  0.92067000  1.0
  C  C43  1  0.49279000  0.67246000  0.86334000  1.0
  N  N44  1  0.49989000  0.30725000  0.34817000  1.0
  N  N45  1  0.49990000  0.35941000  0.31851000  1.0
  N  N46  1  0.49990000  0.34459000  0.80725000  1.0
  N  N47  1  0.49990000  0.32208000  0.85942000  1.0
  N  N48  1  0.49990000  0.84816000  0.84459000  1.0
  N  N49  1  0.49989000  0.81850000  0.82208000  1.0
  O  O50  1  0.26572000  0.44506000  0.99639000  1.0
  O  O51  1  0.26571000  0.55855000  0.94506000  1.0
  O  O52  1  0.26572000  0.49639000  0.05855000  1.0
  O  O53  1  0.73876000  0.48814000  0.95011000  1.0
  O  O54  1  0.73877000  0.45011000  0.06176000  1.0
  O  O55  1  0.73876000  0.56175000  0.98814000  1.0
  O  O56  1  0.26571000  0.10812000  0.72161000  1.0
  O  O57  1  0.26572000  0.17027000  0.60812000  1.0
  O  O58  1  0.26571000  0.22161000  0.67027000  1.0
  O  O59  1  0.73876000  0.10491000  0.67853000  1.0
  O  O60  1  0.73876000  0.17853000  0.71656000  1.0
  O  O61  1  0.73876000  0.21655000  0.60492000  1.0
  F  F62  1  0.49356000  0.14721000  0.52297000  1.0
  F  F63  1  0.49914000  0.19841000  0.41287000  1.0
  F  F64  1  0.50433000  0.31977000  0.51531000  1.0
  F  F65  1  0.50039000  0.37194000  0.40628000  1.0
  F  F66  1  0.49913000  0.46825000  0.25381000  1.0
  F  F67  1  0.49356000  0.51945000  0.14371000  1.0
  F  F68  1  0.50040000  0.29473000  0.26038000  1.0
  F  F69  1  0.50434000  0.34690000  0.15136000  1.0
  F  F70  1  0.49356000  0.32982000  0.64722000  1.0
  F  F71  1  0.49913000  0.38872000  0.69843000  1.0
  F  F72  1  0.50434000  0.16492000  0.81977000  1.0
  F  F73  1  0.50040000  0.22178000  0.87194000  1.0
  F  F74  1  0.49915000  0.27794000  0.96825000  1.0
  F  F75  1  0.49356000  0.33684000  0.01945000  1.0
  F  F76  1  0.50039000  0.44489000  0.79473000  1.0
  F  F77  1  0.50433000  0.50175000  0.84690000  1.0
  F  F78  1  0.49356000  0.02296000  0.82982000  1.0
  F  F79  1  0.49914000  0.91286000  0.88872000  1.0
  F  F80  1  0.50434000  0.01531000  0.66492000  1.0
  F  F81  1  0.50040000  0.90628000  0.72178000  1.0
  F  F82  1  0.49913000  0.75380000  0.77795000  1.0
  F  F83  1  0.49355000  0.64370000  0.83685000  1.0
  F  F84  1  0.50039000  0.76038000  0.94489000  1.0
  F  F85  1  0.50432000  0.65135000  0.00175000  1.0
