# generated using pymatgen
data_FeH16(C12N5)2
_symmetry_space_group_name_H-M   'P 1'
_cell_length_a   16.06540000
_cell_length_b   17.94409020
_cell_length_c   17.95470000
_cell_angle_alpha   111.49637254
_cell_angle_beta   107.37000000
_cell_angle_gamma   107.32958689
_symmetry_Int_Tables_number   1
_chemical_formula_structural   FeH16(C12N5)2
_chemical_formula_sum   'Fe6 H96 C144 N60'
_cell_volume   4084.40728978
_cell_formula_units_Z   6
loop_
 _symmetry_equiv_pos_site_id
 _symmetry_equiv_pos_as_xyz
  1  'x, y, z'
loop_
 _atom_site_type_symbol
 _atom_site_label
 _atom_site_symmetry_multiplicity
 _atom_site_fract_x
 _atom_site_fract_y
 _atom_site_fract_z
 _atom_site_occupancy
  Fe  Fe0  1  0.50000000  0.50000000  0.00000000  1.0
  Fe  Fe1  1  0.50000000  0.00000000  0.50000000  1.0
  Fe  Fe2  1  1.00000000  0.50000000  0.50000000  1.0
  Fe  Fe3  1  0.50000000  0.50000000  0.50000000  1.0
  Fe  Fe4  1  0.00000000  0.00000000  0.50000000  1.0
  Fe  Fe5  1  0.00000000  0.50000000  0.00000000  1.0
  H  H6  1  0.65089000  0.74070000  0.93645000  1.0
  H  H7  1  0.71450000  0.06331000  0.80417000  1.0
  H  H8  1  0.91022000  0.19570000  0.25932000  1.0
  H  H9  1  0.58966000  0.74085000  0.80416000  1.0
  H  H10  1  0.84909000  0.06362000  0.25932000  1.0
  H  H11  1  0.78556000  0.19575000  0.93646000  1.0
  H  H12  1  0.34912000  0.25931000  0.06356000  1.0
  H  H13  1  0.28550000  0.93670000  0.19584000  1.0
  H  H14  1  0.08977000  0.80429000  0.74067000  1.0
  H  H15  1  0.41034000  0.25914000  0.19584000  1.0
  H  H16  1  0.15091000  0.93638000  0.74068000  1.0
  H  H17  1  0.21445000  0.80425000  0.06355000  1.0
  H  H18  1  0.82159000  0.82011000  0.06708000  1.0
  H  H19  1  0.75471000  0.93268000  0.75291000  1.0
  H  H20  1  0.00160000  0.24690000  0.18000000  1.0
  H  H21  1  0.49818000  0.82022000  0.75290000  1.0
  H  H22  1  0.67839000  0.93310000  0.18001000  1.0
  H  H23  1  0.74549000  0.24697000  0.06708000  1.0
  H  H24  1  0.17842000  0.17990000  0.93292000  1.0
  H  H25  1  0.24529000  0.06733000  0.24710000  1.0
  H  H26  1  0.99839000  0.75309000  0.81999000  1.0
  H  H27  1  0.50181000  0.17977000  0.24711000  1.0
  H  H28  1  0.32160000  0.06690000  0.81999000  1.0
  H  H29  1  0.25450000  0.75302000  0.93292000  1.0
  H  H30  1  0.85437000  0.75526000  0.16906000  1.0
  H  H31  1  0.68562000  0.83080000  0.58610000  1.0
  H  H32  1  0.09915000  0.41373000  0.24474000  1.0
  H  H33  1  0.40048000  0.75530000  0.58610000  1.0
  H  H34  1  0.64559000  0.83101000  0.24475000  1.0
  H  H35  1  0.81469000  0.41381000  0.16907000  1.0
  H  H36  1  0.14562000  0.24474000  0.83093000  1.0
  H  H37  1  0.31439000  0.16921000  0.41391000  1.0
  H  H38  1  0.90085000  0.58627000  0.75526000  1.0
  H  H39  1  0.59952000  0.24470000  0.41392000  1.0
  H  H40  1  0.35441000  0.16899000  0.75525000  1.0
  H  H41  1  0.18531000  0.58619000  0.83093000  1.0
  H  H42  1  0.71823000  0.61766000  0.13926000  1.0
  H  H43  1  0.57923000  0.86074000  0.47841000  1.0
  H  H44  1  0.10062000  0.52155000  0.38230000  1.0
  H  H45  1  0.39919000  0.61767000  0.47841000  1.0
  H  H46  1  0.78168000  0.86075000  0.38229000  1.0
  H  H47  1  0.92104000  0.52161000  0.13927000  1.0
  H  H48  1  0.28176000  0.38234000  0.86073000  1.0
  H  H49  1  0.42078000  0.13927000  0.52161000  1.0
  H  H50  1  0.89938000  0.47845000  0.61771000  1.0
  H  H51  1  0.60083000  0.38234000  0.52161000  1.0
  H  H52  1  0.21832000  0.13925000  0.61770000  1.0
  H  H53  1  0.07897000  0.47839000  0.86073000  1.0
  H  H54  1  0.63812000  0.39577000  0.31636000  1.0
  H  H55  1  0.32193000  0.68384000  0.07956000  1.0
  H  H56  1  0.24257000  0.92041000  0.60425000  1.0
  H  H57  1  0.25763000  0.39572000  0.07956000  1.0
  H  H58  1  0.86168000  0.68383000  0.60424000  1.0
  H  H59  1  0.17824000  0.92059000  0.31637000  1.0
  H  H60  1  0.36187000  0.60422000  0.68362000  1.0
  H  H61  1  0.67807000  0.31617000  0.92045000  1.0
  H  H62  1  0.75743000  0.07958000  0.39575000  1.0
  H  H63  1  0.74238000  0.60428000  0.92044000  1.0
  H  H64  1  0.13833000  0.31618000  0.39576000  1.0
  H  H65  1  0.82176000  0.07941000  0.68363000  1.0
  H  H66  1  0.78440000  0.41919000  0.43828000  1.0
  H  H67  1  0.34629000  0.56189000  0.98102000  1.0
  H  H68  1  0.36538000  0.01896000  0.58083000  1.0
  H  H69  1  0.13474000  0.41914000  0.98102000  1.0
  H  H70  1  0.71545000  0.56187000  0.58084000  1.0
  H  H71  1  0.15388000  0.01909000  0.43829000  1.0
  H  H72  1  0.21559000  0.58080000  0.56171000  1.0
  H  H73  1  0.65372000  0.43812000  0.01898000  1.0
  H  H74  1  0.63461000  0.98103000  0.41917000  1.0
  H  H75  1  0.86525000  0.58085000  0.01897000  1.0
  H  H76  1  0.28455000  0.43813000  0.41916000  1.0
  H  H77  1  0.84612000  0.98091000  0.56171000  1.0
  H  H78  1  0.97353000  0.58478000  0.38601000  1.0
  H  H79  1  0.58783000  0.61408000  0.19873000  1.0
  H  H80  1  0.38906000  0.80111000  0.41518000  1.0
  H  H81  1  0.11091000  0.58466000  0.19874000  1.0
  H  H82  1  0.52612000  0.61408000  0.41520000  1.0
  H  H83  1  0.91248000  0.80123000  0.38601000  1.0
  H  H84  1  0.02647000  0.41522000  0.61399000  1.0
  H  H85  1  0.41217000  0.38593000  0.80127000  1.0
  H  H86  1  0.61094000  0.19889000  0.58482000  1.0
  H  H87  1  0.88910000  0.41534000  0.80126000  1.0
  H  H88  1  0.47388000  0.38593000  0.58482000  1.0
  H  H89  1  0.08752000  0.19877000  0.61399000  1.0
  H  H90  1  0.83426000  0.57311000  0.26744000  1.0
  H  H91  1  0.56714000  0.73267000  0.30562000  1.0
  H  H92  1  0.26147000  0.69418000  0.42687000  1.0
  H  H93  1  0.23849000  0.57295000  0.30562000  1.0
  H  H94  1  0.66540000  0.73269000  0.42687000  1.0
  H  H95  1  0.93318000  0.69433000  0.26744000  1.0
  H  H96  1  0.16574000  0.42689000  0.73255000  1.0
  H  H97  1  0.43286000  0.26734000  0.69438000  1.0
  H  H98  1  0.73854000  0.30582000  0.57313000  1.0
  H  H99  1  0.76152000  0.42705000  0.69438000  1.0
  H  H100  1  0.33460000  0.26731000  0.57313000  1.0
  H  H101  1  0.06681000  0.30566000  0.73255000  1.0
  C  C102  1  0.50189000  0.40774000  0.09704000  1.0
  C  C103  1  0.40486000  0.90309000  0.31071000  1.0
  C  C104  1  0.09434000  0.68927000  0.59228000  1.0
  C  C105  1  0.40585000  0.40762000  0.31071000  1.0
  C  C106  1  0.99794000  0.90301000  0.59228000  1.0
  C  C107  1  0.09515000  0.68930000  0.09704000  1.0
  C  C108  1  0.49811000  0.59227000  0.90297000  1.0
  C  C109  1  0.59513000  0.09691000  0.68930000  1.0
  C  C110  1  0.90565000  0.31072000  0.40771000  1.0
  C  C111  1  0.59416000  0.59239000  0.68930000  1.0
  C  C112  1  0.00206000  0.09699000  0.40771000  1.0
  C  C113  1  0.90486000  0.31070000  0.90297000  1.0
  C  C114  1  0.35863000  0.53604000  0.79664000  1.0
  C  C115  1  0.56186000  0.20325000  0.73935000  1.0
  C  C116  1  0.82235000  0.26072000  0.46397000  1.0
  C  C117  1  0.67748000  0.53610000  0.73935000  1.0
  C  C118  1  0.14162000  0.20325000  0.46397000  1.0
  C  C119  1  0.93802000  0.26060000  0.79664000  1.0
  C  C120  1  0.64137000  0.46396000  0.20335000  1.0
  C  C121  1  0.43813000  0.79675000  0.26065000  1.0
  C  C122  1  0.17764000  0.73927000  0.53602000  1.0
  C  C123  1  0.32252000  0.46390000  0.26065000  1.0
  C  C124  1  0.85838000  0.79675000  0.53602000  1.0
  C  C125  1  0.06198000  0.73939000  0.20335000  1.0
  C  C126  1  0.40195000  0.35836000  0.02752000  1.0
  C  C127  1  0.37441000  0.97268000  0.33086000  1.0
  C  C128  1  0.04371000  0.66919000  0.64168000  1.0
  C  C129  1  0.45645000  0.35818000  0.33086000  1.0
  C  C130  1  0.09798000  0.97249000  0.64169000  1.0
  C  C131  1  0.12557000  0.66916000  0.02751000  1.0
  C  C132  1  0.59806000  0.64165000  0.97249000  1.0
  C  C133  1  0.62559000  0.02733000  0.66915000  1.0
  C  C134  1  0.95629000  0.33080000  0.35831000  1.0
  C  C135  1  0.54355000  0.64182000  0.66915000  1.0
  C  C136  1  0.90201000  0.02750000  0.35830000  1.0
  C  C137  1  0.87444000  0.33084000  0.97249000  1.0
  C  C138  1  0.67011000  0.71779000  0.98441000  1.0
  C  C139  1  0.68575000  0.01533000  0.73331000  1.0
  C  C140  1  0.95230000  0.26658000  0.28221000  1.0
  C  C141  1  0.54756000  0.71798000  0.73331000  1.0
  C  C142  1  0.82990000  0.01563000  0.28221000  1.0
  C  C143  1  0.81430000  0.26662000  0.98442000  1.0
  C  C144  1  0.32988000  0.28221000  0.01559000  1.0
  C  C145  1  0.31425000  0.98468000  0.26670000  1.0
  C  C146  1  0.04769000  0.73341000  0.71778000  1.0
  C  C147  1  0.45245000  0.28202000  0.26670000  1.0
  C  C148  1  0.17009000  0.98437000  0.71778000  1.0
  C  C149  1  0.18571000  0.73338000  0.01559000  1.0
  C  C150  1  0.76371000  0.76036000  0.05580000  1.0
  C  C151  1  0.70802000  0.94393000  0.70445000  1.0
  C  C152  1  0.00342000  0.29540000  0.23970000  1.0
  C  C153  1  0.49643000  0.76052000  0.70445000  1.0
  C  C154  1  0.73628000  0.94430000  0.23970000  1.0
  C  C155  1  0.79209000  0.29544000  0.05580000  1.0
  C  C156  1  0.23629000  0.23964000  0.94419000  1.0
  C  C157  1  0.29198000  0.05608000  0.29556000  1.0
  C  C158  1  0.99659000  0.70460000  0.76030000  1.0
  C  C159  1  0.50358000  0.23948000  0.29556000  1.0
  C  C160  1  0.26371000  0.05570000  0.76030000  1.0
  C  C161  1  0.20790000  0.70455000  0.94419000  1.0
  C  C162  1  0.78225000  0.72451000  0.11249000  1.0
  C  C163  1  0.67000000  0.88736000  0.61195000  1.0
  C  C164  1  0.05778000  0.38793000  0.27551000  1.0
  C  C165  1  0.44196000  0.72459000  0.61195000  1.0
  C  C166  1  0.71773000  0.88758000  0.27551000  1.0
  C  C167  1  0.83024000  0.38798000  0.11249000  1.0
  C  C168  1  0.21776000  0.27550000  0.88751000  1.0
  C  C169  1  0.33001000  0.11265000  0.38806000  1.0
  C  C170  1  0.94222000  0.61207000  0.72449000  1.0
  C  C171  1  0.55804000  0.27541000  0.38807000  1.0
  C  C172  1  0.28227000  0.11242000  0.72449000  1.0
  C  C173  1  0.16975000  0.61201000  0.88750000  1.0
  C  C174  1  0.70716000  0.64804000  0.09674000  1.0
  C  C175  1  0.61061000  0.90317000  0.55129000  1.0
  C  C176  1  0.05912000  0.44865000  0.35195000  1.0
  C  C177  1  0.44067000  0.64811000  0.55128000  1.0
  C  C178  1  0.79283000  0.90330000  0.35195000  1.0
  C  C179  1  0.88958000  0.44870000  0.09674000  1.0
  C  C180  1  0.29284000  0.35197000  0.90326000  1.0
  C  C181  1  0.38940000  0.09684000  0.44873000  1.0
  C  C182  1  0.94088000  0.55134000  0.64804000  1.0
  C  C183  1  0.55933000  0.35189000  0.44873000  1.0
  C  C184  1  0.20716000  0.09670000  0.64804000  1.0
  C  C185  1  0.11042000  0.55129000  0.90326000  1.0
  C  C186  1  0.27615000  0.51920000  0.72033000  1.0
  C  C187  1  0.55562000  0.27957000  0.79882000  1.0
  C  C188  1  0.75666000  0.20128000  0.48081000  1.0
  C  C189  1  0.74320000  0.51925000  0.79881000  1.0
  C  C190  1  0.22415000  0.27953000  0.48081000  1.0
  C  C191  1  0.94418000  0.20113000  0.72033000  1.0
  C  C192  1  0.72385000  0.48080000  0.27966000  1.0
  C  C193  1  0.44438000  0.72044000  0.20119000  1.0
  C  C194  1  0.24334000  0.79871000  0.51918000  1.0
  C  C195  1  0.25680000  0.48074000  0.20118000  1.0
  C  C196  1  0.77585000  0.72047000  0.51918000  1.0
  C  C197  1  0.05581000  0.79886000  0.27966000  1.0
  C  C198  1  0.28850000  0.56106000  0.66926000  1.0
  C  C199  1  0.61905000  0.33059000  0.89170000  1.0
  C  C200  1  0.72719000  0.10835000  0.43892000  1.0
  C  C201  1  0.77265000  0.56111000  0.89169000  1.0
  C  C202  1  0.21173000  0.33057000  0.43892000  1.0
  C  C203  1  0.88076000  0.10820000  0.66926000  1.0
  C  C204  1  0.71150000  0.43894000  0.33074000  1.0
  C  C205  1  0.38095000  0.66942000  0.10831000  1.0
  C  C206  1  0.27281000  0.89164000  0.56108000  1.0
  C  C207  1  0.22735000  0.43888000  0.10830000  1.0
  C  C208  1  0.78826000  0.66943000  0.56108000  1.0
  C  C209  1  0.11924000  0.89180000  0.33074000  1.0
  C  C210  1  0.20692000  0.54874000  0.60176000  1.0
  C  C211  1  0.60498000  0.39810000  0.94689000  1.0
  C  C212  1  0.65798000  0.05316000  0.45126000  1.0
  C  C213  1  0.84192000  0.54880000  0.94689000  1.0
  C  C214  1  0.29328000  0.39810000  0.45126000  1.0
  C  C215  1  0.89485000  0.05303000  0.60176000  1.0
  C  C216  1  0.79308000  0.45126000  0.39823000  1.0
  C  C217  1  0.39502000  0.60191000  0.05311000  1.0
  C  C218  1  0.34202000  0.94684000  0.54875000  1.0
  C  C219  1  0.15809000  0.45120000  0.05311000  1.0
  C  C220  1  0.70673000  0.60191000  0.54875000  1.0
  C  C221  1  0.10515000  0.94697000  0.39823000  1.0
  C  C222  1  0.89850000  0.54443000  0.37014000  1.0
  C  C223  1  0.52864000  0.62996000  0.17427000  1.0
  C  C224  1  0.35438000  0.82558000  0.45556000  1.0
  C  C225  1  0.14563000  0.54431000  0.17428000  1.0
  C  C226  1  0.60118000  0.62998000  0.45556000  1.0
  C  C227  1  0.97164000  0.82571000  0.37013000  1.0
  C  C228  1  0.10150000  0.45557000  0.62986000  1.0
  C  C229  1  0.47135000  0.37004000  0.82572000  1.0
  C  C230  1  0.64562000  0.17442000  0.54444000  1.0
  C  C231  1  0.85438000  0.45569000  0.82573000  1.0
  C  C232  1  0.39882000  0.37002000  0.54444000  1.0
  C  C233  1  0.02836000  0.17429000  0.62986000  1.0
  C  C234  1  0.82059000  0.53739000  0.30359000  1.0
  C  C235  1  0.51728000  0.69651000  0.23379000  1.0
  C  C236  1  0.28353000  0.76605000  0.46260000  1.0
  C  C237  1  0.21651000  0.53727000  0.23379000  1.0
  C  C238  1  0.67907000  0.69655000  0.46261000  1.0
  C  C239  1  0.98300000  0.76620000  0.30359000  1.0
  C  C240  1  0.17940000  0.46261000  0.69640000  1.0
  C  C241  1  0.48272000  0.30349000  0.76621000  1.0
  C  C242  1  0.71647000  0.23394000  0.53739000  1.0
  C  C243  1  0.78349000  0.46272000  0.76620000  1.0
  C  C244  1  0.32092000  0.30345000  0.53739000  1.0
  C  C245  1  0.01700000  0.23380000  0.69641000  1.0
  N  N246  1  0.43827000  0.52325000  0.90661000  1.0
  N  N247  1  0.53168000  0.09333000  0.61665000  1.0
  N  N248  1  0.91502000  0.38343000  0.47684000  1.0
  N  N249  1  0.58497000  0.52332000  0.61666000  1.0
  N  N250  1  0.06181000  0.09340000  0.47683000  1.0
  N  N251  1  0.96835000  0.38336000  0.90661000  1.0
  N  N252  1  0.56174000  0.47676000  0.09339000  1.0
  N  N253  1  0.46832000  0.90667000  0.38335000  1.0
  N  N254  1  0.08496000  0.61656000  0.52315000  1.0
  N  N255  1  0.41503000  0.47668000  0.38335000  1.0
  N  N256  1  0.93819000  0.90659000  0.52316000  1.0
  N  N257  1  0.03165000  0.61663000  0.09338000  1.0
  N  N258  1  0.34802000  0.48685000  0.83866000  1.0
  N  N259  1  0.50933000  0.16130000  0.64820000  1.0
  N  N260  1  0.86116000  0.35194000  0.51326000  1.0
  N  N261  1  0.63887000  0.48690000  0.64820000  1.0
  N  N262  1  0.15210000  0.16132000  0.51326000  1.0
  N  N263  1  0.99063000  0.35180000  0.83865000  1.0
  N  N264  1  0.65198000  0.51316000  0.16135000  1.0
  N  N265  1  0.49067000  0.83870000  0.35181000  1.0
  N  N266  1  0.13883000  0.64805000  0.48673000  1.0
  N  N267  1  0.36115000  0.51311000  0.35181000  1.0
  N  N268  1  0.84790000  0.83868000  0.48673000  1.0
  N  N269  1  0.00937000  0.64819000  0.16134000  1.0
  N  N270  1  0.54875000  0.39728000  0.16518000  1.0
  N  N271  1  0.38366000  0.83495000  0.23213000  1.0
  N  N272  1  0.15180000  0.76785000  0.60277000  1.0
  N  N273  1  0.34846000  0.39717000  0.23213000  1.0
  N  N274  1  0.95097000  0.83492000  0.60277000  1.0
  N  N275  1  0.11643000  0.76790000  0.16518000  1.0
  N  N276  1  0.45124000  0.60272000  0.83481000  1.0
  N  N277  1  0.61633000  0.16505000  0.76788000  1.0
  N  N278  1  0.84820000  0.23215000  0.39723000  1.0
  N  N279  1  0.65153000  0.60282000  0.76787000  1.0
  N  N280  1  0.04903000  0.16508000  0.39723000  1.0
  N  N281  1  0.88357000  0.23209000  0.83481000  1.0
  N  N282  1  0.38418000  0.39340000  0.97170000  1.0
  N  N283  1  0.41240000  0.02841000  0.42169000  1.0
  N  N284  1  0.99083000  0.57834000  0.60663000  1.0
  N  N285  1  0.50929000  0.39328000  0.42169000  1.0
  N  N286  1  0.11580000  0.02829000  0.60663000  1.0
  N  N287  1  0.08752000  0.57830000  0.97170000  1.0
  N  N288  1  0.61581000  0.60660000  0.02829000  1.0
  N  N289  1  0.58760000  0.97159000  0.57831000  1.0
  N  N290  1  0.00916000  0.42165000  0.39336000  1.0
  N  N291  1  0.49071000  0.60672000  0.57831000  1.0
  N  N292  1  0.88420000  0.97171000  0.39336000  1.0
  N  N293  1  0.91248000  0.42169000  0.02829000  1.0
  N  N294  1  0.11351000  0.49932000  0.58326000  1.0
  N  N295  1  0.53005000  0.41663000  0.91602000  1.0
  N  N296  1  0.61399000  0.08407000  0.50068000  1.0
  N  N297  1  0.88597000  0.49939000  0.91602000  1.0
  N  N298  1  0.38670000  0.41661000  0.50068000  1.0
  N  N299  1  0.96975000  0.08394000  0.58326000  1.0
  N  N300  1  0.88649000  0.50068000  0.41674000  1.0
  N  N301  1  0.46995000  0.58338000  0.08398000  1.0
  N  N302  1  0.38602000  0.91593000  0.49932000  1.0
  N  N303  1  0.11404000  0.50061000  0.08399000  1.0
  N  N304  1  0.61330000  0.58339000  0.49932000  1.0
  N  N305  1  0.03025000  0.91606000  0.41673000  1.0
