# generated using pymatgen
data_MnH8C12(NO2)2
_symmetry_space_group_name_H-M   'P 1'
_cell_length_a   7.87112000
_cell_length_b   8.75408000
_cell_length_c   16.69890000
_cell_angle_alpha   90.00000000
_cell_angle_beta   90.00010000
_cell_angle_gamma   100.65800000
_symmetry_Int_Tables_number   1
_chemical_formula_structural   MnH8C12(NO2)2
_chemical_formula_sum   'Mn4 H32 C48 N8 O16'
_cell_volume   1130.77801752
_cell_formula_units_Z   4
loop_
 _symmetry_equiv_pos_site_id
 _symmetry_equiv_pos_as_xyz
  1  'x, y, z'
loop_
 _atom_site_type_symbol
 _atom_site_label
 _atom_site_symmetry_multiplicity
 _atom_site_fract_x
 _atom_site_fract_y
 _atom_site_fract_z
 _atom_site_occupancy
  Mn  Mn0  1  0.53780000  0.16685000  0.21078000  1.0
  Mn  Mn1  1  0.96220000  0.83315000  0.71078000  1.0
  Mn  Mn2  1  0.46220000  0.83315000  0.78922000  1.0
  Mn  Mn3  1  0.03780000  0.16685000  0.28922000  1.0
  H  H4  1  0.15414000  0.12749000  0.82461000  1.0
  H  H5  1  0.34587000  0.87251000  0.32461000  1.0
  H  H6  1  0.84586000  0.87251000  0.17539000  1.0
  H  H7  1  0.65414000  0.12749000  0.67539000  1.0
  H  H8  1  0.71612000  0.11380000  0.98018000  1.0
  H  H9  1  0.78389000  0.88620000  0.48018000  1.0
  H  H10  1  0.28388000  0.88620000  0.01982000  1.0
  H  H11  1  0.21611000  0.11380000  0.51982000  1.0
  H  H12  1  0.22763000  0.28010000  0.06981000  1.0
  H  H13  1  0.27236000  0.71989000  0.56981000  1.0
  H  H14  1  0.77236000  0.71990000  0.93019000  1.0
  H  H15  1  0.72763000  0.28011000  0.43019000  1.0
  H  H16  1  0.46962000  0.25893000  0.99179000  1.0
  H  H17  1  0.03038000  0.74107000  0.49179000  1.0
  H  H18  1  0.53038000  0.74107000  0.00822000  1.0
  H  H19  1  0.96962000  0.25893000  0.50821000  1.0
  H  H20  1  0.44216000  0.13475000  0.90691000  1.0
  H  H21  1  0.05784000  0.86525000  0.40690000  1.0
  H  H22  1  0.55784000  0.86525000  0.09310000  1.0
  H  H23  1  0.94216000  0.13475000  0.59309000  1.0
  H  H24  1  0.34285000  0.54759000  0.92760000  1.0
  H  H25  1  0.15716000  0.45241000  0.42759000  1.0
  H  H26  1  0.65715000  0.45241000  0.07241000  1.0
  H  H27  1  0.84285000  0.54759000  0.57240000  1.0
  H  H28  1  0.67513000  0.55446000  0.72920000  1.0
  H  H29  1  0.82487000  0.44554000  0.22919000  1.0
  H  H30  1  0.32487000  0.44554000  0.27080000  1.0
  H  H31  1  0.17513000  0.55446000  0.77080000  1.0
  H  H32  1  0.62116000  0.25936000  0.79848000  1.0
  H  H33  1  0.87883000  0.74064000  0.29848000  1.0
  H  H34  1  0.37883000  0.74064000  0.20152000  1.0
  H  H35  1  0.12117000  0.25936000  0.70152000  1.0
  C  C36  1  0.21126000  0.21394000  0.94475000  1.0
  C  C37  1  0.28874000  0.78606000  0.44475000  1.0
  C  C38  1  0.78874000  0.78606000  0.05525000  1.0
  C  C39  1  0.71126000  0.21394000  0.55525000  1.0
  C  C40  1  0.10044000  0.15491000  0.88194000  1.0
  C  C41  1  0.39956000  0.84509000  0.38193000  1.0
  C  C42  1  0.89956000  0.84509000  0.11807000  1.0
  C  C43  1  0.60044000  0.15491000  0.61806000  1.0
  C  C44  1  0.92173000  0.11925000  0.89427000  1.0
  C  C45  1  0.57828000  0.88076000  0.39427000  1.0
  C  C46  1  0.07828000  0.88075000  0.10573000  1.0
  C  C47  1  0.42172000  0.11924000  0.60573000  1.0
  C  C48  1  0.85420000  0.14671000  0.96942000  1.0
  C  C49  1  0.64580000  0.85329000  0.46943000  1.0
  C  C50  1  0.14580000  0.85329000  0.03058000  1.0
  C  C51  1  0.35420000  0.14671000  0.53057000  1.0
  C  C52  1  0.96358000  0.20571000  0.03221000  1.0
  C  C53  1  0.53642000  0.79428000  0.53221000  1.0
  C  C54  1  0.03642000  0.79429000  0.96779000  1.0
  C  C55  1  0.46358000  0.20571000  0.46779000  1.0
  C  C56  1  0.14270000  0.23987000  0.01949000  1.0
  C  C57  1  0.35729000  0.76012000  0.51949000  1.0
  C  C58  1  0.85730000  0.76013000  0.98051000  1.0
  C  C59  1  0.64271000  0.23988000  0.48051000  1.0
  C  C60  1  0.40434000  0.23810000  0.93357000  1.0
  C  C61  1  0.09566000  0.76189000  0.43357000  1.0
  C  C62  1  0.59566000  0.76190000  0.06643000  1.0
  C  C63  1  0.90434000  0.23811000  0.56643000  1.0
  C  C64  1  0.43011000  0.51302000  0.88384000  1.0
  C  C65  1  0.06989000  0.48698000  0.38384000  1.0
  C  C66  1  0.56989000  0.48698000  0.11616000  1.0
  C  C67  1  0.93011000  0.51302000  0.61616000  1.0
  C  C68  1  0.60068000  0.51054000  0.78151000  1.0
  C  C69  1  0.89932000  0.48946000  0.28150000  1.0
  C  C70  1  0.39932000  0.48946000  0.21849000  1.0
  C  C71  1  0.10068000  0.51054000  0.71849000  1.0
  C  C72  1  0.57695000  0.36489000  0.81495000  1.0
  C  C73  1  0.92305000  0.63511000  0.31495000  1.0
  C  C74  1  0.42306000  0.63511000  0.18505000  1.0
  C  C75  1  0.07695000  0.36489000  0.68505000  1.0
  C  C76  1  0.80461000  0.03547000  0.83154000  1.0
  C  C77  1  0.69539000  0.96454000  0.33154000  1.0
  C  C78  1  0.19539000  0.96454000  0.16846000  1.0
  C  C79  1  0.30461000  0.03546000  0.66846000  1.0
  C  C80  1  0.89152000  0.21515000  0.11478000  1.0
  C  C81  1  0.60848000  0.78485000  0.61479000  1.0
  C  C82  1  0.10848000  0.78485000  0.88522000  1.0
  C  C83  1  0.39152000  0.21515000  0.38521000  1.0
  N  N84  1  0.46852000  0.36833000  0.87966000  1.0
  N  N85  1  0.03148000  0.63167000  0.37966000  1.0
  N  N86  1  0.53148000  0.63167000  0.12034000  1.0
  N  N87  1  0.96852000  0.36833000  0.62034000  1.0
  N  N88  1  0.50841000  0.60228000  0.82481000  1.0
  N  N89  1  0.99158000  0.39772000  0.32481000  1.0
  N  N90  1  0.49158000  0.39771000  0.17519000  1.0
  N  N91  1  0.00842000  0.60228000  0.67519000  1.0
  O  O92  1  0.86285000  0.02081000  0.76128000  1.0
  O  O93  1  0.63715000  0.97920000  0.26128000  1.0
  O  O94  1  0.13715000  0.97920000  0.23872000  1.0
  O  O95  1  0.36285000  0.02080000  0.73872000  1.0
  O  O96  1  0.64900000  0.98052000  0.85316000  1.0
  O  O97  1  0.85101000  0.01949000  0.35316000  1.0
  O  O98  1  0.35101000  0.01948000  0.14684000  1.0
  O  O99  1  0.14900000  0.98052000  0.64684000  1.0
  O  O100  1  0.72785000  0.20107000  0.12132000  1.0
  O  O101  1  0.77215000  0.79893000  0.62132000  1.0
  O  O102  1  0.27215000  0.79893000  0.87868000  1.0
  O  O103  1  0.22785000  0.20107000  0.37868000  1.0
  O  O104  1  0.99860000  0.23476000  0.17252000  1.0
  O  O105  1  0.50140000  0.76524000  0.67252000  1.0
  O  O106  1  0.00140000  0.76524000  0.82748000  1.0
  O  O107  1  0.49860000  0.23476000  0.32748000  1.0
