# generated using pymatgen
data_ZnH12C16N2O5
_symmetry_space_group_name_H-M   'P 1'
_cell_length_a   7.35176000
_cell_length_b   9.74123000
_cell_length_c   10.28830000
_cell_angle_alpha   87.93480000
_cell_angle_beta   89.99890000
_cell_angle_gamma   89.99840000
_symmetry_Int_Tables_number   1
_chemical_formula_structural   ZnH12C16N2O5
_chemical_formula_sum   'Zn2 H24 C32 N4 O10'
_cell_volume   736.31993234
_cell_formula_units_Z   2
loop_
 _symmetry_equiv_pos_site_id
 _symmetry_equiv_pos_as_xyz
  1  'x, y, z'
loop_
 _atom_site_type_symbol
 _atom_site_label
 _atom_site_symmetry_multiplicity
 _atom_site_fract_x
 _atom_site_fract_y
 _atom_site_fract_z
 _atom_site_occupancy
  Zn  Zn0  1  0.51176000  0.29965000  0.73735000  1.0
  Zn  Zn1  1  0.01175000  0.70035000  0.26265000  1.0
  H  H2  1  0.56734000  0.97285000  0.71704000  1.0
  H  H3  1  0.06733000  0.02715000  0.28296000  1.0
  H  H4  1  0.61184000  0.77216000  0.87386000  1.0
  H  H5  1  0.11184000  0.22784000  0.12614000  1.0
  H  H6  1  0.61856000  0.81547000  0.11542000  1.0
  H  H7  1  0.11855000  0.18453000  0.88458000  1.0
  H  H8  1  0.58812000  0.98437000  0.29211000  1.0
  H  H9  1  0.08810000  0.01563000  0.70789000  1.0
  H  H10  1  0.53422000  0.22237000  0.35855000  1.0
  H  H11  1  0.03421000  0.77763000  0.64145000  1.0
  H  H12  1  0.46366000  0.47443000  0.29156000  1.0
  H  H13  1  0.96366000  0.52557000  0.70844000  1.0
  H  H14  1  0.41066000  0.64688000  0.11439000  1.0
  H  H15  1  0.91067000  0.35313000  0.88562000  1.0
  H  H16  1  0.43384000  0.57512000  0.87904000  1.0
  H  H17  1  0.93384000  0.42489000  0.12097000  1.0
  H  H18  1  0.17623000  0.14090000  0.43784000  1.0
  H  H19  1  0.67620000  0.85910000  0.56215000  1.0
  H  H20  1  0.85527000  0.07835000  0.43799000  1.0
  H  H21  1  0.35523000  0.92166000  0.56200000  1.0
  H  H22  1  0.56670000  0.52997000  0.58879000  1.0
  H  H23  1  0.06671000  0.47002000  0.41121000  1.0
  H  H24  1  0.36015000  0.48891000  0.61377000  1.0
  H  H25  1  0.86015000  0.51108000  0.38624000  1.0
  C  C26  1  0.56938000  0.98614000  0.82168000  1.0
  C  C27  1  0.06937000  0.01386000  0.17832000  1.0
  C  C28  1  0.59360000  0.87469000  0.91060000  1.0
  C  C29  1  0.09359000  0.12531000  0.08939000  1.0
  C  C30  1  0.59655000  0.89793000  0.04255000  1.0
  C  C31  1  0.09655000  0.10207000  0.95744000  1.0
  C  C32  1  0.57209000  0.03311000  0.08509000  1.0
  C  C33  1  0.07208000  0.96689000  0.91491000  1.0
  C  C34  1  0.56749000  0.06707000  0.21939000  1.0
  C  C35  1  0.06748000  0.93294000  0.78061000  1.0
  C  C36  1  0.53709000  0.19899000  0.25547000  1.0
  C  C37  1  0.03708000  0.80101000  0.74453000  1.0
  C  C38  1  0.50962000  0.30756000  0.15962000  1.0
  C  C39  1  0.00962000  0.69245000  0.84038000  1.0
  C  C40  1  0.47177000  0.44483000  0.19050000  1.0
  C  C41  1  0.97178000  0.55517000  0.80951000  1.0
  C  C42  1  0.44346000  0.54185000  0.09092000  1.0
  C  C43  1  0.94346000  0.45815000  0.90909000  1.0
  C  C44  1  0.45487000  0.50288000  0.96113000  1.0
  C  C45  1  0.95488000  0.49712000  0.03887000  1.0
  C  C46  1  0.51700000  0.27752000  0.02566000  1.0
  C  C47  1  0.01700000  0.72248000  0.97434000  1.0
  C  C48  1  0.54809000  0.13853000  0.98802000  1.0
  C  C49  1  0.04808000  0.86148000  0.01198000  1.0
  C  C50  1  0.17123000  0.29477000  0.58488000  1.0
  C  C51  1  0.67121000  0.70523000  0.41511000  1.0
  C  C52  1  0.08072000  0.19175000  0.50203000  1.0
  C  C53  1  0.58068000  0.80825000  0.49796000  1.0
  C  C54  1  0.90455000  0.15664000  0.50243000  1.0
  C  C55  1  0.40452000  0.84336000  0.49757000  1.0
  C  C56  1  0.76646000  0.21712000  0.58837000  1.0
  C  C57  1  0.26643000  0.78287000  0.41164000  1.0
  N  N58  1  0.54821000  0.11422000  0.85935000  1.0
  N  N59  1  0.04820000  0.88579000  0.14065000  1.0
  N  N60  1  0.49127000  0.37430000  0.92952000  1.0
  N  N61  1  0.99127000  0.62571000  0.07048000  1.0
  O  O62  1  0.81338000  0.29385000  0.68037000  1.0
  O  O63  1  0.31337000  0.70614000  0.31964000  1.0
  O  O64  1  0.59877000  0.18726000  0.56853000  1.0
  O  O65  1  0.09874000  0.81274000  0.43146000  1.0
  O  O66  1  0.47959000  0.50004000  0.65965000  1.0
  O  O67  1  0.97959000  0.49995000  0.34036000  1.0
  O  O68  1  0.24521000  0.24723000  0.68895000  1.0
  O  O69  1  0.74520000  0.75277000  0.31105000  1.0
  O  O70  1  0.18340000  0.41828000  0.54120000  1.0
  O  O71  1  0.68339000  0.58171000  0.45880000  1.0
