# generated using pymatgen
data_ZnH14C22NO4
_symmetry_space_group_name_H-M   'P 1'
_cell_length_a   13.18230000
_cell_length_b   13.20120000
_cell_length_c   15.60920000
_cell_angle_alpha   82.50300000
_cell_angle_beta   68.14000000
_cell_angle_gamma   83.95980000
_symmetry_Int_Tables_number   1
_chemical_formula_structural   ZnH14C22NO4
_chemical_formula_sum   'Zn4 H56 C88 N4 O16'
_cell_volume   2494.74078430
_cell_formula_units_Z   4
loop_
 _symmetry_equiv_pos_site_id
 _symmetry_equiv_pos_as_xyz
  1  'x, y, z'
loop_
 _atom_site_type_symbol
 _atom_site_label
 _atom_site_symmetry_multiplicity
 _atom_site_fract_x
 _atom_site_fract_y
 _atom_site_fract_z
 _atom_site_occupancy
  Zn  Zn0  1  0.92387000  0.70078000  0.82861000  1.0
  Zn  Zn1  1  0.03289000  0.69827000  0.62984000  1.0
  Zn  Zn2  1  0.07613000  0.29922000  0.17139000  1.0
  Zn  Zn3  1  0.96711000  0.30173000  0.37016000  1.0
  H  H4  1  0.71360000  0.78019000  0.98680000  1.0
  H  H5  1  0.62666000  0.73360000  0.15676000  1.0
  H  H6  1  0.90846000  0.52483000  0.13753000  1.0
  H  H7  1  0.98720000  0.58729000  0.96975000  1.0
  H  H8  1  0.76815000  0.53380000  0.28615000  1.0
  H  H9  1  0.54637000  0.63377000  0.28481000  1.0
  H  H10  1  0.39151000  0.60393000  0.41655000  1.0
  H  H11  1  0.70253000  0.47198000  0.42466000  1.0
  H  H12  1  0.17740000  0.83038000  0.46805000  1.0
  H  H13  1  0.30688000  0.80718000  0.30613000  1.0
  H  H14  1  0.20180000  0.49832000  0.34871000  1.0
  H  H15  1  0.07922000  0.53507000  0.50713000  1.0
  H  H16  1  0.40797000  0.68703000  0.18922000  1.0
  H  H17  1  0.26941000  0.50851000  0.19968000  1.0
  H  H18  1  0.55148000  0.61315000  0.09038000  1.0
  H  H19  1  0.31264000  0.43640000  0.05876000  1.0
  H  H20  1  0.91228000  0.01962000  0.84115000  1.0
  H  H21  1  0.09562000  0.21086000  0.53197000  1.0
  H  H22  1  0.07581000  0.02389000  0.54568000  1.0
  H  H23  1  0.87440000  0.18254000  0.91577000  1.0
  H  H24  1  0.88701000  0.37152000  0.90119000  1.0
  H  H25  1  0.06563000  0.37218000  0.60792000  1.0
  H  H26  1  0.74480000  0.71033000  0.55473000  1.0
  H  H27  1  0.56320000  0.70903000  0.54041000  1.0
  H  H28  1  0.59072000  0.70011000  0.85134000  1.0
  H  H29  1  0.36023000  0.70542000  0.61539000  1.0
  H  H30  1  0.20823000  0.67654000  0.91248000  1.0
  H  H31  1  0.38979000  0.68242000  0.92688000  1.0
  H  H32  1  0.28640000  0.21981000  0.01320000  1.0
  H  H33  1  0.37334000  0.26640000  0.84324000  1.0
  H  H34  1  0.09154000  0.47517000  0.86246000  1.0
  H  H35  1  0.01280000  0.41271000  0.03025000  1.0
  H  H36  1  0.23185000  0.46619000  0.71385000  1.0
  H  H37  1  0.45362000  0.36623000  0.71519000  1.0
  H  H38  1  0.60849000  0.39607000  0.58344000  1.0
  H  H39  1  0.29747000  0.52802000  0.57534000  1.0
  H  H40  1  0.82260000  0.16962000  0.53195000  1.0
  H  H41  1  0.69312000  0.19282000  0.69387000  1.0
  H  H42  1  0.79820000  0.50168000  0.65129000  1.0
  H  H43  1  0.92078000  0.46493000  0.49287000  1.0
  H  H44  1  0.59203000  0.31297000  0.81078000  1.0
  H  H45  1  0.73059000  0.49149000  0.80032000  1.0
  H  H46  1  0.44852000  0.38685000  0.90962000  1.0
  H  H47  1  0.68736000  0.56360000  0.94124000  1.0
  H  H48  1  0.08772000  0.98038000  0.15885000  1.0
  H  H49  1  0.90438000  0.78914000  0.46803000  1.0
  H  H50  1  0.92419000  0.97611000  0.45432000  1.0
  H  H51  1  0.12560000  0.81746000  0.08423000  1.0
  H  H52  1  0.11299000  0.62848000  0.09881000  1.0
  H  H53  1  0.93437000  0.62782000  0.39208000  1.0
  H  H54  1  0.25520000  0.28967000  0.44527000  1.0
  H  H55  1  0.43680000  0.29098000  0.45959000  1.0
  H  H56  1  0.40928000  0.29988000  0.14866000  1.0
  H  H57  1  0.63978000  0.29458000  0.38461000  1.0
  H  H58  1  0.79177000  0.32346000  0.08752000  1.0
  H  H59  1  0.61022000  0.31757000  0.07312000  1.0
  C  C60  1  0.75400000  0.72417000  0.02341000  1.0
  C  C61  1  0.70532000  0.69629000  0.11788000  1.0
  C  C62  1  0.75789000  0.62082000  0.16255000  1.0
  C  C63  1  0.86235000  0.58215000  0.10746000  1.0
  C  C64  1  0.90632000  0.61525000  0.01394000  1.0
  C  C65  1  0.71101000  0.58027000  0.25908000  1.0
  C  C66  1  0.60374000  0.59045000  0.31368000  1.0
  C  C67  1  0.43913000  0.55826000  0.45346000  1.0
  C  C68  1  0.55383000  0.54476000  0.40821000  1.0
  C  C69  1  0.61397000  0.48524000  0.45709000  1.0
  C  C70  1  0.18588000  0.75861000  0.43774000  1.0
  C  C71  1  0.25736000  0.74477000  0.34820000  1.0
  C  C72  1  0.26560000  0.65062000  0.31197000  1.0
  C  C73  1  0.19865000  0.57397000  0.37053000  1.0
  C  C74  1  0.12988000  0.59343000  0.45909000  1.0
  C  C75  1  0.34344000  0.63305000  0.22017000  1.0
  C  C76  1  0.33973000  0.55610000  0.17212000  1.0
  C  C77  1  0.52798000  0.56483000  0.05025000  1.0
  C  C78  1  0.42131000  0.52996000  0.08446000  1.0
  C  C79  1  0.39498000  0.46401000  0.03256000  1.0
  C  C80  1  0.98530000  0.89742000  0.70364000  1.0
  C  C81  1  0.99369000  0.01103000  0.69518000  1.0
  C  C82  1  0.95188000  0.06256000  0.77409000  1.0
  C  C83  1  0.96030000  0.16921000  0.76878000  1.0
  C  C84  1  0.01526000  0.22350000  0.67995000  1.0
  C  C85  1  0.05678000  0.16905000  0.59986000  1.0
  C  C86  1  0.04554000  0.06549000  0.60709000  1.0
  C  C87  1  0.91562000  0.22429000  0.84837000  1.0
  C  C88  1  0.92296000  0.32845000  0.84081000  1.0
  C  C89  1  0.97740000  0.38251000  0.75319000  1.0
  C  C90  1  0.02376000  0.33010000  0.67490000  1.0
  C  C91  1  0.98077000  0.49656000  0.74486000  1.0
  C  C92  1  0.78704000  0.70576000  0.71368000  1.0
  C  C93  1  0.67773000  0.70602000  0.70466000  1.0
  C  C94  1  0.67000000  0.70781000  0.61606000  1.0
  C  C95  1  0.56946000  0.70694000  0.60840000  1.0
  C  C96  1  0.47210000  0.70176000  0.68862000  1.0
  C  C97  1  0.47982000  0.69735000  0.77835000  1.0
  C  C98  1  0.58382000  0.70169000  0.78377000  1.0
  C  C99  1  0.36782000  0.70017000  0.68302000  1.0
  C  C100  1  0.27460000  0.69145000  0.76238000  1.0
  C  C101  1  0.28281000  0.68429000  0.85120000  1.0
  C  C102  1  0.38301000  0.68784000  0.85882000  1.0
  C  C103  1  0.16549000  0.69009000  0.75349000  1.0
  C  C104  1  0.24600000  0.27583000  0.97659000  1.0
  C  C105  1  0.29468000  0.30371000  0.88212000  1.0
  C  C106  1  0.24211000  0.37918000  0.83745000  1.0
  C  C107  1  0.13765000  0.41785000  0.89254000  1.0
  C  C108  1  0.09368000  0.38476000  0.98606000  1.0
  C  C109  1  0.28899000  0.41973000  0.74092000  1.0
  C  C110  1  0.39626000  0.40955000  0.68632000  1.0
  C  C111  1  0.56086000  0.44174000  0.54654000  1.0
  C  C112  1  0.44617000  0.45524000  0.59179000  1.0
  C  C113  1  0.38602000  0.51476000  0.54291000  1.0
  C  C114  1  0.81412000  0.24140000  0.56226000  1.0
  C  C115  1  0.74264000  0.25523000  0.65180000  1.0
  C  C116  1  0.73440000  0.34938000  0.68803000  1.0
  C  C117  1  0.80135000  0.42603000  0.62947000  1.0
  C  C118  1  0.87012000  0.40657000  0.54091000  1.0
  C  C119  1  0.65656000  0.36695000  0.77984000  1.0
  C  C120  1  0.66027000  0.44390000  0.82788000  1.0
  C  C121  1  0.47202000  0.43517000  0.94975000  1.0
  C  C122  1  0.57869000  0.47003000  0.91554000  1.0
  C  C123  1  0.60502000  0.53599000  0.96744000  1.0
  C  C124  1  0.01470000  0.10258000  0.29636000  1.0
  C  C125  1  0.00631000  0.98897000  0.30482000  1.0
  C  C126  1  0.04812000  0.93744000  0.22591000  1.0
  C  C127  1  0.03971000  0.83080000  0.23122000  1.0
  C  C128  1  0.98474000  0.77650000  0.32005000  1.0
  C  C129  1  0.94322000  0.83095000  0.40014000  1.0
  C  C130  1  0.95446000  0.93451000  0.39291000  1.0
  C  C131  1  0.08438000  0.77571000  0.15163000  1.0
  C  C132  1  0.07704000  0.67155000  0.15919000  1.0
  C  C133  1  0.02260000  0.61749000  0.24681000  1.0
  C  C134  1  0.97624000  0.66990000  0.32510000  1.0
  C  C135  1  0.01923000  0.50344000  0.25514000  1.0
  C  C136  1  0.21296000  0.29424000  0.28632000  1.0
  C  C137  1  0.32227000  0.29398000  0.29534000  1.0
  C  C138  1  0.33000000  0.29220000  0.38394000  1.0
  C  C139  1  0.43054000  0.29306000  0.39160000  1.0
  C  C140  1  0.52790000  0.29824000  0.31138000  1.0
  C  C141  1  0.52018000  0.30265000  0.22165000  1.0
  C  C142  1  0.41618000  0.29831000  0.21623000  1.0
  C  C143  1  0.63218000  0.29983000  0.31698000  1.0
  C  C144  1  0.72540000  0.30856000  0.23762000  1.0
  C  C145  1  0.71719000  0.31571000  0.14880000  1.0
  C  C146  1  0.61698000  0.31216000  0.14118000  1.0
  C  C147  1  0.83451000  0.30991000  0.24651000  1.0
  N  N148  1  0.85280000  0.68374000  0.97119000  1.0
  N  N149  1  0.12323000  0.68392000  0.49294000  1.0
  N  N150  1  0.14720000  0.31626000  0.02881000  1.0
  N  N151  1  0.87677000  0.31608000  0.50706000  1.0
  O  O152  1  0.94605000  0.85257000  0.78545000  1.0
  O  O153  1  0.01883000  0.85445000  0.62851000  1.0
  O  O154  1  0.93130000  0.54156000  0.81814000  1.0
  O  O155  1  0.03228000  0.54068000  0.66474000  1.0
  O  O156  1  0.78697000  0.71251000  0.79446000  1.0
  O  O157  1  0.87183000  0.69645000  0.64029000  1.0
  O  O158  1  0.08170000  0.68112000  0.82836000  1.0
  O  O159  1  0.16445000  0.69762000  0.67172000  1.0
  O  O160  1  0.05395000  0.14744000  0.21455000  1.0
  O  O161  1  0.98117000  0.14555000  0.37149000  1.0
  O  O162  1  0.06870000  0.45844000  0.18186000  1.0
  O  O163  1  0.96773000  0.45932000  0.33526000  1.0
  O  O164  1  0.21302000  0.28749000  0.20555000  1.0
  O  O165  1  0.12817000  0.30355000  0.35971000  1.0
  O  O166  1  0.91830000  0.31888000  0.17164000  1.0
  O  O167  1  0.83555000  0.30237000  0.32828000  1.0
