# generated using pymatgen
data_AgH14C12S(NO)3
_symmetry_space_group_name_H-M   'P 1'
_cell_length_a   5.66152000
_cell_length_b   8.85258000
_cell_length_c   14.34100000
_cell_angle_alpha   73.68880000
_cell_angle_beta   88.26950000
_cell_angle_gamma   74.52290000
_symmetry_Int_Tables_number   1
_chemical_formula_structural   AgH14C12S(NO)3
_chemical_formula_sum   'Ag2 H28 C24 S2 N6 O6'
_cell_volume   664.03415461
_cell_formula_units_Z   2
loop_
 _symmetry_equiv_pos_site_id
 _symmetry_equiv_pos_as_xyz
  1  'x, y, z'
loop_
 _atom_site_type_symbol
 _atom_site_label
 _atom_site_symmetry_multiplicity
 _atom_site_fract_x
 _atom_site_fract_y
 _atom_site_fract_z
 _atom_site_occupancy
  Ag  Ag0  1  0.07206000  0.11682000  0.04639000  1.0
  Ag  Ag1  1  0.92792000  0.88320000  0.95361000  1.0
  H  H2  1  0.82810000  0.86688000  0.30438000  1.0
  H  H3  1  0.17190000  0.13311000  0.69562000  1.0
  H  H4  1  0.73868000  0.68062000  0.45734000  1.0
  H  H5  1  0.26131000  0.31936000  0.54265000  1.0
  H  H6  1  0.98831000  0.97157000  0.42748000  1.0
  H  H7  1  0.01170000  0.02841000  0.57252000  1.0
  H  H8  1  0.07869000  0.16202000  0.27640000  1.0
  H  H9  1  0.92132000  0.83798000  0.72361000  1.0
  H  H10  1  0.10265000  0.71682000  0.55162000  1.0
  H  H11  1  0.89738000  0.28315000  0.44838000  1.0
  H  H12  1  0.36255000  0.72776000  0.61265000  1.0
  H  H13  1  0.63747000  0.27223000  0.38734000  1.0
  H  H14  1  0.39249000  0.57385000  0.55367000  1.0
  H  H15  1  0.60753000  0.42613000  0.44633000  1.0
  H  H16  1  0.13693000  0.56996000  0.72571000  1.0
  H  H17  1  0.86305000  0.43005000  0.27430000  1.0
  H  H18  1  0.83696000  0.50887000  0.62623000  1.0
  H  H19  1  0.16304000  0.49116000  0.37377000  1.0
  H  H20  1  0.59776000  0.30960000  0.70858000  1.0
  H  H21  1  0.40223000  0.69043000  0.29141000  1.0
  H  H22  1  0.51964000  0.13432000  0.86136000  1.0
  H  H23  1  0.48034000  0.86570000  0.13864000  1.0
  H  H24  1  0.61487000  0.15213000  0.96601000  1.0
  H  H25  1  0.38513000  0.84788000  0.03398000  1.0
  H  H26  1  0.22252000  0.39704000  0.98925000  1.0
  H  H27  1  0.77747000  0.60297000  0.01076000  1.0
  H  H28  1  0.28333000  0.54030000  0.88470000  1.0
  H  H29  1  0.71668000  0.45972000  0.11530000  1.0
  C  C30  1  0.46117000  0.03000000  0.28398000  1.0
  C  C31  1  0.53881000  0.97001000  0.71603000  1.0
  C  C32  1  0.64653000  0.89304000  0.33361000  1.0
  C  C33  1  0.35347000  0.10695000  0.66640000  1.0
  C  C34  1  0.59412000  0.78805000  0.41922000  1.0
  C  C35  1  0.40587000  0.21193000  0.58078000  1.0
  C  C36  1  0.35823000  0.81567000  0.45568000  1.0
  C  C37  1  0.64178000  0.18431000  0.54432000  1.0
  C  C38  1  0.17499000  0.95136000  0.40276000  1.0
  C  C39  1  0.82501000  0.04863000  0.59724000  1.0
  C  C40  1  0.22420000  0.05907000  0.31773000  1.0
  C  C41  1  0.77580000  0.94092000  0.68227000  1.0
  C  C42  1  0.30100000  0.70260000  0.54780000  1.0
  C  C43  1  0.69902000  0.29737000  0.45220000  1.0
  C  C44  1  0.05974000  0.40853000  0.85958000  1.0
  C  C45  1  0.94025000  0.59147000  0.14042000  1.0
  C  C46  1  0.03047000  0.48453000  0.75798000  1.0
  C  C47  1  0.96954000  0.51547000  0.24202000  1.0
  C  C48  1  0.86533000  0.44897000  0.70426000  1.0
  C  C49  1  0.13469000  0.55104000  0.29574000  1.0
  C  C50  1  0.73191000  0.33771000  0.74898000  1.0
  C  C51  1  0.26809000  0.66231000  0.25102000  1.0
  C  C52  1  0.77794000  0.26270000  0.84818000  1.0
  C  C53  1  0.22206000  0.73730000  0.15182000  1.0
  S  S54  1  0.52903000  0.16697000  0.17635000  1.0
  S  S55  1  0.47097000  0.83304000  0.82365000  1.0
  N  N56  1  0.93851000  0.29545000  0.90246000  1.0
  N  N57  1  0.06148000  0.70456000  0.09754000  1.0
  N  N58  1  0.21426000  0.44312000  0.91538000  1.0
  N  N59  1  0.78574000  0.55688000  0.08462000  1.0
  N  N60  1  0.66655000  0.14034000  0.89855000  1.0
  N  N61  1  0.33344000  0.85967000  0.10144000  1.0
  O  O62  1  0.29110000  0.26413000  0.12521000  1.0
  O  O63  1  0.70890000  0.73587000  0.87480000  1.0
  O  O64  1  0.66350000  0.26698000  0.20673000  1.0
  O  O65  1  0.33652000  0.73301000  0.79328000  1.0
  O  O66  1  0.68004000  0.05997000  0.12116000  1.0
  O  O67  1  0.31996000  0.94004000  0.87884000  1.0
