# generated using pymatgen
data_MnP2H25C25O9
_symmetry_space_group_name_H-M   'P 1'
_cell_length_a   8.04860000
_cell_length_b   12.49540000
_cell_length_c   26.93830000
_cell_angle_alpha   89.99990000
_cell_angle_beta   89.99980000
_cell_angle_gamma   89.99990000
_symmetry_Int_Tables_number   1
_chemical_formula_structural   MnP2H25C25O9
_chemical_formula_sum   'Mn4 P8 H100 C100 O36'
_cell_volume   2709.19766546
_cell_formula_units_Z   4
loop_
 _symmetry_equiv_pos_site_id
 _symmetry_equiv_pos_as_xyz
  1  'x, y, z'
loop_
 _atom_site_type_symbol
 _atom_site_label
 _atom_site_symmetry_multiplicity
 _atom_site_fract_x
 _atom_site_fract_y
 _atom_site_fract_z
 _atom_site_occupancy
  Mn  Mn0  1  0.62232000  0.25371000  0.96964000  1.0
  Mn  Mn1  1  0.87768000  0.74629000  0.46964000  1.0
  Mn  Mn2  1  0.37768000  0.75372000  0.53036000  1.0
  Mn  Mn3  1  0.12231000  0.24629000  0.03036000  1.0
  P  P4  1  0.39079000  0.43397000  0.03095000  1.0
  P  P5  1  0.50838000  0.62694000  0.44091000  1.0
  P  P6  1  0.10921000  0.56603000  0.53095000  1.0
  P  P7  1  0.99162000  0.37306000  0.94091000  1.0
  P  P8  1  0.60921000  0.93397000  0.46905000  1.0
  P  P9  1  0.49162000  0.12694000  0.05909000  1.0
  P  P10  1  0.89079000  0.06603000  0.96905000  1.0
  P  P11  1  0.00838000  0.87306000  0.55909000  1.0
  H  H12  1  0.88647000  0.89308000  0.08362000  1.0
  H  H13  1  0.95299000  0.02568000  0.09607000  1.0
  H  H14  1  0.06156000  0.91529000  0.12264000  1.0
  H  H15  1  0.11075000  0.84339000  0.24562000  1.0
  H  H16  1  0.31329000  0.82249000  0.22080000  1.0
  H  H17  1  0.13382000  0.78843000  0.18505000  1.0
  H  H18  1  0.65417000  0.20916000  0.85615000  1.0
  H  H19  1  0.44380000  0.23746000  0.84054000  1.0
  H  H20  1  0.58215000  0.34476000  0.85489000  1.0
  H  H21  1  0.46998000  0.67957000  0.17163000  1.0
  H  H22  1  0.23711000  0.67929000  0.28300000  1.0
  H  H23  1  0.00594000  0.43777000  0.10461000  1.0
  H  H24  1  0.49567000  0.93742000  0.30967000  1.0
  H  H25  1  0.71019000  0.52016000  0.27570000  1.0
  H  H26  1  0.27214000  0.62484000  0.22304000  1.0
  H  H27  1  0.30981000  0.59702000  0.10338000  1.0
  H  H28  1  0.62122000  0.48277000  0.36141000  1.0
  H  H29  1  0.15789000  0.50556000  0.17784000  1.0
  H  H30  1  0.44723000  0.80792000  0.37703000  1.0
  H  H31  1  0.88258000  0.99320000  0.18813000  1.0
  H  H32  1  0.70631000  0.98965000  0.14767000  1.0
  H  H33  1  0.74080000  0.41421000  0.05930000  1.0
  H  H34  1  0.62957000  0.98336000  0.23016000  1.0
  H  H35  1  0.55102000  0.46134000  0.46255000  1.0
  H  H36  1  0.21278000  0.51918000  0.98280000  1.0
  H  H37  1  0.61354000  0.10692000  0.58362000  1.0
  H  H38  1  0.54701000  0.97432000  0.59607000  1.0
  H  H39  1  0.43844000  0.08471000  0.62264000  1.0
  H  H40  1  0.38925000  0.15661000  0.74562000  1.0
  H  H41  1  0.18671000  0.17750000  0.72080000  1.0
  H  H42  1  0.36618000  0.21157000  0.68505000  1.0
  H  H43  1  0.84582000  0.79085000  0.35615000  1.0
  H  H44  1  0.05619000  0.76254000  0.34054000  1.0
  H  H45  1  0.91785000  0.65525000  0.35489000  1.0
  H  H46  1  0.03003000  0.32044000  0.67163000  1.0
  H  H47  1  0.26288000  0.32070000  0.78300000  1.0
  H  H48  1  0.49406000  0.56223000  0.60462000  1.0
  H  H49  1  0.00434000  0.06258000  0.80967000  1.0
  H  H50  1  0.78982000  0.47984000  0.77570000  1.0
  H  H51  1  0.22786000  0.37515000  0.72304000  1.0
  H  H52  1  0.19019000  0.40299000  0.60338000  1.0
  H  H53  1  0.87879000  0.51723000  0.86141000  1.0
  H  H54  1  0.34211000  0.49444000  0.67784000  1.0
  H  H55  1  0.05277000  0.19208000  0.87703000  1.0
  H  H56  1  0.61743000  0.00680000  0.68813000  1.0
  H  H57  1  0.79369000  0.01035000  0.64767000  1.0
  H  H58  1  0.75919000  0.58580000  0.55930000  1.0
  H  H59  1  0.87044000  0.01664000  0.73016000  1.0
  H  H60  1  0.94897000  0.53866000  0.96255000  1.0
  H  H61  1  0.28721000  0.48082000  0.48280000  1.0
  H  H62  1  0.11353000  0.39308000  0.41638000  1.0
  H  H63  1  0.04702000  0.52569000  0.40394000  1.0
  H  H64  1  0.93844000  0.41529000  0.37736000  1.0
  H  H65  1  0.88925000  0.34339000  0.25439000  1.0
  H  H66  1  0.68671000  0.32249000  0.27920000  1.0
  H  H67  1  0.86618000  0.28843000  0.31495000  1.0
  H  H68  1  0.34583000  0.70916000  0.64385000  1.0
  H  H69  1  0.55620000  0.73746000  0.65945000  1.0
  H  H70  1  0.41786000  0.84475000  0.64511000  1.0
  H  H71  1  0.53002000  0.17957000  0.32837000  1.0
  H  H72  1  0.76288000  0.17930000  0.21701000  1.0
  H  H73  1  0.99406000  0.93777000  0.39538000  1.0
  H  H74  1  0.50433000  0.43742000  0.19033000  1.0
  H  H75  1  0.28981000  0.02016000  0.22430000  1.0
  H  H76  1  0.72787000  0.12485000  0.27696000  1.0
  H  H77  1  0.69019000  0.09702000  0.39662000  1.0
  H  H78  1  0.37879000  0.98277000  0.13859000  1.0
  H  H79  1  0.84211000  0.00555000  0.32215000  1.0
  H  H80  1  0.55278000  0.30793000  0.12297000  1.0
  H  H81  1  0.11743000  0.49320000  0.31187000  1.0
  H  H82  1  0.29370000  0.48965000  0.35233000  1.0
  H  H83  1  0.25919000  0.91421000  0.44070000  1.0
  H  H84  1  0.37044000  0.48336000  0.26984000  1.0
  H  H85  1  0.44898000  0.96133000  0.03745000  1.0
  H  H86  1  0.78721000  0.01918000  0.51720000  1.0
  H  H87  1  0.38648000  0.60692000  0.91638000  1.0
  H  H88  1  0.45300000  0.47431000  0.90393000  1.0
  H  H89  1  0.56157000  0.58470000  0.87736000  1.0
  H  H90  1  0.61075000  0.65661000  0.75439000  1.0
  H  H91  1  0.81329000  0.67750000  0.77920000  1.0
  H  H92  1  0.63382000  0.71157000  0.81495000  1.0
  H  H93  1  0.15418000  0.29084000  0.14385000  1.0
  H  H94  1  0.94380000  0.26254000  0.15946000  1.0
  H  H95  1  0.08216000  0.15524000  0.14511000  1.0
  H  H96  1  0.96998000  0.82043000  0.82838000  1.0
  H  H97  1  0.73712000  0.82069000  0.71700000  1.0
  H  H98  1  0.50594000  0.06223000  0.89539000  1.0
  H  H99  1  0.99566000  0.56259000  0.69033000  1.0
  H  H100  1  0.21019000  0.97984000  0.72430000  1.0
  H  H101  1  0.77214000  0.87515000  0.77695000  1.0
  H  H102  1  0.80981000  0.90298000  0.89662000  1.0
  H  H103  1  0.12122000  0.01723000  0.63859000  1.0
  H  H104  1  0.65789000  0.99444000  0.82216000  1.0
  H  H105  1  0.94722000  0.69208000  0.62297000  1.0
  H  H106  1  0.38259000  0.50680000  0.81187000  1.0
  H  H107  1  0.20632000  0.51035000  0.85233000  1.0
  H  H108  1  0.24080000  0.08579000  0.94070000  1.0
  H  H109  1  0.12956000  0.51664000  0.76984000  1.0
  H  H110  1  0.05102000  0.03867000  0.53745000  1.0
  H  H111  1  0.71278000  0.98082000  0.01720000  1.0
  C  C112  1  0.43924000  0.57480000  0.10941000  1.0
  C  C113  1  0.50488000  0.74490000  0.35505000  1.0
  C  C114  1  0.78689000  0.63261000  0.19777000  1.0
  C  C115  1  0.63268000  0.90140000  0.24365000  1.0
  C  C116  1  0.02995000  0.53037000  0.17125000  1.0
  C  C117  1  0.56275000  0.76975000  0.30678000  1.0
  C  C118  1  0.52853000  0.62091000  0.14735000  1.0
  C  C119  1  0.65358000  0.58320000  0.29795000  1.0
  C  C120  1  0.77528000  0.51825000  0.12295000  1.0
  C  C121  1  0.94987000  0.59959000  0.20542000  1.0
  C  C122  1  0.68096000  0.47204000  0.08389000  1.0
  C  C123  1  0.55715000  0.87547000  0.28794000  1.0
  C  C124  1  0.71016000  0.71411000  0.23067000  1.0
  C  C125  1  0.71161000  0.82089000  0.21501000  1.0
  C  C126  1  0.64083000  0.68789000  0.27747000  1.0
  C  C127  1  0.51447000  0.49767000  0.07779000  1.0
  C  C128  1  0.60360000  0.56251000  0.34582000  1.0
  C  C129  1  0.94488000  0.49177000  0.13064000  1.0
  C  C130  1  0.19085000  0.67813000  0.24466000  1.0
  C  C131  1  0.82451000  0.95014000  0.15692000  1.0
  C  C132  1  0.93826000  0.94566000  0.11230000  1.0
  C  C133  1  0.69653000  0.59169000  0.15648000  1.0
  C  C134  1  0.53019000  0.64440000  0.37538000  1.0
  C  C135  1  0.18673000  0.78979000  0.22261000  1.0
  C  C136  1  0.54818000  0.26197000  0.86455000  1.0
  C  C137  1  0.06076000  0.42521000  0.60941000  1.0
  C  C138  1  0.99512000  0.25510000  0.85505000  1.0
  C  C139  1  0.71311000  0.36738000  0.69777000  1.0
  C  C140  1  0.86732000  0.09860000  0.74365000  1.0
  C  C141  1  0.47005000  0.46963000  0.67126000  1.0
  C  C142  1  0.93725000  0.23025000  0.80678000  1.0
  C  C143  1  0.97148000  0.37910000  0.64735000  1.0
  C  C144  1  0.84642000  0.41680000  0.79795000  1.0
  C  C145  1  0.72472000  0.48176000  0.62295000  1.0
  C  C146  1  0.55013000  0.40040000  0.70542000  1.0
  C  C147  1  0.81903000  0.52796000  0.58389000  1.0
  C  C148  1  0.94285000  0.12453000  0.78794000  1.0
  C  C149  1  0.78984000  0.28588000  0.73067000  1.0
  C  C150  1  0.78838000  0.17911000  0.71501000  1.0
  C  C151  1  0.85918000  0.31211000  0.77747000  1.0
  C  C152  1  0.98552000  0.50234000  0.57780000  1.0
  C  C153  1  0.89640000  0.43749000  0.84582000  1.0
  C  C154  1  0.55512000  0.50823000  0.63064000  1.0
  C  C155  1  0.30915000  0.32187000  0.74466000  1.0
  C  C156  1  0.67549000  0.04986000  0.65692000  1.0
  C  C157  1  0.56174000  0.05434000  0.61231000  1.0
  C  C158  1  0.80347000  0.40832000  0.65648000  1.0
  C  C159  1  0.96982000  0.35560000  0.87538000  1.0
  C  C160  1  0.31326000  0.21021000  0.72261000  1.0
  C  C161  1  0.95181000  0.73803000  0.36455000  1.0
  C  C162  1  0.56076000  0.07480000  0.39059000  1.0
  C  C163  1  0.49512000  0.24490000  0.14495000  1.0
  C  C164  1  0.21311000  0.13262000  0.30223000  1.0
  C  C165  1  0.36732000  0.40141000  0.25635000  1.0
  C  C166  1  0.97005000  0.03037000  0.32874000  1.0
  C  C167  1  0.43726000  0.26975000  0.19322000  1.0
  C  C168  1  0.47147000  0.12091000  0.35265000  1.0
  C  C169  1  0.34642000  0.08321000  0.20205000  1.0
  C  C170  1  0.22472000  0.01825000  0.37705000  1.0
  C  C171  1  0.05013000  0.09960000  0.29458000  1.0
  C  C172  1  0.31903000  0.97204000  0.41611000  1.0
  C  C173  1  0.44285000  0.37547000  0.21206000  1.0
  C  C174  1  0.28984000  0.21412000  0.26933000  1.0
  C  C175  1  0.28839000  0.32089000  0.28499000  1.0
  C  C176  1  0.35918000  0.18789000  0.22253000  1.0
  C  C177  1  0.48552000  0.99767000  0.42220000  1.0
  C  C178  1  0.39640000  0.06251000  0.15418000  1.0
  C  C179  1  0.05512000  0.99177000  0.36935000  1.0
  C  C180  1  0.80915000  0.17813000  0.25534000  1.0
  C  C181  1  0.17550000  0.45015000  0.34308000  1.0
  C  C182  1  0.06175000  0.44566000  0.38769000  1.0
  C  C183  1  0.30347000  0.09169000  0.34352000  1.0
  C  C184  1  0.46982000  0.14440000  0.12462000  1.0
  C  C185  1  0.81326000  0.28979000  0.27739000  1.0
  C  C186  1  0.45182000  0.76197000  0.63545000  1.0
  C  C187  1  0.93924000  0.92520000  0.89059000  1.0
  C  C188  1  0.00488000  0.75510000  0.64496000  1.0
  C  C189  1  0.28689000  0.86738000  0.80223000  1.0
  C  C190  1  0.13267000  0.59860000  0.75636000  1.0
  C  C191  1  0.52995000  0.96962000  0.82875000  1.0
  C  C192  1  0.06274000  0.73026000  0.69322000  1.0
  C  C193  1  0.02853000  0.87909000  0.85265000  1.0
  C  C194  1  0.15358000  0.91679000  0.70205000  1.0
  C  C195  1  0.27528000  0.98176000  0.87705000  1.0
  C  C196  1  0.44987000  0.90040000  0.79458000  1.0
  C  C197  1  0.18096000  0.02796000  0.91611000  1.0
  C  C198  1  0.05714000  0.62453000  0.71206000  1.0
  C  C199  1  0.21016000  0.78589000  0.76933000  1.0
  C  C200  1  0.21161000  0.67911000  0.78499000  1.0
  C  C201  1  0.14082000  0.81211000  0.72253000  1.0
  C  C202  1  0.01447000  0.00234000  0.92221000  1.0
  C  C203  1  0.10360000  0.93749000  0.65418000  1.0
  C  C204  1  0.44488000  0.00823000  0.86936000  1.0
  C  C205  1  0.69085000  0.82187000  0.75534000  1.0
  C  C206  1  0.32452000  0.54986000  0.84308000  1.0
  C  C207  1  0.43827000  0.55434000  0.88769000  1.0
  C  C208  1  0.19653000  0.90831000  0.84352000  1.0
  C  C209  1  0.03018000  0.85560000  0.62462000  1.0
  C  C210  1  0.68673000  0.71021000  0.77739000  1.0
  C  C211  1  0.04819000  0.23803000  0.13545000  1.0
  O  O212  1  0.49523000  0.25288000  0.91407000  1.0
  O  O213  1  0.02601000  0.63305000  0.24845000  1.0
  O  O214  1  0.50136000  0.37662000  0.99414000  1.0
  O  O215  1  0.30492000  0.53536000  0.00634000  1.0
  O  O216  1  0.79178000  0.84062000  0.17163000  1.0
  O  O217  1  0.67316000  0.63848000  0.46739000  1.0
  O  O218  1  0.36377000  0.69256000  0.46090000  1.0
  O  O219  1  0.25794000  0.36308000  0.05615000  1.0
  O  O220  1  0.45823000  0.49938000  0.44724000  1.0
  O  O221  1  0.00477000  0.74712000  0.41407000  1.0
  O  O222  1  0.47399000  0.36694000  0.74845000  1.0
  O  O223  1  0.99864000  0.62338000  0.49414000  1.0
  O  O224  1  0.19508000  0.46465000  0.50634000  1.0
  O  O225  1  0.70822000  0.15938000  0.67163000  1.0
  O  O226  1  0.82683000  0.36153000  0.96739000  1.0
  O  O227  1  0.13623000  0.30745000  0.96090000  1.0
  O  O228  1  0.24204000  0.63692000  0.55615000  1.0
  O  O229  1  0.04176000  0.50062000  0.94724000  1.0
  O  O230  1  0.50477000  0.75288000  0.58593000  1.0
  O  O231  1  0.97400000  0.13306000  0.25155000  1.0
  O  O232  1  0.49863000  0.87662000  0.50586000  1.0
  O  O233  1  0.69508000  0.03536000  0.49366000  1.0
  O  O234  1  0.20823000  0.34062000  0.32837000  1.0
  O  O235  1  0.32683000  0.13847000  0.03261000  1.0
  O  O236  1  0.63623000  0.19256000  0.03910000  1.0
  O  O237  1  0.74204000  0.86308000  0.44385000  1.0
  O  O238  1  0.54176000  0.99938000  0.05276000  1.0
  O  O239  1  0.99524000  0.24712000  0.08593000  1.0
  O  O240  1  0.52601000  0.86694000  0.75155000  1.0
  O  O241  1  0.00137000  0.12338000  0.00586000  1.0
  O  O242  1  0.80492000  0.96464000  0.99366000  1.0
  O  O243  1  0.29178000  0.65937000  0.82837000  1.0
  O  O244  1  0.17316000  0.86153000  0.53261000  1.0
  O  O245  1  0.86377000  0.80744000  0.53910000  1.0
  O  O246  1  0.75795000  0.13692000  0.94385000  1.0
  O  O247  1  0.95823000  0.00062000  0.55276000  1.0
