# generated using pymatgen
data_ZnH13C14N2O7
_symmetry_space_group_name_H-M   'P 1'
_cell_length_a   9.53068000
_cell_length_b   9.73801000
_cell_length_c   19.08870000
_cell_angle_alpha   95.09120000
_cell_angle_beta   101.25300000
_cell_angle_gamma   111.11600000
_symmetry_Int_Tables_number   1
_chemical_formula_structural   ZnH13C14N2O7
_chemical_formula_sum   'Zn4 H52 C56 N8 O28'
_cell_volume   1596.21062690
_cell_formula_units_Z   4
loop_
 _symmetry_equiv_pos_site_id
 _symmetry_equiv_pos_as_xyz
  1  'x, y, z'
loop_
 _atom_site_type_symbol
 _atom_site_label
 _atom_site_symmetry_multiplicity
 _atom_site_fract_x
 _atom_site_fract_y
 _atom_site_fract_z
 _atom_site_occupancy
  Zn  Zn0  1  0.64309000  0.21078000  0.02299000  1.0
  Zn  Zn1  1  0.35691000  0.78923000  0.97701000  1.0
  Zn  Zn2  1  0.27005000  0.16227000  0.51857000  1.0
  Zn  Zn3  1  0.72996000  0.83773000  0.48143000  1.0
  H  H4  1  0.87537000  0.29748000  0.94216000  1.0
  H  H5  1  0.12463000  0.70253000  0.05784000  1.0
  H  H6  1  0.42983000  0.46006000  0.60197000  1.0
  H  H7  1  0.57018000  0.53994000  0.39803000  1.0
  H  H8  1  0.20314000  0.16359000  0.02839000  1.0
  H  H9  1  0.79685000  0.83640000  0.97161000  1.0
  H  H10  1  0.92771000  0.10549000  0.18515000  1.0
  H  H11  1  0.07229000  0.89452000  0.81485000  1.0
  H  H12  1  0.34494000  0.01614000  0.22599000  1.0
  H  H13  1  0.65506000  0.98386000  0.77401000  1.0
  H  H14  1  0.34564000  0.16798000  0.91818000  1.0
  H  H15  1  0.65436000  0.83202000  0.08182000  1.0
  H  H16  1  0.29310000  0.11169000  0.82248000  1.0
  H  H17  1  0.70690000  0.88832000  0.17752000  1.0
  H  H18  1  0.32866000  0.29727000  0.85894000  1.0
  H  H19  1  0.67134000  0.70274000  0.14106000  1.0
  H  H20  1  0.99352000  0.35864000  0.83056000  1.0
  H  H21  1  0.00648000  0.64136000  0.16944000  1.0
  H  H22  1  0.92711000  0.49407000  0.79652000  1.0
  H  H23  1  0.07289000  0.50593000  0.20348000  1.0
  H  H24  1  0.85790000  0.31205000  0.74495000  1.0
  H  H25  1  0.14210000  0.68795000  0.25505000  1.0
  H  H26  1  0.30672000  0.96285000  0.62128000  1.0
  H  H27  1  0.69328000  0.03715000  0.37872000  1.0
  H  H28  1  0.33727000  0.98589000  0.71736000  1.0
  H  H29  1  0.66273000  0.01410000  0.28264000  1.0
  H  H30  1  0.49159000  0.99329000  0.67695000  1.0
  H  H31  1  0.50840000  0.00670000  0.32305000  1.0
  H  H32  1  0.59130000  0.67044000  0.71161000  1.0
  H  H33  1  0.40871000  0.32956000  0.28839000  1.0
  H  H34  1  0.74606000  0.62914000  0.75996000  1.0
  H  H35  1  0.25395000  0.37086000  0.24004000  1.0
  H  H36  1  0.58517000  0.61212000  0.79691000  1.0
  H  H37  1  0.41483000  0.38788000  0.20309000  1.0
  H  H38  1  0.86985000  0.67664000  0.32874000  1.0
  H  H39  1  0.13016000  0.32336000  0.67126000  1.0
  H  H40  1  0.00242000  0.30170000  0.35730000  1.0
  H  H41  1  0.99758000  0.69829000  0.64270000  1.0
  H  H42  1  0.24098000  0.71676000  0.50838000  1.0
  H  H43  1  0.75902000  0.28322000  0.49162000  1.0
  H  H44  1  0.73411000  0.50660000  0.06799000  1.0
  H  H45  1  0.26589000  0.49340000  0.93201000  1.0
  H  H46  1  0.69616000  0.43051000  0.13692000  1.0
  H  H47  1  0.30384000  0.56949000  0.86308000  1.0
  H  H48  1  0.51742000  0.29921000  0.46158000  1.0
  H  H49  1  0.48259000  0.70080000  0.53842000  1.0
  H  H50  1  0.38752000  0.14759000  0.40966000  1.0
  H  H51  1  0.61249000  0.85241000  0.59034000  1.0
  H  H52  1  0.97527000  0.96873000  0.34875000  1.0
  H  H53  1  0.02474000  0.03126000  0.65126000  1.0
  H  H54  1  0.70779000  0.20635000  0.20314000  1.0
  H  H55  1  0.29220000  0.79366000  0.79686000  1.0
  C  C56  1  0.28558000  0.08408000  0.12382000  1.0
  C  C57  1  0.71442000  0.91592000  0.87618000  1.0
  C  C58  1  0.18173000  0.12968000  0.07936000  1.0
  C  C59  1  0.81826000  0.87031000  0.92064000  1.0
  C  C60  1  0.05332000  0.13805000  0.10153000  1.0
  C  C61  1  0.94667000  0.86195000  0.89847000  1.0
  C  C62  1  0.02609000  0.09593000  0.16744000  1.0
  C  C63  1  0.97391000  0.90408000  0.83256000  1.0
  C  C64  1  0.13046000  0.05060000  0.21211000  1.0
  C  C65  1  0.86954000  0.94940000  0.78789000  1.0
  C  C66  1  0.26039000  0.04572000  0.19029000  1.0
  C  C67  1  0.73960000  0.95429000  0.80971000  1.0
  C  C68  1  0.43446000  0.09659000  0.10557000  1.0
  C  C69  1  0.56554000  0.90341000  0.89443000  1.0
  C  C70  1  0.11674000  0.02105000  0.28617000  1.0
  C  C71  1  0.88326000  0.97895000  0.71383000  1.0
  C  C72  1  0.94934000  0.19779000  0.05568000  1.0
  C  C73  1  0.05065000  0.80221000  0.94432000  1.0
  C  C74  1  0.36628000  0.20433000  0.86708000  1.0
  C  C75  1  0.63372000  0.79567000  0.13292000  1.0
  C  C76  1  0.53236000  0.24989000  0.86603000  1.0
  C  C77  1  0.46764000  0.75011000  0.13397000  1.0
  C  C78  1  0.60281000  0.29325000  0.80859000  1.0
  C  C79  1  0.39719000  0.70675000  0.19141000  1.0
  C  C80  1  0.76103000  0.32508000  0.83583000  1.0
  C  C81  1  0.23898000  0.67492000  0.16417000  1.0
  C  C82  1  0.89197000  0.37481000  0.80032000  1.0
  C  C83  1  0.10803000  0.62519000  0.19968000  1.0
  C  C84  1  0.39001000  0.02348000  0.67281000  1.0
  C  C85  1  0.60999000  0.97652000  0.32719000  1.0
  C  C86  1  0.43701000  0.18750000  0.67681000  1.0
  C  C87  1  0.56299000  0.81250000  0.32319000  1.0
  C  C88  1  0.52931000  0.30462000  0.73575000  1.0
  C  C89  1  0.47069000  0.69538000  0.26425000  1.0
  C  C90  1  0.53971000  0.43725000  0.70973000  1.0
  C  C91  1  0.46029000  0.56275000  0.29027000  1.0
  C  C92  1  0.61954000  0.59539000  0.74626000  1.0
  C  C93  1  0.38046000  0.40461000  0.25374000  1.0
  C  C94  1  0.22744000  0.43301000  0.48296000  1.0
  C  C95  1  0.77256000  0.56698000  0.51704000  1.0
  C  C96  1  0.05536000  0.71133000  0.42228000  1.0
  C  C97  1  0.94464000  0.28866000  0.57773000  1.0
  C  C98  1  0.94357000  0.62798000  0.35925000  1.0
  C  C99  1  0.05643000  0.37202000  0.64075000  1.0
  C  C100  1  0.92730000  0.48195000  0.33443000  1.0
  C  C101  1  0.07270000  0.51805000  0.66557000  1.0
  C  C102  1  0.01842000  0.41704000  0.37477000  1.0
  C  C103  1  0.98158000  0.58296000  0.62523000  1.0
  C  C104  1  0.13156000  0.50131000  0.43780000  1.0
  C  C105  1  0.86844000  0.49868000  0.56220000  1.0
  C  C106  1  0.15171000  0.64909000  0.46031000  1.0
  C  C107  1  0.84828000  0.35090000  0.53969000  1.0
  C  C108  1  0.07584000  0.86866000  0.44778000  1.0
  C  C109  1  0.92416000  0.13133000  0.55222000  1.0
  C  C110  1  0.81506000  0.40136000  0.26417000  1.0
  C  C111  1  0.18494000  0.59864000  0.73582000  1.0
  N  N112  1  0.64223000  0.25542000  0.92405000  1.0
  N  N113  1  0.35777000  0.74458000  0.07595000  1.0
  N  N114  1  0.77981000  0.30217000  0.90490000  1.0
  N  N115  1  0.22019000  0.69783000  0.09510000  1.0
  N  N116  1  0.39495000  0.24711000  0.61931000  1.0
  N  N117  1  0.60505000  0.75289000  0.38069000  1.0
  N  N118  1  0.45843000  0.39755000  0.64004000  1.0
  N  N119  1  0.54157000  0.60245000  0.35995000  1.0
  O  O120  1  0.43875000  0.10398000  0.03856000  1.0
  O  O121  1  0.56124000  0.89603000  0.96144000  1.0
  O  O122  1  0.66839000  0.41663000  0.08214000  1.0
  O  O123  1  0.33161000  0.58337000  0.91786000  1.0
  O  O124  1  0.44245000  0.19607000  0.46012000  1.0
  O  O125  1  0.55756000  0.80393000  0.53988000  1.0
  O  O126  1  0.54640000  0.10434000  0.15515000  1.0
  O  O127  1  0.45360000  0.89567000  0.84485000  1.0
  O  O128  1  0.97690000  0.99431000  0.29742000  1.0
  O  O129  1  0.02310000  0.00569000  0.70258000  1.0
  O  O130  1  0.22859000  0.02252000  0.33259000  1.0
  O  O131  1  0.77141000  0.97748000  0.66741000  1.0
  O  O132  1  0.82212000  0.17961000  0.07484000  1.0
  O  O133  1  0.17787000  0.82040000  0.92516000  1.0
  O  O134  1  0.99215000  0.26029000  0.00417000  1.0
  O  O135  1  0.00784000  0.73970000  0.99583000  1.0
  O  O136  1  0.17482000  0.28985000  0.47050000  1.0
  O  O137  1  0.82518000  0.71014000  0.52950000  1.0
  O  O138  1  0.34910000  0.51790000  0.53042000  1.0
  O  O139  1  0.65090000  0.48210000  0.46958000  1.0
  O  O140  1  0.97306000  0.91639000  0.42116000  1.0
  O  O141  1  0.02695000  0.08361000  0.57884000  1.0
  O  O142  1  0.20118000  0.94640000  0.49563000  1.0
  O  O143  1  0.79883000  0.05359000  0.50437000  1.0
  O  O144  1  0.74343000  0.46302000  0.22526000  1.0
  O  O145  1  0.25658000  0.53699000  0.77474000  1.0
  O  O146  1  0.80060000  0.26154000  0.24634000  1.0
  O  O147  1  0.19940000  0.73847000  0.75365000  1.0
