# generated using pymatgen
data_CuH16C10N16(ClO3)2
_symmetry_space_group_name_H-M   'P 1'
_cell_length_a   6.81011000
_cell_length_b   8.11893000
_cell_length_c   10.15710000
_cell_angle_alpha   107.55600000
_cell_angle_beta   101.04700000
_cell_angle_gamma   90.93810000
_symmetry_Int_Tables_number   1
_chemical_formula_structural   CuH16C10N16(ClO3)2
_chemical_formula_sum   'Cu1 H16 C10 N16 Cl2 O6'
_cell_volume   523.86179708
_cell_formula_units_Z   1
loop_
 _symmetry_equiv_pos_site_id
 _symmetry_equiv_pos_as_xyz
  1  'x, y, z'
loop_
 _atom_site_type_symbol
 _atom_site_label
 _atom_site_symmetry_multiplicity
 _atom_site_fract_x
 _atom_site_fract_y
 _atom_site_fract_z
 _atom_site_occupancy
  Cu  Cu0  1  0.50000000  0.00000000  0.50000000  1.0
  H  H1  1  0.67800000  0.40247000  0.56291000  1.0
  H  H2  1  0.32201000  0.59752000  0.43709000  1.0
  H  H3  1  0.84153000  0.67740000  0.74300000  1.0
  H  H4  1  0.15847000  0.32260000  0.25700000  1.0
  H  H5  1  0.02900000  0.63581000  0.87566000  1.0
  H  H6  1  0.97100000  0.36419000  0.12434000  1.0
  H  H7  1  0.82532000  0.87542000  0.97882000  1.0
  H  H8  1  0.17468000  0.12458000  0.02117000  1.0
  H  H9  1  0.81453000  0.70084000  0.04715000  1.0
  H  H10  1  0.18547000  0.29916000  0.95284000  1.0
  H  H11  1  0.48279000  0.78841000  0.01603000  1.0
  H  H12  1  0.51722000  0.21158000  0.98397000  1.0
  H  H13  1  0.47423000  0.58994000  0.87981000  1.0
  H  H14  1  0.52577000  0.41006000  0.12019000  1.0
  H  H15  1  0.11373000  0.97762000  0.65553000  1.0
  H  H16  1  0.88627000  0.02238000  0.34447000  1.0
  C  C17  1  0.70379000  0.35412000  0.65312000  1.0
  C  C18  1  0.29622000  0.64588000  0.34688000  1.0
  C  C19  1  0.86728000  0.63169000  0.83540000  1.0
  C  C20  1  0.13272000  0.36831000  0.16460000  1.0
  C  C21  1  0.76769000  0.73961000  0.95192000  1.0
  C  C22  1  0.23231000  0.26039000  0.04807000  1.0
  C  C23  1  0.53918000  0.72535000  0.92040000  1.0
  C  C24  1  0.46083000  0.27465000  0.07960000  1.0
  C  C25  1  0.24628000  0.92337000  0.69789000  1.0
  C  C26  1  0.75372000  0.07663000  0.30211000  1.0
  N  N27  1  0.78908000  0.44988000  0.78455000  1.0
  N  N28  1  0.21093000  0.55012000  0.21545000  1.0
  N  N29  1  0.79684000  0.35021000  0.87095000  1.0
  N  N30  1  0.20316000  0.64979000  0.12905000  1.0
  N  N31  1  0.71858000  0.19710000  0.79335000  1.0
  N  N32  1  0.28142000  0.80290000  0.20666000  1.0
  N  N33  1  0.66024000  0.19561000  0.65709000  1.0
  N  N34  1  0.33976000  0.80439000  0.34291000  1.0
  N  N35  1  0.26604000  0.86368000  0.80796000  1.0
  N  N36  1  0.73396000  0.13632000  0.19205000  1.0
  N  N37  1  0.45143000  0.80967000  0.81648000  1.0
  N  N38  1  0.54857000  0.19033000  0.18352000  1.0
  N  N39  1  0.54386000  0.83112000  0.71983000  1.0
  N  N40  1  0.45613000  0.16887000  0.28017000  1.0
  N  N41  1  0.41490000  0.90417000  0.64394000  1.0
  N  N42  1  0.58510000  0.09583000  0.35606000  1.0
  Cl  Cl43  1  0.16766000  0.34212000  0.60221000  1.0
  Cl  Cl44  1  0.83233000  0.65788000  0.39778000  1.0
  O  O45  1  0.19354000  0.16555000  0.50489000  1.0
  O  O46  1  0.80647000  0.83446000  0.49511000  1.0
  O  O47  1  0.30055000  0.47291000  0.57543000  1.0
  O  O48  1  0.69945000  0.52709000  0.42457000  1.0
  O  O49  1  0.24432000  0.34271000  0.75113000  1.0
  O  O50  1  0.75567000  0.65730000  0.24887000  1.0
