# generated using pymatgen
data_Cd2H10C19(O5F3)2
_symmetry_space_group_name_H-M   'P 1'
_cell_length_a   7.85454000
_cell_length_b   10.42390000
_cell_length_c   12.81694039
_cell_angle_alpha   89.01650082
_cell_angle_beta   72.16649293
_cell_angle_gamma   89.98580000
_symmetry_Int_Tables_number   1
_chemical_formula_structural   Cd2H10C19(O5F3)2
_chemical_formula_sum   'Cd4 H20 C38 O20 F12'
_cell_volume   998.80269249
_cell_formula_units_Z   2
loop_
 _symmetry_equiv_pos_site_id
 _symmetry_equiv_pos_as_xyz
  1  'x, y, z'
loop_
 _atom_site_type_symbol
 _atom_site_label
 _atom_site_symmetry_multiplicity
 _atom_site_fract_x
 _atom_site_fract_y
 _atom_site_fract_z
 _atom_site_occupancy
  Cd  Cd0  1  0.13601000  0.65210000  0.53438000  1.0
  Cd  Cd1  1  0.67020000  0.84819000  0.46549000  1.0
  Cd  Cd2  1  0.86399000  0.34790000  0.46562000  1.0
  Cd  Cd3  1  0.32980000  0.15181000  0.53451000  1.0
  H  H4  1  0.69594000  0.16437000  0.19388000  1.0
  H  H5  1  0.88989000  0.33566000  0.80631000  1.0
  H  H6  1  0.30406000  0.83563000  0.80612000  1.0
  H  H7  1  0.11011000  0.66434000  0.19369000  1.0
  H  H8  1  0.56037000  0.12615000  0.04894000  1.0
  H  H9  1  0.60908000  0.37404000  0.95097000  1.0
  H  H10  1  0.43963000  0.87385000  0.95106000  1.0
  H  H11  1  0.39092000  0.62596000  0.04903000  1.0
  H  H12  1  0.15559000  0.40681000  0.18941000  1.0
  H  H13  1  0.34557000  0.09293000  0.81045000  1.0
  H  H14  1  0.84441000  0.59319000  0.81059000  1.0
  H  H15  1  0.65443000  0.90707000  0.18955000  1.0
  H  H16  1  0.09299000  0.89320000  0.66376000  1.0
  H  H17  1  0.75651000  0.60676000  0.33629000  1.0
  H  H18  1  0.90701000  0.10680000  0.33624000  1.0
  H  H19  1  0.24349000  0.39324000  0.66371000  1.0
  H  H20  1  0.92801000  0.87866000  0.62434000  1.0
  H  H21  1  0.55216000  0.62146000  0.37552000  1.0
  H  H22  1  0.07200000  0.12134000  0.37565000  1.0
  H  H23  1  0.44784000  0.37854000  0.62448000  1.0
  C  C24  1  0.35414000  0.37788000  0.26970000  1.0
  C  C25  1  0.62437000  0.12198000  0.73033000  1.0
  C  C26  1  0.64586000  0.62212000  0.73030000  1.0
  C  C27  1  0.37563000  0.87803000  0.26967000  1.0
  C  C28  1  0.51051000  0.31294000  0.27034000  1.0
  C  C29  1  0.78126000  0.18693000  0.72985000  1.0
  C  C30  1  0.48950000  0.68706000  0.72966000  1.0
  C  C31  1  0.21874000  0.81307000  0.27015000  1.0
  C  C32  1  0.57872000  0.21898000  0.19197000  1.0
  C  C33  1  0.77088000  0.28095000  0.80820000  1.0
  C  C34  1  0.42129000  0.78102000  0.80803000  1.0
  C  C35  1  0.22912000  0.71904000  0.19180000  1.0
  C  C36  1  0.50170000  0.19755000  0.10988000  1.0
  C  C37  1  0.61158000  0.30247000  0.89012000  1.0
  C  C38  1  0.49830000  0.80245000  0.89012000  1.0
  C  C39  1  0.38843000  0.69752000  0.10988000  1.0
  C  C40  1  0.35523000  0.26991000  0.10207000  1.0
  C  C41  1  0.45747000  0.23001000  0.89787000  1.0
  C  C42  1  0.64478000  0.73009000  0.89792000  1.0
  C  C43  1  0.54253000  0.76999000  0.10213000  1.0
  C  C44  1  0.27727000  0.35506000  0.18590000  1.0
  C  C45  1  0.46360000  0.14475000  0.81407000  1.0
  C  C46  1  0.72273000  0.64494000  0.81410000  1.0
  C  C47  1  0.53640000  0.85525000  0.18593000  1.0
  C  C48  1  0.26265000  0.46993000  0.35716000  1.0
  C  C49  1  0.62065000  0.02999000  0.64278000  1.0
  C  C50  1  0.73734000  0.53007000  0.64284000  1.0
  C  C51  1  0.37935000  0.97001000  0.35722000  1.0
  C  C52  1  0.61425000  0.33389000  0.34939000  1.0
  C  C53  1  0.96405000  0.16606000  0.65079000  1.0
  C  C54  1  0.38575000  0.66611000  0.65061000  1.0
  C  C55  1  0.03595000  0.83394000  0.34921000  1.0
  C  C56  1  0.29299000  0.24995000  0.99994000  1.0
  C  C57  1  0.70701000  0.75005000  0.00006000  1.0
  C  C58  1  0.16439000  0.13230000  0.02481000  1.0
  C  C59  1  0.18929000  0.36761000  0.97502000  1.0
  C  C60  1  0.83562000  0.86770000  0.97519000  1.0
  C  C61  1  0.81072000  0.63239000  0.02498000  1.0
  O  O62  1  0.09463000  0.48568000  0.37971000  1.0
  O  O63  1  0.47517000  0.01409000  0.62022000  1.0
  O  O64  1  0.90536000  0.51433000  0.62029000  1.0
  O  O65  1  0.52483000  0.98590000  0.37978000  1.0
  O  O66  1  0.35397000  0.53116000  0.40775000  1.0
  O  O67  1  0.76265000  0.96898000  0.59202000  1.0
  O  O68  1  0.64603000  0.46884000  0.59225000  1.0
  O  O69  1  0.23735000  0.03102000  0.40798000  1.0
  O  O70  1  0.74759000  0.40888000  0.32152000  1.0
  O  O71  1  0.06966000  0.09114000  0.67869000  1.0
  O  O72  1  0.25241000  0.59113000  0.67848000  1.0
  O  O73  1  0.93034000  0.90887000  0.32131000  1.0
  O  O74  1  0.57866000  0.26473000  0.43740000  1.0
  O  O75  1  0.01624000  0.23509000  0.56272000  1.0
  O  O76  1  0.42133000  0.73527000  0.56260000  1.0
  O  O77  1  0.98375000  0.76491000  0.43728000  1.0
  O  O78  1  0.01969000  0.82738000  0.64476000  1.0
  O  O79  1  0.66427000  0.67266000  0.35520000  1.0
  O  O80  1  0.98031000  0.17262000  0.35524000  1.0
  O  O81  1  0.33573000  0.32735000  0.64480000  1.0
  F  F82  1  0.25530000  0.02317000  0.03373000  1.0
  F  F83  1  0.28915000  0.47671000  0.96612000  1.0
  F  F84  1  0.74471000  0.97683000  0.96626000  1.0
  F  F85  1  0.71086000  0.52329000  0.03388000  1.0
  F  F86  1  0.08481000  0.11336000  0.94562000  1.0
  F  F87  1  0.03050000  0.38667000  0.05417000  1.0
  F  F88  1  0.91518000  0.88664000  0.05438000  1.0
  F  F89  1  0.96951000  0.61333000  0.94583000  1.0
  F  F90  1  0.03162000  0.14418000  0.12085000  1.0
  F  F91  1  0.15253000  0.35577000  0.87898000  1.0
  F  F92  1  0.96837000  0.85582000  0.87916000  1.0
  F  F93  1  0.84747000  0.64422000  0.12102000  1.0
