# generated using pymatgen
data_Zn4H8C40Br4Cl8O13
_symmetry_space_group_name_H-M   'P 1'
_cell_length_a   23.98791649
_cell_length_b   23.98840000
_cell_length_c   23.98670000
_cell_angle_alpha   66.58630000
_cell_angle_beta   72.46019621
_cell_angle_gamma   107.53555471
_symmetry_Int_Tables_number   1
_chemical_formula_structural   Zn4H8C40Br4Cl8O13
_chemical_formula_sum   'Zn8 H16 C80 Br8 Cl16 O26'
_cell_volume   10587.07346776
_cell_formula_units_Z   2
loop_
 _symmetry_equiv_pos_site_id
 _symmetry_equiv_pos_as_xyz
  1  'x, y, z'
loop_
 _atom_site_type_symbol
 _atom_site_label
 _atom_site_symmetry_multiplicity
 _atom_site_fract_x
 _atom_site_fract_y
 _atom_site_fract_z
 _atom_site_occupancy
  Zn  Zn0  1  0.05694000  0.09924000  0.45769000  1.0
  Zn  Zn1  1  0.05693000  0.95770000  0.48536000  1.0
  Zn  Zn2  1  0.94306000  0.95769000  0.59924000  1.0
  Zn  Zn3  1  0.94308000  0.98538000  0.45769000  1.0
  Zn  Zn4  1  0.94307000  0.40077000  0.04230000  1.0
  Zn  Zn5  1  0.05694000  0.54231000  0.90076000  1.0
  Zn  Zn6  1  0.94307000  0.54230000  0.01463000  1.0
  Zn  Zn7  1  0.05692000  0.51462000  0.04231000  1.0
  H  H8  1  0.92383000  0.20911000  0.90092000  1.0
  H  H9  1  0.07616000  0.40092000  0.70907000  1.0
  H  H10  1  0.92383000  0.09908000  0.79092000  1.0
  H  H11  1  0.07612000  0.29092000  0.59906000  1.0
  H  H12  1  0.07618000  0.67528000  0.21471000  1.0
  H  H13  1  0.92384000  0.71476000  0.17523000  1.0
  H  H14  1  0.07612000  0.78521000  0.32480000  1.0
  H  H15  1  0.92383000  0.82475000  0.28526000  1.0
  H  H16  1  0.61001000  0.20910000  0.21477000  1.0
  H  H17  1  0.61001000  0.40093000  0.17522000  1.0
  H  H18  1  0.39000000  0.09908000  0.32478000  1.0
  H  H19  1  0.38999000  0.29089000  0.28530000  1.0
  H  H20  1  0.39000000  0.71480000  0.70909000  1.0
  H  H21  1  0.38998000  0.67523000  0.90094000  1.0
  H  H22  1  0.61002000  0.82478000  0.59905000  1.0
  H  H23  1  0.61000000  0.78528000  0.79090000  1.0
  C  C24  1  0.18112000  0.09055000  0.40944000  1.0
  C  C25  1  0.99999000  0.86317000  0.63684000  1.0
  C  C26  1  0.99999000  0.09055000  0.59056000  1.0
  C  C27  1  0.81889000  0.90945000  0.59054000  1.0
  C  C28  1  0.00001000  0.13684000  0.36316000  1.0
  C  C29  1  0.00000000  0.90945000  0.40944000  1.0
  C  C30  1  0.00000000  0.40946000  0.90943000  1.0
  C  C31  1  0.00001000  0.63683000  0.86316000  1.0
  C  C32  1  0.81889000  0.40945000  0.09056000  1.0
  C  C33  1  0.99999000  0.59056000  0.09056000  1.0
  C  C34  1  0.00000000  0.36317000  0.13683000  1.0
  C  C35  1  0.18111000  0.59056000  0.90946000  1.0
  C  C36  1  0.00000000  0.19494000  0.30506000  1.0
  C  C37  1  0.00000000  0.30506000  0.19494000  1.0
  C  C38  1  0.95717000  0.18027000  0.27690000  1.0
  C  C39  1  0.04283000  0.31973000  0.22310000  1.0
  C  C40  1  0.95717000  0.23407000  0.22310000  1.0
  C  C41  1  0.04283000  0.26593000  0.27690000  1.0
  C  C42  1  0.00000000  0.80506000  0.69494000  1.0
  C  C43  1  0.00000000  0.69494000  0.80506000  1.0
  C  C44  1  0.95717000  0.77690000  0.76594000  1.0
  C  C45  1  0.04284000  0.72311000  0.73406000  1.0
  C  C46  1  0.95717000  0.72309000  0.81974000  1.0
  C  C47  1  0.04283000  0.77690000  0.68026000  1.0
  C  C48  1  0.00000000  0.37195000  0.87192000  1.0
  C  C49  1  0.95730000  0.29925000  0.90669000  1.0
  C  C50  1  0.95734000  0.26456000  0.87195000  1.0
  C  C51  1  0.99999000  0.30044000  0.80044000  1.0
  C  C52  1  0.04265000  0.37196000  0.76453000  1.0
  C  C53  1  0.04269000  0.40670000  0.79923000  1.0
  C  C54  1  0.99999000  0.26521000  0.76520000  1.0
  C  C55  1  0.99998000  0.23480000  0.73480000  1.0
  C  C56  1  0.99998000  0.19956000  0.69956000  1.0
  C  C57  1  0.95734000  0.12805000  0.73546000  1.0
  C  C58  1  0.95729000  0.09330000  0.70077000  1.0
  C  C59  1  0.99998000  0.12807000  0.62807000  1.0
  C  C60  1  0.04266000  0.20077000  0.59329000  1.0
  C  C61  1  0.04261000  0.23545000  0.62804000  1.0
  C  C62  1  0.00001000  0.62809000  0.12804000  1.0
  C  C63  1  0.04271000  0.63603000  0.15803000  1.0
  C  C64  1  0.04266000  0.67073000  0.19277000  1.0
  C  C65  1  0.00000000  0.69957000  0.19955000  1.0
  C  C66  1  0.95736000  0.69283000  0.17068000  1.0
  C  C67  1  0.95732000  0.65810000  0.13597000  1.0
  C  C68  1  0.99999000  0.73480000  0.23479000  1.0
  C  C69  1  0.99999000  0.76520000  0.26521000  1.0
  C  C70  1  0.99998000  0.80042000  0.30045000  1.0
  C  C71  1  0.04262000  0.80716000  0.32933000  1.0
  C  C72  1  0.04265000  0.84188000  0.36405000  1.0
  C  C73  1  0.99998000  0.87191000  0.37195000  1.0
  C  C74  1  0.95729000  0.86399000  0.34195000  1.0
  C  C75  1  0.95734000  0.82929000  0.30720000  1.0
  C  C76  1  0.74387000  0.37194000  0.12807000  1.0
  C  C77  1  0.70593000  0.29924000  0.15809000  1.0
  C  C78  1  0.63650000  0.26456000  0.19282000  1.0
  C  C79  1  0.60088000  0.30045000  0.19957000  1.0
  C  C80  1  0.63649000  0.37195000  0.17070000  1.0
  C  C81  1  0.70593000  0.40670000  0.13599000  1.0
  C  C82  1  0.53040000  0.26520000  0.23482000  1.0
  C  C83  1  0.46959000  0.23479000  0.26523000  1.0
  C  C84  1  0.39912000  0.19955000  0.30047000  1.0
  C  C85  1  0.36351000  0.12804000  0.32933000  1.0
  C  C86  1  0.29407000  0.09330000  0.36403000  1.0
  C  C87  1  0.25613000  0.12805000  0.37196000  1.0
  C  C88  1  0.29406000  0.20074000  0.34198000  1.0
  C  C89  1  0.36350000  0.23544000  0.30723000  1.0
  C  C90  1  0.25613000  0.62808000  0.87195000  1.0
  C  C91  1  0.29407000  0.65810000  0.79924000  1.0
  C  C92  1  0.36351000  0.69284000  0.76455000  1.0
  C  C93  1  0.39912000  0.69957000  0.80045000  1.0
  C  C94  1  0.36350000  0.67070000  0.87197000  1.0
  C  C95  1  0.29406000  0.63600000  0.90671000  1.0
  C  C96  1  0.46960000  0.73482000  0.76520000  1.0
  C  C97  1  0.53041000  0.76523000  0.73478000  1.0
  C  C98  1  0.60088000  0.80046000  0.69954000  1.0
  C  C99  1  0.63650000  0.82932000  0.62803000  1.0
  C  C100  1  0.70594000  0.86403000  0.59328000  1.0
  C  C101  1  0.74387000  0.87195000  0.62805000  1.0
  C  C102  1  0.70593000  0.84195000  0.70075000  1.0
  C  C103  1  0.63649000  0.80722000  0.73544000  1.0
  Br  Br104  1  0.89691000  0.08807000  0.30885000  1.0
  Br  Br105  1  0.10309000  0.41194000  0.19115000  1.0
  Br  Br106  1  0.89691000  0.20576000  0.19116000  1.0
  Br  Br107  1  0.10309000  0.29424000  0.30884000  1.0
  Br  Br108  1  0.89691000  0.80884000  0.79426000  1.0
  Br  Br109  1  0.10309000  0.69116000  0.70574000  1.0
  Br  Br110  1  0.89691000  0.69114000  0.91195000  1.0
  Br  Br111  1  0.10309000  0.80886000  0.58805000  1.0
  Cl  Cl112  1  0.90117000  0.24572000  0.99444000  1.0
  Cl  Cl113  1  0.09882000  0.49443000  0.74569000  1.0
  Cl  Cl114  1  0.90117000  0.00556000  0.75432000  1.0
  Cl  Cl115  1  0.09875000  0.25429000  0.50555000  1.0
  Cl  Cl116  1  0.09885000  0.60445000  0.15541000  1.0
  Cl  Cl117  1  0.90120000  0.65551000  0.10436000  1.0
  Cl  Cl118  1  0.09875000  0.84445000  0.39568000  1.0
  Cl  Cl119  1  0.90117000  0.89560000  0.34454000  1.0
  Cl  Cl120  1  0.74014000  0.24572000  0.15550000  1.0
  Cl  Cl121  1  0.74014000  0.49444000  0.10435000  1.0
  Cl  Cl122  1  0.25987000  0.00557000  0.39565000  1.0
  Cl  Cl123  1  0.25985000  0.25426000  0.34461000  1.0
  Cl  Cl124  1  0.25988000  0.65555000  0.74569000  1.0
  Cl  Cl125  1  0.25985000  0.60436000  0.99446000  1.0
  Cl  Cl126  1  0.74015000  0.89564000  0.50554000  1.0
  Cl  Cl127  1  0.74013000  0.84456000  0.75428000  1.0
  O  O128  1  0.00000000  0.00000000  0.50000000  1.0
  O  O129  1  0.15181000  0.12611000  0.41376000  1.0
  O  O130  1  0.03951000  0.88566000  0.57482000  1.0
  O  O131  1  0.96009000  0.02568000  0.62613000  1.0
  O  O132  1  0.15181000  0.02568000  0.43441000  1.0
  O  O133  1  0.03990000  0.12610000  0.52570000  1.0
  O  O134  1  0.96048000  0.88566000  0.65386000  1.0
  O  O135  1  0.84819000  0.91377000  0.62610000  1.0
  O  O136  1  0.96050000  0.07483000  0.38565000  1.0
  O  O137  1  0.84820000  0.93443000  0.52567000  1.0
  O  O138  1  0.03951000  0.15385000  0.38567000  1.0
  O  O139  1  0.03990000  0.91379000  0.43440000  1.0
  O  O140  1  0.96011000  0.93442000  0.41377000  1.0
  O  O141  1  0.00000000  0.50000000  0.00000000  1.0
  O  O142  1  0.96011000  0.37390000  0.97430000  1.0
  O  O143  1  0.03952000  0.61435000  0.84614000  1.0
  O  O144  1  0.84819000  0.47431000  0.06560000  1.0
  O  O145  1  0.03989000  0.47431000  0.87387000  1.0
  O  O146  1  0.84819000  0.37389000  0.08623000  1.0
  O  O147  1  0.96049000  0.61434000  0.92518000  1.0
  O  O148  1  0.96010000  0.58623000  0.06558000  1.0
  O  O149  1  0.03951000  0.42517000  0.11434000  1.0
  O  O150  1  0.03987000  0.56557000  0.08624000  1.0
  O  O151  1  0.96048000  0.34614000  0.11434000  1.0
  O  O152  1  0.15181000  0.58622000  0.87390000  1.0
  O  O153  1  0.15180000  0.56558000  0.97433000  1.0
