# generated using pymatgen
data_CdH19C18N3O5
_symmetry_space_group_name_H-M   'P 1'
_cell_length_a   15.97480000
_cell_length_b   16.32030000
_cell_length_c   17.44350000
_cell_angle_alpha   89.99970000
_cell_angle_beta   90.00010000
_cell_angle_gamma   119.31200000
_symmetry_Int_Tables_number   1
_chemical_formula_structural   CdH19C18N3O5
_chemical_formula_sum   'Cd8 H152 C144 N24 O40'
_cell_volume   3965.49243005
_cell_formula_units_Z   8
loop_
 _symmetry_equiv_pos_site_id
 _symmetry_equiv_pos_as_xyz
  1  'x, y, z'
loop_
 _atom_site_type_symbol
 _atom_site_label
 _atom_site_symmetry_multiplicity
 _atom_site_fract_x
 _atom_site_fract_y
 _atom_site_fract_z
 _atom_site_occupancy
  Cd  Cd0  1  0.21352000  0.73751000  0.03223000  1.0
  Cd  Cd1  1  0.28648000  0.26250000  0.03223000  1.0
  Cd  Cd2  1  0.52401000  0.73757000  0.46778000  1.0
  Cd  Cd3  1  0.97599000  0.26243000  0.46778000  1.0
  Cd  Cd4  1  0.78648000  0.26250000  0.96777000  1.0
  Cd  Cd5  1  0.71353000  0.73751000  0.96777000  1.0
  Cd  Cd6  1  0.47599000  0.26243000  0.53223000  1.0
  Cd  Cd7  1  0.02402000  0.73757000  0.53222000  1.0
  H  H8  1  0.49280000  0.26302000  0.11496000  1.0
  H  H9  1  0.41048000  0.11643000  0.00512000  1.0
  H  H10  1  0.38774000  0.84258000  0.14213000  1.0
  H  H11  1  0.14088000  0.65952000  0.30127000  1.0
  H  H12  1  0.04222000  0.67368000  0.26893000  1.0
  H  H13  1  0.29211000  0.79961000  0.34933000  1.0
  H  H14  1  0.30138000  0.91224000  0.35098000  1.0
  H  H15  1  0.30745000  0.86182000  0.26189000  1.0
  H  H16  1  0.28613000  0.95102000  0.97521000  1.0
  H  H17  1  0.51775000  0.00288000  0.17941000  1.0
  H  H18  1  0.55419000  0.17424000  0.18200000  1.0
  H  H19  1  0.62222000  0.17958000  0.10093000  1.0
  H  H20  1  0.57118000  0.41701000  0.12922000  1.0
  H  H21  1  0.62711000  0.38601000  0.89224000  1.0
  H  H22  1  0.66497000  0.55431000  0.87173000  1.0
  H  H23  1  0.61580000  0.58372000  0.09999000  1.0
  H  H24  1  0.16993000  0.88539000  0.20967000  1.0
  H  H25  1  0.16433000  0.93534000  0.29873000  1.0
  H  H26  1  0.05968000  0.83716000  0.26157000  1.0
  H  H27  1  0.00720000  0.73698000  0.11495000  1.0
  H  H28  1  0.08952000  0.88357000  0.00512000  1.0
  H  H29  1  0.11226000  0.15742000  0.14214000  1.0
  H  H30  1  0.35912000  0.34048000  0.30127000  1.0
  H  H31  1  0.45779000  0.32632000  0.26894000  1.0
  H  H32  1  0.20790000  0.20039000  0.34933000  1.0
  H  H33  1  0.19862000  0.08776000  0.35098000  1.0
  H  H34  1  0.19256000  0.13819000  0.26189000  1.0
  H  H35  1  0.21386000  0.04899000  0.97521000  1.0
  H  H36  1  0.98224000  0.99712000  0.17941000  1.0
  H  H37  1  0.94582000  0.82576000  0.18200000  1.0
  H  H38  1  0.87778000  0.82041000  0.10093000  1.0
  H  H39  1  0.92882000  0.58298000  0.12922000  1.0
  H  H40  1  0.87290000  0.61400000  0.89223000  1.0
  H  H41  1  0.83503000  0.44569000  0.87172000  1.0
  H  H42  1  0.88420000  0.41628000  0.09999000  1.0
  H  H43  1  0.33007000  0.11461000  0.20967000  1.0
  H  H44  1  0.33567000  0.06466000  0.29873000  1.0
  H  H45  1  0.44032000  0.16284000  0.26158000  1.0
  H  H46  1  0.77051000  0.26326000  0.38488000  1.0
  H  H47  1  0.70642000  0.11664000  0.49458000  1.0
  H  H48  1  0.45465000  0.84266000  0.35808000  1.0
  H  H49  1  0.51805000  0.65944000  0.19873000  1.0
  H  H50  1  0.63103000  0.67369000  0.23068000  1.0
  H  H51  1  0.50682000  0.79958000  0.15061000  1.0
  H  H52  1  0.61027000  0.91220000  0.14894000  1.0
  H  H53  1  0.55387000  0.86175000  0.23806000  1.0
  H  H54  1  0.66517000  0.95121000  0.52465000  1.0
  H  H55  1  0.48518000  0.00296000  0.32059000  1.0
  H  H56  1  0.62057000  0.17426000  0.31765000  1.0
  H  H57  1  0.55760000  0.17960000  0.39856000  1.0
  H  H58  1  0.84583000  0.41731000  0.37051000  1.0
  H  H59  1  0.75865000  0.38596000  0.60746000  1.0
  H  H60  1  0.88937000  0.55417000  0.62818000  1.0
  H  H61  1  0.96815000  0.58382000  0.39995000  1.0
  H  H62  1  0.71491000  0.88547000  0.29004000  1.0
  H  H63  1  0.77042000  0.93532000  0.20096000  1.0
  H  H64  1  0.77693000  0.83723000  0.23822000  1.0
  H  H65  1  0.72949000  0.73674000  0.38488000  1.0
  H  H66  1  0.79357000  0.88335000  0.49458000  1.0
  H  H67  1  0.04534000  0.15733000  0.35807000  1.0
  H  H68  1  0.98196000  0.34056000  0.19872000  1.0
  H  H69  1  0.86897000  0.32632000  0.23068000  1.0
  H  H70  1  0.99318000  0.20041000  0.15062000  1.0
  H  H71  1  0.88973000  0.08780000  0.14894000  1.0
  H  H72  1  0.94613000  0.13825000  0.23806000  1.0
  H  H73  1  0.83483000  0.04878000  0.52465000  1.0
  H  H74  1  0.01481000  0.99703000  0.32058000  1.0
  H  H75  1  0.87943000  0.82573000  0.31765000  1.0
  H  H76  1  0.94240000  0.82040000  0.39856000  1.0
  H  H77  1  0.65418000  0.58270000  0.37052000  1.0
  H  H78  1  0.74135000  0.61404000  0.60746000  1.0
  H  H79  1  0.61062000  0.44583000  0.62818000  1.0
  H  H80  1  0.53185000  0.41617000  0.39995000  1.0
  H  H81  1  0.78509000  0.11453000  0.29005000  1.0
  H  H82  1  0.72958000  0.06468000  0.20096000  1.0
  H  H83  1  0.72307000  0.16278000  0.23822000  1.0
  H  H84  1  0.50720000  0.73697000  0.88505000  1.0
  H  H85  1  0.58953000  0.88357000  0.99488000  1.0
  H  H86  1  0.61227000  0.15742000  0.85786000  1.0
  H  H87  1  0.85912000  0.34047000  0.69873000  1.0
  H  H88  1  0.95778000  0.32631000  0.73107000  1.0
  H  H89  1  0.70789000  0.20038000  0.65068000  1.0
  H  H90  1  0.69862000  0.08775000  0.64902000  1.0
  H  H91  1  0.69256000  0.13818000  0.73811000  1.0
  H  H92  1  0.71387000  0.04899000  0.02478000  1.0
  H  H93  1  0.48225000  0.99712000  0.82058000  1.0
  H  H94  1  0.44582000  0.82576000  0.81800000  1.0
  H  H95  1  0.37779000  0.82042000  0.89907000  1.0
  H  H96  1  0.42881000  0.58299000  0.87079000  1.0
  H  H97  1  0.37289000  0.61400000  0.10777000  1.0
  H  H98  1  0.33502000  0.44569000  0.12828000  1.0
  H  H99  1  0.38420000  0.41628000  0.90002000  1.0
  H  H100  1  0.83007000  0.11460000  0.79034000  1.0
  H  H101  1  0.83566000  0.06465000  0.70128000  1.0
  H  H102  1  0.94032000  0.16282000  0.73843000  1.0
  H  H103  1  0.99280000  0.26302000  0.88504000  1.0
  H  H104  1  0.91047000  0.11643000  0.99487000  1.0
  H  H105  1  0.88774000  0.84258000  0.85787000  1.0
  H  H106  1  0.64088000  0.65952000  0.69873000  1.0
  H  H107  1  0.54222000  0.67369000  0.73107000  1.0
  H  H108  1  0.79211000  0.79961000  0.65068000  1.0
  H  H109  1  0.80139000  0.91224000  0.64902000  1.0
  H  H110  1  0.80744000  0.86182000  0.73811000  1.0
  H  H111  1  0.78613000  0.95101000  0.02478000  1.0
  H  H112  1  0.01776000  0.00288000  0.82058000  1.0
  H  H113  1  0.05419000  0.17424000  0.81799000  1.0
  H  H114  1  0.12222000  0.17958000  0.89907000  1.0
  H  H115  1  0.07118000  0.41702000  0.87078000  1.0
  H  H116  1  0.12710000  0.38601000  0.10776000  1.0
  H  H117  1  0.16497000  0.55431000  0.12827000  1.0
  H  H118  1  0.11580000  0.58372000  0.90000000  1.0
  H  H119  1  0.66992000  0.88539000  0.79033000  1.0
  H  H120  1  0.66433000  0.93534000  0.70127000  1.0
  H  H121  1  0.55968000  0.83716000  0.73842000  1.0
  H  H122  1  0.22949000  0.73673000  0.61512000  1.0
  H  H123  1  0.29357000  0.88336000  0.50542000  1.0
  H  H124  1  0.54534000  0.15733000  0.64193000  1.0
  H  H125  1  0.48196000  0.34056000  0.80128000  1.0
  H  H126  1  0.36897000  0.32632000  0.76932000  1.0
  H  H127  1  0.49318000  0.20042000  0.84938000  1.0
  H  H128  1  0.38974000  0.08780000  0.85106000  1.0
  H  H129  1  0.44614000  0.13825000  0.76194000  1.0
  H  H130  1  0.33483000  0.04879000  0.47535000  1.0
  H  H131  1  0.51480000  0.99703000  0.67942000  1.0
  H  H132  1  0.37944000  0.82573000  0.68235000  1.0
  H  H133  1  0.44240000  0.82040000  0.60144000  1.0
  H  H134  1  0.15417000  0.58269000  0.62948000  1.0
  H  H135  1  0.24135000  0.61403000  0.39254000  1.0
  H  H136  1  0.11063000  0.44581000  0.37182000  1.0
  H  H137  1  0.03185000  0.41617000  0.60005000  1.0
  H  H138  1  0.28509000  0.11453000  0.70996000  1.0
  H  H139  1  0.22958000  0.06469000  0.79904000  1.0
  H  H140  1  0.22307000  0.16278000  0.76179000  1.0
  H  H141  1  0.27051000  0.26326000  0.61512000  1.0
  H  H142  1  0.20643000  0.11664000  0.50542000  1.0
  H  H143  1  0.95464000  0.84266000  0.64192000  1.0
  H  H144  1  0.01805000  0.65944000  0.80127000  1.0
  H  H145  1  0.13103000  0.67369000  0.76931000  1.0
  H  H146  1  0.00681000  0.79959000  0.84937000  1.0
  H  H147  1  0.11026000  0.91220000  0.85105000  1.0
  H  H148  1  0.05387000  0.86175000  0.76193000  1.0
  H  H149  1  0.16517000  0.95121000  0.47535000  1.0
  H  H150  1  0.98518000  0.00296000  0.67941000  1.0
  H  H151  1  0.12056000  0.17426000  0.68235000  1.0
  H  H152  1  0.05760000  0.17960000  0.60144000  1.0
  H  H153  1  0.34582000  0.41732000  0.62949000  1.0
  H  H154  1  0.25865000  0.38597000  0.39254000  1.0
  H  H155  1  0.38938000  0.55418000  0.37182000  1.0
  H  H156  1  0.46815000  0.58384000  0.60005000  1.0
  H  H157  1  0.21491000  0.88547000  0.70995000  1.0
  H  H158  1  0.27042000  0.93532000  0.79904000  1.0
  H  H159  1  0.27693000  0.83723000  0.76178000  1.0
  C  C160  1  0.40866000  0.05809000  0.03711000  1.0
  C  C161  1  0.39579000  0.90540000  0.11360000  1.0
  C  C162  1  0.47415000  0.07335000  0.09584000  1.0
  C  C163  1  0.15540000  0.71178000  0.18687000  1.0
  C  C164  1  0.12072000  0.70488000  0.26870000  1.0
  C  C165  1  0.16379000  0.80196000  0.30989000  1.0
  C  C166  1  0.27269000  0.84639000  0.31837000  1.0
  C  C167  1  0.33907000  0.96620000  0.02029000  1.0
  C  C168  1  0.46734000  0.99471000  0.13393000  1.0
  C  C169  1  0.59590000  0.38850000  0.01223000  1.0
  C  C170  1  0.55188000  0.16985000  0.11894000  1.0
  C  C171  1  0.59003000  0.29520000  0.02675000  1.0
  C  C172  1  0.59053000  0.44398000  0.07108000  1.0
  C  C173  1  0.62071000  0.42722000  0.93872000  1.0
  C  C174  1  0.64210000  0.51974000  0.92733000  1.0
  C  C175  1  0.61422000  0.53641000  0.05518000  1.0
  C  C176  1  0.13781000  0.86891000  0.26716000  1.0
  C  C177  1  0.11412000  0.77934000  0.38894000  1.0
  C  C178  1  0.09134000  0.94191000  0.03711000  1.0
  C  C179  1  0.10421000  0.09460000  0.11360000  1.0
  C  C180  1  0.02584000  0.92665000  0.09584000  1.0
  C  C181  1  0.34461000  0.28822000  0.18687000  1.0
  C  C182  1  0.37929000  0.29512000  0.26871000  1.0
  C  C183  1  0.33621000  0.19804000  0.30990000  1.0
  C  C184  1  0.22731000  0.15362000  0.31837000  1.0
  C  C185  1  0.16093000  0.03380000  0.02029000  1.0
  C  C186  1  0.03265000  0.00529000  0.13393000  1.0
  C  C187  1  0.90410000  0.61151000  0.01224000  1.0
  C  C188  1  0.94812000  0.83015000  0.11894000  1.0
  C  C189  1  0.90995000  0.70480000  0.02673000  1.0
  C  C190  1  0.90947000  0.55602000  0.07107000  1.0
  C  C191  1  0.87930000  0.57278000  0.93871000  1.0
  C  C192  1  0.85790000  0.48026000  0.92733000  1.0
  C  C193  1  0.88578000  0.46359000  0.05517000  1.0
  C  C194  1  0.36219000  0.13109000  0.26716000  1.0
  C  C195  1  0.38589000  0.22066000  0.38895000  1.0
  C  C196  1  0.64980000  0.05827000  0.46266000  1.0
  C  C197  1  0.50962000  0.90550000  0.38647000  1.0
  C  C198  1  0.59952000  0.07348000  0.40395000  1.0
  C  C199  1  0.55624000  0.71176000  0.31306000  1.0
  C  C200  1  0.58371000  0.70484000  0.23114000  1.0
  C  C201  1  0.63757000  0.80189000  0.18991000  1.0
  C  C202  1  0.57309000  0.84631000  0.18154000  1.0
  C  C203  1  0.62737000  0.96637000  0.47958000  1.0
  C  C204  1  0.52750000  0.99480000  0.36603000  1.0
  C  C205  1  0.79247000  0.38863000  0.48749000  1.0
  C  C206  1  0.61829000  0.16992000  0.38072000  1.0
  C  C207  1  0.70510000  0.29531000  0.47292000  1.0
  C  C208  1  0.85341000  0.44414000  0.42870000  1.0
  C  C209  1  0.80637000  0.42724000  0.56105000  1.0
  C  C210  1  0.87763000  0.51971000  0.57254000  1.0
  C  C211  1  0.92229000  0.53650000  0.44471000  1.0
  C  C212  1  0.73053000  0.86893000  0.23259000  1.0
  C  C213  1  0.66454000  0.77934000  0.11078000  1.0
  C  C214  1  0.85019000  0.94172000  0.46266000  1.0
  C  C215  1  0.99038000  0.09450000  0.38646000  1.0
  C  C216  1  0.90048000  0.92652000  0.40395000  1.0
  C  C217  1  0.94377000  0.28824000  0.31306000  1.0
  C  C218  1  0.91629000  0.29516000  0.23113000  1.0
  C  C219  1  0.86244000  0.19811000  0.18991000  1.0
  C  C220  1  0.92691000  0.15369000  0.18154000  1.0
  C  C221  1  0.87262000  0.03363000  0.47957000  1.0
  C  C222  1  0.97249000  0.00520000  0.36603000  1.0
  C  C223  1  0.70754000  0.61137000  0.48749000  1.0
  C  C224  1  0.88171000  0.83008000  0.38072000  1.0
  C  C225  1  0.79490000  0.70469000  0.47292000  1.0
  C  C226  1  0.64659000  0.55586000  0.42870000  1.0
  C  C227  1  0.69363000  0.57276000  0.56105000  1.0
  C  C228  1  0.62236000  0.48029000  0.57254000  1.0
  C  C229  1  0.57771000  0.46349000  0.44471000  1.0
  C  C230  1  0.76947000  0.13107000  0.23259000  1.0
  C  C231  1  0.83546000  0.22066000  0.11078000  1.0
  C  C232  1  0.59135000  0.94191000  0.96288000  1.0
  C  C233  1  0.60421000  0.09460000  0.88639000  1.0
  C  C234  1  0.52586000  0.92665000  0.90415000  1.0
  C  C235  1  0.84460000  0.28821000  0.81313000  1.0
  C  C236  1  0.87929000  0.29511000  0.73129000  1.0
  C  C237  1  0.83621000  0.19803000  0.69011000  1.0
  C  C238  1  0.72731000  0.15361000  0.68164000  1.0
  C  C239  1  0.66094000  0.03380000  0.97970000  1.0
  C  C240  1  0.53266000  0.00529000  0.86607000  1.0
  C  C241  1  0.40410000  0.61151000  0.98777000  1.0
  C  C242  1  0.44813000  0.83016000  0.88106000  1.0
  C  C243  1  0.40997000  0.70480000  0.97326000  1.0
  C  C244  1  0.40947000  0.55603000  0.92893000  1.0
  C  C245  1  0.37929000  0.57278000  0.06129000  1.0
  C  C246  1  0.35789000  0.48026000  0.07268000  1.0
  C  C247  1  0.38577000  0.46359000  0.94483000  1.0
  C  C248  1  0.86219000  0.13108000  0.73285000  1.0
  C  C249  1  0.88589000  0.22065000  0.61106000  1.0
  C  C250  1  0.90866000  0.05809000  0.96289000  1.0
  C  C251  1  0.89579000  0.90540000  0.88639000  1.0
  C  C252  1  0.97415000  0.07335000  0.90415000  1.0
  C  C253  1  0.65540000  0.71179000  0.81313000  1.0
  C  C254  1  0.62071000  0.70489000  0.73129000  1.0
  C  C255  1  0.66379000  0.80197000  0.69010000  1.0
  C  C256  1  0.77269000  0.84639000  0.68164000  1.0
  C  C257  1  0.83907000  0.96619000  0.97970000  1.0
  C  C258  1  0.96735000  0.99472000  0.86607000  1.0
  C  C259  1  0.09590000  0.38850000  0.98776000  1.0
  C  C260  1  0.05188000  0.16984000  0.88106000  1.0
  C  C261  1  0.09004000  0.29520000  0.97325000  1.0
  C  C262  1  0.09053000  0.44398000  0.92891000  1.0
  C  C263  1  0.12071000  0.42722000  0.06128000  1.0
  C  C264  1  0.14210000  0.51975000  0.07267000  1.0
  C  C265  1  0.11423000  0.53641000  0.94482000  1.0
  C  C266  1  0.63781000  0.86891000  0.73284000  1.0
  C  C267  1  0.61412000  0.77935000  0.61105000  1.0
  C  C268  1  0.35019000  0.94172000  0.53734000  1.0
  C  C269  1  0.49038000  0.09450000  0.61354000  1.0
  C  C270  1  0.40048000  0.92652000  0.59605000  1.0
  C  C271  1  0.44377000  0.28824000  0.68694000  1.0
  C  C272  1  0.41630000  0.29516000  0.76887000  1.0
  C  C273  1  0.36244000  0.19811000  0.81010000  1.0
  C  C274  1  0.42692000  0.15369000  0.81846000  1.0
  C  C275  1  0.37262000  0.03363000  0.52043000  1.0
  C  C276  1  0.47249000  0.00519000  0.63398000  1.0
  C  C277  1  0.20753000  0.61136000  0.51251000  1.0
  C  C278  1  0.38171000  0.83008000  0.61928000  1.0
  C  C279  1  0.29490000  0.70469000  0.52708000  1.0
  C  C280  1  0.14658000  0.55585000  0.57130000  1.0
  C  C281  1  0.19364000  0.57276000  0.43895000  1.0
  C  C282  1  0.12237000  0.48028000  0.42746000  1.0
  C  C283  1  0.07771000  0.46349000  0.55529000  1.0
  C  C284  1  0.26947000  0.13108000  0.76742000  1.0
  C  C285  1  0.33547000  0.22066000  0.88923000  1.0
  C  C286  1  0.14981000  0.05827000  0.53734000  1.0
  C  C287  1  0.00961000  0.90549000  0.61353000  1.0
  C  C288  1  0.09952000  0.07348000  0.59605000  1.0
  C  C289  1  0.05623000  0.71176000  0.68694000  1.0
  C  C290  1  0.08371000  0.70485000  0.76886000  1.0
  C  C291  1  0.13756000  0.80189000  0.81009000  1.0
  C  C292  1  0.07308000  0.84631000  0.81845000  1.0
  C  C293  1  0.12737000  0.96637000  0.52042000  1.0
  C  C294  1  0.02750000  0.99480000  0.63397000  1.0
  C  C295  1  0.29246000  0.38865000  0.51251000  1.0
  C  C296  1  0.11829000  0.16992000  0.61928000  1.0
  C  C297  1  0.20511000  0.29531000  0.52709000  1.0
  C  C298  1  0.35341000  0.44415000  0.57130000  1.0
  C  C299  1  0.30636000  0.42724000  0.43896000  1.0
  C  C300  1  0.37764000  0.51972000  0.42746000  1.0
  C  C301  1  0.42229000  0.53652000  0.55529000  1.0
  C  C302  1  0.23053000  0.86893000  0.76741000  1.0
  C  C303  1  0.16453000  0.77934000  0.88922000  1.0
  N  N304  1  0.33161000  0.89113000  0.05796000  1.0
  N  N305  1  0.54312000  0.24840000  0.09012000  1.0
  N  N306  1  0.64082000  0.57420000  0.98489000  1.0
  N  N307  1  0.16838000  0.10887000  0.05796000  1.0
  N  N308  1  0.95689000  0.75160000  0.09012000  1.0
  N  N309  1  0.85918000  0.42580000  0.98489000  1.0
  N  N310  1  0.55959000  0.89126000  0.44207000  1.0
  N  N311  1  0.70548000  0.24853000  0.40962000  1.0
  N  N312  1  0.93349000  0.57418000  0.51504000  1.0
  N  N313  1  0.94040000  0.10873000  0.44206000  1.0
  N  N314  1  0.79452000  0.75146000  0.40962000  1.0
  N  N315  1  0.56650000  0.42581000  0.51504000  1.0
  N  N316  1  0.66840000  0.10887000  0.94203000  1.0
  N  N317  1  0.45688000  0.75160000  0.90989000  1.0
  N  N318  1  0.35917000  0.42580000  0.01512000  1.0
  N  N319  1  0.83162000  0.89113000  0.94203000  1.0
  N  N320  1  0.04312000  0.24840000  0.90988000  1.0
  N  N321  1  0.14082000  0.57420000  0.01510000  1.0
  N  N322  1  0.44040000  0.10873000  0.55794000  1.0
  N  N323  1  0.29452000  0.75146000  0.59038000  1.0
  N  N324  1  0.06651000  0.42581000  0.48496000  1.0
  N  N325  1  0.05959000  0.89126000  0.55793000  1.0
  N  N326  1  0.20548000  0.24853000  0.59038000  1.0
  N  N327  1  0.43350000  0.57420000  0.48496000  1.0
  O  O328  1  0.22965000  0.70541000  0.17258000  1.0
  O  O329  1  0.10762000  0.72530000  0.13356000  1.0
  O  O330  1  0.16323000  0.79013000  0.44943000  1.0
  O  O331  1  0.63371000  0.26859000  0.98267000  1.0
  O  O332  1  0.02373000  0.74842000  0.39087000  1.0
  O  O333  1  0.27035000  0.29459000  0.17258000  1.0
  O  O334  1  0.39238000  0.27469000  0.13356000  1.0
  O  O335  1  0.33678000  0.20987000  0.44943000  1.0
  O  O336  1  0.86630000  0.73141000  0.98268000  1.0
  O  O337  1  0.47628000  0.25158000  0.39087000  1.0
  O  O338  1  0.47569000  0.70547000  0.32755000  1.0
  O  O339  1  0.61763000  0.72521000  0.36627000  1.0
  O  O340  1  0.62599000  0.78985000  0.05035000  1.0
  O  O341  1  0.63471000  0.26858000  0.51691000  1.0
  O  O342  1  0.72425000  0.74869000  0.10879000  1.0
  O  O343  1  0.02432000  0.29453000  0.32754000  1.0
  O  O344  1  0.88238000  0.27480000  0.36627000  1.0
  O  O345  1  0.87401000  0.21015000  0.05035000  1.0
  O  O346  1  0.86528000  0.73141000  0.51690000  1.0
  O  O347  1  0.77575000  0.25131000  0.10879000  1.0
  O  O348  1  0.77035000  0.29459000  0.82742000  1.0
  O  O349  1  0.89238000  0.27468000  0.86644000  1.0
  O  O350  1  0.83677000  0.20986000  0.55057000  1.0
  O  O351  1  0.36630000  0.73143000  0.01734000  1.0
  O  O352  1  0.97627000  0.25157000  0.60913000  1.0
  O  O353  1  0.72966000  0.70542000  0.82742000  1.0
  O  O354  1  0.60762000  0.72531000  0.86644000  1.0
  O  O355  1  0.66324000  0.79013000  0.55057000  1.0
  O  O356  1  0.13370000  0.26859000  0.01732000  1.0
  O  O357  1  0.52373000  0.74842000  0.60912000  1.0
  O  O358  1  0.52432000  0.29452000  0.67246000  1.0
  O  O359  1  0.38238000  0.27480000  0.63374000  1.0
  O  O360  1  0.37404000  0.21017000  0.94965000  1.0
  O  O361  1  0.36528000  0.73142000  0.48309000  1.0
  O  O362  1  0.27575000  0.25130000  0.89122000  1.0
  O  O363  1  0.97568000  0.70547000  0.67245000  1.0
  O  O364  1  0.11762000  0.72521000  0.63373000  1.0
  O  O365  1  0.12598000  0.78985000  0.94965000  1.0
  O  O366  1  0.13471000  0.26858000  0.48310000  1.0
  O  O367  1  0.22425000  0.74870000  0.89121000  1.0
