# generated using pymatgen
data_Mn3P2H16C19(NO4)3
_symmetry_space_group_name_H-M   'P 1'
_cell_length_a   8.68434000
_cell_length_b   10.21920000
_cell_length_c   13.92000000
_cell_angle_alpha   105.98500000
_cell_angle_beta   97.71080000
_cell_angle_gamma   100.83800000
_symmetry_Int_Tables_number   1
_chemical_formula_structural   Mn3P2H16C19(NO4)3
_chemical_formula_sum   'Mn6 P4 H32 C38 N6 O24'
_cell_volume   1143.56332012
_cell_formula_units_Z   2
loop_
 _symmetry_equiv_pos_site_id
 _symmetry_equiv_pos_as_xyz
  1  'x, y, z'
loop_
 _atom_site_type_symbol
 _atom_site_label
 _atom_site_symmetry_multiplicity
 _atom_site_fract_x
 _atom_site_fract_y
 _atom_site_fract_z
 _atom_site_occupancy
  Mn  Mn0  1  0.50444000  0.25081000  0.48978000  1.0
  Mn  Mn1  1  0.49556000  0.74918000  0.51022000  1.0
  Mn  Mn2  1  0.09994000  0.21817000  0.60393000  1.0
  Mn  Mn3  1  0.90006000  0.78182000  0.39606000  1.0
  Mn  Mn4  1  0.89930000  0.27617000  0.39673000  1.0
  Mn  Mn5  1  0.10071000  0.72382000  0.60327000  1.0
  P  P6  1  0.73914000  0.54211000  0.48826000  1.0
  P  P7  1  0.26086000  0.45788000  0.51174000  1.0
  P  P8  1  0.73648000  0.03645000  0.48653000  1.0
  P  P9  1  0.26352000  0.96354000  0.51347000  1.0
  H  H10  1  0.92792000  0.49054000  0.66764000  1.0
  H  H11  1  0.07208000  0.50946000  0.33236000  1.0
  H  H12  1  0.91773000  0.98916000  0.66811000  1.0
  H  H13  1  0.08228000  0.01083000  0.33189000  1.0
  H  H14  1  0.68439000  0.54623000  0.65820000  1.0
  H  H15  1  0.31561000  0.45377000  0.34180000  1.0
  H  H16  1  0.67527000  0.05270000  0.65635000  1.0
  H  H17  1  0.32474000  0.94729000  0.34364000  1.0
  H  H18  1  0.45710000  0.29856000  0.70227000  1.0
  H  H19  1  0.54290000  0.70145000  0.29772000  1.0
  H  H20  1  0.63945000  0.42842000  0.86544000  1.0
  H  H21  1  0.36055000  0.57160000  0.13455000  1.0
  H  H22  1  0.22050000  0.46123000  0.00044000  1.0
  H  H23  1  0.77950000  0.53877000  0.99956000  1.0
  H  H24  1  0.05663000  0.32466000  0.83093000  1.0
  H  H25  1  0.94336000  0.67534000  0.16907000  1.0
  H  H26  1  0.63605000  0.33842000  0.25100000  1.0
  H  H27  1  0.36395000  0.66160000  0.74900000  1.0
  H  H28  1  0.47523000  0.23266000  0.07689000  1.0
  H  H29  1  0.52477000  0.76734000  0.92312000  1.0
  H  H30  1  0.64758000  0.85801000  0.06577000  1.0
  H  H31  1  0.35242000  0.14200000  0.93423000  1.0
  H  H32  1  0.80494000  0.98220000  0.23826000  1.0
  H  H33  1  0.19507000  0.01781000  0.76174000  1.0
  H  H34  1  0.98016000  0.40154000  0.12053000  1.0
  H  H35  1  0.01982000  0.59845000  0.87948000  1.0
  H  H36  1  0.08512000  0.20449000  0.14586000  1.0
  H  H37  1  0.91487000  0.79551000  0.85415000  1.0
  H  H38  1  0.82693000  0.95976000  0.84068000  1.0
  H  H39  1  0.17307000  0.04024000  0.15933000  1.0
  H  H40  1  0.73001000  0.16629000  0.83031000  1.0
  H  H41  1  0.26999000  0.83371000  0.16970000  1.0
  C  C42  1  0.77762000  0.60554000  0.63027000  1.0
  C  C43  1  0.22239000  0.39446000  0.36973000  1.0
  C  C44  1  0.77898000  0.75971000  0.65939000  1.0
  C  C45  1  0.22103000  0.24029000  0.34061000  1.0
  C  C46  1  0.77234000  0.10678000  0.62797000  1.0
  C  C47  1  0.22767000  0.89321000  0.37202000  1.0
  C  C48  1  0.78003000  0.26181000  0.65283000  1.0
  C  C49  1  0.21997000  0.73818000  0.34717000  1.0
  C  C50  1  0.40903000  0.33591000  0.77008000  1.0
  C  C51  1  0.59097000  0.66410000  0.22992000  1.0
  C  C52  1  0.51115000  0.41025000  0.86287000  1.0
  C  C53  1  0.48885000  0.58976000  0.13713000  1.0
  C  C54  1  0.44792000  0.45890000  0.95009000  1.0
  C  C55  1  0.55208000  0.54110000  0.04991000  1.0
  C  C56  1  0.28030000  0.42547000  0.93777000  1.0
  C  C57  1  0.71970000  0.57453000  0.06222000  1.0
  C  C58  1  0.18637000  0.35039000  0.84249000  1.0
  C  C59  1  0.81363000  0.64961000  0.15751000  1.0
  C  C60  1  0.63717000  0.23267000  0.20628000  1.0
  C  C61  1  0.36283000  0.76734000  0.79373000  1.0
  C  C62  1  0.54577000  0.17138000  0.10841000  1.0
  C  C63  1  0.45423000  0.82863000  0.89159000  1.0
  C  C64  1  0.54656000  0.03417000  0.05266000  1.0
  C  C65  1  0.45343000  0.96584000  0.94735000  1.0
  C  C66  1  0.64052000  0.96497000  0.10222000  1.0
  C  C67  1  0.35948000  0.03504000  0.89778000  1.0
  C  C68  1  0.72966000  0.03399000  0.19978000  1.0
  C  C69  1  0.27034000  0.96602000  0.80022000  1.0
  C  C70  1  0.94939000  0.30198000  0.05904000  1.0
  C  C71  1  0.05060000  0.69802000  0.94097000  1.0
  C  C72  1  0.01001000  0.19013000  0.07291000  1.0
  C  C73  1  0.98998000  0.80987000  0.92710000  1.0
  C  C74  1  0.96941000  0.06123000  0.99452000  1.0
  C  C75  1  0.03059000  0.93877000  0.00549000  1.0
  C  C76  1  0.86600000  0.05445000  0.90564000  1.0
  C  C77  1  0.13399000  0.94555000  0.09437000  1.0
  C  C78  1  0.81129000  0.17206000  0.89920000  1.0
  C  C79  1  0.18870000  0.82794000  0.10081000  1.0
  N  N80  1  0.24860000  0.30688000  0.75882000  1.0
  N  N81  1  0.75140000  0.69313000  0.24118000  1.0
  N  N82  1  0.73034000  0.16655000  0.25140000  1.0
  N  N83  1  0.26966000  0.83346000  0.74860000  1.0
  N  N84  1  0.85168000  0.29557000  0.97343000  1.0
  N  N85  1  0.14830000  0.70443000  0.02658000  1.0
  O  O86  1  0.59178000  0.58158000  0.44314000  1.0
  O  O87  1  0.40822000  0.41841000  0.55686000  1.0
  O  O88  1  0.89591000  0.62143000  0.46716000  1.0
  O  O89  1  0.10409000  0.37857000  0.53284000  1.0
  O  O90  1  0.72568000  0.38206000  0.45499000  1.0
  O  O91  1  0.27432000  0.61794000  0.54502000  1.0
  O  O92  1  0.93423000  0.59121000  0.66627000  1.0
  O  O93  1  0.06577000  0.40878000  0.33373000  1.0
  O  O94  1  0.64745000  0.79684000  0.65512000  1.0
  O  O95  1  0.35256000  0.20316000  0.34488000  1.0
  O  O96  1  0.91701000  0.84379000  0.68096000  1.0
  O  O97  1  0.08299000  0.15621000  0.31904000  1.0
  O  O98  1  0.59132000  0.07463000  0.43690000  1.0
  O  O99  1  0.40868000  0.92537000  0.56309000  1.0
  O  O100  1  0.72335000  0.87720000  0.45924000  1.0
  O  O101  1  0.27666000  0.12279000  0.54075000  1.0
  O  O102  1  0.89543000  0.11350000  0.46577000  1.0
  O  O103  1  0.10457000  0.88649000  0.53422000  1.0
  O  O104  1  0.92587000  0.08975000  0.66658000  1.0
  O  O105  1  0.07414000  0.91024000  0.33342000  1.0
  O  O106  1  0.65143000  0.30116000  0.63867000  1.0
  O  O107  1  0.34857000  0.69882000  0.36133000  1.0
  O  O108  1  0.91966000  0.34373000  0.67980000  1.0
  O  O109  1  0.08034000  0.65627000  0.32019000  1.0
