# generated using pymatgen
data_ZnH18C29SN2O15
_symmetry_space_group_name_H-M   'P 1'
_cell_length_a   14.46080000
_cell_length_b   15.73480000
_cell_length_c   23.86110000
_cell_angle_alpha   90.11900000
_cell_angle_beta   90.16260000
_cell_angle_gamma   91.57690000
_symmetry_Int_Tables_number   1
_chemical_formula_structural   ZnH18C29SN2O15
_chemical_formula_sum   'Zn2 H36 C58 S2 N4 O30'
_cell_volume   5427.21150785
_cell_formula_units_Z   2
loop_
 _symmetry_equiv_pos_site_id
 _symmetry_equiv_pos_as_xyz
  1  'x, y, z'
loop_
 _atom_site_type_symbol
 _atom_site_label
 _atom_site_symmetry_multiplicity
 _atom_site_fract_x
 _atom_site_fract_y
 _atom_site_fract_z
 _atom_site_occupancy
  Zn  Zn0  1  0.60475000  0.50493000  0.49216000  1.0
  Zn  Zn1  1  0.40577000  0.50310000  0.48223000  1.0
  H  H2  1  0.58109000  0.70416000  0.92857000  1.0
  H  H3  1  0.32179000  0.54283000  0.67667000  1.0
  H  H4  1  0.58844000  0.42988000  0.78226000  1.0
  H  H5  1  0.58177000  0.09025000  0.58016000  1.0
  H  H6  1  0.42794000  0.07225000  0.57794000  1.0
  H  H7  1  0.57284000  0.94442000  0.59207000  1.0
  H  H8  1  0.39279000  0.92782000  0.57174000  1.0
  H  H9  1  0.35891000  0.93262000  0.50054000  1.0
  H  H10  1  0.65016000  0.93094000  0.53577000  1.0
  H  H11  1  0.59079000  0.92497000  0.43691000  1.0
  H  H12  1  0.47077000  0.91112000  0.42323000  1.0
  H  H13  1  0.57308000  0.06984000  0.42080000  1.0
  H  H14  1  0.45147000  0.05812000  0.41929000  1.0
  H  H15  1  0.93154000  0.61954000  0.56245000  1.0
  H  H16  1  0.08484000  0.57244000  0.57841000  1.0
  H  H17  1  0.59716000  0.71381000  0.03414000  1.0
  H  H18  1  0.05840000  0.36197000  0.51289000  1.0
  H  H19  1  0.91940000  0.37115000  0.55014000  1.0
  H  H20  1  0.07141000  0.42646000  0.42610000  1.0
  H  H21  1  0.92442000  0.39941000  0.45400000  1.0
  H  H22  1  0.10453000  0.63379000  0.51679000  1.0
  H  H23  1  0.94744000  0.62762000  0.48865000  1.0
  H  H24  1  0.38342000  0.33052000  0.05950000  1.0
  H  H25  1  0.36994000  0.31969000  0.95364000  1.0
  H  H26  1  0.60715000  0.42632000  0.20203000  1.0
  H  H27  1  0.43291000  0.63167000  0.31637000  1.0
  H  H28  1  0.42534000  0.63744000  0.21147000  1.0
  H  H29  1  0.32798000  0.55551000  0.78064000  1.0
  H  H30  1  0.73435000  0.39047000  0.66914000  1.0
  H  H31  1  0.25308000  0.11964000  0.45579000  1.0
  H  H32  1  0.77733000  0.07114000  0.46611000  1.0
  H  H33  1  0.31404000  0.46523000  0.59923000  1.0
  H  H34  1  0.04571000  0.40519000  0.66088000  1.0
  H  H35  1  0.06605000  0.57619000  0.32589000  1.0
  H  H36  1  0.77801000  0.47784000  0.36240000  1.0
  H  H37  1  0.73359000  0.33800000  0.31309000  1.0
  C  C38  1  0.50398000  0.65956000  0.51074000  1.0
  C  C39  1  0.55522000  0.65311000  0.95561000  1.0
  C  C40  1  0.56404000  0.65847000  0.01419000  1.0
  C  C41  1  0.53070000  0.59282000  0.04811000  1.0
  C  C42  1  0.48734000  0.51983000  0.02372000  1.0
  C  C43  1  0.45203000  0.45224000  0.05712000  1.0
  C  C44  1  0.40989000  0.38113000  0.03232000  1.0
  C  C45  1  0.40229000  0.37521000  0.97381000  1.0
  C  C46  1  0.54152000  0.59919000  0.10983000  1.0
  C  C47  1  0.45977000  0.45650000  0.11885000  1.0
  C  C48  1  0.57031000  0.47212000  0.22725000  1.0
  C  C49  1  0.52501000  0.52313000  0.38069000  1.0
  C  C50  1  0.57340000  0.46810000  0.28569000  1.0
  C  C51  1  0.52378000  0.52608000  0.31788000  1.0
  C  C52  1  0.47137000  0.58732000  0.29089000  1.0
  C  C53  1  0.46699000  0.59053000  0.23264000  1.0
  C  C54  1  0.51583000  0.53211000  0.20121000  1.0
  C  C55  1  0.38307000  0.52475000  0.75786000  1.0
  C  C56  1  0.37967000  0.51674000  0.69972000  1.0
  C  C57  1  0.45136000  0.47785000  0.67084000  1.0
  C  C58  1  0.52690000  0.44520000  0.70059000  1.0
  C  C59  1  0.53021000  0.45417000  0.75870000  1.0
  C  C60  1  0.50813000  0.34468000  0.48834000  1.0
  C  C61  1  0.45874000  0.49379000  0.78669000  1.0
  C  C62  1  0.58487000  0.95971000  0.54776000  1.0
  C  C63  1  0.41222000  0.95403000  0.53072000  1.0
  C  C64  1  0.41905000  0.05263000  0.53402000  1.0
  C  C65  1  0.59016000  0.05773000  0.53982000  1.0
  C  C66  1  0.50601000  0.25354000  0.49113000  1.0
  C  C67  1  0.50607000  0.91952000  0.51163000  1.0
  C  C68  1  0.50710000  0.08523000  0.50159000  1.0
  C  C69  1  0.51335000  0.04239000  0.44319000  1.0
  C  C70  1  0.52195000  0.94538000  0.44957000  1.0
  C  C71  1  0.50677000  0.17685000  0.49587000  1.0
  C  C72  1  0.50547000  0.82770000  0.51544000  1.0
  C  C73  1  0.45429000  0.48089000  0.60862000  1.0
  C  C74  1  0.50430000  0.75050000  0.51615000  1.0
  C  C75  1  0.06618000  0.57905000  0.53403000  1.0
  C  C76  1  0.96210000  0.58941000  0.52587000  1.0
  C  C77  1  0.05964000  0.41870000  0.53983000  1.0
  C  C78  1  0.95694000  0.43179000  0.55725000  1.0
  C  C79  1  0.09330000  0.49601000  0.50371000  1.0
  C  C80  1  0.91708000  0.49969000  0.51677000  1.0
  C  C81  1  0.93951000  0.46805000  0.45558000  1.0
  C  C82  1  0.04484000  0.48444000  0.44534000  1.0
  C  C83  1  0.81725000  0.50321000  0.52085000  1.0
  C  C84  1  0.19163000  0.49675000  0.49241000  1.0
  C  C85  1  0.42832000  0.43265000  0.87832000  1.0
  C  C86  1  0.50543000  0.57720000  0.86872000  1.0
  C  C87  1  0.51339000  0.58194000  0.93071000  1.0
  C  C88  1  0.47893000  0.51413000  0.96431000  1.0
  C  C89  1  0.43638000  0.44065000  0.94007000  1.0
  C  C90  1  0.60054000  0.39521000  0.67189000  1.0
  C  C91  1  0.32729000  0.08973000  0.51730000  1.0
  C  C92  1  0.68319000  0.09101000  0.51871000  1.0
  C  C93  1  0.06865000  0.55588000  0.40403000  1.0
  C  C94  1  0.87710000  0.50928000  0.41227000  1.0
  C  C95  1  0.61984000  0.39490000  0.31246000  1.0
  S  S96  1  0.15028000  0.38390000  0.59011000  1.0
  S  S97  1  0.91682000  0.45378000  0.63088000  1.0
  N  N98  1  0.46386000  0.50191000  0.84691000  1.0
  N  N99  1  0.50630000  0.52940000  0.14115000  1.0
  N  N100  1  0.73760000  0.50637000  0.51721000  1.0
  N  N101  1  0.26771000  0.50081000  0.47745000  1.0
  O  O102  1  0.58264000  0.62616000  0.50405000  1.0
  O  O103  1  0.42553000  0.62044000  0.51186000  1.0
  O  O104  1  0.60208000  0.51179000  0.40512000  1.0
  O  O105  1  0.44704000  0.53344000  0.40390000  1.0
  O  O106  1  0.58731000  0.38136000  0.49363000  1.0
  O  O107  1  0.43096000  0.38086000  0.48139000  1.0
  O  O108  1  0.52761000  0.49207000  0.58320000  1.0
  O  O109  1  0.37517000  0.47586000  0.57951000  1.0
  O  O110  1  0.39332000  0.37008000  0.85490000  1.0
  O  O111  1  0.53308000  0.63416000  0.83743000  1.0
  O  O112  1  0.57905000  0.66050000  0.13338000  1.0
  O  O113  1  0.42833000  0.40067000  0.14986000  1.0
  O  O114  1  0.58358000  0.33615000  0.63997000  1.0
  O  O115  1  0.68547000  0.42204000  0.68863000  1.0
  O  O116  1  0.26832000  0.10954000  0.55078000  1.0
  O  O117  1  0.31386000  0.09452000  0.46064000  1.0
  O  O118  1  0.72533000  0.15261000  0.53771000  1.0
  O  O119  1  0.71760000  0.04388000  0.47539000  1.0
  O  O120  1  0.09832000  0.34199000  0.63657000  1.0
  O  O121  1  0.20400000  0.32718000  0.55655000  1.0
  O  O122  1  0.20058000  0.46210000  0.60909000  1.0
  O  O123  1  0.87394000  0.53542000  0.63116000  1.0
  O  O124  1  0.85984000  0.37922000  0.64414000  1.0
  O  O125  1  0.00377000  0.46016000  0.66822000  1.0
  O  O126  1  0.10029000  0.62616000  0.41541000  1.0
  O  O127  1  0.05311000  0.52785000  0.35081000  1.0
  O  O128  1  0.87622000  0.58514000  0.40221000  1.0
  O  O129  1  0.82141000  0.44989000  0.38782000  1.0
  O  O130  1  0.58341000  0.34382000  0.34416000  1.0
  O  O131  1  0.71001000  0.38917000  0.29515000  1.0
