# generated using pymatgen
data_Ag4H12C21(NO3)4
_symmetry_space_group_name_H-M   'P 1'
_cell_length_a   8.05286000
_cell_length_b   11.70900000
_cell_length_c   14.43251627
_cell_angle_alpha   113.82570525
_cell_angle_beta   101.71792944
_cell_angle_gamma   92.69650000
_symmetry_Int_Tables_number   1
_chemical_formula_structural   Ag4H12C21(NO3)4
_chemical_formula_sum   'Ag8 H24 C42 N8 O24'
_cell_volume   1206.21254358
_cell_formula_units_Z   2
loop_
 _symmetry_equiv_pos_site_id
 _symmetry_equiv_pos_as_xyz
  1  'x, y, z'
loop_
 _atom_site_type_symbol
 _atom_site_label
 _atom_site_symmetry_multiplicity
 _atom_site_fract_x
 _atom_site_fract_y
 _atom_site_fract_z
 _atom_site_occupancy
  Ag  Ag0  1  0.59896000  0.47816000  0.42722000  1.0
  Ag  Ag1  1  0.40104000  0.52184000  0.57278000  1.0
  Ag  Ag2  1  0.00145000  0.46708000  0.60472000  1.0
  Ag  Ag3  1  0.99855000  0.53292000  0.39528000  1.0
  Ag  Ag4  1  0.62396000  0.27010000  0.48591000  1.0
  Ag  Ag5  1  0.37604000  0.72990000  0.51409000  1.0
  Ag  Ag6  1  0.05035000  0.23541000  0.61167000  1.0
  Ag  Ag7  1  0.94965000  0.76459000  0.38833000  1.0
  H  H8  1  0.42576000  0.17242000  0.61229000  1.0
  H  H9  1  0.57424000  0.82759000  0.38771000  1.0
  H  H10  1  0.36443000  0.04392000  0.29224000  1.0
  H  H11  1  0.63557000  0.95608000  0.70776000  1.0
  H  H12  1  0.19997000  0.99236000  0.58047000  1.0
  H  H13  1  0.80004000  0.00764000  0.41953000  1.0
  H  H14  1  0.69382000  0.06218000  0.02228000  1.0
  H  H15  1  0.30618000  0.93783000  0.97772000  1.0
  H  H16  1  0.96845000  0.12222000  0.98669000  1.0
  H  H17  1  0.03155000  0.87778000  0.01331000  1.0
  H  H18  1  0.63910000  0.72310000  0.10611000  1.0
  H  H19  1  0.36090000  0.27690000  0.89389000  1.0
  H  H20  1  0.22429000  0.23404000  0.13621000  1.0
  H  H21  1  0.77571000  0.76596000  0.86379000  1.0
  H  H22  1  0.05252000  0.76235000  0.22589000  1.0
  H  H23  1  0.94748000  0.23765000  0.77411000  1.0
  H  H24  1  0.16497000  0.84588000  0.17206000  1.0
  H  H25  1  0.83503000  0.15412000  0.82794000  1.0
  H  H26  1  0.97402000  0.89562000  0.21145000  1.0
  H  H27  1  0.02597000  0.10439000  0.78856000  1.0
  H  H28  1  0.91828000  0.65777000  0.06539000  1.0
  H  H29  1  0.08172000  0.34223000  0.93461000  1.0
  H  H30  1  0.92030000  0.51682000  0.88233000  1.0
  H  H31  1  0.07969000  0.48318000  0.11767000  1.0
  C  C32  1  0.36065000  0.10378000  0.53383000  1.0
  C  C33  1  0.63934000  0.89622000  0.46617000  1.0
  C  C34  1  0.19135000  0.94012000  0.33799000  1.0
  C  C35  1  0.80865000  0.05987000  0.66201000  1.0
  C  C36  1  0.32398000  0.03422000  0.35661000  1.0
  C  C37  1  0.67601000  0.96578000  0.64339000  1.0
  C  C38  1  0.23392000  0.00717000  0.51633000  1.0
  C  C39  1  0.76608000  0.99283000  0.48367000  1.0
  C  C40  1  0.93469000  0.23377000  0.38531000  1.0
  C  C41  1  0.06531000  0.76623000  0.61469000  1.0
  C  C42  1  0.94016000  0.20474000  0.27399000  1.0
  C  C43  1  0.05984000  0.79526000  0.72601000  1.0
  C  C44  1  0.80035000  0.13983000  0.18821000  1.0
  C  C45  1  0.19965000  0.86016000  0.81179000  1.0
  C  C46  1  0.09247000  0.24089000  0.25274000  1.0
  C  C47  1  0.90753000  0.75910000  0.74725000  1.0
  C  C48  1  0.64990000  0.49497000  0.82359000  1.0
  C  C49  1  0.35010000  0.50503000  0.17641000  1.0
  C  C50  1  0.24331000  0.32248000  0.33934000  1.0
  C  C51  1  0.75669000  0.67752000  0.66066000  1.0
  C  C52  1  0.67002000  0.41679000  0.71526000  1.0
  C  C53  1  0.32998000  0.58321000  0.28474000  1.0
  C  C54  1  0.32408000  0.46559000  0.76203000  1.0
  C  C55  1  0.67592000  0.53441000  0.23797000  1.0
  C  C56  1  0.80711000  0.11160000  0.08547000  1.0
  C  C57  1  0.19289000  0.88840000  0.91453000  1.0
  C  C58  1  0.96040000  0.14512000  0.06644000  1.0
  C  C59  1  0.03960000  0.85488000  0.93356000  1.0
  C  C60  1  0.64610000  0.66084000  0.02755000  1.0
  C  C61  1  0.35390000  0.33916000  0.97245000  1.0
  C  C62  1  0.49024000  0.52531000  0.84558000  1.0
  C  C63  1  0.50976000  0.47469000  0.15442000  1.0
  C  C64  1  0.10276000  0.20771000  0.14951000  1.0
  C  C65  1  0.89724000  0.79229000  0.85049000  1.0
  C  C66  1  0.09109000  0.85606000  0.23026000  1.0
  C  C67  1  0.90890000  0.14394000  0.76974000  1.0
  C  C68  1  0.79963000  0.62401000  0.00477000  1.0
  C  C69  1  0.20037000  0.37599000  0.99523000  1.0
  C  C70  1  0.49493000  0.61161000  0.94836000  1.0
  C  C71  1  0.50507000  0.38839000  0.05164000  1.0
  C  C72  1  0.80076000  0.54308000  0.90308000  1.0
  C  C73  1  0.19924000  0.45691000  0.09692000  1.0
  N  N74  1  0.40825000  0.11496000  0.45346000  1.0
  N  N75  1  0.59175000  0.88504000  0.54654000  1.0
  N  N76  1  0.15055000  0.92572000  0.41912000  1.0
  N  N77  1  0.84945000  0.07428000  0.58088000  1.0
  N  N78  1  0.64020000  0.09597000  0.20433000  1.0
  N  N79  1  0.35980000  0.90403000  0.79567000  1.0
  N  N80  1  0.33724000  0.65307000  0.97816000  1.0
  N  N81  1  0.66276000  0.34693000  0.02184000  1.0
  O  O82  1  0.64923000  0.07624000  0.28391000  1.0
  O  O83  1  0.35077000  0.92375000  0.71609000  1.0
  O  O84  1  0.50492000  0.07896000  0.13842000  1.0
  O  O85  1  0.49508000  0.92104000  0.86158000  1.0
  O  O86  1  0.26102000  0.53164000  0.71538000  1.0
  O  O87  1  0.73898000  0.46837000  0.28462000  1.0
  O  O88  1  0.85332000  0.32474000  0.43053000  1.0
  O  O89  1  0.14668000  0.67526000  0.56947000  1.0
  O  O90  1  0.26569000  0.35557000  0.74642000  1.0
  O  O91  1  0.73431000  0.64443000  0.25358000  1.0
  O  O92  1  0.20811000  0.40112000  0.42304000  1.0
  O  O93  1  0.79189000  0.59888000  0.57696000  1.0
  O  O94  1  0.01402000  0.16939000  0.42561000  1.0
  O  O95  1  0.98598000  0.83061000  0.57439000  1.0
  O  O96  1  0.53469000  0.37807000  0.64043000  1.0
  O  O97  1  0.46531000  0.62193000  0.35957000  1.0
  O  O98  1  0.39087000  0.31145000  0.32239000  1.0
  O  O99  1  0.60913000  0.68855000  0.67761000  1.0
  O  O100  1  0.19824000  0.59323000  0.91804000  1.0
  O  O101  1  0.80175000  0.40677000  0.08196000  1.0
  O  O102  1  0.81938000  0.39627000  0.70461000  1.0
  O  O103  1  0.18062000  0.60374000  0.29540000  1.0
  O  O104  1  0.35060000  0.74666000  0.06256000  1.0
  O  O105  1  0.64940000  0.25335000  0.93745000  1.0
