# generated using pymatgen
data_CuH7C7IN2
_symmetry_space_group_name_H-M   'P 1'
_cell_length_a   8.89569000
_cell_length_b   10.40360000
_cell_length_c   10.47960000
_cell_angle_alpha   105.88000000
_cell_angle_beta   90.02410000
_cell_angle_gamma   115.30800000
_symmetry_Int_Tables_number   1
_chemical_formula_structural   CuH7C7IN2
_chemical_formula_sum   'Cu4 H28 C28 I4 N8'
_cell_volume   835.59242131
_cell_formula_units_Z   4
loop_
 _symmetry_equiv_pos_site_id
 _symmetry_equiv_pos_as_xyz
  1  'x, y, z'
loop_
 _atom_site_type_symbol
 _atom_site_label
 _atom_site_symmetry_multiplicity
 _atom_site_fract_x
 _atom_site_fract_y
 _atom_site_fract_z
 _atom_site_occupancy
  Cu  Cu0  1  0.64429000  0.06707000  0.96569000  1.0
  Cu  Cu1  1  0.57733000  0.93312000  0.53438000  1.0
  Cu  Cu2  1  0.35572000  0.93292000  0.03431000  1.0
  Cu  Cu3  1  0.42266000  0.06688000  0.46563000  1.0
  H  H4  1  0.22482000  0.42780000  0.92371000  1.0
  H  H5  1  0.79692000  0.57231000  0.57643000  1.0
  H  H6  1  0.77517000  0.57219000  0.07628000  1.0
  H  H7  1  0.20309000  0.42769000  0.42357000  1.0
  H  H8  1  0.06971000  0.56516000  0.30655000  1.0
  H  H9  1  0.50472000  0.43530000  0.19335000  1.0
  H  H10  1  0.93029000  0.43485000  0.69344000  1.0
  H  H11  1  0.49527000  0.56470000  0.80665000  1.0
  H  H12  1  0.80502000  0.32193000  0.23341000  1.0
  H  H13  1  0.48333000  0.67856000  0.26655000  1.0
  H  H14  1  0.19499000  0.67808000  0.76659000  1.0
  H  H15  1  0.51665000  0.32144000  0.73346000  1.0
  H  H16  1  0.27925000  0.61875000  0.14323000  1.0
  H  H17  1  0.66049000  0.38150000  0.35677000  1.0
  H  H18  1  0.72076000  0.38125000  0.85676000  1.0
  H  H19  1  0.33951000  0.61850000  0.64323000  1.0
  H  H20  1  0.99311000  0.09272000  0.63096000  1.0
  H  H21  1  0.90055000  0.90729000  0.86923000  1.0
  H  H22  1  0.00689000  0.90728000  0.36904000  1.0
  H  H23  1  0.09946000  0.09271000  0.13078000  1.0
  H  H24  1  0.15666000  0.15300000  0.76363000  1.0
  H  H25  1  0.00363000  0.84695000  0.73655000  1.0
  H  H26  1  0.84333000  0.84700000  0.23637000  1.0
  H  H27  1  0.99638000  0.15306000  0.26345000  1.0
  H  H28  1  0.11176000  0.28555000  0.71672000  1.0
  H  H29  1  0.82621000  0.71445000  0.78344000  1.0
  H  H30  1  0.88824000  0.71445000  0.28328000  1.0
  H  H31  1  0.17381000  0.28556000  0.21656000  1.0
  C  C32  1  0.98079000  0.27818000  0.95926000  1.0
  C  C33  1  0.70262000  0.72201000  0.54083000  1.0
  C  C34  1  0.01921000  0.72181000  0.04074000  1.0
  C  C35  1  0.29738000  0.27799000  0.45918000  1.0
  C  C36  1  0.93328000  0.16452000  0.82828000  1.0
  C  C37  1  0.76876000  0.83556000  0.67187000  1.0
  C  C38  1  0.06672000  0.83548000  0.17172000  1.0
  C  C39  1  0.23123000  0.16445000  0.32813000  1.0
  C  C40  1  0.13395000  0.40792000  0.99429000  1.0
  C  C41  1  0.72601000  0.59223000  0.50578000  1.0
  C  C42  1  0.86605000  0.59208000  0.00571000  1.0
  C  C43  1  0.27399000  0.40776000  0.49422000  1.0
  C  C44  1  0.04734000  0.48500000  0.20784000  1.0
  C  C45  1  0.56249000  0.51538000  0.29212000  1.0
  C  C46  1  0.95265000  0.51500000  0.79216000  1.0
  C  C47  1  0.43750000  0.48462000  0.70788000  1.0
  C  C48  1  0.90015000  0.35200000  0.16738000  1.0
  C  C49  1  0.54832000  0.64842000  0.33259000  1.0
  C  C50  1  0.09986000  0.64800000  0.83262000  1.0
  C  C51  1  0.45168000  0.35158000  0.66741000  1.0
  C  C52  1  0.16538000  0.51353000  0.11850000  1.0
  C  C53  1  0.65186000  0.48675000  0.38150000  1.0
  C  C54  1  0.83462000  0.48647000  0.88149000  1.0
  C  C55  1  0.34815000  0.51325000  0.61850000  1.0
  C  C56  1  0.05443000  0.17381000  0.72900000  1.0
  C  C57  1  0.88063000  0.82620000  0.77118000  1.0
  C  C58  1  0.94557000  0.82619000  0.27100000  1.0
  C  C59  1  0.11938000  0.17380000  0.22882000  1.0
  I  I60  1  0.42082000  0.16490000  0.95589000  1.0
  I  I61  1  0.25593000  0.83497000  0.54406000  1.0
  I  I62  1  0.57919000  0.83510000  0.04411000  1.0
  I  I63  1  0.74406000  0.16502000  0.45593000  1.0
  N  N64  1  0.78087000  0.05562000  0.80867000  1.0
  N  N65  1  0.72528000  0.94446000  0.69147000  1.0
  N  N66  1  0.21913000  0.94438000  0.19133000  1.0
  N  N67  1  0.27471000  0.05553000  0.30853000  1.0
  N  N68  1  0.86588000  0.25170000  0.04619000  1.0
  N  N69  1  0.61432000  0.74861000  0.45385000  1.0
  N  N70  1  0.13413000  0.74830000  0.95382000  1.0
  N  N71  1  0.38567000  0.25139000  0.54615000  1.0
