# generated using pymatgen
data_CoH18C26N6O5
_symmetry_space_group_name_H-M   'P 1'
_cell_length_a   9.91493000
_cell_length_b   12.28640000
_cell_length_c   12.73980000
_cell_angle_alpha   62.78600000
_cell_angle_beta   70.00630000
_cell_angle_gamma   84.35970000
_symmetry_Int_Tables_number   1
_chemical_formula_structural   CoH18C26N6O5
_chemical_formula_sum   'Co2 H36 C52 N12 O10'
_cell_volume   1293.83615386
_cell_formula_units_Z   2
loop_
 _symmetry_equiv_pos_site_id
 _symmetry_equiv_pos_as_xyz
  1  'x, y, z'
loop_
 _atom_site_type_symbol
 _atom_site_label
 _atom_site_symmetry_multiplicity
 _atom_site_fract_x
 _atom_site_fract_y
 _atom_site_fract_z
 _atom_site_occupancy
  Co  Co0  1  0.11342000  0.40167000  0.12456000  1.0
  Co  Co1  1  0.88659000  0.59834000  0.87544000  1.0
  H  H2  1  0.76635000  0.18181000  0.36859000  1.0
  H  H3  1  0.23366000  0.81819000  0.63141000  1.0
  H  H4  1  0.57688000  0.36827000  0.08013000  1.0
  H  H5  1  0.42312000  0.63173000  0.91986000  1.0
  H  H6  1  0.30368000  0.16050000  0.46303000  1.0
  H  H7  1  0.69633000  0.83950000  0.53696000  1.0
  H  H8  1  0.20165000  0.97373000  0.87930000  1.0
  H  H9  1  0.79834000  0.02628000  0.12069000  1.0
  H  H10  1  0.22543000  0.83044000  0.08860000  1.0
  H  H11  1  0.77455000  0.16957000  0.91140000  1.0
  H  H12  1  0.67020000  0.86378000  0.93669000  1.0
  H  H13  1  0.32978000  0.13622000  0.06332000  1.0
  H  H14  1  0.66661000  0.99995000  0.72400000  1.0
  H  H15  1  0.33333333  0.00004000  0.27600000  1.0
  H  H16  1  0.98463000  0.62996000  0.39563000  1.0
  H  H17  1  0.01537000  0.37003000  0.60437000  1.0
  H  H18  1  0.18913000  0.59744000  0.19879000  1.0
  H  H19  1  0.81087000  0.40256000  0.80121000  1.0
  H  H20  1  0.83242000  0.34690000  0.35364000  1.0
  H  H21  1  0.16758000  0.65309000  0.64638000  1.0
  H  H22  1  0.75501000  0.25964000  0.57491000  1.0
  H  H23  1  0.24497000  0.74035000  0.42510000  1.0
  H  H24  1  0.52832000  0.20768000  0.75799000  1.0
  H  H25  1  0.47166000  0.79231000  0.24201000  1.0
  H  H26  1  0.24112000  0.25052000  0.78599000  1.0
  H  H27  1  0.75888000  0.74948000  0.21402000  1.0
  H  H28  1  0.03494000  0.24585000  0.00173000  1.0
  H  H29  1  0.96505000  0.75416000  0.99828000  1.0
  H  H30  1  0.40532000  0.45740000  0.91151000  1.0
  H  H31  1  0.59468000  0.54260000  0.08849000  1.0
  H  H32  1  0.47860000  0.59121000  0.65142000  1.0
  H  H33  1  0.52142000  0.40879000  0.34859000  1.0
  H  H34  1  0.70521000  0.64520000  0.47065000  1.0
  H  H35  1  0.29480000  0.35478000  0.52936000  1.0
  H  H36  1  0.60522000  0.03797000  0.57317000  1.0
  H  H37  1  0.39477000  0.96202000  0.42683000  1.0
  C  C38  1  0.53323000  0.16415000  0.43112000  1.0
  C  C39  1  0.46678000  0.83585000  0.56887000  1.0
  C  C40  1  0.67051000  0.20565000  0.34111000  1.0
  C  C41  1  0.32949000  0.79434000  0.65888000  1.0
  C  C42  1  0.68622000  0.28073000  0.21467000  1.0
  C  C43  1  0.31378000  0.71927000  0.78533000  1.0
  C  C44  1  0.56414000  0.30957000  0.17835000  1.0
  C  C45  1  0.43586000  0.69043000  0.82164000  1.0
  C  C46  1  0.42759000  0.26538000  0.26771000  1.0
  C  C47  1  0.57242000  0.73462000  0.73228000  1.0
  C  C48  1  0.41095000  0.19258000  0.39442000  1.0
  C  C49  1  0.58906000  0.80742000  0.60557000  1.0
  C  C50  1  0.82894000  0.34436000  0.11972000  1.0
  C  C51  1  0.17107000  0.65565000  0.88028000  1.0
  C  C52  1  0.29706000  0.29682000  0.22889000  1.0
  C  C53  1  0.70295000  0.70318000  0.77110000  1.0
  C  C54  1  0.41241000  0.08454000  0.66132000  1.0
  C  C55  1  0.58760000  0.91547000  0.33868000  1.0
  C  C56  1  0.43114000  0.99878000  0.78430000  1.0
  C  C57  1  0.56886000  0.00123000  0.21569000  1.0
  C  C58  1  0.30678000  0.95021000  0.88968000  1.0
  C  C59  1  0.69321000  0.04980000  0.11032000  1.0
  C  C60  1  0.32105000  0.87154000  0.00531000  1.0
  C  C61  1  0.67894000  0.12846000  0.99468000  1.0
  C  C62  1  0.56732000  0.88902000  0.92131000  1.0
  C  C63  1  0.43267000  0.11097000  0.07869000  1.0
  C  C64  1  0.56443000  0.96660000  0.80093000  1.0
  C  C65  1  0.43556000  0.03340000  0.19907000  1.0
  C  C66  1  0.98468000  0.56781000  0.35690000  1.0
  C  C67  1  0.01532000  0.43218000  0.64311000  1.0
  C  C68  1  0.08458000  0.55048000  0.26094000  1.0
  C  C69  1  0.91543000  0.44952000  0.73907000  1.0
  C  C70  1  0.90432000  0.41650000  0.33963000  1.0
  C  C71  1  0.09569000  0.58349000  0.66038000  1.0
  C  C72  1  0.74340000  0.45521000  0.51147000  1.0
  C  C73  1  0.25660000  0.54478000  0.48854000  1.0
  C  C74  1  0.69260000  0.33214000  0.59082000  1.0
  C  C75  1  0.30739000  0.66786000  0.40919000  1.0
  C  C76  1  0.56565000  0.30260000  0.69181000  1.0
  C  C77  1  0.43434000  0.69739000  0.30819000  1.0
  C  C78  1  0.48940000  0.39637000  0.71308000  1.0
  C  C79  1  0.51060000  0.60363000  0.28692000  1.0
  C  C80  1  0.24252000  0.29156000  0.84514000  1.0
  C  C81  1  0.75748000  0.70844000  0.15486000  1.0
  C  C82  1  0.14284000  0.28913000  0.95222000  1.0
  C  C83  1  0.85716000  0.71088000  0.04778000  1.0
  C  C84  1  0.32960000  0.40333000  0.90711000  1.0
  C  C85  1  0.67041000  0.59668000  0.09289000  1.0
  C  C86  1  0.54031000  0.51898000  0.63474000  1.0
  C  C87  1  0.45970000  0.48101000  0.36527000  1.0
  C  C88  1  0.66803000  0.54907000  0.53349000  1.0
  C  C89  1  0.33198000  0.45092000  0.46652000  1.0
  N  N90  1  0.44850000  0.84143000  0.02240000  1.0
  N  N91  1  0.55148000  0.15858000  0.97760000  1.0
  N  N92  1  0.52298000  0.09238000  0.55769000  1.0
  N  N93  1  0.47702000  0.90761000  0.44231000  1.0
  N  N94  1  0.03202000  0.45662000  0.25080000  1.0
  N  N95  1  0.96799000  0.54338000  0.74921000  1.0
  N  N96  1  0.87090000  0.48139000  0.40680000  1.0
  N  N97  1  0.12910000  0.51859000  0.59321000  1.0
  N  N98  1  0.35957000  0.36566000  0.81677000  1.0
  N  N99  1  0.64044000  0.63435000  0.18323000  1.0
  N  N100  1  0.19820000  0.35905000  0.99006000  1.0
  N  N101  1  0.80181000  0.64096000  0.00994000  1.0
  O  O102  1  0.92569000  0.33670000  0.16859000  1.0
  O  O103  1  0.07431000  0.66330000  0.83141000  1.0
  O  O104  1  0.84003000  0.40222000  0.00592000  1.0
  O  O105  1  0.15997000  0.59779000  0.99407000  1.0
  O  O106  1  0.30222000  0.40571000  0.13811000  1.0
  O  O107  1  0.69778000  0.59430000  0.86188000  1.0
  O  O108  1  0.19014000  0.22079000  0.28251000  1.0
  O  O109  1  0.80987000  0.77922000  0.71747000  1.0
  O  O110  1  0.30349000  0.14330000  0.65712000  1.0
  O  O111  1  0.69652000  0.85672000  0.34287000  1.0
