# generated using pymatgen
data_CuH16(C3N7)2
_symmetry_space_group_name_H-M   'P 1'
_cell_length_a   7.26626000
_cell_length_b   8.18210000
_cell_length_c   11.26900000
_cell_angle_alpha   91.21570000
_cell_angle_beta   97.82050000
_cell_angle_gamma   106.29530000
_symmetry_Int_Tables_number   1
_chemical_formula_structural   CuH16(C3N7)2
_chemical_formula_sum   'Cu2 H32 C12 N28'
_cell_volume   635.83962899
_cell_formula_units_Z   2
loop_
 _symmetry_equiv_pos_site_id
 _symmetry_equiv_pos_as_xyz
  1  'x, y, z'
loop_
 _atom_site_type_symbol
 _atom_site_label
 _atom_site_symmetry_multiplicity
 _atom_site_fract_x
 _atom_site_fract_y
 _atom_site_fract_z
 _atom_site_occupancy
  Cu  Cu0  1  0.50001000  0.00002000  0.00002000  1.0
  Cu  Cu1  1  0.49999000  0.49999000  0.50000000  1.0
  H  H2  1  0.87500000  0.77744000  0.59108000  1.0
  H  H3  1  0.12500000  0.22254000  0.40892000  1.0
  H  H4  1  0.80479000  0.40545000  0.54646000  1.0
  H  H5  1  0.19519000  0.59452000  0.45353000  1.0
  H  H6  1  0.02159000  0.65374000  0.65972000  1.0
  H  H7  1  0.97839000  0.34622000  0.34028000  1.0
  H  H8  1  0.13636000  0.96338000  0.91346000  1.0
  H  H9  1  0.86366000  0.03666000  0.08656000  1.0
  H  H10  1  0.50403000  0.70849000  0.67267000  1.0
  H  H11  1  0.49597000  0.29150000  0.32732000  1.0
  H  H12  1  0.44851000  0.51157000  0.71936000  1.0
  H  H13  1  0.55148000  0.48842000  0.28064000  1.0
  H  H14  1  0.75490000  0.50080000  0.76615000  1.0
  H  H15  1  0.24508000  0.49917000  0.23385000  1.0
  H  H16  1  0.84488000  0.56018000  0.45083000  1.0
  H  H17  1  0.15510000  0.43980000  0.54918000  1.0
  H  H18  1  0.50242000  0.72430000  0.89207000  1.0
  H  H19  1  0.49760000  0.27577000  0.10793000  1.0
  H  H20  1  0.61797000  0.73558000  0.03302000  1.0
  H  H21  1  0.38204000  0.26445000  0.96698000  1.0
  H  H22  1  0.79784000  0.72514000  0.79443000  1.0
  H  H23  1  0.20215000  0.27482000  0.20556000  1.0
  H  H24  1  0.28376000  0.51631000  0.99331000  1.0
  H  H25  1  0.71626000  0.48371000  0.00666000  1.0
  H  H26  1  0.01198000  0.65334000  0.97420000  1.0
  H  H27  1  0.98802000  0.34668000  0.02578000  1.0
  H  H28  1  0.32497000  0.67571000  0.11276000  1.0
  H  H29  1  0.67503000  0.32430000  0.88724000  1.0
  H  H30  1  0.16270000  0.92860000  0.05919000  1.0
  H  H31  1  0.83730000  0.07141000  0.94083000  1.0
  H  H32  1  0.14822000  0.69793000  0.85265000  1.0
  H  H33  1  0.85181000  0.30213000  0.14733000  1.0
  C  C34  1  0.33217000  0.97951000  0.58288000  1.0
  C  C35  1  0.66783000  0.02048000  0.41712000  1.0
  C  C36  1  0.87204000  0.65276000  0.62591000  1.0
  C  C37  1  0.12795000  0.34720000  0.37408000  1.0
  C  C38  1  0.74650000  0.61926000  0.72503000  1.0
  C  C39  1  0.25350000  0.38072000  0.27497000  1.0
  C  C40  1  0.15432000  0.71943000  0.94978000  1.0
  C  C41  1  0.84569000  0.28061000  0.05021000  1.0
  C  C42  1  0.31273000  0.65327000  0.01528000  1.0
  C  C43  1  0.68726000  0.34675000  0.98470000  1.0
  C  C44  1  0.03793000  0.83486000  0.30730000  1.0
  C  C45  1  0.96207000  0.16512000  0.69270000  1.0
  N  N46  1  0.78330000  0.52180000  0.52700000  1.0
  N  N47  1  0.21668000  0.47818000  0.47299000  1.0
  N  N48  1  0.20531000  0.90540000  0.97856000  1.0
  N  N49  1  0.79471000  0.09464000  0.02145000  1.0
  N  N50  1  0.39567000  0.90781000  0.68213000  1.0
  N  N51  1  0.60434000  0.09218000  0.31788000  1.0
  N  N52  1  0.48906000  0.03831000  0.76028000  1.0
  N  N53  1  0.51095000  0.96169000  0.23972000  1.0
  N  N54  1  0.22157000  0.87431000  0.48606000  1.0
  N  N55  1  0.77841000  0.12568000  0.51394000  1.0
  N  N56  1  0.16429000  0.94849000  0.39578000  1.0
  N  N57  1  0.83572000  0.05149000  0.60424000  1.0
  N  N58  1  0.38639000  0.15258000  0.59931000  1.0
  N  N59  1  0.61361000  0.84741000  0.40069000  1.0
  N  N60  1  0.48300000  0.18591000  0.71011000  1.0
  N  N61  1  0.51700000  0.81408000  0.28989000  1.0
  N  N62  1  0.82962000  0.61576000  0.21460000  1.0
  N  N63  1  0.17037000  0.38424000  0.78540000  1.0
  N  N64  1  0.94696000  0.66824000  0.31788000  1.0
  N  N65  1  0.05304000  0.33175000  0.68211000  1.0
  N  N66  1  0.97892000  0.88513000  0.19859000  1.0
  N  N67  1  0.02109000  0.11487000  0.80142000  1.0
  N  N68  1  0.54181000  0.59546000  0.67292000  1.0
  N  N69  1  0.45818000  0.40451000  0.32708000  1.0
  N  N70  1  0.49774000  0.75364000  0.98018000  1.0
  N  N71  1  0.50227000  0.24639000  0.01983000  1.0
  N  N72  1  0.84991000  0.74496000  0.14241000  1.0
  N  N73  1  0.15010000  0.25505000  0.85759000  1.0
