# generated using pymatgen
data_ZnH18C21N2ClO2
_symmetry_space_group_name_H-M   'P 1'
_cell_length_a   9.41786000
_cell_length_b   9.42904000
_cell_length_c   12.16690000
_cell_angle_alpha   97.94070000
_cell_angle_beta   108.86700000
_cell_angle_gamma   110.94700000
_symmetry_Int_Tables_number   1
_chemical_formula_structural   ZnH18C21N2ClO2
_chemical_formula_sum   'Zn2 H36 C42 N4 Cl2 O4'
_cell_volume   914.61079564
_cell_formula_units_Z   2
loop_
 _symmetry_equiv_pos_site_id
 _symmetry_equiv_pos_as_xyz
  1  'x, y, z'
loop_
 _atom_site_type_symbol
 _atom_site_label
 _atom_site_symmetry_multiplicity
 _atom_site_fract_x
 _atom_site_fract_y
 _atom_site_fract_z
 _atom_site_occupancy
  Zn  Zn0  1  0.97057000  0.58816000  0.82532000  1.0
  Zn  Zn1  1  0.02943000  0.41183000  0.17469000  1.0
  H  H2  1  0.67206000  0.38886000  0.47830000  1.0
  H  H3  1  0.32794000  0.61114000  0.52169000  1.0
  H  H4  1  0.64389000  0.52133000  0.84962000  1.0
  H  H5  1  0.35611000  0.47866000  0.15038000  1.0
  H  H6  1  0.71904000  0.69577000  0.68173000  1.0
  H  H7  1  0.28097000  0.30423000  0.31828000  1.0
  H  H8  1  0.65690000  0.15108000  0.81713000  1.0
  H  H9  1  0.34310000  0.84893000  0.18286000  1.0
  H  H10  1  0.05804000  0.99473000  0.18684000  1.0
  H  H11  1  0.94196000  0.00527000  0.81316000  1.0
  H  H12  1  0.62309000  0.72491000  0.47297000  1.0
  H  H13  1  0.37691000  0.27508000  0.52703000  1.0
  H  H14  1  0.56467000  0.91518000  0.88809000  1.0
  H  H15  1  0.43533000  0.08482000  0.11191000  1.0
  H  H16  1  0.05384000  0.68740000  0.44518000  1.0
  H  H17  1  0.94616000  0.31259000  0.55482000  1.0
  H  H18  1  0.13022000  0.85460000  0.03954000  1.0
  H  H19  1  0.86978000  0.14540000  0.96045000  1.0
  H  H20  1  0.59382000  0.35491000  0.25887000  1.0
  H  H21  1  0.40618000  0.64510000  0.74113000  1.0
  H  H22  1  0.54739000  0.65020000  0.98718000  1.0
  H  H23  1  0.45261000  0.34979000  0.01282000  1.0
  H  H24  1  0.95575000  0.96317000  0.35345000  1.0
  H  H25  1  0.04425000  0.03683000  0.64655000  1.0
  H  H26  1  0.77522000  0.95308000  0.37365000  1.0
  H  H27  1  0.22478000  0.04692000  0.62635000  1.0
  H  H28  1  0.60785000  0.85686000  0.15312000  1.0
  H  H29  1  0.39215000  0.14313000  0.84689000  1.0
  H  H30  1  0.78315000  0.03760000  0.19105000  1.0
  H  H31  1  0.21685000  0.96239000  0.80896000  1.0
  H  H32  1  0.63645000  0.65821000  0.27260000  1.0
  H  H33  1  0.36354000  0.34179000  0.72740000  1.0
  H  H34  1  0.82489000  0.66945000  0.26270000  1.0
  H  H35  1  0.17510000  0.33054000  0.73730000  1.0
  H  H36  1  0.13352000  0.65884000  0.65577000  1.0
  H  H37  1  0.86648000  0.34117000  0.34423000  1.0
  C  C38  1  0.83114000  0.70930000  0.44209000  1.0
  C  C39  1  0.16885000  0.29070000  0.55791000  1.0
  C  C40  1  0.60026000  0.15218000  0.58470000  1.0
  C  C41  1  0.39974000  0.84783000  0.41529000  1.0
  C  C42  1  0.60034000  0.27054000  0.41431000  1.0
  C  C43  1  0.39966000  0.72946000  0.58569000  1.0
  C  C44  1  0.55328000  0.13685000  0.45972000  1.0
  C  C45  1  0.44672000  0.86315000  0.54027000  1.0
  C  C46  1  0.79469000  0.83426000  0.09928000  1.0
  C  C47  1  0.20531000  0.16574000  0.90072000  1.0
  C  C48  1  0.72961000  0.62654000  0.92579000  1.0
  C  C49  1  0.27039000  0.37346000  0.07422000  1.0
  C  C50  1  0.69968000  0.31440000  0.67451000  1.0
  C  C51  1  0.30032000  0.68560000  0.32548000  1.0
  C  C52  1  0.79175000  0.69785000  0.62767000  1.0
  C  C53  1  0.20825000  0.30215000  0.37234000  1.0
  C  C54  1  0.58713000  0.03313000  0.75227000  1.0
  C  C55  1  0.41287000  0.96688000  0.24772000  1.0
  C  C56  1  0.96070000  0.89093000  0.11304000  1.0
  C  C57  1  0.03930000  0.10907000  0.88696000  1.0
  C  C58  1  0.54740000  0.01874000  0.62639000  1.0
  C  C59  1  0.45260000  0.98126000  0.37360000  1.0
  C  C60  1  0.73952000  0.71512000  0.51203000  1.0
  C  C61  1  0.26049000  0.28488000  0.48798000  1.0
  C  C62  1  0.53653000  0.90194000  0.79201000  1.0
  C  C63  1  0.46347000  0.09807000  0.20798000  1.0
  C  C64  1  0.97730000  0.69148000  0.49532000  1.0
  C  C65  1  0.02270000  0.30852000  0.50468000  1.0
  C  C66  1  0.00281000  0.81366000  0.03209000  1.0
  C  C67  1  0.99719000  0.18635000  0.96791000  1.0
  C  C68  1  0.55563000  0.25197000  0.29214000  1.0
  C  C69  1  0.44437000  0.74804000  0.70786000  1.0
  C  C70  1  0.67856000  0.69900000  0.00283000  1.0
  C  C71  1  0.32145000  0.30100000  0.99717000  1.0
  C  C72  1  0.81952000  0.89708000  0.31487000  1.0
  C  C73  1  0.18048000  0.10292000  0.68513000  1.0
  C  C74  1  0.74402000  0.91138000  0.18672000  1.0
  C  C75  1  0.25598000  0.08861000  0.81328000  1.0
  C  C76  1  0.77272000  0.72342000  0.31572000  1.0
  C  C77  1  0.22727000  0.27657000  0.68429000  1.0
  C  C78  1  0.02187000  0.67491000  0.61183000  1.0
  C  C79  1  0.97813000  0.32509000  0.38817000  1.0
  N  N80  1  0.88955000  0.68331000  0.93944000  1.0
  N  N81  1  0.11045000  0.31669000  0.06056000  1.0
  N  N82  1  0.93021000  0.67597000  0.67688000  1.0
  N  N83  1  0.06979000  0.32402000  0.32313000  1.0
  Cl  Cl84  1  0.24501000  0.67071000  0.92498000  1.0
  Cl  Cl85  1  0.75499000  0.32929000  0.07502000  1.0
  O  O86  1  0.62582000  0.39894000  0.68623000  1.0
  O  O87  1  0.37418000  0.60106000  0.31377000  1.0
  O  O88  1  0.85683000  0.35701000  0.73341000  1.0
  O  O89  1  0.14317000  0.64299000  0.26659000  1.0
