# generated using pymatgen
data_PrH7(C3O4)2
_symmetry_space_group_name_H-M   'P 1'
_cell_length_a   8.57847000
_cell_length_b   9.26453000
_cell_length_c   14.78840000
_cell_angle_alpha   90.00210000
_cell_angle_beta   90.00040000
_cell_angle_gamma   114.56300000
_symmetry_Int_Tables_number   1
_chemical_formula_structural   PrH7(C3O4)2
_chemical_formula_sum   'Pr4 H28 C24 O32'
_cell_volume   1068.95490641
_cell_formula_units_Z   4
loop_
 _symmetry_equiv_pos_site_id
 _symmetry_equiv_pos_as_xyz
  1  'x, y, z'
loop_
 _atom_site_type_symbol
 _atom_site_label
 _atom_site_symmetry_multiplicity
 _atom_site_fract_x
 _atom_site_fract_y
 _atom_site_fract_z
 _atom_site_occupancy
  Pr  Pr0  1  0.20555000  0.19770000  0.26327000  1.0
  Pr  Pr1  1  0.29444000  0.80228000  0.76327000  1.0
  Pr  Pr2  1  0.79445000  0.80230000  0.73674000  1.0
  Pr  Pr3  1  0.70554000  0.19771000  0.23673000  1.0
  H  H4  1  0.15641000  0.10414000  0.07287000  1.0
  H  H5  1  0.34356000  0.89585000  0.57288000  1.0
  H  H6  1  0.84360000  0.89590000  0.92715000  1.0
  H  H7  1  0.65645000  0.10412000  0.42714000  1.0
  H  H8  1  0.96517000  0.06478000  0.09743000  1.0
  H  H9  1  0.53481000  0.93521000  0.59743000  1.0
  H  H10  1  0.03482000  0.93521000  0.90257000  1.0
  H  H11  1  0.46520000  0.06477000  0.40258000  1.0
  H  H12  1  0.16593000  0.99555000  0.41216000  1.0
  H  H13  1  0.33408000  0.00446000  0.91217000  1.0
  H  H14  1  0.83408000  0.00447000  0.58784000  1.0
  H  H15  1  0.66591000  0.99552000  0.08782000  1.0
  H  H16  1  0.24768000  0.16079000  0.46144000  1.0
  H  H17  1  0.25236000  0.83920000  0.96145000  1.0
  H  H18  1  0.75230000  0.83919000  0.53858000  1.0
  H  H19  1  0.74768000  0.16080000  0.03858000  1.0
  H  H20  1  0.66324000  0.48282000  0.96869000  1.0
  H  H21  1  0.83671000  0.51710000  0.46869000  1.0
  H  H22  1  0.33677000  0.51714000  0.03131000  1.0
  H  H23  1  0.16325000  0.48294000  0.53131000  1.0
  H  H24  1  0.81798000  0.60183000  0.31996000  1.0
  H  H25  1  0.68204000  0.39819000  0.81997000  1.0
  H  H26  1  0.18205000  0.39820000  0.68005000  1.0
  H  H27  1  0.31795000  0.60181000  0.18002000  1.0
  H  H28  1  0.58733000  0.78358000  0.30629000  1.0
  H  H29  1  0.91272000  0.21647000  0.80630000  1.0
  H  H30  1  0.41271000  0.21646000  0.69370000  1.0
  H  H31  1  0.08727000  0.78353000  0.19369000  1.0
  C  C32  1  0.70459000  0.76590000  0.31309000  1.0
  C  C33  1  0.79543000  0.23412000  0.81309000  1.0
  C  C34  1  0.29542000  0.23410000  0.68692000  1.0
  C  C35  1  0.20456000  0.76589000  0.18691000  1.0
  C  C36  1  0.50317000  0.33833000  0.08057000  1.0
  C  C37  1  0.99679000  0.66163000  0.58058000  1.0
  C  C38  1  0.49684000  0.66165000  0.91942000  1.0
  C  C39  1  0.00319000  0.33838000  0.41940000  1.0
  C  C40  1  0.86803000  0.90893000  0.30613000  1.0
  C  C41  1  0.63199000  0.09109000  0.80612000  1.0
  C  C42  1  0.13198000  0.09107000  0.69388000  1.0
  C  C43  1  0.36800000  0.90892000  0.19388000  1.0
  C  C44  1  0.53669000  0.47582000  0.30912000  1.0
  C  C45  1  0.96332000  0.52419000  0.80914000  1.0
  C  C46  1  0.46332000  0.52418000  0.69088000  1.0
  C  C47  1  0.03667000  0.47580000  0.19085000  1.0
  C  C48  1  0.70024000  0.61957000  0.31736000  1.0
  C  C49  1  0.79977000  0.38044000  0.81738000  1.0
  C  C50  1  0.29977000  0.38043000  0.68264000  1.0
  C  C51  1  0.20022000  0.61956000  0.18262000  1.0
  C  C52  1  0.54775000  0.45948000  0.00795000  1.0
  C  C53  1  0.95223000  0.54051000  0.50795000  1.0
  C  C54  1  0.45227000  0.54052000  0.99205000  1.0
  C  C55  1  0.04775000  0.45952000  0.49203000  1.0
  O  O56  1  0.60224000  0.26830000  0.09239000  1.0
  O  O57  1  0.89772000  0.73166000  0.59241000  1.0
  O  O58  1  0.39778000  0.73168000  0.90759000  1.0
  O  O59  1  0.10226000  0.26836000  0.40757000  1.0
  O  O60  1  0.36904000  0.31255000  0.12675000  1.0
  O  O61  1  0.13092000  0.68740000  0.62676000  1.0
  O  O62  1  0.63098000  0.68741000  0.87325000  1.0
  O  O63  1  0.86905000  0.31260000  0.37323000  1.0
  O  O64  1  0.01018000  0.90719000  0.32921000  1.0
  O  O65  1  0.48984000  0.09284000  0.82920000  1.0
  O  O66  1  0.98983000  0.09282000  0.67079000  1.0
  O  O67  1  0.51015000  0.90717000  0.17080000  1.0
  O  O68  1  0.39399000  0.48551000  0.30768000  1.0
  O  O69  1  0.10603000  0.51451000  0.80773000  1.0
  O  O70  1  0.60603000  0.51451000  0.69231000  1.0
  O  O71  1  0.89396000  0.48547000  0.19228000  1.0
  O  O72  1  0.86413000  0.03441000  0.27127000  1.0
  O  O73  1  0.63589000  0.96560000  0.77127000  1.0
  O  O74  1  0.13586000  0.96559000  0.72874000  1.0
  O  O75  1  0.36410000  0.03440000  0.22874000  1.0
  O  O76  1  0.54337000  0.33937000  0.30083000  1.0
  O  O77  1  0.95665000  0.66064000  0.80083000  1.0
  O  O78  1  0.45662000  0.66062000  0.69916000  1.0
  O  O79  1  0.04337000  0.33936000  0.19915000  1.0
  O  O80  1  0.06709000  0.04784000  0.11693000  1.0
  O  O81  1  0.43288000  0.95210000  0.61694000  1.0
  O  O82  1  0.93290000  0.95214000  0.88307000  1.0
  O  O83  1  0.56714000  0.04789000  0.38306000  1.0
  O  O84  1  0.27670000  0.08460000  0.42736000  1.0
  O  O85  1  0.22332000  0.91541000  0.92739000  1.0
  O  O86  1  0.72330000  0.91544000  0.57262000  1.0
  O  O87  1  0.77668000  0.08456000  0.07262000  1.0
