# generated using pymatgen
data_CuH9C13N8
_symmetry_space_group_name_H-M   'P 1'
_cell_length_a   9.28294000
_cell_length_b   11.19790000
_cell_length_c   15.68320000
_cell_angle_alpha   89.99910000
_cell_angle_beta   90.93480000
_cell_angle_gamma   89.99950000
_symmetry_Int_Tables_number   1
_chemical_formula_structural   CuH9C13N8
_chemical_formula_sum   'Cu4 H36 C52 N32'
_cell_volume   1630.04278550
_cell_formula_units_Z   4
loop_
 _symmetry_equiv_pos_site_id
 _symmetry_equiv_pos_as_xyz
  1  'x, y, z'
loop_
 _atom_site_type_symbol
 _atom_site_label
 _atom_site_symmetry_multiplicity
 _atom_site_fract_x
 _atom_site_fract_y
 _atom_site_fract_z
 _atom_site_occupancy
  Cu  Cu0  1  0.81545000  0.20421000  0.18316000  1.0
  Cu  Cu1  1  0.68455000  0.70421000  0.31683000  1.0
  Cu  Cu2  1  0.18454000  0.79578000  0.81683000  1.0
  Cu  Cu3  1  0.31547000  0.29577000  0.68317000  1.0
  H  H4  1  0.39274000  0.35791000  0.85830000  1.0
  H  H5  1  0.10725000  0.85791000  0.64170000  1.0
  H  H6  1  0.60727000  0.64210000  0.14170000  1.0
  H  H7  1  0.89275000  0.14209000  0.35830000  1.0
  H  H8  1  0.53190000  0.18607000  0.88744000  1.0
  H  H9  1  0.96809000  0.68607000  0.61256000  1.0
  H  H10  1  0.46810000  0.81395000  0.11257000  1.0
  H  H11  1  0.03190000  0.31394000  0.38743000  1.0
  H  H12  1  0.48271000  0.71765000  0.77504000  1.0
  H  H13  1  0.01731000  0.21766000  0.72497000  1.0
  H  H14  1  0.51729000  0.28235000  0.22496000  1.0
  H  H15  1  0.98271000  0.78235000  0.27503000  1.0
  H  H16  1  0.61835000  0.88844000  0.84292000  1.0
  H  H17  1  0.88165000  0.38842000  0.65708000  1.0
  H  H18  1  0.38164000  0.11157000  0.15709000  1.0
  H  H19  1  0.11834000  0.61156000  0.34291000  1.0
  H  H20  1  0.93993000  0.61911000  0.84156000  1.0
  H  H21  1  0.56007000  0.11911000  0.65845000  1.0
  H  H22  1  0.06005000  0.38090000  0.15843000  1.0
  H  H23  1  0.43994000  0.88088000  0.34158000  1.0
  H  H24  1  0.78892000  0.53088000  0.93582000  1.0
  H  H25  1  0.71106000  0.03087000  0.56418000  1.0
  H  H26  1  0.21106000  0.46913000  0.06418000  1.0
  H  H27  1  0.28893000  0.96913000  0.43582000  1.0
  H  H28  1  0.76001000  0.42237000  0.05326000  1.0
  H  H29  1  0.73997000  0.92239000  0.44674000  1.0
  H  H30  1  0.23998000  0.57763000  0.94675000  1.0
  H  H31  1  0.26002000  0.07763000  0.55326000  1.0
  H  H32  1  0.88929000  0.99178000  0.82667000  1.0
  H  H33  1  0.61073000  0.49176000  0.67332000  1.0
  H  H34  1  0.11070000  0.00824000  0.17333000  1.0
  H  H35  1  0.38928000  0.50823000  0.32667000  1.0
  H  H36  1  0.64528000  0.06103000  0.02634000  1.0
  H  H37  1  0.85473000  0.56102000  0.47366000  1.0
  H  H38  1  0.35472000  0.93896000  0.97366000  1.0
  H  H39  1  0.14529000  0.43898000  0.52634000  1.0
  C  C40  1  0.46414000  0.43505000  0.85760000  1.0
  C  C41  1  0.03585000  0.93506000  0.64239000  1.0
  C  C42  1  0.53584000  0.56496000  0.14240000  1.0
  C  C43  1  0.96416000  0.06494000  0.35760000  1.0
  C  C44  1  0.59381000  0.21601000  0.94302000  1.0
  C  C45  1  0.90619000  0.71601000  0.55698000  1.0
  C  C46  1  0.40618000  0.78399000  0.05698000  1.0
  C  C47  1  0.09381000  0.28400000  0.44302000  1.0
  C  C48  1  0.51408000  0.63852000  0.81116000  1.0
  C  C49  1  0.98594000  0.13852000  0.68884000  1.0
  C  C50  1  0.48592000  0.36148000  0.18883000  1.0
  C  C51  1  0.01409000  0.86148000  0.31116000  1.0
  C  C52  1  0.42354000  0.53819000  0.81213000  1.0
  C  C53  1  0.07647000  0.03818000  0.68787000  1.0
  C  C54  1  0.57647000  0.46181000  0.18787000  1.0
  C  C55  1  0.92354000  0.96181000  0.31213000  1.0
  C  C56  1  0.28634000  0.54051000  0.76527000  1.0
  C  C57  1  0.21367000  0.04050000  0.73472000  1.0
  C  C58  1  0.71367000  0.45948000  0.23473000  1.0
  C  C59  1  0.78634000  0.95949000  0.26527000  1.0
  C  C60  1  0.72556000  0.84931000  0.84103000  1.0
  C  C61  1  0.77444000  0.34930000  0.65900000  1.0
  C  C62  1  0.27443000  0.15071000  0.15899000  1.0
  C  C63  1  0.22556000  0.65069000  0.34102000  1.0
  C  C64  1  0.59471000  0.43367000  0.90306000  1.0
  C  C65  1  0.90528000  0.93366000  0.59694000  1.0
  C  C66  1  0.40528000  0.56635000  0.09694000  1.0
  C  C67  1  0.09472000  0.06634000  0.40306000  1.0
  C  C68  1  0.89348000  0.70770000  0.84345000  1.0
  C  C69  1  0.60653000  0.20768000  0.65655000  1.0
  C  C70  1  0.10651000  0.29231000  0.15654000  1.0
  C  C71  1  0.39349000  0.79229000  0.34346000  1.0
  C  C72  1  0.64613000  0.63367000  0.85478000  1.0
  C  C73  1  0.85389000  0.13367000  0.64523000  1.0
  C  C74  1  0.35386000  0.36634000  0.14523000  1.0
  C  C75  1  0.14613000  0.86633000  0.35477000  1.0
  C  C76  1  0.68615000  0.53256000  0.90158000  1.0
  C  C77  1  0.81383000  0.03255000  0.59843000  1.0
  C  C78  1  0.31384000  0.46745000  0.09843000  1.0
  C  C79  1  0.18617000  0.96745000  0.40157000  1.0
  C  C80  1  0.71811000  0.33968000  0.02711000  1.0
  C  C81  1  0.78188000  0.83967000  0.47289000  1.0
  C  C82  1  0.28189000  0.66033000  0.97289000  1.0
  C  C83  1  0.21812000  0.16032000  0.52710000  1.0
  C  C84  1  0.86044000  0.89845000  0.83286000  1.0
  C  C85  1  0.63956000  0.39844000  0.66714000  1.0
  C  C86  1  0.13957000  0.10156000  0.16713000  1.0
  C  C87  1  0.36043000  0.60155000  0.33286000  1.0
  C  C88  1  0.65314000  0.15511000  0.01094000  1.0
  C  C89  1  0.84686000  0.65511000  0.48906000  1.0
  C  C90  1  0.34685000  0.84489000  0.98907000  1.0
  C  C91  1  0.15315000  0.34489000  0.51094000  1.0
  N  N92  1  0.74824000  0.72708000  0.84836000  1.0
  N  N93  1  0.75178000  0.22707000  0.65163000  1.0
  N  N94  1  0.25175000  0.27294000  0.15163000  1.0
  N  N95  1  0.24825000  0.77293000  0.34837000  1.0
  N  N96  1  0.96421000  0.80918000  0.83354000  1.0
  N  N97  1  0.53579000  0.30916000  0.66646000  1.0
  N  N98  1  0.03579000  0.19084000  0.16645000  1.0
  N  N99  1  0.46420000  0.69082000  0.33355000  1.0
  N  N100  1  0.19806000  0.63627000  0.75702000  1.0
  N  N101  1  0.30194000  0.13628000  0.74298000  1.0
  N  N102  1  0.80192000  0.36371000  0.24298000  1.0
  N  N103  1  0.69808000  0.86372000  0.25701000  1.0
  N  N104  1  0.22880000  0.44582000  0.72317000  1.0
  N  N105  1  0.27119000  0.94583000  0.77683000  1.0
  N  N106  1  0.77120000  0.55417000  0.27683000  1.0
  N  N107  1  0.72881000  0.05417000  0.22316000  1.0
  N  N108  1  0.63545000  0.33429000  0.95386000  1.0
  N  N109  1  0.86453000  0.83428000  0.54614000  1.0
  N  N110  1  0.36454000  0.66572000  0.04615000  1.0
  N  N111  1  0.13545000  0.16572000  0.45386000  1.0
  N  N112  1  0.72934000  0.23325000  0.06336000  1.0
  N  N113  1  0.77064000  0.73325000  0.43664000  1.0
  N  N114  1  0.27066000  0.76675000  0.93664000  1.0
  N  N115  1  0.22936000  0.26674000  0.56336000  1.0
  N  N116  1  0.08476000  0.59783000  0.70902000  1.0
  N  N117  1  0.41524000  0.09783000  0.79098000  1.0
  N  N118  1  0.91523000  0.40216000  0.29098000  1.0
  N  N119  1  0.58477000  0.90216000  0.20902000  1.0
  N  N120  1  0.10275000  0.48488000  0.68890000  1.0
  N  N121  1  0.39725000  0.98488000  0.81110000  1.0
  N  N122  1  0.89725000  0.51511000  0.31109000  1.0
  N  N123  1  0.60274000  0.01511000  0.18890000  1.0
