# generated using pymatgen
data_V6Cu2H18C20N6O17
_symmetry_space_group_name_H-M   'P 1'
_cell_length_a   7.30118000
_cell_length_b   10.07380000
_cell_length_c   10.61503622
_cell_angle_alpha   96.12240502
_cell_angle_beta   109.94737011
_cell_angle_gamma   92.25180000
_symmetry_Int_Tables_number   1
_chemical_formula_structural   V6Cu2H18C20N6O17
_chemical_formula_sum   'V6 Cu2 H18 C20 N6 O17'
_cell_volume   727.32116048
_cell_formula_units_Z   1
loop_
 _symmetry_equiv_pos_site_id
 _symmetry_equiv_pos_as_xyz
  1  'x, y, z'
loop_
 _atom_site_type_symbol
 _atom_site_label
 _atom_site_symmetry_multiplicity
 _atom_site_fract_x
 _atom_site_fract_y
 _atom_site_fract_z
 _atom_site_occupancy
  V  V0  1  0.32692000  0.89924000  0.41789000  1.0
  V  V1  1  0.67307000  0.10076000  0.58211000  1.0
  V  V2  1  0.18527000  0.06822000  0.61908000  1.0
  V  V3  1  0.81473000  0.93178000  0.38092000  1.0
  V  V4  1  0.23113000  0.94965000  0.10218000  1.0
  V  V5  1  0.76888000  0.05035000  0.89783000  1.0
  Cu  Cu6  1  0.37245000  0.82356000  0.80684000  1.0
  Cu  Cu7  1  0.62756000  0.17644000  0.19317000  1.0
  H  H8  1  0.27308000  0.40659000  0.68292000  1.0
  H  H9  1  0.72691000  0.59341000  0.31707000  1.0
  H  H10  1  0.95374000  0.38423000  0.60638000  1.0
  H  H11  1  0.04626000  0.61577000  0.39362000  1.0
  H  H12  1  0.64036000  0.48476000  0.57409000  1.0
  H  H13  1  0.35965000  0.51523000  0.42592000  1.0
  H  H14  1  0.64550000  0.73518000  0.64528000  1.0
  H  H15  1  0.35449000  0.26481000  0.35472000  1.0
  H  H16  1  0.97109000  0.86645000  0.74400000  1.0
  H  H17  1  0.02889000  0.13356000  0.25600000  1.0
  H  H18  1  0.70893000  0.80472000  0.03492000  1.0
  H  H19  1  0.29108000  0.19527000  0.96508000  1.0
  H  H20  1  0.93692000  0.63508000  0.13108000  1.0
  H  H21  1  0.06309000  0.36491000  0.86891000  1.0
  H  H22  1  0.85766000  0.39459000  0.01505000  1.0
  H  H23  1  0.14234000  0.60541000  0.98494000  1.0
  H  H24  1  0.55806000  0.33927000  0.81309000  1.0
  H  H25  1  0.44193000  0.66073000  0.18690000  1.0
  C  C26  1  0.12781000  0.57162000  0.69187000  1.0
  C  C27  1  0.87218000  0.42838000  0.30813000  1.0
  C  C28  1  0.95052000  0.49115000  0.63373000  1.0
  C  C29  1  0.04948000  0.50885000  0.36627000  1.0
  C  C30  1  0.77628000  0.54860000  0.61669000  1.0
  C  C31  1  0.22372000  0.45140000  0.38331000  1.0
  C  C32  1  0.77887000  0.68583000  0.65673000  1.0
  C  C33  1  0.22112000  0.31417000  0.34327000  1.0
  C  C34  1  0.95783000  0.75936000  0.71158000  1.0
  C  C35  1  0.04215000  0.24064000  0.28841000  1.0
  C  C36  1  0.68442000  0.70118000  0.98773000  1.0
  C  C37  1  0.31559000  0.29882000  0.01227000  1.0
  C  C38  1  0.80970000  0.60591000  0.04043000  1.0
  C  C39  1  0.19030000  0.39408000  0.95956000  1.0
  C  C40  1  0.76554000  0.47372000  0.97560000  1.0
  C  C41  1  0.23445000  0.52628000  0.02439000  1.0
  C  C42  1  0.59911000  0.44176000  0.86296000  1.0
  C  C43  1  0.40089000  0.55823000  0.13703000  1.0
  C  C44  1  0.47473000  0.54340000  0.81735000  1.0
  C  C45  1  0.52527000  0.45660000  0.18265000  1.0
  N  N46  1  0.29918000  0.50900000  0.71292000  1.0
  N  N47  1  0.70082000  0.49100000  0.28708000  1.0
  N  N48  1  0.12954000  0.70450000  0.72751000  1.0
  N  N49  1  0.87045000  0.29551000  0.27249000  1.0
  N  N50  1  0.52165000  0.67067000  0.87709000  1.0
  N  N51  1  0.47834000  0.32932000  0.12290000  1.0
  O  O52  1  0.32611000  0.85623000  0.00881000  1.0
  O  O53  1  0.67390000  0.14377000  0.99120000  1.0
  O  O54  1  0.61912000  0.91241000  0.82395000  1.0
  O  O55  1  0.38088000  0.08759000  0.17606000  1.0
  O  O56  1  0.25145000  0.99145000  0.75891000  1.0
  O  O57  1  0.74855000  0.00855000  0.24109000  1.0
  O  O58  1  0.20921000  0.23086000  0.65962000  1.0
  O  O59  1  0.79079000  0.76915000  0.34039000  1.0
  O  O60  1  0.41980000  0.04451000  0.57300000  1.0
  O  O61  1  0.58020000  0.95549000  0.42700000  1.0
  O  O62  1  0.09682000  0.96672000  0.43455000  1.0
  O  O63  1  0.90319000  0.03329000  0.56545000  1.0
  O  O64  1  0.34478000  0.76041000  0.48176000  1.0
  O  O65  1  0.65522000  0.23959000  0.51825000  1.0
  O  O66  1  0.22260000  0.85648000  0.23893000  1.0
  O  O67  1  0.77740000  0.14351000  0.76107000  1.0
  O  O68  1  0.00001000  0.00000000  0.00001000  1.0
