# generated using pymatgen
data_ZnH4C8(N2O)2
_symmetry_space_group_name_H-M   'P 1'
_cell_length_a   6.82457000
_cell_length_b   9.55752000
_cell_length_c   17.78930000
_cell_angle_alpha   101.73200000
_cell_angle_beta   96.84740000
_cell_angle_gamma   105.71700000
_symmetry_Int_Tables_number   1
_chemical_formula_structural   ZnH4C8(N2O)2
_chemical_formula_sum   'Zn4 H16 C32 N16 O8'
_cell_volume   1074.74296323
_cell_formula_units_Z   4
loop_
 _symmetry_equiv_pos_site_id
 _symmetry_equiv_pos_as_xyz
  1  'x, y, z'
loop_
 _atom_site_type_symbol
 _atom_site_label
 _atom_site_symmetry_multiplicity
 _atom_site_fract_x
 _atom_site_fract_y
 _atom_site_fract_z
 _atom_site_occupancy
  Zn  Zn0  1  0.07809000  0.54014000  0.24883000  1.0
  Zn  Zn1  1  0.17309000  0.19884000  0.25112000  1.0
  Zn  Zn2  1  0.92191000  0.45986000  0.75118000  1.0
  Zn  Zn3  1  0.82691000  0.80116000  0.74888000  1.0
  H  H4  1  0.79494000  0.05053000  0.02266000  1.0
  H  H5  1  0.23283000  0.46921000  0.02162000  1.0
  H  H6  1  0.16738000  0.39977000  0.87740000  1.0
  H  H7  1  0.71399000  0.98290000  0.87851000  1.0
  H  H8  1  0.36350000  0.71451000  0.47394000  1.0
  H  H9  1  0.11179000  0.25541000  0.48282000  1.0
  H  H10  1  0.44322000  0.79412000  0.61935000  1.0
  H  H11  1  0.17940000  0.33322000  0.62814000  1.0
  H  H12  1  0.20505000  0.94947000  0.97735000  1.0
  H  H13  1  0.76717000  0.53079000  0.97839000  1.0
  H  H14  1  0.83262000  0.60023000  0.12260000  1.0
  H  H15  1  0.28602000  0.01711000  0.12149000  1.0
  H  H16  1  0.63650000  0.28549000  0.52606000  1.0
  H  H17  1  0.88820000  0.74459000  0.51718000  1.0
  H  H18  1  0.55678000  0.20588000  0.38065000  1.0
  H  H19  1  0.82060000  0.66678000  0.37186000  1.0
  C  C20  1  0.93532000  0.18624000  0.86738000  1.0
  C  C21  1  0.06211000  0.30575000  0.11778000  1.0
  C  C22  1  0.01854000  0.26399000  0.03093000  1.0
  C  C23  1  0.87429000  0.12644000  0.99018000  1.0
  C  C24  1  0.12105000  0.36251000  0.98957000  1.0
  C  C25  1  0.08193000  0.32327000  0.90836000  1.0
  C  C26  1  0.83082000  0.08847000  0.90899000  1.0
  C  C27  1  0.89057000  0.14576000  0.78194000  1.0
  C  C28  1  0.19217000  0.43408000  0.38342000  1.0
  C  C29  1  0.35843000  0.61423000  0.71856000  1.0
  C  C30  1  0.32662000  0.63231000  0.50856000  1.0
  C  C31  1  0.18164000  0.37302000  0.51347000  1.0
  C  C32  1  0.36968000  0.67623000  0.58971000  1.0
  C  C33  1  0.23381000  0.48058000  0.47020000  1.0
  C  C34  1  0.22037000  0.41694000  0.59459000  1.0
  C  C35  1  0.31567000  0.56869000  0.63316000  1.0
  C  C36  1  0.06468000  0.81376000  0.13262000  1.0
  C  C37  1  0.93789000  0.69426000  0.88222000  1.0
  C  C38  1  0.98146000  0.73601000  0.96907000  1.0
  C  C39  1  0.12571000  0.87356000  0.00982000  1.0
  C  C40  1  0.87895000  0.63750000  0.01044000  1.0
  C  C41  1  0.91807000  0.67673000  0.09165000  1.0
  C  C42  1  0.16917000  0.91153000  0.09102000  1.0
  C  C43  1  0.10944000  0.85425000  0.21806000  1.0
  C  C44  1  0.80783000  0.56592000  0.61658000  1.0
  C  C45  1  0.64156000  0.38577000  0.28144000  1.0
  C  C46  1  0.67339000  0.36769000  0.49144000  1.0
  C  C47  1  0.81836000  0.62698000  0.48654000  1.0
  C  C48  1  0.63032000  0.32377000  0.41029000  1.0
  C  C49  1  0.76620000  0.51942000  0.52980000  1.0
  C  C50  1  0.77963000  0.58305000  0.40542000  1.0
  C  C51  1  0.68433000  0.43131000  0.36684000  1.0
  N  N52  1  0.88004000  0.24021000  0.73582000  1.0
  N  N53  1  0.22588000  0.56997000  0.76546000  1.0
  N  N54  1  0.51085000  0.71852000  0.83942000  1.0
  N  N55  1  0.32586000  0.63716000  0.84030000  1.0
  N  N56  1  0.83326000  0.15753000  0.66041000  1.0
  N  N57  1  0.81572000  0.01890000  0.66012000  1.0
  N  N58  1  0.53656000  0.70694000  0.76400000  1.0
  N  N59  1  0.85103000  0.00745000  0.73530000  1.0
  N  N60  1  0.11997000  0.75979000  0.26418000  1.0
  N  N61  1  0.77411000  0.43003000  0.23454000  1.0
  N  N62  1  0.48915000  0.28148000  0.16058000  1.0
  N  N63  1  0.67413000  0.36284000  0.15970000  1.0
  N  N64  1  0.16674000  0.84247000  0.33960000  1.0
  N  N65  1  0.18429000  0.98110000  0.33988000  1.0
  N  N66  1  0.46343000  0.29305000  0.23600000  1.0
  N  N67  1  0.14898000  0.99255000  0.26470000  1.0
  O  O68  1  0.00853000  0.20086000  0.15289000  1.0
  O  O69  1  0.15040000  0.44435000  0.15197000  1.0
  O  O70  1  0.24009000  0.53684000  0.34677000  1.0
  O  O71  1  0.11201000  0.29428000  0.35051000  1.0
  O  O72  1  0.99147000  0.79914000  0.84711000  1.0
  O  O73  1  0.84959000  0.55565000  0.84803000  1.0
  O  O74  1  0.75991000  0.46316000  0.65323000  1.0
  O  O75  1  0.88799000  0.70572000  0.64949000  1.0
