# generated using pymatgen
data_ZnH12C8(NO)6
_symmetry_space_group_name_H-M   'P 1'
_cell_length_a   7.68794000
_cell_length_b   7.75287000
_cell_length_c   12.49930000
_cell_angle_alpha   90.00010000
_cell_angle_beta   90.00000000
_cell_angle_gamma   116.84800000
_symmetry_Int_Tables_number   1
_chemical_formula_structural   ZnH12C8(NO)6
_chemical_formula_sum   'Zn2 H24 C16 N12 O12'
_cell_volume   664.69771271
_cell_formula_units_Z   2
loop_
 _symmetry_equiv_pos_site_id
 _symmetry_equiv_pos_as_xyz
  1  'x, y, z'
loop_
 _atom_site_type_symbol
 _atom_site_label
 _atom_site_symmetry_multiplicity
 _atom_site_fract_x
 _atom_site_fract_y
 _atom_site_fract_z
 _atom_site_occupancy
  Zn  Zn0  1  0.00000000  0.50000000  0.00000000  1.0
  Zn  Zn1  1  0.50000000  0.50000000  0.50000000  1.0
  H  H2  1  0.10120000  0.38952000  0.25359000  1.0
  H  H3  1  0.39880000  0.61048000  0.75359000  1.0
  H  H4  1  0.89880000  0.61048000  0.74641000  1.0
  H  H5  1  0.60120000  0.38953000  0.24640000  1.0
  H  H6  1  0.01753000  0.86256000  0.14582000  1.0
  H  H7  1  0.48247000  0.13743000  0.64582000  1.0
  H  H8  1  0.98247000  0.13743000  0.85417000  1.0
  H  H9  1  0.51752000  0.86256000  0.35418000  1.0
  H  H10  1  0.98801000  0.86113000  0.43874000  1.0
  H  H11  1  0.51199000  0.13887000  0.93874000  1.0
  H  H12  1  0.01199000  0.13887000  0.56126000  1.0
  H  H13  1  0.48801000  0.86114000  0.06127000  1.0
  H  H14  1  0.99823000  0.99604000  0.32223000  1.0
  H  H15  1  0.50177000  0.00397000  0.82223000  1.0
  H  H16  1  0.00177000  0.00397000  0.67777000  1.0
  H  H17  1  0.49824000  0.99605000  0.17778000  1.0
  H  H18  1  0.27918000  0.37428000  0.96522000  1.0
  H  H19  1  0.22082000  0.62572000  0.46522000  1.0
  H  H20  1  0.72082000  0.62572000  0.03478000  1.0
  H  H21  1  0.77918000  0.37428000  0.53478000  1.0
  H  H22  1  0.12112000  0.25673000  0.05865000  1.0
  H  H23  1  0.37887000  0.74327000  0.55865000  1.0
  H  H24  1  0.87887000  0.74327000  0.94135000  1.0
  H  H25  1  0.62112000  0.25672000  0.44135000  1.0
  C  C26  1  0.08751000  0.52278000  0.25138000  1.0
  C  C27  1  0.41249000  0.47722000  0.75138000  1.0
  C  C28  1  0.91249000  0.47723000  0.74862000  1.0
  C  C29  1  0.58751000  0.52277000  0.24862000  1.0
  C  C30  1  0.04838000  0.76161000  0.19302000  1.0
  C  C31  1  0.45162000  0.23839000  0.69302000  1.0
  C  C32  1  0.95162000  0.23839000  0.80698000  1.0
  C  C33  1  0.54838000  0.76160000  0.30699000  1.0
  C  C34  1  0.07507000  0.92944000  0.36703000  1.0
  C  C35  1  0.42493000  0.07056000  0.86703000  1.0
  C  C36  1  0.92493000  0.07056000  0.63297000  1.0
  C  C37  1  0.57508000  0.92945000  0.13297000  1.0
  C  C38  1  0.27553000  0.08990000  0.39951000  1.0
  C  C39  1  0.22448000  0.91009000  0.89951000  1.0
  C  C40  1  0.72448000  0.91009000  0.60049000  1.0
  C  C41  1  0.77552000  0.08991000  0.10049000  1.0
  N  N42  1  0.07904000  0.78016000  0.29903000  1.0
  N  N43  1  0.42096000  0.21984000  0.79903000  1.0
  N  N44  1  0.92096000  0.21984000  0.70097000  1.0
  N  N45  1  0.57904000  0.78017000  0.20097000  1.0
  N  N46  1  0.10516000  0.62950000  0.33769000  1.0
  N  N47  1  0.39484000  0.37049000  0.83769000  1.0
  N  N48  1  0.89484000  0.37049000  0.66231000  1.0
  N  N49  1  0.60516000  0.62951000  0.16231000  1.0
  N  N50  1  0.05208000  0.59921000  0.16047000  1.0
  N  N51  1  0.44792000  0.40078000  0.66047000  1.0
  N  N52  1  0.94792000  0.40078000  0.83953000  1.0
  N  N53  1  0.55208000  0.59921000  0.33953000  1.0
  O  O54  1  0.20495000  0.38677000  0.02732000  1.0
  O  O55  1  0.29505000  0.61323000  0.52732000  1.0
  O  O56  1  0.79505000  0.61323000  0.97268000  1.0
  O  O57  1  0.70495000  0.38677000  0.47268000  1.0
  O  O58  1  0.26451000  0.22785000  0.44910000  1.0
  O  O59  1  0.23550000  0.77215000  0.94910000  1.0
  O  O60  1  0.73549000  0.77215000  0.55089000  1.0
  O  O61  1  0.76451000  0.22785000  0.05090000  1.0
  O  O62  1  0.42845000  0.07536000  0.37594000  1.0
  O  O63  1  0.07154000  0.92463000  0.87594000  1.0
  O  O64  1  0.57154000  0.92463000  0.62406000  1.0
  O  O65  1  0.92846000  0.07537000  0.12406000  1.0
