# generated using pymatgen
data_CdH3(CN2)4
_symmetry_space_group_name_H-M   'P 1'
_cell_length_a   7.70068000
_cell_length_b   8.00447000
_cell_length_c   13.09380000
_cell_angle_alpha   89.99960000
_cell_angle_beta   89.99960000
_cell_angle_gamma   70.57200000
_symmetry_Int_Tables_number   1
_chemical_formula_structural   CdH3(CN2)4
_chemical_formula_sum   'Cd4 H12 C16 N32'
_cell_volume   761.14392828
_cell_formula_units_Z   4
loop_
 _symmetry_equiv_pos_site_id
 _symmetry_equiv_pos_as_xyz
  1  'x, y, z'
loop_
 _atom_site_type_symbol
 _atom_site_label
 _atom_site_symmetry_multiplicity
 _atom_site_fract_x
 _atom_site_fract_y
 _atom_site_fract_z
 _atom_site_occupancy
  Cd  Cd0  1  0.63600000  0.79966000  0.07659000  1.0
  Cd  Cd1  1  0.36400000  0.70034000  0.57659000  1.0
  Cd  Cd2  1  0.36400000  0.20034000  0.92341000  1.0
  Cd  Cd3  1  0.63600000  0.29966000  0.42341000  1.0
  H  H4  1  0.08947000  0.36484000  0.71733000  1.0
  H  H5  1  0.91053000  0.13517000  0.21733000  1.0
  H  H6  1  0.91053000  0.63517000  0.28267000  1.0
  H  H7  1  0.08947000  0.86483000  0.78267000  1.0
  H  H8  1  0.78462000  0.60649000  0.67687000  1.0
  H  H9  1  0.21537000  0.89351000  0.17687000  1.0
  H  H10  1  0.21537000  0.39351000  0.32313000  1.0
  H  H11  1  0.78463000  0.10649000  0.82313000  1.0
  H  H12  1  0.59913000  0.77104000  0.82787000  1.0
  H  H13  1  0.40086000  0.72896000  0.32787000  1.0
  H  H14  1  0.40087000  0.22896000  0.17213000  1.0
  H  H15  1  0.59914000  0.27104000  0.67213000  1.0
  C  C16  1  0.96314000  0.51536000  0.94700000  1.0
  C  C17  1  0.03686000  0.98464000  0.44700000  1.0
  C  C18  1  0.03686000  0.48464000  0.05300000  1.0
  C  C19  1  0.96315000  0.01536000  0.55300000  1.0
  C  C20  1  0.00323000  0.44832000  0.77644000  1.0
  C  C21  1  0.99677000  0.05168000  0.27644000  1.0
  C  C22  1  0.99677000  0.55168000  0.22356000  1.0
  C  C23  1  0.00323000  0.94832000  0.72356000  1.0
  C  C24  1  0.83575000  0.57883000  0.75462000  1.0
  C  C25  1  0.16424000  0.92117000  0.25462000  1.0
  C  C26  1  0.16425000  0.42117000  0.24538000  1.0
  C  C27  1  0.83575000  0.07883000  0.74538000  1.0
  C  C28  1  0.73469000  0.67115000  0.83705000  1.0
  C  C29  1  0.26531000  0.82885000  0.33704000  1.0
  C  C30  1  0.26531000  0.32885000  0.16295000  1.0
  C  C31  1  0.73469000  0.17115000  0.66295000  1.0
  N  N32  1  0.79862000  0.63971000  0.93281000  1.0
  N  N33  1  0.20138000  0.86029000  0.43280000  1.0
  N  N34  1  0.20138000  0.36029000  0.06720000  1.0
  N  N35  1  0.79862000  0.13970000  0.56719000  1.0
  N  N36  1  0.06592000  0.41629000  0.87256000  1.0
  N  N37  1  0.93408000  0.08371000  0.37255000  1.0
  N  N38  1  0.93408000  0.58371000  0.12744000  1.0
  N  N39  1  0.06592000  0.91629000  0.62745000  1.0
  N  N40  1  0.49639000  0.59685000  0.13310000  1.0
  N  N41  1  0.50361000  0.90315000  0.63310000  1.0
  N  N42  1  0.50361000  0.40315000  0.86689000  1.0
  N  N43  1  0.49639000  0.09685000  0.36690000  1.0
  N  N44  1  0.57447000  0.48923000  0.19435000  1.0
  N  N45  1  0.42553000  0.01077000  0.69435000  1.0
  N  N46  1  0.42553000  0.51077000  0.80565000  1.0
  N  N47  1  0.57447000  0.98923000  0.30566000  1.0
  N  N48  1  0.65202000  0.37699000  0.25306000  1.0
  N  N49  1  0.34798000  0.12301000  0.75306000  1.0
  N  N50  1  0.34797000  0.62301000  0.74694000  1.0
  N  N51  1  0.65202000  0.87699000  0.24694000  1.0
  N  N52  1  0.35815000  0.92852000  0.98433000  1.0
  N  N53  1  0.64185000  0.57148000  0.48433000  1.0
  N  N54  1  0.64185000  0.07148000  0.01567000  1.0
  N  N55  1  0.35815000  0.42852000  0.51567000  1.0
  N  N56  1  0.23762000  0.86433000  0.97493000  1.0
  N  N57  1  0.76238000  0.63566000  0.47493000  1.0
  N  N58  1  0.76238000  0.13567000  0.02507000  1.0
  N  N59  1  0.23762000  0.36433000  0.52507000  1.0
  N  N60  1  0.12145000  0.80239000  0.96632000  1.0
  N  N61  1  0.87856000  0.69761000  0.46632000  1.0
  N  N62  1  0.87855000  0.19761000  0.03368000  1.0
  N  N63  1  0.12144000  0.30239000  0.53368000  1.0
