# generated using pymatgen
data_Sn2H25C8S2NO5
_symmetry_space_group_name_H-M   'P 1'
_cell_length_a   8.17189000
_cell_length_b   8.56399000
_cell_length_c   13.22800000
_cell_angle_alpha   81.27790000
_cell_angle_beta   73.43620000
_cell_angle_gamma   77.84720000
_symmetry_Int_Tables_number   1
_chemical_formula_structural   Sn2H25C8S2NO5
_chemical_formula_sum   'Sn4 H50 C16 S4 N2 O10'
_cell_volume   863.28966997
_cell_formula_units_Z   2
loop_
 _symmetry_equiv_pos_site_id
 _symmetry_equiv_pos_as_xyz
  1  'x, y, z'
loop_
 _atom_site_type_symbol
 _atom_site_label
 _atom_site_symmetry_multiplicity
 _atom_site_fract_x
 _atom_site_fract_y
 _atom_site_fract_z
 _atom_site_occupancy
  Sn  Sn0  1  0.55448000  0.85969000  0.23082000  1.0
  Sn  Sn1  1  0.44549000  0.14030000  0.76919000  1.0
  Sn  Sn2  1  0.21320000  0.57073000  0.27673000  1.0
  Sn  Sn3  1  0.78679000  0.42927000  0.72327000  1.0
  H  H4  1  0.20744000  0.88350000  0.27285000  1.0
  H  H5  1  0.79252000  0.11650000  0.72715000  1.0
  H  H6  1  0.83749000  0.32110000  0.47999000  1.0
  H  H7  1  0.16253000  0.67890000  0.52001000  1.0
  H  H8  1  0.73246000  0.26074000  0.39270000  1.0
  H  H9  1  0.26756000  0.73925000  0.60729000  1.0
  H  H10  1  0.81198000  0.11521000  0.49016000  1.0
  H  H11  1  0.18804000  0.88479000  0.50983000  1.0
  H  H12  1  0.97472000  0.19016000  0.01320000  1.0
  H  H13  1  0.02528000  0.80985000  0.98680000  1.0
  H  H14  1  0.06822000  0.28282000  0.09272000  1.0
  H  H15  1  0.93178000  0.71719000  0.90727000  1.0
  H  H16  1  0.16792000  0.08717000  0.04889000  1.0
  H  H17  1  0.83208000  0.91283000  0.95110000  1.0
  H  H18  1  0.70555000  0.54293000  0.22645000  1.0
  H  H19  1  0.29444000  0.45708000  0.77356000  1.0
  H  H20  1  0.63688000  0.60963000  0.10839000  1.0
  H  H21  1  0.36310000  0.39037000  0.89162000  1.0
  H  H22  1  0.83032000  0.66051000  0.12218000  1.0
  H  H23  1  0.16966000  0.33952000  0.87784000  1.0
  H  H24  1  0.41890000  0.16537000  0.17674000  1.0
  H  H25  1  0.58107000  0.83463000  0.82326000  1.0
  H  H26  1  0.61527000  0.10911000  0.07808000  1.0
  H  H27  1  0.38472000  0.89086000  0.92193000  1.0
  H  H28  1  0.42053000  0.04361000  0.07753000  1.0
  H  H29  1  0.57946000  0.95637000  0.92247000  1.0
  H  H30  1  0.45089000  0.99272000  0.41387000  1.0
  H  H31  1  0.54912000  0.00728000  0.58614000  1.0
  H  H32  1  0.54017000  0.78510000  0.43937000  1.0
  H  H33  1  0.45984000  0.21492000  0.56064000  1.0
  H  H34  1  0.68144000  0.92746000  0.38459000  1.0
  H  H35  1  0.31857000  0.07254000  0.61539000  1.0
  H  H36  1  0.86841000  0.67450000  0.32215000  1.0
  H  H37  1  0.13158000  0.32549000  0.67784000  1.0
  H  H38  1  0.92089000  0.55513000  0.43504000  1.0
  H  H39  1  0.07910000  0.44488000  0.56495000  1.0
  H  H40  1  0.95274000  0.75956000  0.40731000  1.0
  H  H41  1  0.04725000  0.24045000  0.59268000  1.0
  H  H42  1  0.50462000  0.36226000  0.30213000  1.0
  H  H43  1  0.49539000  0.63774000  0.69788000  1.0
  H  H44  1  0.42914000  0.49522000  0.40494000  1.0
  H  H45  1  0.57087000  0.50478000  0.59506000  1.0
  H  H46  1  0.32399000  0.32814000  0.41113000  1.0
  H  H47  1  0.67600000  0.67187000  0.58887000  1.0
  H  H48  1  0.13909000  0.60037000  0.08700000  1.0
  H  H49  1  0.86094000  0.39963000  0.91299000  1.0
  H  H50  1  0.35248000  0.64251000  0.06597000  1.0
  H  H51  1  0.64756000  0.35747000  0.93403000  1.0
  H  H52  1  0.31691000  0.43876000  0.08966000  1.0
  H  H53  1  0.68310000  0.56122000  0.91035000  1.0
  C  C54  1  0.83187000  0.22419000  0.43639000  1.0
  C  C55  1  0.16815000  0.77581000  0.56360000  1.0
  C  C56  1  0.04575000  0.17010000  0.07412000  1.0
  C  C57  1  0.95425000  0.82991000  0.92587000  1.0
  C  C58  1  0.69860000  0.64187000  0.16392000  1.0
  C  C59  1  0.30138000  0.35813000  0.83609000  1.0
  C  C60  1  0.49573000  0.07017000  0.12723000  1.0
  C  C61  1  0.50424000  0.92983000  0.87277000  1.0
  C  C62  1  0.55795000  0.89536000  0.38659000  1.0
  C  C63  1  0.44205000  0.10464000  0.61340000  1.0
  C  C64  1  0.95799000  0.65013000  0.37242000  1.0
  C  C65  1  0.04201000  0.34987000  0.62757000  1.0
  C  C66  1  0.39014000  0.42041000  0.35854000  1.0
  C  C67  1  0.60986000  0.57959000  0.64146000  1.0
  C  C68  1  0.26192000  0.56213000  0.10907000  1.0
  C  C69  1  0.73811000  0.43786000  0.89093000  1.0
  S  S70  1  0.03661000  0.18064000  0.34392000  1.0
  S  S71  1  0.96340000  0.81936000  0.65608000  1.0
  S  S72  1  0.91443000  0.08226000  0.19095000  1.0
  S  S73  1  0.08555000  0.91775000  0.80904000  1.0
  N  N74  1  0.02514000  0.04179000  0.27798000  1.0
  N  N75  1  0.97487000  0.95822000  0.72202000  1.0
  O  O76  1  0.06848000  0.32874000  0.27460000  1.0
  O  O77  1  0.93155000  0.67126000  0.72540000  1.0
  O  O78  1  0.16412000  0.11170000  0.40292000  1.0
  O  O79  1  0.83590000  0.88829000  0.59707000  1.0
  O  O80  1  0.75557000  0.19802000  0.22221000  1.0
  O  O81  1  0.24444000  0.80200000  0.77779000  1.0
  O  O82  1  0.89420000  0.92711000  0.16667000  1.0
  O  O83  1  0.10578000  0.07290000  0.83332000  1.0
  O  O84  1  0.30594000  0.79061000  0.26829000  1.0
  O  O85  1  0.69402000  0.20939000  0.73172000  1.0
