# generated using pymatgen
data_CuH9C11N2
_symmetry_space_group_name_H-M   'P 1'
_cell_length_a   7.84532000
_cell_length_b   8.07136000
_cell_length_c   8.27451000
_cell_angle_alpha   108.28810000
_cell_angle_beta   112.75700000
_cell_angle_gamma   90.47430000
_symmetry_Int_Tables_number   1
_chemical_formula_structural   CuH9C11N2
_chemical_formula_sum   'Cu2 H18 C22 N4'
_cell_volume   453.71038172
_cell_formula_units_Z   2
loop_
 _symmetry_equiv_pos_site_id
 _symmetry_equiv_pos_as_xyz
  1  'x, y, z'
loop_
 _atom_site_type_symbol
 _atom_site_label
 _atom_site_symmetry_multiplicity
 _atom_site_fract_x
 _atom_site_fract_y
 _atom_site_fract_z
 _atom_site_occupancy
  Cu  Cu0  1  0.04006000  0.80460000  0.71267000  1.0
  Cu  Cu1  1  0.63938000  0.62182000  0.04210000  1.0
  H  H2  1  0.80268000  0.29167000  0.26872000  1.0
  H  H3  1  0.50762000  0.34968000  0.17040000  1.0
  H  H4  1  0.11587000  0.47706000  0.42171000  1.0
  H  H5  1  0.55323000  0.95647000  0.32997000  1.0
  H  H6  1  0.38998000  0.34439000  0.83436000  1.0
  H  H7  1  0.08324000  0.41171000  0.73448000  1.0
  H  H8  1  0.86816000  0.13817000  0.48340000  1.0
  H  H9  1  0.16428000  0.08577000  0.58451000  1.0
  H  H10  1  0.05899000  0.89955000  0.23749000  1.0
  H  H11  1  0.18239000  0.74722000  0.32997000  1.0
  H  H12  1  0.23396000  0.80844000  0.16277000  1.0
  H  H13  1  0.42468000  0.64057000  0.58058000  1.0
  H  H14  1  0.49978000  0.67962000  0.41577000  1.0
  H  H15  1  0.60525000  0.53356000  0.52957000  1.0
  H  H16  1  0.59112000  0.01506000  0.01953000  1.0
  H  H17  1  0.28449000  0.08880000  0.92155000  1.0
  H  H18  1  0.97976000  0.59786000  0.97067000  1.0
  H  H19  1  0.69754000  0.82966000  0.78542000  1.0
  C  C20  1  0.02342000  0.24573000  0.17154000  1.0
  C  C21  1  0.34171000  0.00574000  0.43674000  1.0
  C  C22  1  0.32841000  0.42875000  0.31640000  1.0
  C  C23  1  0.84476000  0.20406000  0.16492000  1.0
  C  C24  1  0.07293000  0.13191000  0.03005000  1.0
  C  C25  1  0.37198000  0.31846000  0.17028000  1.0
  C  C26  1  0.15434000  0.39247000  0.31312000  1.0
  C  C27  1  0.88247000  0.73880000  0.45886000  1.0
  C  C28  1  0.51596000  0.04061000  0.43967000  1.0
  C  C29  1  0.60084000  0.29939000  0.72504000  1.0
  C  C30  1  0.24875000  0.17420000  0.03140000  1.0
  C  C31  1  0.42489000  0.25864000  0.72401000  1.0
  C  C32  1  0.94568000  0.37409000  0.72600000  1.0
  C  C33  1  0.64861000  0.18566000  0.58219000  1.0
  C  C34  1  0.88708000  0.48101000  0.85991000  1.0
  C  C35  1  0.82734000  0.22582000  0.58823000  1.0
  C  C36  1  0.26838000  0.73689000  0.84049000  1.0
  C  C37  1  0.78872000  0.94769000  0.89552000  1.0
  C  C38  1  0.30006000  0.11567000  0.58434000  1.0
  C  C39  1  0.72832000  0.05421000  0.02823000  1.0
  C  C40  1  0.19734000  0.85731000  0.28284000  1.0
  C  C41  1  0.47099000  0.57910000  0.46928000  1.0
  N  N42  1  0.72136000  0.44658000  0.86193000  1.0
  N  N43  1  0.78845000  0.69328000  0.29745000  1.0
  N  N44  1  0.41214000  0.69554000  0.92086000  1.0
  N  N45  1  0.95420000  0.98365000  0.89412000  1.0
