# generated using pymatgen
data_ZnH5C8N3O2
_symmetry_space_group_name_H-M   'P 1'
_cell_length_a   12.55390000
_cell_length_b   13.31880000
_cell_length_c   31.18870000
_cell_angle_alpha   89.99990000
_cell_angle_beta   90.00000000
_cell_angle_gamma   90.00000000
_symmetry_Int_Tables_number   1
_chemical_formula_structural   ZnH5C8N3O2
_chemical_formula_sum   'Zn16 H80 C128 N48 O32'
_cell_volume   5214.84056699
_cell_formula_units_Z   16
loop_
 _symmetry_equiv_pos_site_id
 _symmetry_equiv_pos_as_xyz
  1  'x, y, z'
loop_
 _atom_site_type_symbol
 _atom_site_label
 _atom_site_symmetry_multiplicity
 _atom_site_fract_x
 _atom_site_fract_y
 _atom_site_fract_z
 _atom_site_occupancy
  Zn  Zn0  1  0.39889000  0.09489000  0.20297000  1.0
  Zn  Zn1  1  0.60111000  0.59489000  0.79703000  1.0
  Zn  Zn2  1  0.10111000  0.09490000  0.70297000  1.0
  Zn  Zn3  1  0.89889000  0.59490000  0.29703000  1.0
  Zn  Zn4  1  0.34556000  0.93143000  0.29733000  1.0
  Zn  Zn5  1  0.65444000  0.43143000  0.70267000  1.0
  Zn  Zn6  1  0.15444000  0.93143000  0.79733000  1.0
  Zn  Zn7  1  0.84556000  0.43143000  0.20267000  1.0
  Zn  Zn8  1  0.30978000  0.54047000  0.19365000  1.0
  Zn  Zn9  1  0.69022000  0.04048000  0.80635000  1.0
  Zn  Zn10  1  0.19022000  0.54048000  0.69365000  1.0
  Zn  Zn11  1  0.80978000  0.04048000  0.30635000  1.0
  Zn  Zn12  1  0.43097000  0.48766000  0.30190000  1.0
  Zn  Zn13  1  0.56903000  0.98766000  0.69810000  1.0
  Zn  Zn14  1  0.06903000  0.48766000  0.80190000  1.0
  Zn  Zn15  1  0.93097000  0.98766000  0.19810000  1.0
  H  H16  1  0.33538000  0.31027000  0.16087000  1.0
  H  H17  1  0.66462000  0.81027000  0.83913000  1.0
  H  H18  1  0.16462000  0.31027000  0.66087000  1.0
  H  H19  1  0.83538000  0.81027000  0.33913000  1.0
  H  H20  1  0.41351000  0.24393000  0.28926000  1.0
  H  H21  1  0.58649000  0.74393000  0.71074000  1.0
  H  H22  1  0.08649000  0.24393000  0.78926000  1.0
  H  H23  1  0.91351000  0.74393000  0.21074000  1.0
  H  H24  1  0.16431000  0.06857000  0.16349000  1.0
  H  H25  1  0.83569000  0.56857000  0.83651000  1.0
  H  H26  1  0.33569000  0.06857000  0.66349000  1.0
  H  H27  1  0.66431000  0.56857000  0.33651000  1.0
  H  H28  1  0.08900000  0.92052000  0.27889000  1.0
  H  H29  1  0.91100000  0.42052000  0.72111000  1.0
  H  H30  1  0.41100000  0.92053000  0.77889000  1.0
  H  H31  1  0.58900000  0.42053000  0.22111000  1.0
  H  H32  1  0.33611000  0.21414000  0.05240000  1.0
  H  H33  1  0.66389000  0.71414000  0.94760000  1.0
  H  H34  1  0.16389000  0.21414000  0.55240000  1.0
  H  H35  1  0.83611000  0.71414000  0.44760000  1.0
  H  H36  1  0.56761000  0.99116000  0.08744000  1.0
  H  H37  1  0.43239000  0.49116000  0.91256000  1.0
  H  H38  1  0.93239000  0.99116000  0.58744000  1.0
  H  H39  1  0.06761000  0.49116000  0.41256000  1.0
  H  H40  1  0.39998000  0.21042000  0.97659000  1.0
  H  H41  1  0.60002000  0.71042000  0.02341000  1.0
  H  H42  1  0.10002000  0.21042000  0.47659000  1.0
  H  H43  1  0.89998000  0.71042000  0.52341000  1.0
  H  H44  1  0.68978000  0.92064000  0.03198000  1.0
  H  H45  1  0.31022000  0.42064000  0.96802000  1.0
  H  H46  1  0.81022000  0.92064000  0.53198000  1.0
  H  H47  1  0.18978000  0.42064000  0.46802000  1.0
  H  H48  1  0.08082000  0.45609000  0.16177000  1.0
  H  H49  1  0.91918000  0.95609000  0.83823000  1.0
  H  H50  1  0.41918000  0.45609000  0.66177000  1.0
  H  H51  1  0.58082000  0.95609000  0.33823000  1.0
  H  H52  1  0.15380000  0.61920000  0.27351000  1.0
  H  H53  1  0.84620000  0.11920000  0.72649000  1.0
  H  H54  1  0.34620000  0.61920000  0.77351000  1.0
  H  H55  1  0.65380000  0.11920000  0.22649000  1.0
  H  H56  1  0.89126000  0.21342000  0.16437000  1.0
  H  H57  1  0.10874000  0.71342000  0.83563000  1.0
  H  H58  1  0.60874000  0.21342000  0.66437000  1.0
  H  H59  1  0.39126000  0.71342000  0.33563000  1.0
  H  H60  1  0.52107000  0.13886000  0.92100000  1.0
  H  H61  1  0.47894000  0.63886000  0.07900000  1.0
  H  H62  1  0.97893000  0.13886000  0.42100000  1.0
  H  H63  1  0.02107000  0.63886000  0.57900000  1.0
  H  H64  1  0.75183000  0.91517000  0.95604000  1.0
  H  H65  1  0.24817000  0.41517000  0.04396000  1.0
  H  H66  1  0.74817000  0.91517000  0.45604000  1.0
  H  H67  1  0.25183000  0.41517000  0.54396000  1.0
  H  H68  1  0.83556000  0.28431000  0.29403000  1.0
  H  H69  1  0.16444000  0.78431000  0.70597000  1.0
  H  H70  1  0.66444000  0.28431000  0.79403000  1.0
  H  H71  1  0.33556000  0.78430000  0.20597000  1.0
  H  H72  1  0.07242000  0.10588000  0.06840000  1.0
  H  H73  1  0.92759000  0.60588000  0.93160000  1.0
  H  H74  1  0.42758000  0.10588000  0.56840000  1.0
  H  H75  1  0.57242000  0.60588000  0.43160000  1.0
  H  H76  1  0.88669000  0.83466000  0.06751000  1.0
  H  H77  1  0.11331000  0.33466000  0.93249000  1.0
  H  H78  1  0.61331000  0.83466000  0.56751000  1.0
  H  H79  1  0.38669000  0.33467000  0.43249000  1.0
  H  H80  1  0.93273000  0.80643000  0.99061000  1.0
  H  H81  1  0.06727000  0.30643000  0.00939000  1.0
  H  H82  1  0.56727000  0.80643000  0.49061000  1.0
  H  H83  1  0.43273000  0.30643000  0.50939000  1.0
  H  H84  1  0.17309000  0.15712000  0.00336000  1.0
  H  H85  1  0.82691000  0.65712000  0.99664000  1.0
  H  H86  1  0.32691000  0.15711000  0.50336000  1.0
  H  H87  1  0.67309000  0.65712000  0.49664000  1.0
  H  H88  1  0.03132000  0.85913000  0.92492000  1.0
  H  H89  1  0.96868000  0.35913000  0.07508000  1.0
  H  H90  1  0.46868000  0.85912000  0.42492000  1.0
  H  H91  1  0.53132000  0.35913000  0.57508000  1.0
  H  H92  1  0.22071000  0.12785000  0.92641000  1.0
  H  H93  1  0.77929000  0.62785000  0.07359000  1.0
  H  H94  1  0.27929000  0.12785000  0.42641000  1.0
  H  H95  1  0.72071000  0.62785000  0.57359000  1.0
  C  C96  1  0.40965000  0.10713000  0.11931000  1.0
  C  C97  1  0.59035000  0.60713000  0.88069000  1.0
  C  C98  1  0.09035000  0.10713000  0.61931000  1.0
  C  C99  1  0.90965000  0.60713000  0.38069000  1.0
  C  C100  1  0.35543000  0.31775000  0.19461000  1.0
  C  C101  1  0.64457000  0.81775000  0.80539000  1.0
  C  C102  1  0.14457000  0.31775000  0.69461000  1.0
  C  C103  1  0.85543000  0.81775000  0.30539000  1.0
  C  C104  1  0.39431000  0.28362000  0.25982000  1.0
  C  C105  1  0.60569000  0.78362000  0.74018000  1.0
  C  C106  1  0.10569000  0.28362000  0.75982000  1.0
  C  C107  1  0.89431000  0.78362000  0.24018000  1.0
  C  C108  1  0.17009000  0.03268000  0.19467000  1.0
  C  C109  1  0.82991000  0.53268000  0.80533000  1.0
  C  C110  1  0.32991000  0.03268000  0.69467000  1.0
  C  C111  1  0.67009000  0.53268000  0.30533000  1.0
  C  C112  1  0.44825000  0.10182000  0.07407000  1.0
  C  C113  1  0.55175000  0.60182000  0.92593000  1.0
  C  C114  1  0.05175000  0.10182000  0.57407000  1.0
  C  C115  1  0.94825000  0.60183000  0.42593000  1.0
  C  C116  1  0.13196000  0.95783000  0.25323000  1.0
  C  C117  1  0.86804000  0.45782000  0.74677000  1.0
  C  C118  1  0.36804000  0.95783000  0.75323000  1.0
  C  C119  1  0.63196000  0.45783000  0.24677000  1.0
  C  C120  1  0.40014000  0.16396000  0.04249000  1.0
  C  C121  1  0.59986000  0.66396000  0.95751000  1.0
  C  C122  1  0.09985000  0.16396000  0.54249000  1.0
  C  C123  1  0.90015000  0.66396000  0.45751000  1.0
  C  C124  1  0.53078000  0.03789000  0.06285000  1.0
  C  C125  1  0.46922000  0.53789000  0.93715000  1.0
  C  C126  1  0.96922000  0.03789000  0.56285000  1.0
  C  C127  1  0.03078000  0.53789000  0.43715000  1.0
  C  C128  1  0.43555000  0.16149000  0.00076000  1.0
  C  C129  1  0.56445000  0.66150000  0.99924000  1.0
  C  C130  1  0.06445000  0.16150000  0.50076000  1.0
  C  C131  1  0.93555000  0.66149000  0.49924000  1.0
  C  C132  1  0.56778000  0.03258000  0.02005000  1.0
  C  C133  1  0.43222000  0.53258000  0.97995000  1.0
  C  C134  1  0.93222000  0.03258000  0.52005000  1.0
  C  C135  1  0.06778000  0.53258000  0.47995000  1.0
  C  C136  1  0.51939000  0.09598000  0.98824000  1.0
  C  C137  1  0.48061000  0.59598000  0.01176000  1.0
  C  C138  1  0.98061000  0.09598000  0.48824000  1.0
  C  C139  1  0.01939000  0.59598000  0.51176000  1.0
  C  C140  1  0.65217000  0.96758000  0.00759000  1.0
  C  C141  1  0.34783000  0.46759000  0.99241000  1.0
  C  C142  1  0.84783000  0.96758000  0.50759000  1.0
  C  C143  1  0.15217000  0.46758000  0.49241000  1.0
  C  C144  1  0.07393000  0.49385000  0.19250000  1.0
  C  C145  1  0.92607000  0.99385000  0.80750000  1.0
  C  C146  1  0.42607000  0.49385000  0.69250000  1.0
  C  C147  1  0.57393000  0.99385000  0.30750000  1.0
  C  C148  1  0.11153000  0.57715000  0.24905000  1.0
  C  C149  1  0.88847000  0.07715000  0.75095000  1.0
  C  C150  1  0.38847000  0.57715000  0.74905000  1.0
  C  C151  1  0.61153000  0.07715000  0.25095000  1.0
  C  C152  1  0.95413000  0.99164000  0.11808000  1.0
  C  C153  1  0.04587000  0.49164000  0.88192000  1.0
  C  C154  1  0.54586000  0.99164000  0.61808000  1.0
  C  C155  1  0.45414000  0.49164000  0.38192000  1.0
  C  C156  1  0.87708000  0.20750000  0.19858000  1.0
  C  C157  1  0.12292000  0.70750000  0.80142000  1.0
  C  C158  1  0.62292000  0.20750000  0.69858000  1.0
  C  C159  1  0.37708000  0.70750000  0.30142000  1.0
  C  C160  1  0.55706000  0.09136000  0.94552000  1.0
  C  C161  1  0.44294000  0.59137000  0.05448000  1.0
  C  C162  1  0.94294000  0.09137000  0.44552000  1.0
  C  C163  1  0.05706000  0.59136000  0.55448000  1.0
  C  C164  1  0.68689000  0.96444000  0.96577000  1.0
  C  C165  1  0.31311000  0.46444000  0.03423000  1.0
  C  C166  1  0.81311000  0.96444000  0.46577000  1.0
  C  C167  1  0.18689000  0.46444000  0.53423000  1.0
  C  C168  1  0.97644000  0.97350000  0.07192000  1.0
  C  C169  1  0.02356000  0.47350000  0.92808000  1.0
  C  C170  1  0.52356000  0.97350000  0.57192000  1.0
  C  C171  1  0.47644000  0.47350000  0.42808000  1.0
  C  C172  1  0.84976000  0.24370000  0.26438000  1.0
  C  C173  1  0.15024000  0.74370000  0.73562000  1.0
  C  C174  1  0.65024000  0.24370000  0.76438000  1.0
  C  C175  1  0.34977000  0.74370000  0.23562000  1.0
  C  C176  1  0.63894000  0.02673000  0.93419000  1.0
  C  C177  1  0.36106000  0.52673000  0.06581000  1.0
  C  C178  1  0.86106000  0.02673000  0.43419000  1.0
  C  C179  1  0.13894000  0.52673000  0.56581000  1.0
  C  C180  1  0.04192000  0.04122000  0.05083000  1.0
  C  C181  1  0.95808000  0.54122000  0.94917000  1.0
  C  C182  1  0.45808000  0.04122000  0.55083000  1.0
  C  C183  1  0.54192000  0.54122000  0.44917000  1.0
  C  C184  1  0.93663000  0.88772000  0.05006000  1.0
  C  C185  1  0.06337000  0.38772000  0.94994000  1.0
  C  C186  1  0.56337000  0.88772000  0.55006000  1.0
  C  C187  1  0.43663000  0.38772000  0.44994000  1.0
  C  C188  1  0.67580000  0.02028000  0.88878000  1.0
  C  C189  1  0.32420000  0.52028000  0.11122000  1.0
  C  C190  1  0.82419000  0.02028000  0.38878000  1.0
  C  C191  1  0.17581000  0.52028000  0.61122000  1.0
  C  C192  1  0.07121000  0.02626000  0.00762000  1.0
  C  C193  1  0.92879000  0.52626000  0.99238000  1.0
  C  C194  1  0.42879000  0.02626000  0.50762000  1.0
  C  C195  1  0.57121000  0.52626000  0.49238000  1.0
  C  C196  1  0.96255000  0.87219000  0.00768000  1.0
  C  C197  1  0.03745000  0.37219000  0.99232000  1.0
  C  C198  1  0.53745000  0.87219000  0.50768000  1.0
  C  C199  1  0.46255000  0.37219000  0.49232000  1.0
  C  C200  1  0.03042000  0.93995000  0.98543000  1.0
  C  C201  1  0.96958000  0.43995000  0.01457000  1.0
  C  C202  1  0.46958000  0.93994000  0.48543000  1.0
  C  C203  1  0.53042000  0.43995000  0.51457000  1.0
  C  C204  1  0.14068000  0.09321000  0.98579000  1.0
  C  C205  1  0.85932000  0.59321000  0.01421000  1.0
  C  C206  1  0.35932000  0.09321000  0.48579000  1.0
  C  C207  1  0.64068000  0.59321000  0.51421000  1.0
  C  C208  1  0.06084000  0.92446000  0.94231000  1.0
  C  C209  1  0.93916000  0.42446000  0.05769000  1.0
  C  C210  1  0.43916000  0.92446000  0.44231000  1.0
  C  C211  1  0.56084000  0.42446000  0.55769000  1.0
  C  C212  1  0.16793000  0.07698000  0.94368000  1.0
  C  C213  1  0.83207000  0.57699000  0.05632000  1.0
  C  C214  1  0.33207000  0.07698000  0.44368000  1.0
  C  C215  1  0.66793000  0.57698000  0.55632000  1.0
  C  C216  1  0.12786000  0.99161000  0.92167000  1.0
  C  C217  1  0.87214000  0.49161000  0.07833000  1.0
  C  C218  1  0.37214000  0.99161000  0.42167000  1.0
  C  C219  1  0.62786000  0.49161000  0.57833000  1.0
  C  C220  1  0.15526000  0.97589000  0.87579000  1.0
  C  C221  1  0.84474000  0.47589000  0.12421000  1.0
  C  C222  1  0.34474000  0.97589000  0.37579000  1.0
  C  C223  1  0.65526000  0.47589000  0.62421000  1.0
  N  N224  1  0.37935000  0.24019000  0.22100000  1.0
  N  N225  1  0.62066000  0.74019000  0.77900000  1.0
  N  N226  1  0.12066000  0.24019000  0.72100000  1.0
  N  N227  1  0.87934000  0.74019000  0.27900000  1.0
  N  N228  1  0.26028000  0.02572000  0.21705000  1.0
  N  N229  1  0.73972000  0.52572000  0.78295000  1.0
  N  N230  1  0.23972000  0.02573000  0.71705000  1.0
  N  N231  1  0.76028000  0.52572000  0.28295000  1.0
  N  N232  1  0.50935000  0.05146000  0.24774000  1.0
  N  N233  1  0.49065000  0.55146000  0.75226000  1.0
  N  N234  1  0.99065000  0.05146000  0.74774000  1.0
  N  N235  1  0.00935000  0.55146000  0.25226000  1.0
  N  N236  1  0.23557000  0.97804000  0.25482000  1.0
  N  N237  1  0.76443000  0.47804000  0.74518000  1.0
  N  N238  1  0.26443000  0.97804000  0.75482000  1.0
  N  N239  1  0.73557000  0.47804000  0.24518000  1.0
  N  N240  1  0.35709000  0.40454000  0.21581000  1.0
  N  N241  1  0.64291000  0.90454000  0.78419000  1.0
  N  N242  1  0.14291000  0.40454000  0.71581000  1.0
  N  N243  1  0.85709000  0.90454000  0.28419000  1.0
  N  N244  1  0.38129000  0.38271000  0.25781000  1.0
  N  N245  1  0.61871000  0.88271000  0.74219000  1.0
  N  N246  1  0.11872000  0.38271000  0.75781000  1.0
  N  N247  1  0.88128000  0.88271000  0.24219000  1.0
  N  N248  1  0.08796000  0.99047000  0.21623000  1.0
  N  N249  1  0.91204000  0.49047000  0.78377000  1.0
  N  N250  1  0.41204000  0.99047000  0.71623000  1.0
  N  N251  1  0.58796000  0.49047000  0.28377000  1.0
  N  N252  1  0.15476000  0.54282000  0.21208000  1.0
  N  N253  1  0.84524000  0.04282000  0.78792000  1.0
  N  N254  1  0.34524000  0.54282000  0.71208000  1.0
  N  N255  1  0.65476000  0.04282000  0.28792000  1.0
  N  N256  1  0.35985000  0.64427000  0.23753000  1.0
  N  N257  1  0.64015000  0.14427000  0.76247000  1.0
  N  N258  1  0.14015000  0.64427000  0.73753000  1.0
  N  N259  1  0.85985000  0.14427000  0.26247000  1.0
  N  N260  1  0.87661000  0.12104000  0.22008000  1.0
  N  N261  1  0.12339000  0.62104000  0.77992000  1.0
  N  N262  1  0.62339000  0.12104000  0.72008000  1.0
  N  N263  1  0.37661000  0.62103000  0.27992000  1.0
  N  N264  1  0.98555000  0.49816000  0.21598000  1.0
  N  N265  1  0.01444000  0.99816000  0.78402000  1.0
  N  N266  1  0.51445000  0.49816000  0.71598000  1.0
  N  N267  1  0.48555000  0.99816000  0.28402000  1.0
  N  N268  1  0.85971000  0.28604000  0.22516000  1.0
  N  N269  1  0.14029000  0.78604000  0.77484000  1.0
  N  N270  1  0.64029000  0.28604000  0.72516000  1.0
  N  N271  1  0.35971000  0.78604000  0.27484000  1.0
  O  O272  1  0.47115000  0.06757000  0.14866000  1.0
  O  O273  1  0.52885000  0.56757000  0.85134000  1.0
  O  O274  1  0.02884000  0.06757000  0.64866000  1.0
  O  O275  1  0.97116000  0.56757000  0.35134000  1.0
  O  O276  1  0.32264000  0.14872000  0.12851000  1.0
  O  O277  1  0.67736000  0.64871000  0.87149000  1.0
  O  O278  1  0.17736000  0.14871000  0.62851000  1.0
  O  O279  1  0.82264000  0.64871000  0.37149000  1.0
  O  O280  1  0.36564000  0.58419000  0.13836000  1.0
  O  O281  1  0.63436000  0.08419000  0.86164000  1.0
  O  O282  1  0.13436000  0.58418000  0.63836000  1.0
  O  O283  1  0.86563000  0.08419000  0.36164000  1.0
  O  O284  1  0.90924000  0.92147000  0.14076000  1.0
  O  O285  1  0.09076000  0.42147000  0.85924000  1.0
  O  O286  1  0.59076000  0.92147000  0.64076000  1.0
  O  O287  1  0.40924000  0.42147000  0.35924000  1.0
  O  O288  1  0.98249000  0.07348000  0.13537000  1.0
  O  O289  1  0.01750000  0.57348000  0.86463000  1.0
  O  O290  1  0.51751000  0.07348000  0.63537000  1.0
  O  O291  1  0.48250000  0.57348000  0.36463000  1.0
  O  O292  1  0.87142000  0.39063000  0.14153000  1.0
  O  O293  1  0.12858000  0.89063000  0.85847000  1.0
  O  O294  1  0.62858000  0.39063000  0.64153000  1.0
  O  O295  1  0.37142000  0.89063000  0.35847000  1.0
  O  O296  1  0.74210000  0.95485000  0.87706000  1.0
  O  O297  1  0.25790000  0.45485000  0.12294000  1.0
  O  O298  1  0.75790000  0.95485000  0.37706000  1.0
  O  O299  1  0.24210000  0.45485000  0.62294000  1.0
  O  O300  1  0.19901000  0.04389000  0.85365000  1.0
  O  O301  1  0.80100000  0.54389000  0.14635000  1.0
  O  O302  1  0.30100000  0.04389000  0.35365000  1.0
  O  O303  1  0.69900000  0.54388000  0.64635000  1.0
