# generated using pymatgen
data_ZnH26C22S4(NO)6
_symmetry_space_group_name_H-M   'P 1'
_cell_length_a   11.15610000
_cell_length_b   11.29400000
_cell_length_c   13.47879043
_cell_angle_alpha   107.71874254
_cell_angle_beta   99.34577801
_cell_angle_gamma   115.59300000
_symmetry_Int_Tables_number   1
_chemical_formula_structural   ZnH26C22S4(NO)6
_chemical_formula_sum   'Zn2 H52 C44 S8 N12 O12'
_cell_volume   1370.99312654
_cell_formula_units_Z   2
loop_
 _symmetry_equiv_pos_site_id
 _symmetry_equiv_pos_as_xyz
  1  'x, y, z'
loop_
 _atom_site_type_symbol
 _atom_site_label
 _atom_site_symmetry_multiplicity
 _atom_site_fract_x
 _atom_site_fract_y
 _atom_site_fract_z
 _atom_site_occupancy
  Zn  Zn0  1  0.00000000  1.00000000  0.50000000  1.0
  Zn  Zn1  1  0.50000000  0.00000000  0.00000000  1.0
  H  H2  1  0.53499000  0.68043000  0.86512000  1.0
  H  H3  1  0.81755000  0.16898000  0.63503000  1.0
  H  H4  1  0.46501000  0.31957000  0.13488000  1.0
  H  H5  1  0.18244000  0.83100000  0.36496000  1.0
  H  H6  1  0.48681000  0.50446000  0.76528000  1.0
  H  H7  1  0.73744000  0.21886000  0.73399000  1.0
  H  H8  1  0.51319000  0.49554000  0.23472000  1.0
  H  H9  1  0.26256000  0.78114000  0.26601000  1.0
  H  H10  1  0.35498000  0.54390000  0.78968000  1.0
  H  H11  1  0.75558000  0.06631000  0.71155000  1.0
  H  H12  1  0.64502000  0.45610000  0.21032000  1.0
  H  H13  1  0.24442000  0.93369000  0.28845000  1.0
  H  H14  1  0.49823000  0.86589000  0.34579000  1.0
  H  H15  1  0.52191000  0.65518000  0.15343000  1.0
  H  H16  1  0.50177000  0.13411000  0.65421000  1.0
  H  H17  1  0.47809000  0.34482000  0.84657000  1.0
  H  H18  1  0.55282000  0.94015000  0.49326000  1.0
  H  H19  1  0.44951000  0.56400000  0.00602000  1.0
  H  H20  1  0.44718000  0.05985000  0.50674000  1.0
  H  H21  1  0.55049000  0.43600000  0.99398000  1.0
  H  H22  1  0.78501000  0.85148000  0.26678000  1.0
  H  H23  1  0.58799000  0.01894000  0.23420000  1.0
  H  H24  1  0.21498000  0.14852000  0.73322000  1.0
  H  H25  1  0.41202000  0.98106000  0.76580000  1.0
  H  H26  1  0.76581000  0.87222000  0.08676000  1.0
  H  H27  1  0.78697000  0.18070000  0.41404000  1.0
  H  H28  1  0.23419000  0.12778000  0.91324000  1.0
  H  H29  1  0.21303000  0.81929000  0.58595000  1.0
  H  H30  1  0.20236000  0.18676000  0.41121000  1.0
  H  H31  1  0.77559000  0.29088000  0.08834000  1.0
  H  H32  1  0.79764000  0.81324000  0.58879000  1.0
  H  H33  1  0.22442000  0.70913000  0.91166000  1.0
  H  H34  1  0.20392000  0.21635000  0.23596000  1.0
  H  H35  1  0.97865000  0.46813000  0.26322000  1.0
  H  H36  1  0.79608000  0.78365000  0.76404000  1.0
  H  H37  1  0.02136000  0.53187000  0.73678000  1.0
  H  H38  1  0.88132000  0.03650000  0.99283000  1.0
  H  H39  1  0.04370000  0.38963000  0.50732000  1.0
  H  H40  1  0.11868000  0.96350000  0.00717000  1.0
  H  H41  1  0.95630000  0.61037000  0.49268000  1.0
  H  H42  1  0.06601000  0.16460000  0.05227000  1.0
  H  H43  1  0.11322000  0.51209000  0.44635000  1.0
  H  H44  1  0.93399000  0.83539000  0.94773000  1.0
  H  H45  1  0.88678000  0.48791000  0.55365000  1.0
  H  H46  1  0.92748000  0.73060000  0.34973000  1.0
  H  H47  1  0.38134000  0.07760000  0.15168000  1.0
  H  H48  1  0.07253000  0.26940000  0.65027000  1.0
  H  H49  1  0.61866000  0.92240000  0.84832000  1.0
  H  H50  1  0.81117000  0.73818000  0.40126000  1.0
  H  H51  1  0.33759000  0.91122000  0.10120000  1.0
  H  H52  1  0.18883000  0.26182000  0.59874000  1.0
  H  H53  1  0.66241000  0.08878000  0.89881000  1.0
  C  C54  1  0.46173000  0.59076000  0.78457000  1.0
  C  C55  1  0.80673000  0.17630000  0.71567000  1.0
  C  C56  1  0.53827000  0.40924000  0.21543000  1.0
  C  C57  1  0.19327000  0.82370000  0.28433000  1.0
  C  C58  1  0.46855000  0.64445000  0.69706000  1.0
  C  C59  1  0.94777000  0.27147000  0.80344000  1.0
  C  C60  1  0.53145000  0.35555000  0.30294000  1.0
  C  C61  1  0.05223000  0.72852000  0.19656000  1.0
  C  C62  1  0.44169000  0.69063000  0.53460000  1.0
  C  C63  1  0.15661000  0.40967000  0.96588000  1.0
  C  C64  1  0.55831000  0.30937000  0.46540000  1.0
  C  C65  1  0.84339000  0.59033000  0.03412000  1.0
  C  C66  1  0.53331000  0.84995000  0.41936000  1.0
  C  C67  1  0.43224000  0.61760000  0.08018000  1.0
  C  C68  1  0.46669000  0.15006000  0.58064000  1.0
  C  C69  1  0.56776000  0.38239000  0.91982000  1.0
  C  C70  1  0.66986000  0.84583000  0.42402000  1.0
  C  C71  1  0.42327000  0.74804000  0.07580000  1.0
  C  C72  1  0.33014000  0.15418000  0.57598000  1.0
  C  C73  1  0.57672000  0.25195000  0.92420000  1.0
  C  C74  1  0.87515000  0.93191000  0.25652000  1.0
  C  C75  1  0.67751000  0.11930000  0.24395000  1.0
  C  C76  1  0.12484000  0.06809000  0.74348000  1.0
  C  C77  1  0.32249000  0.88070000  0.75605000  1.0
  C  C78  1  0.86601000  0.94243000  0.15580000  1.0
  C  C79  1  0.78790000  0.21139000  0.34471000  1.0
  C  C80  1  0.13399000  0.05757000  0.84420000  1.0
  C  C81  1  0.21211000  0.78862000  0.65529000  1.0
  C  C82  1  0.10798000  0.11825000  0.33727000  1.0
  C  C83  1  0.78121000  0.27075000  0.16253000  1.0
  C  C84  1  0.89201000  0.88174000  0.66273000  1.0
  C  C85  1  0.21879000  0.72925000  0.83747000  1.0
  C  C86  1  0.10788000  0.13469000  0.23928000  1.0
  C  C87  1  0.89480000  0.36903000  0.26045000  1.0
  C  C88  1  0.89212000  0.86531000  0.76072000  1.0
  C  C89  1  0.10520000  0.63097000  0.73955000  1.0
  C  C90  1  0.98539000  0.04494000  0.14525000  1.0
  C  C91  1  0.89968000  0.34111000  0.35492000  1.0
  C  C92  1  0.01461000  0.95506000  0.85475000  1.0
  C  C93  1  0.10031000  0.65888000  0.64507000  1.0
  C  C94  1  0.98441000  0.05522000  0.03686000  1.0
  C  C95  1  0.01842000  0.44771000  0.46294000  1.0
  C  C96  1  0.01559000  0.94478000  0.96314000  1.0
  C  C97  1  0.98158000  0.55230000  0.53706000  1.0
  S  S98  1  0.36918000  0.53531000  0.55771000  1.0
  S  S99  1  0.97679000  0.31185000  0.94320000  1.0
  S  S100  1  0.63082000  0.46470000  0.44229000  1.0
  S  S101  1  0.02321000  0.68815000  0.05680000  1.0
  S  S102  1  0.38576000  0.68262000  0.40354000  1.0
  S  S103  1  0.27963000  0.48757000  0.09730000  1.0
  S  S104  1  0.61425000  0.31739000  0.59646000  1.0
  S  S105  1  0.72037000  0.51243000  0.90270000  1.0
  N  N106  1  0.54910000  0.78048000  0.71601000  1.0
  N  N107  1  0.06598000  0.33427000  0.78412000  1.0
  N  N108  1  0.45090000  0.21952000  0.28399000  1.0
  N  N109  1  0.93402000  0.66573000  0.21588000  1.0
  N  N110  1  0.53524000  0.80864000  0.62443000  1.0
  N  N111  1  0.18580000  0.41339000  0.87557000  1.0
  N  N112  1  0.46476000  0.19137000  0.37557000  1.0
  N  N113  1  0.81420000  0.58661000  0.12443000  1.0
  N  N114  1  0.99393000  0.01753000  0.34617000  1.0
  N  N115  1  0.67283000  0.14770000  0.15385000  1.0
  N  N116  1  0.00607000  0.98247000  0.65383000  1.0
  N  N117  1  0.32716000  0.85230000  0.84614000  1.0
  O  O118  1  0.65843000  0.72337000  0.37992000  1.0
  O  O119  1  0.34334000  0.77994000  0.12038000  1.0
  O  O120  1  0.34158000  0.27663000  0.62008000  1.0
  O  O121  1  0.65665000  0.22006000  0.87962000  1.0
  O  O122  1  0.78373000  0.96814000  0.47042000  1.0
  O  O123  1  0.50053000  0.81536000  0.02936000  1.0
  O  O124  1  0.21627000  0.03187000  0.52958000  1.0
  O  O125  1  0.49946000  0.18463000  0.97064000  1.0
  O  O126  1  0.91457000  0.76831000  0.42235000  1.0
  O  O127  1  0.34613000  0.99212000  0.07969000  1.0
  O  O128  1  0.08543000  0.23169000  0.57765000  1.0
  O  O129  1  0.65387000  0.00787000  0.92031000  1.0
