# generated using pymatgen
data_ZnH4C12Br3(NO3)2
_symmetry_space_group_name_H-M   'P 1'
_cell_length_a   10.29990000
_cell_length_b   10.86840000
_cell_length_c   11.26040000
_cell_angle_alpha   90.30520000
_cell_angle_beta   99.21030000
_cell_angle_gamma   99.46250000
_symmetry_Int_Tables_number   1
_chemical_formula_structural   ZnH4C12Br3(NO3)2
_chemical_formula_sum   'Zn2 H8 C24 Br6 N4 O12'
_cell_volume   1226.69792563
_cell_formula_units_Z   2
loop_
 _symmetry_equiv_pos_site_id
 _symmetry_equiv_pos_as_xyz
  1  'x, y, z'
loop_
 _atom_site_type_symbol
 _atom_site_label
 _atom_site_symmetry_multiplicity
 _atom_site_fract_x
 _atom_site_fract_y
 _atom_site_fract_z
 _atom_site_occupancy
  Zn  Zn0  1  0.36548000  0.49665000  0.49026000  1.0
  Zn  Zn1  1  0.64657000  0.51406000  0.50616000  1.0
  H  H2  1  0.66167000  0.16931000  0.15448000  1.0
  H  H3  1  0.43665000  0.86651000  0.89968000  1.0
  H  H4  1  0.33126000  0.05964000  0.87086000  1.0
  H  H5  1  0.78234000  0.98685000  0.20304000  1.0
  H  H6  1  0.51675000  0.77853000  0.72834000  1.0
  H  H7  1  0.53948000  0.24180000  0.30378000  1.0
  H  H8  1  0.14730000  0.37528000  0.55718000  1.0
  H  H9  1  0.86842000  0.62086000  0.43478000  1.0
  C  C10  1  0.54058000  0.51097000  0.72903000  1.0
  C  C11  1  0.46281000  0.49457000  0.26672000  1.0
  C  C12  1  0.47891000  0.26665000  0.49726000  1.0
  C  C13  1  0.53844000  0.74492000  0.51079000  1.0
  C  C14  1  0.38101000  0.09016000  0.69631000  1.0
  C  C15  1  0.69018000  0.93976000  0.35670000  1.0
  C  C16  1  0.38063000  0.02625000  0.80149000  1.0
  C  C17  1  0.71022000  0.00921000  0.25734000  1.0
  C  C18  1  0.43550000  0.91555000  0.81546000  1.0
  C  C19  1  0.64720000  0.11490000  0.23380000  1.0
  C  C20  1  0.48020000  0.86688000  0.71998000  1.0
  C  C21  1  0.57761000  0.15432000  0.31684000  1.0
  C  C22  1  0.48839000  0.93351000  0.61176000  1.0
  C  C23  1  0.55231000  0.08252000  0.41920000  1.0
  C  C24  1  0.44753000  0.05459000  0.60100000  1.0
  C  C25  1  0.59807000  0.96417000  0.43421000  1.0
  C  C26  1  0.54977000  0.88463000  0.52173000  1.0
  C  C27  1  0.48179000  0.12771000  0.50389000  1.0
  C  C28  1  0.54746000  0.52087000  0.86315000  1.0
  C  C29  1  0.44048000  0.47702000  0.13178000  1.0
  C  C30  1  0.45204000  0.54958000  0.92287000  1.0
  C  C31  1  0.46848000  0.56581000  0.05356000  1.0
  C  C32  1  0.94091000  0.48881000  0.52444000  1.0
  C  C33  1  0.07928000  0.52422000  0.49407000  1.0
  Br  Br34  1  0.53534000  0.73271000  0.11545000  1.0
  Br  Br35  1  0.28285000  0.58216000  0.84430000  1.0
  Br  Br36  1  0.36891000  0.31095000  0.07655000  1.0
  Br  Br37  1  0.71243000  0.49537000  0.95432000  1.0
  Br  Br38  1  0.11006000  0.67786000  0.41822000  1.0
  Br  Br39  1  0.91891000  0.35065000  0.62399000  1.0
  N  N40  1  0.84380000  0.54483000  0.48694000  1.0
  N  N41  1  0.17110000  0.45849000  0.51484000  1.0
  N  N42  1  0.29068000  0.18293000  0.68378000  1.0
  N  N43  1  0.79331000  0.86237000  0.39544000  1.0
  O  O44  1  0.42781000  0.46541000  0.66917000  1.0
  O  O45  1  0.57400000  0.47358000  0.32151000  1.0
  O  O46  1  0.64692000  0.54989000  0.68741000  1.0
  O  O47  1  0.36688000  0.52494000  0.31172000  1.0
  O  O48  1  0.37676000  0.30951000  0.45095000  1.0
  O  O49  1  0.62958000  0.69668000  0.47441000  1.0
  O  O50  1  0.59309000  0.32983000  0.53901000  1.0
  O  O51  1  0.42859000  0.68380000  0.53288000  1.0
  O  O52  1  0.28601000  0.24705000  0.77390000  1.0
  O  O53  1  0.21611000  0.18415000  0.58527000  1.0
  O  O54  1  0.85187000  0.87929000  0.50056000  1.0
  O  O55  1  0.82295000  0.79337000  0.31912000  1.0
