# generated using pymatgen
data_AgH12C12N3O2
_symmetry_space_group_name_H-M   'P 1'
_cell_length_a   6.76174000
_cell_length_b   6.76157000
_cell_length_c   14.31031650
_cell_angle_alpha   99.54399140
_cell_angle_beta   103.39260992
_cell_angle_gamma   99.14380000
_symmetry_Int_Tables_number   1
_chemical_formula_structural   AgH12C12N3O2
_chemical_formula_sum   'Ag2 H24 C24 N6 O4'
_cell_volume   614.24545352
_cell_formula_units_Z   2
loop_
 _symmetry_equiv_pos_site_id
 _symmetry_equiv_pos_as_xyz
  1  'x, y, z'
loop_
 _atom_site_type_symbol
 _atom_site_label
 _atom_site_symmetry_multiplicity
 _atom_site_fract_x
 _atom_site_fract_y
 _atom_site_fract_z
 _atom_site_occupancy
  Ag  Ag0  1  0.38350000  0.92783000  0.89423000  1.0
  Ag  Ag1  1  0.46641000  0.51074000  0.39424000  1.0
  H  H2  1  0.11575000  0.28178000  0.86344000  1.0
  H  H3  1  0.08164000  0.74768000  0.36343000  1.0
  H  H4  1  0.62288000  0.10403000  0.59463000  1.0
  H  H5  1  0.99056000  0.97176000  0.09463000  1.0
  H  H6  1  0.38177000  0.00263000  0.69346000  1.0
  H  H7  1  0.19083000  0.31170000  0.19346000  1.0
  H  H8  1  0.20063000  0.31839000  0.71126000  1.0
  H  H9  1  0.89284000  0.51063000  0.21126000  1.0
  H  H10  1  0.99597000  0.36941000  0.62153000  1.0
  H  H11  1  0.75208000  0.62556000  0.12153000  1.0
  H  H12  1  0.04807000  0.12011000  0.61091000  1.0
  H  H13  1  0.99075000  0.56281000  0.11090000  1.0
  H  H14  1  0.03120000  0.75458000  0.69715000  1.0
  H  H15  1  0.44254000  0.66596000  0.19714000  1.0
  H  H16  1  0.46312000  0.53581000  0.76564000  1.0
  H  H17  1  0.72985000  0.30254000  0.26565000  1.0
  H  H18  1  0.66602000  0.59815000  0.94409000  1.0
  H  H19  1  0.84594000  0.27807000  0.44408000  1.0
  H  H20  1  0.05304000  0.73551000  0.98715000  1.0
  H  H21  1  0.75165000  0.93411000  0.48715000  1.0
  H  H22  1  0.01090000  0.25765000  0.01012000  1.0
  H  H23  1  0.25247000  0.99921000  0.51012000  1.0
  H  H24  1  0.75241000  0.17493000  0.01246000  1.0
  H  H25  1  0.33756000  0.26005000  0.51246000  1.0
  C  C26  1  0.80661000  0.16483000  0.87485000  1.0
  C  C27  1  0.21001000  0.06824000  0.37484000  1.0
  C  C28  1  0.95371000  0.22082000  0.82276000  1.0
  C  C29  1  0.10192000  0.86904000  0.32275000  1.0
  C  C30  1  0.89233000  0.19905000  0.72182000  1.0
  C  C31  1  0.02275000  0.82949000  0.22181000  1.0
  C  C32  1  0.68048000  0.12083000  0.67363000  1.0
  C  C33  1  0.05278000  0.99315000  0.17363000  1.0
  C  C34  1  0.54583000  0.06672000  0.72838000  1.0
  C  C35  1  0.16166000  0.18255000  0.22838000  1.0
  C  C36  1  0.04311000  0.25560000  0.66416000  1.0
  C  C37  1  0.90853000  0.62104000  0.16416000  1.0
  C  C38  1  0.94662000  0.71890000  0.75049000  1.0
  C  C39  1  0.53159000  0.80387000  0.25048000  1.0
  C  C40  1  0.73381000  0.63645000  0.71846000  1.0
  C  C41  1  0.58202000  0.98466000  0.21845000  1.0
  C  C42  1  0.63005000  0.59586000  0.78933000  1.0
  C  C43  1  0.69348000  0.15929000  0.28933000  1.0
  C  C44  1  0.74199000  0.63053000  0.88736000  1.0
  C  C45  1  0.75685000  0.14537000  0.38736000  1.0
  C  C46  1  0.95522000  0.70850000  0.91223000  1.0
  C  C47  1  0.70373000  0.95702000  0.41222000  1.0
  C  C48  1  0.62254000  0.58926000  0.61032000  1.0
  C  C49  1  0.52106000  0.98781000  0.11032000  1.0
  N  N50  1  0.60399000  0.08585000  0.82713000  1.0
  N  N51  1  0.24129000  0.22313000  0.32713000  1.0
  N  N52  1  0.86388000  0.18450000  0.97375000  1.0
  N  N53  1  0.28925000  0.10986000  0.47374000  1.0
  N  N54  1  0.05591000  0.75560000  0.84530000  1.0
  N  N55  1  0.58969000  0.78939000  0.34529000  1.0
  O  O56  1  0.73432000  0.61444000  0.55094000  1.0
  O  O57  1  0.43648000  0.81665000  0.05093000  1.0
  O  O58  1  0.42678000  0.52477000  0.58599000  1.0
  O  O59  1  0.56118000  0.15927000  0.08599000  1.0
