# generated using pymatgen
data_CdH12C18S2(IN3)2
_symmetry_space_group_name_H-M   'P 1'
_cell_length_a   9.97712000
_cell_length_b   10.53050000
_cell_length_c   11.64390000
_cell_angle_alpha   93.17100000
_cell_angle_beta   109.90000000
_cell_angle_gamma   98.08160000
_symmetry_Int_Tables_number   1
_chemical_formula_structural   CdH12C18S2(IN3)2
_chemical_formula_sum   'Cd2 H24 C36 S4 I4 N12'
_cell_volume   1131.86778171
_cell_formula_units_Z   2
loop_
 _symmetry_equiv_pos_site_id
 _symmetry_equiv_pos_as_xyz
  1  'x, y, z'
loop_
 _atom_site_type_symbol
 _atom_site_label
 _atom_site_symmetry_multiplicity
 _atom_site_fract_x
 _atom_site_fract_y
 _atom_site_fract_z
 _atom_site_occupancy
  Cd  Cd0  1  0.79786000  0.17189000  0.96223000  1.0
  Cd  Cd1  1  0.20214000  0.82811000  0.03778000  1.0
  H  H2  1  0.78581000  0.56013000  0.26949000  1.0
  H  H3  1  0.21420000  0.43987000  0.73051000  1.0
  H  H4  1  0.21598000  0.65036000  0.27405000  1.0
  H  H5  1  0.78402000  0.34964000  0.72594000  1.0
  H  H6  1  0.88501000  0.42473000  0.14458000  1.0
  H  H7  1  0.11499000  0.57527000  0.85542000  1.0
  H  H8  1  0.48251000  0.19919000  0.96510000  1.0
  H  H9  1  0.51749000  0.80081000  0.03490000  1.0
  H  H10  1  0.36641000  0.32357000  0.08153000  1.0
  H  H11  1  0.63359000  0.67642000  0.91847000  1.0
  H  H12  1  0.28660000  0.50884000  0.13207000  1.0
  H  H13  1  0.71340000  0.49116000  0.86793000  1.0
  H  H14  1  0.18705000  0.99316000  0.33074000  1.0
  H  H15  1  0.81295000  0.00684000  0.66926000  1.0
  H  H16  1  0.74401000  0.87835000  0.30834000  1.0
  H  H17  1  0.25599000  0.12165000  0.69166000  1.0
  H  H18  1  0.23618000  0.83365000  0.42936000  1.0
  H  H19  1  0.76382000  0.16635000  0.57064000  1.0
  H  H20  1  0.28158000  0.67013000  0.57837000  1.0
  H  H21  1  0.71842000  0.32987000  0.42163000  1.0
  H  H22  1  0.09646000  0.11817000  0.15515000  1.0
  H  H23  1  0.90354000  0.88183000  0.84484000  1.0
  H  H24  1  0.67084000  0.00987000  0.13300000  1.0
  H  H25  1  0.32917000  0.99013000  0.86699000  1.0
  C  C26  1  0.50919000  0.53116000  0.26083000  1.0
  C  C27  1  0.49081000  0.46884000  0.73917000  1.0
  C  C28  1  0.71512000  0.48199000  0.20173000  1.0
  C  C29  1  0.28488000  0.51802000  0.79827000  1.0
  C  C30  1  0.55285000  0.65389000  0.44083000  1.0
  C  C31  1  0.44714000  0.34611000  0.55917000  1.0
  C  C32  1  0.32609000  0.62944000  0.30053000  1.0
  C  C33  1  0.67391000  0.37056000  0.69947000  1.0
  C  C34  1  0.77064000  0.40664000  0.13320000  1.0
  C  C35  1  0.22936000  0.59336000  0.86680000  1.0
  C  C36  1  0.56781000  0.45434000  0.18481000  1.0
  C  C37  1  0.43219000  0.54566000  0.81519000  1.0
  C  C38  1  0.54514000  0.28106000  0.03260000  1.0
  C  C39  1  0.45486000  0.71894000  0.96741000  1.0
  C  C40  1  0.48120000  0.35172000  0.09729000  1.0
  C  C41  1  0.51880000  0.64828000  0.90272000  1.0
  C  C42  1  0.36540000  0.55104000  0.22106000  1.0
  C  C43  1  0.63460000  0.44896000  0.77894000  1.0
  C  C44  1  0.01683000  0.83532000  0.43004000  1.0
  C  C45  1  0.98317000  0.16468000  0.56996000  1.0
  C  C46  1  0.97184000  0.92186000  0.33326000  1.0
  C  C47  1  0.02816000  0.07814000  0.66674000  1.0
  C  C48  1  0.95543000  0.70405000  0.55905000  1.0
  C  C49  1  0.04457000  0.29595000  0.44095000  1.0
  C  C50  1  0.07130000  0.99249000  0.29029000  1.0
  C  C51  1  0.92870000  0.00751000  0.70971000  1.0
  C  C52  1  0.82523000  0.93008000  0.27703000  1.0
  C  C53  1  0.17477000  0.06992000  0.72297000  1.0
  C  C54  1  0.15316000  0.79792000  0.46618000  1.0
  C  C55  1  0.84684000  0.20208000  0.53382000  1.0
  C  C56  1  0.17920000  0.70643000  0.54983000  1.0
  C  C57  1  0.82080000  0.29357000  0.45017000  1.0
  C  C58  1  0.02176000  0.06333000  0.19180000  1.0
  C  C59  1  0.97824000  0.93667000  0.80820000  1.0
  C  C60  1  0.78447000  0.00275000  0.17888000  1.0
  C  C61  1  0.21553000  0.99725000  0.82112000  1.0
  S  S62  1  0.66752000  0.72636000  0.58992000  1.0
  S  S63  1  0.33248000  0.27364000  0.41008000  1.0
  S  S64  1  0.83833000  0.63167000  0.63165000  1.0
  S  S65  1  0.16167000  0.36833000  0.36835000  1.0
  I  I66  1  0.04651000  0.30486000  0.94826000  1.0
  I  I67  1  0.95349000  0.69514000  0.05174000  1.0
  I  I68  1  0.57965000  0.00831000  0.78532000  1.0
  I  I69  1  0.42035000  0.99169000  0.21468000  1.0
  N  N70  1  0.68735000  0.30757000  0.05030000  1.0
  N  N71  1  0.31265000  0.69243000  0.94970000  1.0
  N  N72  1  0.60415000  0.58399000  0.37200000  1.0
  N  N73  1  0.39585000  0.41601000  0.62800000  1.0
  N  N74  1  0.41884000  0.68165000  0.41157000  1.0
  N  N75  1  0.58116000  0.31835000  0.58843000  1.0
  N  N76  1  0.91666000  0.78787000  0.47793000  1.0
  N  N77  1  0.08334000  0.21213000  0.52207000  1.0
  N  N78  1  0.08042000  0.65806000  0.59689000  1.0
  N  N79  1  0.91958000  0.34194000  0.40311000  1.0
  N  N80  1  0.88045000  0.06726000  0.13574000  1.0
  N  N81  1  0.11955000  0.93274000  0.86426000  1.0
