# generated using pymatgen
data_Cd2H32C37S4N6O11
_symmetry_space_group_name_H-M   'P 1'
_cell_length_a   12.73300000
_cell_length_b   15.99280000
_cell_length_c   22.46250000
_cell_angle_alpha   72.33100000
_cell_angle_beta   90.00050000
_cell_angle_gamma   90.00010000
_symmetry_Int_Tables_number   1
_chemical_formula_structural   Cd2H32C37S4N6O11
_chemical_formula_sum   'Cd8 H128 C148 S16 N24 O44'
_cell_volume   4358.39774829
_cell_formula_units_Z   4
loop_
 _symmetry_equiv_pos_site_id
 _symmetry_equiv_pos_as_xyz
  1  'x, y, z'
loop_
 _atom_site_type_symbol
 _atom_site_label
 _atom_site_symmetry_multiplicity
 _atom_site_fract_x
 _atom_site_fract_y
 _atom_site_fract_z
 _atom_site_occupancy
  Cd  Cd0  1  0.37071000  0.78556000  0.14575000  1.0
  Cd  Cd1  1  0.87071000  0.21444000  0.35425000  1.0
  Cd  Cd2  1  0.62929000  0.21444000  0.85425000  1.0
  Cd  Cd3  1  0.12930000  0.78556000  0.64575000  1.0
  Cd  Cd4  1  0.43020000  0.55751000  0.23003000  1.0
  Cd  Cd5  1  0.93020000  0.44249000  0.26997000  1.0
  Cd  Cd6  1  0.56980000  0.44249000  0.76997000  1.0
  Cd  Cd7  1  0.06980000  0.55751000  0.73003000  1.0
  H  H8  1  0.30886000  0.65800000  0.09908000  1.0
  H  H9  1  0.80886000  0.34201000  0.40092000  1.0
  H  H10  1  0.69114000  0.34201000  0.90091000  1.0
  H  H11  1  0.19114000  0.65799000  0.59908000  1.0
  H  H12  1  0.23989000  0.64670000  0.16391000  1.0
  H  H13  1  0.73989000  0.35330000  0.33609000  1.0
  H  H14  1  0.76011000  0.35330000  0.83609000  1.0
  H  H15  1  0.26012000  0.64670000  0.66391000  1.0
  H  H16  1  0.55407000  0.40942000  0.30145000  1.0
  H  H17  1  0.05407000  0.59058000  0.19856000  1.0
  H  H18  1  0.44593000  0.59058000  0.69855000  1.0
  H  H19  1  0.94593000  0.40942000  0.80145000  1.0
  H  H20  1  0.46532000  0.41034000  0.34825000  1.0
  H  H21  1  0.96532000  0.58966000  0.15175000  1.0
  H  H22  1  0.53468000  0.58966000  0.65175000  1.0
  H  H23  1  0.03468000  0.41034000  0.84825000  1.0
  H  H24  1  0.20400000  0.46205000  0.27671000  1.0
  H  H25  1  0.70400000  0.53795000  0.22328000  1.0
  H  H26  1  0.79600000  0.53796000  0.72328000  1.0
  H  H27  1  0.29600000  0.46205000  0.77671000  1.0
  H  H28  1  0.21204000  0.56621000  0.25471000  1.0
  H  H29  1  0.71204000  0.43379000  0.24529000  1.0
  H  H30  1  0.78796000  0.43380000  0.74529000  1.0
  H  H31  1  0.28796000  0.56620000  0.75471000  1.0
  H  H32  1  0.66552000  0.85649000  0.10086000  1.0
  H  H33  1  0.16552000  0.14351000  0.39913000  1.0
  H  H34  1  0.33448000  0.14351000  0.89913000  1.0
  H  H35  1  0.83448000  0.85649000  0.60087000  1.0
  H  H36  1  0.84911000  0.90810000  0.06975000  1.0
  H  H37  1  0.34910000  0.09190000  0.43025000  1.0
  H  H38  1  0.15090000  0.09190000  0.93025000  1.0
  H  H39  1  0.65089000  0.90810000  0.56975000  1.0
  H  H40  1  0.77842000  0.59123000  0.13900000  1.0
  H  H41  1  0.27842000  0.40876000  0.36101000  1.0
  H  H42  1  0.22159000  0.40877000  0.86101000  1.0
  H  H43  1  0.72159000  0.59124000  0.63899000  1.0
  H  H44  1  0.03826000  0.70235000  0.99656000  1.0
  H  H45  1  0.53825000  0.29765000  0.50344000  1.0
  H  H46  1  0.96174000  0.29765000  0.00344000  1.0
  H  H47  1  0.46175000  0.70235000  0.49656000  1.0
  H  H48  1  0.04880000  0.63235000  0.90967000  1.0
  H  H49  1  0.54879000  0.36766000  0.59033000  1.0
  H  H50  1  0.95120000  0.36765000  0.09033000  1.0
  H  H51  1  0.45121000  0.63234000  0.40967000  1.0
  H  H52  1  0.02345000  0.89026000  0.77793000  1.0
  H  H53  1  0.52344000  0.10974000  0.72207000  1.0
  H  H54  1  0.97656000  0.10974000  0.22207000  1.0
  H  H55  1  0.47656000  0.89026000  0.27793000  1.0
  H  H56  1  0.95249000  0.65120000  0.25437000  1.0
  H  H57  1  0.45248000  0.34880000  0.24564000  1.0
  H  H58  1  0.04750000  0.34880000  0.74564000  1.0
  H  H59  1  0.54752000  0.65120000  0.75436000  1.0
  H  H60  1  0.90917000  0.97026000  0.20440000  1.0
  H  H61  1  0.40918000  0.02974000  0.29560000  1.0
  H  H62  1  0.09082000  0.02974000  0.79561000  1.0
  H  H63  1  0.59082000  0.97026000  0.70440000  1.0
  H  H64  1  0.08552000  0.91068000  0.19134000  1.0
  H  H65  1  0.58552000  0.08932000  0.30866000  1.0
  H  H66  1  0.91448000  0.08931000  0.80867000  1.0
  H  H67  1  0.41449000  0.91068000  0.69134000  1.0
  H  H68  1  0.71825000  0.17680000  0.20578000  1.0
  H  H69  1  0.21825000  0.82320000  0.29423000  1.0
  H  H70  1  0.28175000  0.82320000  0.79422000  1.0
  H  H71  1  0.78174000  0.17680000  0.70577000  1.0
  H  H72  1  0.71071000  0.27592000  0.09418000  1.0
  H  H73  1  0.21071000  0.72408000  0.40582000  1.0
  H  H74  1  0.28929000  0.72409000  0.90582000  1.0
  H  H75  1  0.78928000  0.27592000  0.59418000  1.0
  H  H76  1  0.70080000  0.04494000  0.03481000  1.0
  H  H77  1  0.20081000  0.95507000  0.46519000  1.0
  H  H78  1  0.29920000  0.95508000  0.96519000  1.0
  H  H79  1  0.79920000  0.04493000  0.53481000  1.0
  H  H80  1  0.21991000  0.93802000  0.08560000  1.0
  H  H81  1  0.71991000  0.06198000  0.41441000  1.0
  H  H82  1  0.78009000  0.06198000  0.91441000  1.0
  H  H83  1  0.28009000  0.93802000  0.58560000  1.0
  H  H84  1  0.19776000  0.09994000  0.05954000  1.0
  H  H85  1  0.69776000  0.90006000  0.44046000  1.0
  H  H86  1  0.80224000  0.90006000  0.94046000  1.0
  H  H87  1  0.30223000  0.09994000  0.55954000  1.0
  H  H88  1  0.50206000  0.10801000  0.14310000  1.0
  H  H89  1  0.00205000  0.89199000  0.35689000  1.0
  H  H90  1  0.49795000  0.89199000  0.85689000  1.0
  H  H91  1  0.99794000  0.10801000  0.64311000  1.0
  H  H92  1  0.51212000  0.94606000  0.16497000  1.0
  H  H93  1  0.01212000  0.05394000  0.33503000  1.0
  H  H94  1  0.48789000  0.05394000  0.83503000  1.0
  H  H95  1  0.98789000  0.94605000  0.66498000  1.0
  H  H96  1  0.34483000  0.23815000  0.12205000  1.0
  H  H97  1  0.84482000  0.76185000  0.37795000  1.0
  H  H98  1  0.65517000  0.76185000  0.87795000  1.0
  H  H99  1  0.15517000  0.23815000  0.62205000  1.0
  H  H100  1  0.26723000  0.23837000  0.05665000  1.0
  H  H101  1  0.76723000  0.76163000  0.44335000  1.0
  H  H102  1  0.73277000  0.76162000  0.94335000  1.0
  H  H103  1  0.23277000  0.23837000  0.55666000  1.0
  H  H104  1  0.43748000  0.23171000  0.99662000  1.0
  H  H105  1  0.93749000  0.76829000  0.50338000  1.0
  H  H106  1  0.56251000  0.76829000  0.00338000  1.0
  H  H107  1  0.06251000  0.23171000  0.49663000  1.0
  H  H108  1  0.50882000  0.24127000  0.06140000  1.0
  H  H109  1  0.00882000  0.75873000  0.43860000  1.0
  H  H110  1  0.49118000  0.75873000  0.93860000  1.0
  H  H111  1  0.99118000  0.24127000  0.56140000  1.0
  H  H112  1  0.49383000  0.38117000  0.97793000  1.0
  H  H113  1  0.99383000  0.61883000  0.52207000  1.0
  H  H114  1  0.50617000  0.61883000  0.02208000  1.0
  H  H115  1  0.00616000  0.38117000  0.47793000  1.0
  H  H116  1  0.35427000  0.37677000  0.98220000  1.0
  H  H117  1  0.85428000  0.62323000  0.51780000  1.0
  H  H118  1  0.64572000  0.62323000  0.01781000  1.0
  H  H119  1  0.14572000  0.37677000  0.48220000  1.0
  H  H120  1  0.26014000  0.40502000  0.07220000  1.0
  H  H121  1  0.76014000  0.59498000  0.42780000  1.0
  H  H122  1  0.73986000  0.59498000  0.92780000  1.0
  H  H123  1  0.23985000  0.40502000  0.57220000  1.0
  H  H124  1  0.27160000  0.47122000  0.15888000  1.0
  H  H125  1  0.77160000  0.52878000  0.34112000  1.0
  H  H126  1  0.72840000  0.52878000  0.84113000  1.0
  H  H127  1  0.22840000  0.47122000  0.65888000  1.0
  H  H128  1  0.59682000  0.47985000  0.14955000  1.0
  H  H129  1  0.09683000  0.52015000  0.35045000  1.0
  H  H130  1  0.40318000  0.52015000  0.85045000  1.0
  H  H131  1  0.90318000  0.47985000  0.64955000  1.0
  H  H132  1  0.59883000  0.41158000  0.06314000  1.0
  H  H133  1  0.09884000  0.58841000  0.43687000  1.0
  H  H134  1  0.40116000  0.58841000  0.93687000  1.0
  H  H135  1  0.90116000  0.41159000  0.56313000  1.0
  C  C136  1  0.59983000  0.68577000  0.14370000  1.0
  C  C137  1  0.09982000  0.31423000  0.35630000  1.0
  C  C138  1  0.40017000  0.31423000  0.85630000  1.0
  C  C139  1  0.90017000  0.68577000  0.64370000  1.0
  C  C140  1  0.70778000  0.71941000  0.12254000  1.0
  C  C141  1  0.20777000  0.28060000  0.37746000  1.0
  C  C142  1  0.29223000  0.28059000  0.87746000  1.0
  C  C143  1  0.79222000  0.71940000  0.62254000  1.0
  C  C144  1  0.72805000  0.80975000  0.10143000  1.0
  C  C145  1  0.22805000  0.19025000  0.39857000  1.0
  C  C146  1  0.27195000  0.19025000  0.89857000  1.0
  C  C147  1  0.77195000  0.80975000  0.60143000  1.0
  C  C148  1  0.82970000  0.83849000  0.08419000  1.0
  C  C149  1  0.32970000  0.16151000  0.41581000  1.0
  C  C150  1  0.17030000  0.16151000  0.91581000  1.0
  C  C151  1  0.67030000  0.83849000  0.58419000  1.0
  C  C152  1  0.90783000  0.77556000  0.08730000  1.0
  C  C153  1  0.40783000  0.22443000  0.41270000  1.0
  C  C154  1  0.09217000  0.22444000  0.91270000  1.0
  C  C155  1  0.59217000  0.77557000  0.58730000  1.0
  C  C156  1  0.79067000  0.66209000  0.12339000  1.0
  C  C157  1  0.29067000  0.33791000  0.37661000  1.0
  C  C158  1  0.20934000  0.33791000  0.87661000  1.0
  C  C159  1  0.70933000  0.66209000  0.62339000  1.0
  C  C160  1  0.02750000  0.83309000  0.93034000  1.0
  C  C161  1  0.52750000  0.16692000  0.56966000  1.0
  C  C162  1  0.97250000  0.16692000  0.06966000  1.0
  C  C163  1  0.47250000  0.83308000  0.43034000  1.0
  C  C164  1  0.03445000  0.74142000  0.94755000  1.0
  C  C165  1  0.53444000  0.25858000  0.55246000  1.0
  C  C166  1  0.96554000  0.25858000  0.05245000  1.0
  C  C167  1  0.46555000  0.74142000  0.44754000  1.0
  C  C168  1  0.04017000  0.70313000  0.89966000  1.0
  C  C169  1  0.54016000  0.29687000  0.60034000  1.0
  C  C170  1  0.95983000  0.29687000  0.10034000  1.0
  C  C171  1  0.45983000  0.70313000  0.39966000  1.0
  C  C172  1  0.03695000  0.75635000  0.83743000  1.0
  C  C173  1  0.53694000  0.24365000  0.66257000  1.0
  C  C174  1  0.96306000  0.24365000  0.16257000  1.0
  C  C175  1  0.46307000  0.75635000  0.33743000  1.0
  C  C176  1  0.02637000  0.84712000  0.82600000  1.0
  C  C177  1  0.52637000  0.15288000  0.67400000  1.0
  C  C178  1  0.97364000  0.15288000  0.17400000  1.0
  C  C179  1  0.47364000  0.84712000  0.32600000  1.0
  C  C180  1  0.04930000  0.72075000  0.78338000  1.0
  C  C181  1  0.54929000  0.27924000  0.71663000  1.0
  C  C182  1  0.95071000  0.27924000  0.21662000  1.0
  C  C183  1  0.45071000  0.72076000  0.28337000  1.0
  C  C184  1  0.13749000  0.73837000  0.21379000  1.0
  C  C185  1  0.63749000  0.26162000  0.28622000  1.0
  C  C186  1  0.86250000  0.26163000  0.78622000  1.0
  C  C187  1  0.36251000  0.73838000  0.71378000  1.0
  C  C188  1  0.03383000  0.77556000  0.22366000  1.0
  C  C189  1  0.53382000  0.22443000  0.27635000  1.0
  C  C190  1  0.96617000  0.22444000  0.77635000  1.0
  C  C191  1  0.46618000  0.77557000  0.72365000  1.0
  C  C192  1  0.94615000  0.72190000  0.24451000  1.0
  C  C193  1  0.44615000  0.27810000  0.25549000  1.0
  C  C194  1  0.05385000  0.27810000  0.75550000  1.0
  C  C195  1  0.55385000  0.72190000  0.74451000  1.0
  C  C196  1  0.84110000  0.83945000  0.24071000  1.0
  C  C197  1  0.34110000  0.16054000  0.25928000  1.0
  C  C198  1  0.15889000  0.16054000  0.75929000  1.0
  C  C199  1  0.65889000  0.83946000  0.74072000  1.0
  C  C200  1  0.92221000  0.89980000  0.21742000  1.0
  C  C201  1  0.42221000  0.10019000  0.28258000  1.0
  C  C202  1  0.07778000  0.10019000  0.78258000  1.0
  C  C203  1  0.57779000  0.89980000  0.71742000  1.0
  C  C204  1  0.02007000  0.86654000  0.20963000  1.0
  C  C205  1  0.52006000  0.13346000  0.29037000  1.0
  C  C206  1  0.97993000  0.13346000  0.79038000  1.0
  C  C207  1  0.47994000  0.86654000  0.70963000  1.0
  C  C208  1  0.71242000  0.05934000  0.17643000  1.0
  C  C209  1  0.21242000  0.94066000  0.32357000  1.0
  C  C210  1  0.28758000  0.94066000  0.82357000  1.0
  C  C211  1  0.78758000  0.05934000  0.67643000  1.0
  C  C212  1  0.71309000  0.15053000  0.16634000  1.0
  C  C213  1  0.21309000  0.84947000  0.33366000  1.0
  C  C214  1  0.28691000  0.84947000  0.83365000  1.0
  C  C215  1  0.78691000  0.15053000  0.66634000  1.0
  C  C216  1  0.70933000  0.20473000  0.10497000  1.0
  C  C217  1  0.20933000  0.79526000  0.39503000  1.0
  C  C218  1  0.29068000  0.79527000  0.89503000  1.0
  C  C219  1  0.79067000  0.20473000  0.60497000  1.0
  C  C220  1  0.70476000  0.16737000  0.05614000  1.0
  C  C221  1  0.20476000  0.83263000  0.44386000  1.0
  C  C222  1  0.29525000  0.83264000  0.94386000  1.0
  C  C223  1  0.79524000  0.16737000  0.55614000  1.0
  C  C224  1  0.70445000  0.07564000  0.07201000  1.0
  C  C225  1  0.20445000  0.92437000  0.42799000  1.0
  C  C226  1  0.29556000  0.92437000  0.92799000  1.0
  C  C227  1  0.79555000  0.07563000  0.57201000  1.0
  C  C228  1  0.70043000  0.22144000  0.98866000  1.0
  C  C229  1  0.20042000  0.77857000  0.51134000  1.0
  C  C230  1  0.29959000  0.77857000  0.01134000  1.0
  C  C231  1  0.79958000  0.22143000  0.48866000  1.0
  C  C232  1  0.28047000  0.97839000  0.09748000  1.0
  C  C233  1  0.78047000  0.02161000  0.40252000  1.0
  C  C234  1  0.71953000  0.02161000  0.90252000  1.0
  C  C235  1  0.21952000  0.97840000  0.59748000  1.0
  C  C236  1  0.26904000  0.06873000  0.08297000  1.0
  C  C237  1  0.76904000  0.93128000  0.41702000  1.0
  C  C238  1  0.73096000  0.93127000  0.91703000  1.0
  C  C239  1  0.23095000  0.06873000  0.58298000  1.0
  C  C240  1  0.34915000  0.11853000  0.09828000  1.0
  C  C241  1  0.84915000  0.88147000  0.40172000  1.0
  C  C242  1  0.65085000  0.88146000  0.90172000  1.0
  C  C243  1  0.15085000  0.11853000  0.59828000  1.0
  C  C244  1  0.43743000  0.07323000  0.12928000  1.0
  C  C245  1  0.93742000  0.92677000  0.37072000  1.0
  C  C246  1  0.56258000  0.92677000  0.87072000  1.0
  C  C247  1  0.06257000  0.07323000  0.62929000  1.0
  C  C248  1  0.44352000  0.98277000  0.14190000  1.0
  C  C249  1  0.94352000  0.01723000  0.35810000  1.0
  C  C250  1  0.55649000  0.01723000  0.85810000  1.0
  C  C251  1  0.05648000  0.98277000  0.64191000  1.0
  C  C252  1  0.34301000  0.21669000  0.07983000  1.0
  C  C253  1  0.84301000  0.78331000  0.42017000  1.0
  C  C254  1  0.65699000  0.78330000  0.92017000  1.0
  C  C255  1  0.15698000  0.21669000  0.57984000  1.0
  C  C256  1  0.43404000  0.25851000  0.03621000  1.0
  C  C257  1  0.93405000  0.74149000  0.46378000  1.0
  C  C258  1  0.56596000  0.74149000  0.96378000  1.0
  C  C259  1  0.06595000  0.25850000  0.53622000  1.0
  C  C260  1  0.42698000  0.35885000  0.00963000  1.0
  C  C261  1  0.92698000  0.64115000  0.49036000  1.0
  C  C262  1  0.57302000  0.64115000  0.99037000  1.0
  C  C263  1  0.07302000  0.35885000  0.50964000  1.0
  C  C264  1  0.42916000  0.40233000  0.06009000  1.0
  C  C265  1  0.92916000  0.59767000  0.43990000  1.0
  C  C266  1  0.57084000  0.59767000  0.93991000  1.0
  C  C267  1  0.07084000  0.40233000  0.56009000  1.0
  C  C268  1  0.33685000  0.42021000  0.08793000  1.0
  C  C269  1  0.83686000  0.57979000  0.41207000  1.0
  C  C270  1  0.66315000  0.57979000  0.91208000  1.0
  C  C271  1  0.16314000  0.42021000  0.58793000  1.0
  C  C272  1  0.34241000  0.45724000  0.13636000  1.0
  C  C273  1  0.84241000  0.54276000  0.36364000  1.0
  C  C274  1  0.65759000  0.54276000  0.86364000  1.0
  C  C275  1  0.15759000  0.45725000  0.63636000  1.0
  C  C276  1  0.52385000  0.46133000  0.13147000  1.0
  C  C277  1  0.02386000  0.53867000  0.36853000  1.0
  C  C278  1  0.47614000  0.53867000  0.86853000  1.0
  C  C279  1  0.97614000  0.46133000  0.63147000  1.0
  C  C280  1  0.52446000  0.42341000  0.08342000  1.0
  C  C281  1  0.02447000  0.57658000  0.41659000  1.0
  C  C282  1  0.47554000  0.57658000  0.91659000  1.0
  C  C283  1  0.97553000  0.42342000  0.58341000  1.0
  S  S284  1  0.02786000  0.89676000  0.98296000  1.0
  S  S285  1  0.52785000  0.10324000  0.51705000  1.0
  S  S286  1  0.97214000  0.10324000  0.01705000  1.0
  S  S287  1  0.47214000  0.89676000  0.48295000  1.0
  S  S288  1  0.04165000  0.80677000  0.06899000  1.0
  S  S289  1  0.54165000  0.19322000  0.43101000  1.0
  S  S290  1  0.95835000  0.19323000  0.93101000  1.0
  S  S291  1  0.45834000  0.80677000  0.56899000  1.0
  S  S292  1  0.72032000  0.99315000  0.25601000  1.0
  S  S293  1  0.22032000  0.00685000  0.24399000  1.0
  S  S294  1  0.27968000  0.00686000  0.74399000  1.0
  S  S295  1  0.77969000  0.99315000  0.75601000  1.0
  S  S296  1  0.71064000  0.86752000  0.25410000  1.0
  S  S297  1  0.21065000  0.13247000  0.24590000  1.0
  S  S298  1  0.28935000  0.13248000  0.74590000  1.0
  S  S299  1  0.78936000  0.86752000  0.75410000  1.0
  N  N300  1  0.88903000  0.68885000  0.10590000  1.0
  N  N301  1  0.38903000  0.31115000  0.39410000  1.0
  N  N302  1  0.11098000  0.31115000  0.89411000  1.0
  N  N303  1  0.61097000  0.68885000  0.60590000  1.0
  N  N304  1  0.02212000  0.88536000  0.87121000  1.0
  N  N305  1  0.52211000  0.11464000  0.62879000  1.0
  N  N306  1  0.97788000  0.11464000  0.12879000  1.0
  N  N307  1  0.47788000  0.88537000  0.37121000  1.0
  N  N308  1  0.85177000  0.75226000  0.25398000  1.0
  N  N309  1  0.35177000  0.24774000  0.24602000  1.0
  N  N310  1  0.14822000  0.24774000  0.74603000  1.0
  N  N311  1  0.64823000  0.75226000  0.75398000  1.0
  N  N312  1  0.70840000  0.02193000  0.13086000  1.0
  N  N313  1  0.20841000  0.97807000  0.36914000  1.0
  N  N314  1  0.29160000  0.97808000  0.86914000  1.0
  N  N315  1  0.79160000  0.02192000  0.63086000  1.0
  N  N316  1  0.36679000  0.93594000  0.12584000  1.0
  N  N317  1  0.86679000  0.06405000  0.37416000  1.0
  N  N318  1  0.63321000  0.06406000  0.87416000  1.0
  N  N319  1  0.13321000  0.93594000  0.62584000  1.0
  N  N320  1  0.43434000  0.47814000  0.15783000  1.0
  N  N321  1  0.93435000  0.52186000  0.34217000  1.0
  N  N322  1  0.56565000  0.52186000  0.84217000  1.0
  N  N323  1  0.06565000  0.47814000  0.65783000  1.0
  O  O324  1  0.59407000  0.61410000  0.18924000  1.0
  O  O325  1  0.09406000  0.38590000  0.31076000  1.0
  O  O326  1  0.40594000  0.38590000  0.81076000  1.0
  O  O327  1  0.90593000  0.61410000  0.68924000  1.0
  O  O328  1  0.52408000  0.73045000  0.11438000  1.0
  O  O329  1  0.02408000  0.26955000  0.38561000  1.0
  O  O330  1  0.47592000  0.26956000  0.88561000  1.0
  O  O331  1  0.97592000  0.73045000  0.61439000  1.0
  O  O332  1  0.08104000  0.64183000  0.79485000  1.0
  O  O333  1  0.58103000  0.35817000  0.70515000  1.0
  O  O334  1  0.91897000  0.35817000  0.20515000  1.0
  O  O335  1  0.41897000  0.64183000  0.29485000  1.0
  O  O336  1  0.02898000  0.77424000  0.72992000  1.0
  O  O337  1  0.52897000  0.22576000  0.77008000  1.0
  O  O338  1  0.97102000  0.22576000  0.27008000  1.0
  O  O339  1  0.47102000  0.77425000  0.22992000  1.0
  O  O340  1  0.21664000  0.78818000  0.20526000  1.0
  O  O341  1  0.71664000  0.21182000  0.29474000  1.0
  O  O342  1  0.78336000  0.21182000  0.79474000  1.0
  O  O343  1  0.28336000  0.78818000  0.70526000  1.0
  O  O344  1  0.14045000  0.65771000  0.21347000  1.0
  O  O345  1  0.64044000  0.34228000  0.28653000  1.0
  O  O346  1  0.85955000  0.34228000  0.78653000  1.0
  O  O347  1  0.35956000  0.65772000  0.71347000  1.0
  O  O348  1  0.70553000  0.17716000  0.94994000  1.0
  O  O349  1  0.20552000  0.82284000  0.55007000  1.0
  O  O350  1  0.29449000  0.82284000  0.05007000  1.0
  O  O351  1  0.79448000  0.17716000  0.44993000  1.0
  O  O352  1  0.69224000  0.30433000  0.97458000  1.0
  O  O353  1  0.19224000  0.69568000  0.52542000  1.0
  O  O354  1  0.30775000  0.69569000  0.02541000  1.0
  O  O355  1  0.80775000  0.30432000  0.47458000  1.0
  O  O356  1  0.31183000  0.64462000  0.14708000  1.0
  O  O357  1  0.81184000  0.35538000  0.35292000  1.0
  O  O358  1  0.68817000  0.35538000  0.85292000  1.0
  O  O359  1  0.18817000  0.64462000  0.64708000  1.0
  O  O360  1  0.50673000  0.45101000  0.31407000  1.0
  O  O361  1  0.00673000  0.54900000  0.18594000  1.0
  O  O362  1  0.49327000  0.54900000  0.68593000  1.0
  O  O363  1  0.99327000  0.45101000  0.81407000  1.0
  O  O364  1  0.25392000  0.51166000  0.26977000  1.0
  O  O365  1  0.75392000  0.48834000  0.23023000  1.0
  O  O366  1  0.74608000  0.48834000  0.73023000  1.0
  O  O367  1  0.24608000  0.51166000  0.76977000  1.0
