# generated using pymatgen
data_CoH14C20SN2O7
_symmetry_space_group_name_H-M   'P 1'
_cell_length_a   8.93176000
_cell_length_b   10.08900000
_cell_length_c   12.75820000
_cell_angle_alpha   110.60000000
_cell_angle_beta   93.83430000
_cell_angle_gamma   111.10700000
_symmetry_Int_Tables_number   1
_chemical_formula_structural   CoH14C20SN2O7
_chemical_formula_sum   'Co2 H28 C40 S2 N4 O14'
_cell_volume   978.98641460
_cell_formula_units_Z   2
loop_
 _symmetry_equiv_pos_site_id
 _symmetry_equiv_pos_as_xyz
  1  'x, y, z'
loop_
 _atom_site_type_symbol
 _atom_site_label
 _atom_site_symmetry_multiplicity
 _atom_site_fract_x
 _atom_site_fract_y
 _atom_site_fract_z
 _atom_site_occupancy
  Co  Co0  1  0.66030000  0.10607000  0.20136000  1.0
  Co  Co1  1  0.33970000  0.89393000  0.79864000  1.0
  H  H2  1  0.32343000  0.03318000  0.28096000  1.0
  H  H3  1  0.67658000  0.96682000  0.71904000  1.0
  H  H4  1  0.24319000  0.07811000  0.47195000  1.0
  H  H5  1  0.75681000  0.92189000  0.52805000  1.0
  H  H6  1  0.46315000  0.20776000  0.65104000  1.0
  H  H7  1  0.53686000  0.79223000  0.34896000  1.0
  H  H8  1  0.77350000  0.33876000  0.74204000  1.0
  H  H9  1  0.22650000  0.66123000  0.25796000  1.0
  H  H10  1  0.06116000  0.42299000  0.71597000  1.0
  H  H11  1  0.93884000  0.57700000  0.28403000  1.0
  H  H12  1  0.25763000  0.43320000  0.58173000  1.0
  H  H13  1  0.74237000  0.56681000  0.41827000  1.0
  H  H14  1  0.29285000  0.36086000  0.37688000  1.0
  H  H15  1  0.70716000  0.63915000  0.62312000  1.0
  H  H16  1  0.04354000  0.21908000  0.21654000  1.0
  H  H17  1  0.95646000  0.78093000  0.78346000  1.0
  H  H18  1  0.96991000  0.08121000  0.95020000  1.0
  H  H19  1  0.03008000  0.91879000  0.04981000  1.0
  H  H20  1  0.12032000  0.17741000  0.88404000  1.0
  H  H21  1  0.87967000  0.82259000  0.11596000  1.0
  H  H22  1  0.92414000  0.30977000  0.93916000  1.0
  H  H23  1  0.07586000  0.69023000  0.06084000  1.0
  H  H24  1  0.97986000  0.33430000  0.08266000  1.0
  H  H25  1  0.02014000  0.66570000  0.91734000  1.0
  H  H26  1  0.67684000  0.97128000  0.98775000  1.0
  H  H27  1  0.32315000  0.02872000  0.01225000  1.0
  H  H28  1  0.69310000  0.13628000  0.00707000  1.0
  H  H29  1  0.30690000  0.86372000  0.99294000  1.0
  C  C30  1  0.41566000  0.08953000  0.36115000  1.0
  C  C31  1  0.58434000  0.91047000  0.63885000  1.0
  C  C32  1  0.37265000  0.11581000  0.46824000  1.0
  C  C33  1  0.62735000  0.88419000  0.53175000  1.0
  C  C34  1  0.49472000  0.18856000  0.56759000  1.0
  C  C35  1  0.50529000  0.81144000  0.43241000  1.0
  C  C36  1  0.66142000  0.23734000  0.55976000  1.0
  C  C37  1  0.33859000  0.76265000  0.44024000  1.0
  C  C38  1  0.79837000  0.31494000  0.65633000  1.0
  C  C39  1  0.20163000  0.68505000  0.34367000  1.0
  C  C40  1  0.95703000  0.35928000  0.64231000  1.0
  C  C41  1  0.04297000  0.64071000  0.35769000  1.0
  C  C42  1  0.99170000  0.32743000  0.52994000  1.0
  C  C43  1  0.00831000  0.67257000  0.47006000  1.0
  C  C44  1  0.15213000  0.37007000  0.50901000  1.0
  C  C45  1  0.84787000  0.62994000  0.49100000  1.0
  C  C46  1  0.17123000  0.33139000  0.39665000  1.0
  C  C47  1  0.82878000  0.66862000  0.60335000  1.0
  C  C48  1  0.03153000  0.25162000  0.30565000  1.0
  C  C49  1  0.96848000  0.74838000  0.69435000  1.0
  C  C50  1  0.85835000  0.24859000  0.43293000  1.0
  C  C51  1  0.14165000  0.75141000  0.56707000  1.0
  C  C52  1  0.69285000  0.20498000  0.44810000  1.0
  C  C53  1  0.30715000  0.79502000  0.55189000  1.0
  C  C54  1  0.55462000  0.30162000  0.17559000  1.0
  C  C55  1  0.44538000  0.69839000  0.82441000  1.0
  C  C56  1  0.48324000  0.39937000  0.15045000  1.0
  C  C57  1  0.51676000  0.60063000  0.84955000  1.0
  C  C58  1  0.32498000  0.35704000  0.09228000  1.0
  C  C59  1  0.67501000  0.64296000  0.90771000  1.0
  C  C60  1  0.07326000  0.18930000  0.96290000  1.0
  C  C61  1  0.92674000  0.81070000  0.03711000  1.0
  C  C62  1  0.02320000  0.32332000  0.00258000  1.0
  C  C63  1  0.97680000  0.67668000  0.99742000  1.0
  C  C64  1  0.30412000  0.48319000  0.07614000  1.0
  C  C65  1  0.69588000  0.51681000  0.92385000  1.0
  C  C66  1  0.44796000  0.61926000  0.12102000  1.0
  C  C67  1  0.55204000  0.38074000  0.87897000  1.0
  C  C68  1  0.47412000  0.77326000  0.12301000  1.0
  C  C69  1  0.52588000  0.22675000  0.87699000  1.0
  S  S70  1  0.60622000  0.59173000  0.18311000  1.0
  S  S71  1  0.39378000  0.40827000  0.81689000  1.0
  N  N72  1  0.57192000  0.13211000  0.35119000  1.0
  N  N73  1  0.42809000  0.86790000  0.64881000  1.0
  N  N74  1  0.87862000  0.21177000  0.32305000  1.0
  N  N75  1  0.12139000  0.78823000  0.67695000  1.0
  O  O76  1  0.46168000  0.15740000  0.14921000  1.0
  O  O77  1  0.53831000  0.84260000  0.85079000  1.0
  O  O78  1  0.70633000  0.35711000  0.22220000  1.0
  O  O79  1  0.29367000  0.64289000  0.77780000  1.0
  O  O80  1  0.20267000  0.21150000  0.05176000  1.0
  O  O81  1  0.79733000  0.78850000  0.94824000  1.0
  O  O82  1  0.15984000  0.46878000  0.02230000  1.0
  O  O83  1  0.84016000  0.53121000  0.97769000  1.0
  O  O84  1  0.35434000  0.78952000  0.07951000  1.0
  O  O85  1  0.64565000  0.21048000  0.92049000  1.0
  O  O86  1  0.61956000  0.88190000  0.17308000  1.0
  O  O87  1  0.38044000  0.11810000  0.82692000  1.0
  O  O88  1  0.72792000  0.07917000  0.04735000  1.0
  O  O89  1  0.27208000  0.92083000  0.95265000  1.0
