# generated using pymatgen
data_TlH8C7SN2F3
_symmetry_space_group_name_H-M   'P 1'
_cell_length_a   9.28930000
_cell_length_b   11.08920000
_cell_length_c   11.47110000
_cell_angle_alpha   89.99910000
_cell_angle_beta   89.99990000
_cell_angle_gamma   107.66000000
_symmetry_Int_Tables_number   1
_chemical_formula_structural   TlH8C7SN2F3
_chemical_formula_sum   'Tl4 H32 C28 S4 N8 F12'
_cell_volume   1125.96145030
_cell_formula_units_Z   4
loop_
 _symmetry_equiv_pos_site_id
 _symmetry_equiv_pos_as_xyz
  1  'x, y, z'
loop_
 _atom_site_type_symbol
 _atom_site_label
 _atom_site_symmetry_multiplicity
 _atom_site_fract_x
 _atom_site_fract_y
 _atom_site_fract_z
 _atom_site_occupancy
  Tl  Tl0  1  0.36399000  0.71813000  0.58431000  1.0
  Tl  Tl1  1  0.36399000  0.21813000  0.91569000  1.0
  Tl  Tl2  1  0.63601000  0.28187000  0.41569000  1.0
  Tl  Tl3  1  0.63601000  0.78187000  0.08431000  1.0
  H  H4  1  0.98891000  0.63923000  0.03237000  1.0
  H  H5  1  0.98891000  0.13922000  0.46763000  1.0
  H  H6  1  0.01108000  0.36077000  0.96763000  1.0
  H  H7  1  0.01109000  0.86078000  0.53236000  1.0
  H  H8  1  0.23778000  0.69852000  0.14280000  1.0
  H  H9  1  0.23779000  0.19852000  0.35721000  1.0
  H  H10  1  0.76222000  0.30148000  0.85721000  1.0
  H  H11  1  0.76222000  0.80149000  0.64279000  1.0
  H  H12  1  0.45565000  0.96720000  0.63860000  1.0
  H  H13  1  0.45563000  0.46720000  0.86139000  1.0
  H  H14  1  0.54435000  0.03280000  0.36140000  1.0
  H  H15  1  0.54435000  0.53280000  0.13860000  1.0
  H  H16  1  0.25501000  0.90544000  0.65521000  1.0
  H  H17  1  0.25499000  0.40542000  0.84478000  1.0
  H  H18  1  0.74500000  0.09457000  0.34479000  1.0
  H  H19  1  0.74500000  0.59456000  0.15521000  1.0
  H  H20  1  0.33644000  0.94396000  0.51183000  1.0
  H  H21  1  0.33642000  0.44395000  0.98816000  1.0
  H  H22  1  0.66356000  0.05604000  0.48816000  1.0
  H  H23  1  0.66355000  0.55605000  0.01184000  1.0
  H  H24  1  0.41167000  0.48922000  0.59354000  1.0
  H  H25  1  0.41169000  0.98923000  0.90647000  1.0
  H  H26  1  0.58834000  0.51078000  0.40647000  1.0
  H  H27  1  0.58833000  0.01078000  0.09354000  1.0
  H  H28  1  0.30152000  0.49691000  0.46582000  1.0
  H  H29  1  0.30154000  0.99692000  0.03420000  1.0
  H  H30  1  0.69848000  0.50308000  0.53419000  1.0
  H  H31  1  0.69847000  0.00307000  0.96581000  1.0
  H  H32  1  0.21284000  0.46941000  0.60752000  1.0
  H  H33  1  0.21286000  0.96940000  0.89250000  1.0
  H  H34  1  0.78716000  0.53059000  0.39249000  1.0
  H  H35  1  0.78716000  0.03059000  0.10751000  1.0
  C  C36  1  0.36966000  0.71226000  0.87463000  1.0
  C  C37  1  0.36965000  0.21225000  0.62537000  1.0
  C  C38  1  0.63034000  0.28774000  0.12537000  1.0
  C  C39  1  0.63034000  0.78774000  0.37464000  1.0
  C  C40  1  0.10899000  0.65408000  0.86727000  1.0
  C  C41  1  0.10899000  0.15407000  0.63273000  1.0
  C  C42  1  0.89101000  0.34593000  0.13274000  1.0
  C  C43  1  0.89101000  0.84592000  0.36726000  1.0
  C  C44  1  0.09663000  0.65909000  0.98783000  1.0
  C  C45  1  0.09662000  0.15908000  0.51217000  1.0
  C  C46  1  0.90338000  0.34091000  0.01217000  1.0
  C  C47  1  0.90339000  0.84091000  0.48782000  1.0
  C  C48  1  0.23427000  0.69225000  0.04786000  1.0
  C  C49  1  0.23428000  0.19225000  0.45213000  1.0
  C  C50  1  0.76572000  0.30775000  0.95214000  1.0
  C  C51  1  0.76572000  0.80775000  0.54787000  1.0
  C  C52  1  0.97174000  0.61909000  0.78796000  1.0
  C  C53  1  0.97174000  0.11907000  0.71203000  1.0
  C  C54  1  0.02826000  0.38093000  0.21204000  1.0
  C  C55  1  0.02826000  0.88091000  0.28795000  1.0
  C  C56  1  0.35092000  0.90868000  0.59852000  1.0
  C  C57  1  0.35090000  0.40868000  0.90147000  1.0
  C  C58  1  0.64908000  0.09132000  0.40148000  1.0
  C  C59  1  0.64908000  0.59132000  0.09852000  1.0
  C  C60  1  0.31625000  0.51663000  0.55925000  1.0
  C  C61  1  0.31626000  0.01662000  0.94077000  1.0
  C  C62  1  0.68375000  0.48337000  0.44076000  1.0
  C  C63  1  0.68375000  0.98337000  0.05924000  1.0
  S  S64  1  0.53919000  0.74752000  0.80454000  1.0
  S  S65  1  0.53918000  0.24751000  0.69547000  1.0
  S  S66  1  0.46082000  0.25249000  0.19546000  1.0
  S  S67  1  0.46081000  0.75248000  0.30454000  1.0
  N  N68  1  0.23979000  0.67904000  0.81084000  1.0
  N  N69  1  0.23977000  0.17902000  0.68916000  1.0
  N  N70  1  0.76022000  0.32098000  0.18917000  1.0
  N  N71  1  0.76021000  0.82096000  0.31083000  1.0
  N  N72  1  0.36695000  0.71806000  0.99402000  1.0
  N  N73  1  0.36695000  0.21806000  0.50598000  1.0
  N  N74  1  0.63305000  0.28195000  0.00598000  1.0
  N  N75  1  0.63305000  0.78194000  0.49402000  1.0
  F  F76  1  0.98282000  0.71021000  0.70517000  1.0
  F  F77  1  0.98277000  0.21019000  0.79481000  1.0
  F  F78  1  0.01721000  0.28981000  0.29483000  1.0
  F  F79  1  0.01719000  0.78979000  0.20516000  1.0
  F  F80  1  0.95768000  0.50852000  0.72963000  1.0
  F  F81  1  0.95769000  0.00852000  0.77039000  1.0
  F  F82  1  0.04231000  0.49149000  0.27038000  1.0
  F  F83  1  0.04232000  0.99148000  0.22961000  1.0
  F  F84  1  0.84073000  0.60457000  0.84679000  1.0
  F  F85  1  0.84072000  0.10451000  0.65320000  1.0
  F  F86  1  0.15928000  0.39546000  0.15321000  1.0
  F  F87  1  0.15927000  0.89544000  0.34678000  1.0
