# generated using pymatgen
data_SrH6C9O7
_symmetry_space_group_name_H-M   'P 1'
_cell_length_a   6.85628000
_cell_length_b   7.02671000
_cell_length_c   10.78290000
_cell_angle_alpha   87.49600000
_cell_angle_beta   82.97400000
_cell_angle_gamma   71.51260000
_symmetry_Int_Tables_number   1
_chemical_formula_structural   SrH6C9O7
_chemical_formula_sum   'Sr2 H12 C18 O14'
_cell_volume   488.97342669
_cell_formula_units_Z   2
loop_
 _symmetry_equiv_pos_site_id
 _symmetry_equiv_pos_as_xyz
  1  'x, y, z'
loop_
 _atom_site_type_symbol
 _atom_site_label
 _atom_site_symmetry_multiplicity
 _atom_site_fract_x
 _atom_site_fract_y
 _atom_site_fract_z
 _atom_site_occupancy
  Sr  Sr0  1  0.24453000  0.25718000  0.05153000  1.0
  Sr  Sr1  1  0.75547000  0.74282000  0.94847000  1.0
  H  H2  1  0.22145000  0.19597000  0.62427000  1.0
  H  H3  1  0.77855000  0.80403000  0.37573000  1.0
  H  H4  1  0.72843000  0.30151000  0.39345000  1.0
  H  H5  1  0.27157000  0.69849000  0.60655000  1.0
  H  H6  1  0.47901000  0.31205000  0.58304000  1.0
  H  H7  1  0.52099000  0.68795000  0.41696000  1.0
  H  H8  1  0.41581000  0.23460000  0.31726000  1.0
  H  H9  1  0.58418000  0.76541000  0.68274000  1.0
  H  H10  1  0.58104000  0.37679000  0.18536000  1.0
  H  H11  1  0.41896000  0.62321000  0.81464000  1.0
  H  H12  1  0.66758000  0.13156000  0.17705000  1.0
  H  H13  1  0.33242000  0.86844000  0.82295000  1.0
  C  C14  1  0.55919000  0.25994000  0.82426000  1.0
  C  C15  1  0.44081000  0.74006000  0.17574000  1.0
  C  C16  1  0.70942000  0.26284000  0.71113000  1.0
  C  C17  1  0.29058000  0.73716000  0.28887000  1.0
  C  C18  1  0.91997000  0.22992000  0.72234000  1.0
  C  C19  1  0.08003000  0.77008000  0.27766000  1.0
  C  C20  1  0.99656000  0.22012000  0.84763000  1.0
  C  C21  1  0.00344000  0.77988000  0.15237000  1.0
  C  C22  1  0.05872000  0.22187000  0.61526000  1.0
  C  C23  1  0.94128000  0.77812000  0.38474000  1.0
  C  C24  1  0.98919000  0.24992000  0.49690000  1.0
  C  C25  1  0.01081000  0.75008000  0.50310000  1.0
  C  C26  1  0.13274000  0.24830000  0.38173000  1.0
  C  C27  1  0.86726000  0.75170000  0.61827000  1.0
  C  C28  1  0.77990000  0.28183000  0.48609000  1.0
  C  C29  1  0.22010000  0.71816000  0.51391000  1.0
  C  C30  1  0.64118000  0.28846000  0.59258000  1.0
  C  C31  1  0.35882000  0.71154000  0.40742000  1.0
  O  O32  1  0.39302000  0.40777000  0.84366000  1.0
  O  O33  1  0.60698000  0.59223000  0.15634000  1.0
  O  O34  1  0.60052000  0.10763000  0.89591000  1.0
  O  O35  1  0.39949000  0.89238000  0.10409000  1.0
  O  O36  1  0.90697000  0.36463000  0.92345000  1.0
  O  O37  1  0.09303000  0.63537000  0.07655000  1.0
  O  O38  1  0.15298000  0.07543000  0.87302000  1.0
  O  O39  1  0.84702000  0.92457000  0.12698000  1.0
  O  O40  1  0.32505000  0.22768000  0.40158000  1.0
  O  O41  1  0.67495000  0.77232000  0.59842000  1.0
  O  O42  1  0.07365000  0.26649000  0.27597000  1.0
  O  O43  1  0.92635000  0.73351000  0.72402000  1.0
  O  O44  1  0.53984000  0.24999000  0.19485000  1.0
  O  O45  1  0.46016000  0.75001000  0.80515000  1.0
