# generated using pymatgen
data_CuH7C8S(NO)2
_symmetry_space_group_name_H-M   'P 1'
_cell_length_a   5.78033000
_cell_length_b   12.39620000
_cell_length_c   12.85690000
_cell_angle_alpha   89.99980000
_cell_angle_beta   85.98790000
_cell_angle_gamma   89.99950000
_symmetry_Int_Tables_number   1
_chemical_formula_structural   CuH7C8S(NO)2
_chemical_formula_sum   'Cu4 H28 C32 S4 N8 O8'
_cell_volume   918.99223167
_cell_formula_units_Z   4
loop_
 _symmetry_equiv_pos_site_id
 _symmetry_equiv_pos_as_xyz
  1  'x, y, z'
loop_
 _atom_site_type_symbol
 _atom_site_label
 _atom_site_symmetry_multiplicity
 _atom_site_fract_x
 _atom_site_fract_y
 _atom_site_fract_z
 _atom_site_occupancy
  Cu  Cu0  1  0.89371000  0.90482000  0.00617000  1.0
  Cu  Cu1  1  0.39376000  0.59517000  0.50618000  1.0
  Cu  Cu2  1  0.10623000  0.09517000  0.99383000  1.0
  Cu  Cu3  1  0.60627000  0.40482000  0.49383000  1.0
  H  H4  1  0.29486000  0.88574000  0.14170000  1.0
  H  H5  1  0.79487000  0.61426000  0.64170000  1.0
  H  H6  1  0.70511000  0.11427000  0.85830000  1.0
  H  H7  1  0.20511000  0.38574000  0.35831000  1.0
  H  H8  1  0.48930000  0.73737000  0.23280000  1.0
  H  H9  1  0.98932000  0.76263000  0.73281000  1.0
  H  H10  1  0.51069000  0.26265000  0.76719000  1.0
  H  H11  1  0.01068000  0.23737000  0.26720000  1.0
  H  H12  1  0.32055000  0.54993000  0.22723000  1.0
  H  H13  1  0.82056000  0.95007000  0.72723000  1.0
  H  H14  1  0.67947000  0.45008000  0.77277000  1.0
  H  H15  1  0.17944000  0.04993000  0.27277000  1.0
  H  H16  1  0.77557000  0.68140000  0.05331000  1.0
  H  H17  1  0.27558000  0.81860000  0.55331000  1.0
  H  H18  1  0.22442000  0.31860000  0.94669000  1.0
  H  H19  1  0.72443000  0.18139000  0.44669000  1.0
  H  H20  1  0.55623000  0.36573000  0.18113000  1.0
  H  H21  1  0.05622000  0.13426000  0.68113000  1.0
  H  H22  1  0.44381000  0.63426000  0.81888000  1.0
  H  H23  1  0.94377000  0.86573000  0.31887000  1.0
  H  H24  1  0.45591000  0.39749000  0.05577000  1.0
  H  H25  1  0.95589000  0.10249000  0.55577000  1.0
  H  H26  1  0.54414000  0.60248000  0.94422000  1.0
  H  H27  1  0.04409000  0.89750000  0.44423000  1.0
  H  H28  1  0.72280000  0.32318000  0.06599000  1.0
  H  H29  1  0.22276000  0.17682000  0.56599000  1.0
  H  H30  1  0.27727000  0.67681000  0.93402000  1.0
  H  H31  1  0.77720000  0.82318000  0.43401000  1.0
  C  C32  1  0.57724000  0.08958000  0.08543000  1.0
  C  C33  1  0.07731000  0.41042000  0.58544000  1.0
  C  C34  1  0.42269000  0.91043000  0.91456000  1.0
  C  C35  1  0.92272000  0.58958000  0.41457000  1.0
  C  C36  1  0.22492000  0.80415000  0.14239000  1.0
  C  C37  1  0.72493000  0.69585000  0.64239000  1.0
  C  C38  1  0.77507000  0.19586000  0.85761000  1.0
  C  C39  1  0.27506000  0.30415000  0.35762000  1.0
  C  C40  1  0.33487000  0.72062000  0.19188000  1.0
  C  C41  1  0.83488000  0.77938000  0.69187000  1.0
  C  C42  1  0.66512000  0.27939000  0.80813000  1.0
  C  C43  1  0.16511000  0.22062000  0.30814000  1.0
  C  C44  1  0.24017000  0.61774000  0.18997000  1.0
  C  C45  1  0.74017000  0.88227000  0.68998000  1.0
  C  C46  1  0.75984000  0.38227000  0.81002000  1.0
  C  C47  1  0.25982000  0.11774000  0.31003000  1.0
  C  C48  1  0.03524000  0.60164000  0.14004000  1.0
  C  C49  1  0.53525000  0.89836000  0.64004000  1.0
  C  C50  1  0.96475000  0.39837000  0.85996000  1.0
  C  C51  1  0.46476000  0.10164000  0.35995000  1.0
  C  C52  1  0.93480000  0.68984000  0.09293000  1.0
  C  C53  1  0.43481000  0.81016000  0.59294000  1.0
  C  C54  1  0.06519000  0.31016000  0.90706000  1.0
  C  C55  1  0.56520000  0.18983000  0.40707000  1.0
  C  C56  1  0.93285000  0.49166000  0.13896000  1.0
  C  C57  1  0.43283000  0.00834000  0.63896000  1.0
  C  C58  1  0.06720000  0.50834000  0.86104000  1.0
  C  C59  1  0.56715000  0.99166000  0.36104000  1.0
  C  C60  1  0.60865000  0.38631000  0.09994000  1.0
  C  C61  1  0.10862000  0.11369000  0.59993000  1.0
  C  C62  1  0.39140000  0.61367000  0.90007000  1.0
  C  C63  1  0.89136000  0.88631000  0.40006000  1.0
  S  S64  1  0.82824000  0.05422000  0.12734000  1.0
  S  S65  1  0.32831000  0.44578000  0.62735000  1.0
  S  S66  1  0.17168000  0.94579000  0.87265000  1.0
  S  S67  1  0.67174000  0.55422000  0.37266000  1.0
  N  N68  1  0.39610000  0.11391000  0.05482000  1.0
  N  N69  1  0.89617000  0.38610000  0.55482000  1.0
  N  N70  1  0.60382000  0.88611000  0.94518000  1.0
  N  N71  1  0.10388000  0.61390000  0.44519000  1.0
  N  N72  1  0.02831000  0.78938000  0.09303000  1.0
  N  N73  1  0.52831000  0.71063000  0.59303000  1.0
  N  N74  1  0.97168000  0.21063000  0.90698000  1.0
  N  N75  1  0.47170000  0.28937000  0.40697000  1.0
  O  O76  1  0.02674000  0.41131000  0.17212000  1.0
  O  O77  1  0.52674000  0.08870000  0.67213000  1.0
  O  O78  1  0.97329000  0.58870000  0.82787000  1.0
  O  O79  1  0.47326000  0.91130000  0.32787000  1.0
  O  O80  1  0.72568000  0.48986000  0.09616000  1.0
  O  O81  1  0.22568000  0.01013000  0.59616000  1.0
  O  O82  1  0.27435000  0.51013000  0.90384000  1.0
  O  O83  1  0.77432000  0.98986000  0.40383000  1.0
