# generated using pymatgen
data_ZnFe2H34C36(SN)4
_symmetry_space_group_name_H-M   'P 1'
_cell_length_a   7.11449000
_cell_length_b   17.09690000
_cell_length_c   17.41550000
_cell_angle_alpha   89.89100000
_cell_angle_beta   89.99800000
_cell_angle_gamma   89.99720000
_symmetry_Int_Tables_number   1
_chemical_formula_structural   ZnFe2H34C36(SN)4
_chemical_formula_sum   'Zn2 Fe4 H68 C72 S8 N8'
_cell_volume   2118.34311560
_cell_formula_units_Z   2
loop_
 _symmetry_equiv_pos_site_id
 _symmetry_equiv_pos_as_xyz
  1  'x, y, z'
loop_
 _atom_site_type_symbol
 _atom_site_label
 _atom_site_symmetry_multiplicity
 _atom_site_fract_x
 _atom_site_fract_y
 _atom_site_fract_z
 _atom_site_occupancy
  Zn  Zn0  1  0.99998000  0.00000000  0.99999000  1.0
  Zn  Zn1  1  0.50000000  0.50000000  0.00000000  1.0
  Fe  Fe2  1  0.06699000  0.13098000  0.41053000  1.0
  Fe  Fe3  1  0.56698000  0.36902000  0.58947000  1.0
  Fe  Fe4  1  0.93302000  0.86903000  0.58945000  1.0
  Fe  Fe5  1  0.43301000  0.63097000  0.41054000  1.0
  H  H6  1  0.89465000  0.23321000  0.25157000  1.0
  H  H7  1  0.39464000  0.26680000  0.74844000  1.0
  H  H8  1  0.10537000  0.76679000  0.74842000  1.0
  H  H9  1  0.60536000  0.73320000  0.25158000  1.0
  H  H10  1  0.07522000  0.16869000  0.21880000  1.0
  H  H11  1  0.57519000  0.33129000  0.78120000  1.0
  H  H12  1  0.92478000  0.83130000  0.78119000  1.0
  H  H13  1  0.42480000  0.66871000  0.21881000  1.0
  H  H14  1  0.71457000  0.19600000  0.38572000  1.0
  H  H15  1  0.21458000  0.30401000  0.61429000  1.0
  H  H16  1  0.28545000  0.80400000  0.61427000  1.0
  H  H17  1  0.78542000  0.69599000  0.38572000  1.0
  H  H18  1  0.74645000  0.07844000  0.48913000  1.0
  H  H19  1  0.24643000  0.42155000  0.51088000  1.0
  H  H20  1  0.25356000  0.92156000  0.51087000  1.0
  H  H21  1  0.75355000  0.57843000  0.48912000  1.0
  H  H22  1  0.98742000  0.97091000  0.43119000  1.0
  H  H23  1  0.48737000  0.52908000  0.56881000  1.0
  H  H24  1  0.01262000  0.02908000  0.56881000  1.0
  H  H25  1  0.51263000  0.47091000  0.43119000  1.0
  H  H26  1  0.09996000  0.02185000  0.28990000  1.0
  H  H27  1  0.59993000  0.47814000  0.71010000  1.0
  H  H28  1  0.90005000  0.97815000  0.71010000  1.0
  H  H29  1  0.40008000  0.52185000  0.28990000  1.0
  H  H30  1  0.26568000  0.25292000  0.33902000  1.0
  H  H31  1  0.76567000  0.24707000  0.66097000  1.0
  H  H32  1  0.73435000  0.74709000  0.66098000  1.0
  H  H33  1  0.23433000  0.75292000  0.33903000  1.0
  H  H34  1  0.04844000  0.28603000  0.46300000  1.0
  H  H35  1  0.54845000  0.21398000  0.53699000  1.0
  H  H36  1  0.95155000  0.71399000  0.53699000  1.0
  H  H37  1  0.45150000  0.78600000  0.46302000  1.0
  H  H38  1  0.09359000  0.17028000  0.56678000  1.0
  H  H39  1  0.59360000  0.32972000  0.43322000  1.0
  H  H40  1  0.90641000  0.82973000  0.43320000  1.0
  H  H41  1  0.40636000  0.67026000  0.56679000  1.0
  H  H42  1  0.33817000  0.06422000  0.50783000  1.0
  H  H43  1  0.83816000  0.43577000  0.49217000  1.0
  H  H44  1  0.66183000  0.93578000  0.49217000  1.0
  H  H45  1  0.16181000  0.56422000  0.50782000  1.0
  H  H46  1  0.44144000  0.11434000  0.36633000  1.0
  H  H47  1  0.94143000  0.38564000  0.63367000  1.0
  H  H48  1  0.55858000  0.88567000  0.63368000  1.0
  H  H49  1  0.05858000  0.61435000  0.36632000  1.0
  H  H50  1  0.56938000  0.17657000  0.24239000  1.0
  H  H51  1  0.06937000  0.32345000  0.75762000  1.0
  H  H52  1  0.43062000  0.82343000  0.75760000  1.0
  H  H53  1  0.93062000  0.67656000  0.24239000  1.0
  H  H54  1  0.52140000  0.12720000  0.15510000  1.0
  H  H55  1  0.02138000  0.37283000  0.84491000  1.0
  H  H56  1  0.47862000  0.87280000  0.84490000  1.0
  H  H57  1  0.97862000  0.62718000  0.15509000  1.0
  H  H58  1  0.86175000  0.24534000  0.08238000  1.0
  H  H59  1  0.36173000  0.25468000  0.91763000  1.0
  H  H60  1  0.13823000  0.75467000  0.91761000  1.0
  H  H61  1  0.63825000  0.74532000  0.08238000  1.0
  H  H62  1  0.80854000  0.37373000  0.01681000  1.0
  H  H63  1  0.30851000  0.12628000  0.98320000  1.0
  H  H64  1  0.19146000  0.62628000  0.98319000  1.0
  H  H65  1  0.69147000  0.87372000  0.01680000  1.0
  H  H66  1  0.28330000  0.39841000  0.11523000  1.0
  H  H67  1  0.78325000  0.10163000  0.88478000  1.0
  H  H68  1  0.71671000  0.60160000  0.88478000  1.0
  H  H69  1  0.21674000  0.89837000  0.11520000  1.0
  H  H70  1  0.31437000  0.27173000  0.18675000  1.0
  H  H71  1  0.81433000  0.22832000  0.81326000  1.0
  H  H72  1  0.68565000  0.72827000  0.81325000  1.0
  H  H73  1  0.18568000  0.77169000  0.18674000  1.0
  C  C74  1  0.86712000  0.09249000  0.12488000  1.0
  C  C75  1  0.36713000  0.40751000  0.87513000  1.0
  C  C76  1  0.13289000  0.90751000  0.87511000  1.0
  C  C77  1  0.63287000  0.59250000  0.12488000  1.0
  C  C78  1  0.93108000  0.17157000  0.24110000  1.0
  C  C79  1  0.43107000  0.32844000  0.75889000  1.0
  C  C80  1  0.06891000  0.82844000  0.75887000  1.0
  C  C81  1  0.56893000  0.67156000  0.24112000  1.0
  C  C82  1  0.91236000  0.12450000  0.31325000  1.0
  C  C83  1  0.41237000  0.37551000  0.68675000  1.0
  C  C84  1  0.08768000  0.87551000  0.68673000  1.0
  C  C85  1  0.58767000  0.62449000  0.31326000  1.0
  C  C86  1  0.79597000  0.14288000  0.37827000  1.0
  C  C87  1  0.29598000  0.35712000  0.62174000  1.0
  C  C88  1  0.20405000  0.85713000  0.62171000  1.0
  C  C89  1  0.70403000  0.64287000  0.37828000  1.0
  C  C90  1  0.81396000  0.08082000  0.43323000  1.0
  C  C91  1  0.31393000  0.41917000  0.56678000  1.0
  C  C92  1  0.18605000  0.91918000  0.56676000  1.0
  C  C93  1  0.68606000  0.58082000  0.43323000  1.0
  C  C94  1  0.94143000  0.02388000  0.40229000  1.0
  C  C95  1  0.44138000  0.47612000  0.59771000  1.0
  C  C96  1  0.05860000  0.97612000  0.59771000  1.0
  C  C97  1  0.55861000  0.52388000  0.40229000  1.0
  C  C98  1  0.00187000  0.05062000  0.32841000  1.0
  C  C99  1  0.50183000  0.44939000  0.67158000  1.0
  C  C100  1  0.99814000  0.94938000  0.67158000  1.0
  C  C101  1  0.49816000  0.55062000  0.32842000  1.0
  C  C102  1  0.25577000  0.21812000  0.39121000  1.0
  C  C103  1  0.75577000  0.28187000  0.60879000  1.0
  C  C104  1  0.74426000  0.78189000  0.60879000  1.0
  C  C105  1  0.24422000  0.71812000  0.39121000  1.0
  C  C106  1  0.14137000  0.23606000  0.45668000  1.0
  C  C107  1  0.64138000  0.26394000  0.54332000  1.0
  C  C108  1  0.85863000  0.76395000  0.54331000  1.0
  C  C109  1  0.35859000  0.73604000  0.45670000  1.0
  C  C110  1  0.16499000  0.17442000  0.51176000  1.0
  C  C111  1  0.66499000  0.32558000  0.48824000  1.0
  C  C112  1  0.83503000  0.82558000  0.48823000  1.0
  C  C113  1  0.33499000  0.67441000  0.51177000  1.0
  C  C114  1  0.29384000  0.11824000  0.48038000  1.0
  C  C115  1  0.79384000  0.38175000  0.51963000  1.0
  C  C116  1  0.70617000  0.88176000  0.51962000  1.0
  C  C117  1  0.20615000  0.61824000  0.48037000  1.0
  C  C118  1  0.34874000  0.14498000  0.40547000  1.0
  C  C119  1  0.84873000  0.35500000  0.59453000  1.0
  C  C120  1  0.65129000  0.85502000  0.59453000  1.0
  C  C121  1  0.15127000  0.64499000  0.40547000  1.0
  C  C122  1  0.61414000  0.17081000  0.18215000  1.0
  C  C123  1  0.11415000  0.32922000  0.81786000  1.0
  C  C124  1  0.38587000  0.82920000  0.81785000  1.0
  C  C125  1  0.88585000  0.67079000  0.18215000  1.0
  C  C126  1  0.59249000  0.24816000  0.14095000  1.0
  C  C127  1  0.09245000  0.25187000  0.85907000  1.0
  C  C128  1  0.40752000  0.75184000  0.85905000  1.0
  C  C129  1  0.90753000  0.74814000  0.14094000  1.0
  C  C130  1  0.73178000  0.27755000  0.09209000  1.0
  C  C131  1  0.23175000  0.22247000  0.90792000  1.0
  C  C132  1  0.26820000  0.72245000  0.90790000  1.0
  C  C133  1  0.76824000  0.77753000  0.09208000  1.0
  C  C134  1  0.70264000  0.34880000  0.05509000  1.0
  C  C135  1  0.20260000  0.15122000  0.94493000  1.0
  C  C136  1  0.29737000  0.65120000  0.94491000  1.0
  C  C137  1  0.79737000  0.84879000  0.05508000  1.0
  C  C138  1  0.40942000  0.36246000  0.11020000  1.0
  C  C139  1  0.90937000  0.13757000  0.88981000  1.0
  C  C140  1  0.59060000  0.63754000  0.88980000  1.0
  C  C141  1  0.09061000  0.86244000  0.11018000  1.0
  C  C142  1  0.42808000  0.29224000  0.14980000  1.0
  C  C143  1  0.92806000  0.20780000  0.85021000  1.0
  C  C144  1  0.57192000  0.70777000  0.85020000  1.0
  C  C145  1  0.07194000  0.79221000  0.14979000  1.0
  S  S146  1  0.71148000  0.05896000  0.05736000  1.0
  S  S147  1  0.21148000  0.44105000  0.94265000  1.0
  S  S148  1  0.28851000  0.94104000  0.94264000  1.0
  S  S149  1  0.78851000  0.55896000  0.05735000  1.0
  S  S150  1  0.10019000  0.06620000  0.12120000  1.0
  S  S151  1  0.60019000  0.43380000  0.87879000  1.0
  S  S152  1  0.89980000  0.93380000  0.87879000  1.0
  S  S153  1  0.39981000  0.56621000  0.12121000  1.0
  N  N154  1  0.80590000  0.14175000  0.18078000  1.0
  N  N155  1  0.30590000  0.35826000  0.81922000  1.0
  N  N156  1  0.19409000  0.85824000  0.81922000  1.0
  N  N157  1  0.69409000  0.64175000  0.18078000  1.0
  N  N158  1  0.54429000  0.39040000  0.06377000  1.0
  N  N159  1  0.04427000  0.10962000  0.93623000  1.0
  N  N160  1  0.45572000  0.60960000  0.93623000  1.0
  N  N161  1  0.95572000  0.89038000  0.06375000  1.0
