# generated using pymatgen
data_CoH18C22(N2Cl)2
_symmetry_space_group_name_H-M   'P 1'
_cell_length_a   11.85720000
_cell_length_b   13.79610000
_cell_length_c   17.81890000
_cell_angle_alpha   73.45700000
_cell_angle_beta   89.99990000
_cell_angle_gamma   89.99950000
_symmetry_Int_Tables_number   1
_chemical_formula_structural   CoH18C22(N2Cl)2
_chemical_formula_sum   'Co4 H72 C88 N16 Cl8'
_cell_volume   2794.21393796
_cell_formula_units_Z   4
loop_
 _symmetry_equiv_pos_site_id
 _symmetry_equiv_pos_as_xyz
  1  'x, y, z'
loop_
 _atom_site_type_symbol
 _atom_site_label
 _atom_site_symmetry_multiplicity
 _atom_site_fract_x
 _atom_site_fract_y
 _atom_site_fract_z
 _atom_site_occupancy
  Co  Co0  1  0.68246000  0.73913000  0.03001000  1.0
  Co  Co1  1  0.18247000  0.76087000  0.46999000  1.0
  Co  Co2  1  0.31754000  0.26087000  0.97000000  1.0
  Co  Co3  1  0.81755000  0.23913000  0.53001000  1.0
  H  H4  1  0.56212000  0.70932000  0.87972000  1.0
  H  H5  1  0.06211000  0.79067000  0.62028000  1.0
  H  H6  1  0.43788000  0.29069000  0.12028000  1.0
  H  H7  1  0.93789000  0.20932000  0.37973000  1.0
  H  H8  1  0.62521000  0.33514000  0.92609000  1.0
  H  H9  1  0.12520000  0.16486000  0.57391000  1.0
  H  H10  1  0.37477000  0.66487000  0.07391000  1.0
  H  H11  1  0.87479000  0.83515000  0.42608000  1.0
  H  H12  1  0.72926000  0.23998000  0.04760000  1.0
  H  H13  1  0.22926000  0.26002000  0.45239000  1.0
  H  H14  1  0.27071000  0.76002000  0.95240000  1.0
  H  H15  1  0.77073000  0.73998000  0.54758000  1.0
  H  H16  1  0.79549000  0.32529000  0.14324000  1.0
  H  H17  1  0.29550000  0.17469000  0.35676000  1.0
  H  H18  1  0.20448000  0.67470000  0.85676000  1.0
  H  H19  1  0.70448000  0.82528000  0.64322000  1.0
  H  H20  1  0.76705000  0.51134000  0.12085000  1.0
  H  H21  1  0.26705000  0.98866000  0.37915000  1.0
  H  H22  1  0.23293000  0.48866000  0.87916000  1.0
  H  H23  1  0.73294000  0.01132000  0.62085000  1.0
  H  H24  1  0.48387000  0.60317000  0.80144000  1.0
  H  H25  1  0.98387000  0.89683000  0.69857000  1.0
  H  H26  1  0.51612000  0.39684000  0.19856000  1.0
  H  H27  1  0.01614000  0.10318000  0.30143000  1.0
  H  H28  1  0.48149000  0.47015000  0.84321000  1.0
  H  H29  1  0.98149000  0.02987000  0.65679000  1.0
  H  H30  1  0.51850000  0.52986000  0.15680000  1.0
  H  H31  1  0.01853000  0.97014000  0.34321000  1.0
  H  H32  1  0.72589000  0.65295000  0.77107000  1.0
  H  H33  1  0.22590000  0.84707000  0.72891000  1.0
  H  H34  1  0.27409000  0.34708000  0.22892000  1.0
  H  H35  1  0.77412000  0.15295000  0.27107000  1.0
  H  H36  1  0.54595000  0.38770000  0.75605000  1.0
  H  H37  1  0.04596000  0.11232000  0.74393000  1.0
  H  H38  1  0.45405000  0.61229000  0.24395000  1.0
  H  H39  1  0.95405000  0.88770000  0.25605000  1.0
  H  H40  1  0.94478000  0.65375000  0.48396000  1.0
  H  H41  1  0.44476000  0.84624000  0.01605000  1.0
  H  H42  1  0.05523000  0.34625000  0.51604000  1.0
  H  H43  1  0.55523000  0.15375000  0.98396000  1.0
  H  H44  1  0.00380000  0.36762000  0.73170000  1.0
  H  H45  1  0.50380000  0.13239000  0.76831000  1.0
  H  H46  1  0.99618000  0.63238000  0.26830000  1.0
  H  H47  1  0.49620000  0.86761000  0.23169000  1.0
  H  H48  1  0.19216000  0.35174000  0.79697000  1.0
  H  H49  1  0.69217000  0.14827000  0.70304000  1.0
  H  H50  1  0.80782000  0.64824000  0.20303000  1.0
  H  H51  1  0.30785000  0.85174000  0.29697000  1.0
  H  H52  1  0.34534000  0.47090000  0.74298000  1.0
  H  H53  1  0.84534000  0.02912000  0.75703000  1.0
  H  H54  1  0.65465000  0.52908000  0.25702000  1.0
  H  H55  1  0.15468000  0.97089000  0.24297000  1.0
  H  H56  1  0.31712000  0.61695000  0.62183000  1.0
  H  H57  1  0.81711000  0.88306000  0.87819000  1.0
  H  H58  1  0.68290000  0.38305000  0.37819000  1.0
  H  H59  1  0.18291000  0.11693000  0.12182000  1.0
  H  H60  1  0.87397000  0.39976000  0.60579000  1.0
  H  H61  1  0.37395000  0.10023000  0.89423000  1.0
  H  H62  1  0.12604000  0.60023000  0.39422000  1.0
  H  H63  1  0.62605000  0.89976000  0.10578000  1.0
  H  H64  1  0.81778000  0.50765000  0.53693000  1.0
  H  H65  1  0.31776000  0.99234000  0.96307000  1.0
  H  H66  1  0.18223000  0.49235000  0.46307000  1.0
  H  H67  1  0.68224000  0.00764000  0.03694000  1.0
  H  H68  1  0.86273000  0.63014000  0.67292000  1.0
  H  H69  1  0.36272000  0.86987000  0.82706000  1.0
  H  H70  1  0.13727000  0.36987000  0.32707000  1.0
  H  H71  1  0.63728000  0.13014000  0.17293000  1.0
  H  H72  1  0.68273000  0.36532000  0.65689000  1.0
  H  H73  1  0.18274000  0.13469000  0.84310000  1.0
  H  H74  1  0.31728000  0.63467000  0.34312000  1.0
  H  H75  1  0.81727000  0.86531000  0.15690000  1.0
  C  C76  1  0.59653000  0.63878000  0.91627000  1.0
  C  C77  1  0.09653000  0.86122000  0.58374000  1.0
  C  C78  1  0.40346000  0.36123000  0.08374000  1.0
  C  C79  1  0.90348000  0.13878000  0.41627000  1.0
  C  C80  1  0.65550000  0.37253000  0.96846000  1.0
  C  C81  1  0.15550000  0.12747000  0.53153000  1.0
  C  C82  1  0.34449000  0.62747000  0.03154000  1.0
  C  C83  1  0.84450000  0.87254000  0.46845000  1.0
  C  C84  1  0.71241000  0.32053000  0.03645000  1.0
  C  C85  1  0.21241000  0.17947000  0.46354000  1.0
  C  C86  1  0.28757000  0.67947000  0.96355000  1.0
  C  C87  1  0.78758000  0.82053000  0.53643000  1.0
  C  C88  1  0.75109000  0.36955000  0.09113000  1.0
  C  C89  1  0.25109000  0.13045000  0.40886000  1.0
  C  C90  1  0.24889000  0.63045000  0.90887000  1.0
  C  C91  1  0.74890000  0.86954000  0.59111000  1.0
  C  C92  1  0.73569000  0.47286000  0.07945000  1.0
  C  C93  1  0.23570000  0.02714000  0.42055000  1.0
  C  C94  1  0.26429000  0.52714000  0.92056000  1.0
  C  C95  1  0.76430000  0.97285000  0.57943000  1.0
  C  C96  1  0.67900000  0.52603000  0.01133000  1.0
  C  C97  1  0.17899000  0.97397000  0.48867000  1.0
  C  C98  1  0.32100000  0.47397000  0.98867000  1.0
  C  C99  1  0.82102000  0.02602000  0.51133000  1.0
  C  C100  1  0.63916000  0.47593000  0.95735000  1.0
  C  C101  1  0.13916000  0.02407000  0.54264000  1.0
  C  C102  1  0.36082000  0.52409000  0.04265000  1.0
  C  C103  1  0.86084000  0.97593000  0.45735000  1.0
  C  C104  1  0.53716000  0.53660000  0.82672000  1.0
  C  C105  1  0.03716000  0.96341000  0.67328000  1.0
  C  C106  1  0.46285000  0.46340000  0.17328000  1.0
  C  C107  1  0.96285000  0.03661000  0.32670000  1.0
  C  C108  1  0.62463000  0.52314000  0.76869000  1.0
  C  C109  1  0.12464000  0.97688000  0.73129000  1.0
  C  C110  1  0.37536000  0.47687000  0.23131000  1.0
  C  C111  1  0.87536000  0.02313000  0.26869000  1.0
  C  C112  1  0.71494000  0.59035000  0.74551000  1.0
  C  C113  1  0.21494000  0.90966000  0.75447000  1.0
  C  C114  1  0.28505000  0.40965000  0.25448000  1.0
  C  C115  1  0.78506000  0.09036000  0.24551000  1.0
  C  C116  1  0.61428000  0.44197000  0.73668000  1.0
  C  C117  1  0.11430000  0.05804000  0.76331000  1.0
  C  C118  1  0.38571000  0.55801000  0.26332000  1.0
  C  C119  1  0.88572000  0.94198000  0.23669000  1.0
  C  C120  1  0.99845000  0.61607000  0.53293000  1.0
  C  C121  1  0.49845000  0.88393000  0.96707000  1.0
  C  C122  1  0.00155000  0.38393000  0.46707000  1.0
  C  C123  1  0.50156000  0.11607000  0.03293000  1.0
  C  C124  1  0.07086000  0.42196000  0.70862000  1.0
  C  C125  1  0.57085000  0.07804000  0.79138000  1.0
  C  C126  1  0.92915000  0.57802000  0.29138000  1.0
  C  C127  1  0.42917000  0.92196000  0.20862000  1.0
  C  C128  1  0.17632000  0.41371000  0.74433000  1.0
  C  C129  1  0.67631000  0.08629000  0.75568000  1.0
  C  C130  1  0.82369000  0.58628000  0.25567000  1.0
  C  C131  1  0.32369000  0.91371000  0.24433000  1.0
  C  C132  1  0.26373000  0.48319000  0.71372000  1.0
  C  C133  1  0.76374000  0.01682000  0.78630000  1.0
  C  C134  1  0.73627000  0.51680000  0.28629000  1.0
  C  C135  1  0.23628000  0.98319000  0.21371000  1.0
  C  C136  1  0.24927000  0.56430000  0.64693000  1.0
  C  C137  1  0.74926000  0.93570000  0.85308000  1.0
  C  C138  1  0.75074000  0.43569000  0.35308000  1.0
  C  C139  1  0.25073000  0.06429000  0.14693000  1.0
  C  C140  1  0.14349000  0.57364000  0.61068000  1.0
  C  C141  1  0.64347000  0.92636000  0.88933000  1.0
  C  C142  1  0.85653000  0.42634000  0.38934000  1.0
  C  C143  1  0.35652000  0.07364000  0.11067000  1.0
  C  C144  1  0.05671000  0.50268000  0.64109000  1.0
  C  C145  1  0.55670000  0.99732000  0.85892000  1.0
  C  C146  1  0.94329000  0.49732000  0.35892000  1.0
  C  C147  1  0.44330000  0.00268000  0.14108000  1.0
  C  C148  1  0.85808000  0.48121000  0.59482000  1.0
  C  C149  1  0.35807000  0.01878000  0.90517000  1.0
  C  C150  1  0.14193000  0.51879000  0.40518000  1.0
  C  C151  1  0.64194000  0.98121000  0.09482000  1.0
  C  C152  1  0.78050000  0.49719000  0.65734000  1.0
  C  C153  1  0.28050000  0.00282000  0.84265000  1.0
  C  C154  1  0.21950000  0.50282000  0.34267000  1.0
  C  C155  1  0.71951000  0.99717000  0.15735000  1.0
  C  C156  1  0.79246000  0.57738000  0.69025000  1.0
  C  C157  1  0.29246000  0.92263000  0.80975000  1.0
  C  C158  1  0.20753000  0.42263000  0.30976000  1.0
  C  C159  1  0.70753000  0.07738000  0.19024000  1.0
  C  C160  1  0.69156000  0.42882000  0.68163000  1.0
  C  C161  1  0.19157000  0.07117000  0.81836000  1.0
  C  C162  1  0.30844000  0.57117000  0.31837000  1.0
  C  C163  1  0.80845000  0.92883000  0.18164000  1.0
  N  N164  1  0.65100000  0.62822000  0.98349000  1.0
  N  N165  1  0.15100000  0.87179000  0.51651000  1.0
  N  N166  1  0.34898000  0.37178000  0.01652000  1.0
  N  N167  1  0.84900000  0.12821000  0.48349000  1.0
  N  N168  1  0.58670000  0.55016000  0.89802000  1.0
  N  N169  1  0.08670000  0.94985000  0.60197000  1.0
  N  N170  1  0.41329000  0.44986000  0.10198000  1.0
  N  N171  1  0.91330000  0.05015000  0.39802000  1.0
  N  N172  1  0.10376000  0.64378000  0.54292000  1.0
  N  N173  1  0.60375000  0.85622000  0.95709000  1.0
  N  N174  1  0.89624000  0.35621000  0.45710000  1.0
  N  N175  1  0.39627000  0.14378000  0.04290000  1.0
  N  N176  1  0.96630000  0.53208000  0.58977000  1.0
  N  N177  1  0.46630000  0.96792000  0.91023000  1.0
  N  N178  1  0.03369000  0.46793000  0.41023000  1.0
  N  N179  1  0.53370000  0.03207000  0.08976000  1.0
  Cl  Cl180  1  0.58269000  0.71741000  0.14004000  1.0
  Cl  Cl181  1  0.08269000  0.78259000  0.35997000  1.0
  Cl  Cl182  1  0.41733000  0.28259000  0.85998000  1.0
  Cl  Cl183  1  0.91731000  0.21741000  0.64004000  1.0
  Cl  Cl184  1  0.86247000  0.76481000  0.04243000  1.0
  Cl  Cl185  1  0.36248000  0.73518000  0.45759000  1.0
  Cl  Cl186  1  0.13754000  0.23519000  0.95758000  1.0
  Cl  Cl187  1  0.63754000  0.26479000  0.54242000  1.0
