# generated using pymatgen
data_Cd2H9C11N3O8
_symmetry_space_group_name_H-M   'P 1'
_cell_length_a   6.89121000
_cell_length_b   10.40770000
_cell_length_c   22.11740000
_cell_angle_alpha   89.99990000
_cell_angle_beta   90.00030000
_cell_angle_gamma   90.00000000
_symmetry_Int_Tables_number   1
_chemical_formula_structural   Cd2H9C11N3O8
_chemical_formula_sum   'Cd8 H36 C44 N12 O32'
_cell_volume   1586.29634023
_cell_formula_units_Z   4
loop_
 _symmetry_equiv_pos_site_id
 _symmetry_equiv_pos_as_xyz
  1  'x, y, z'
loop_
 _atom_site_type_symbol
 _atom_site_label
 _atom_site_symmetry_multiplicity
 _atom_site_fract_x
 _atom_site_fract_y
 _atom_site_fract_z
 _atom_site_occupancy
  Cd  Cd0  1  0.88852000  0.39894000  0.91513000  1.0
  Cd  Cd1  1  0.38853000  0.60106000  0.58487000  1.0
  Cd  Cd2  1  0.11147000  0.10106000  0.41513000  1.0
  Cd  Cd3  1  0.61148000  0.89894000  0.08487000  1.0
  Cd  Cd4  1  0.57633000  0.62729000  0.83213000  1.0
  Cd  Cd5  1  0.07632000  0.37271000  0.66788000  1.0
  Cd  Cd6  1  0.42367000  0.87271000  0.33212000  1.0
  Cd  Cd7  1  0.92367000  0.12729000  0.16788000  1.0
  H  H8  1  0.15142000  0.56000000  0.99694000  1.0
  H  H9  1  0.65143000  0.44001000  0.50306000  1.0
  H  H10  1  0.84857000  0.94001000  0.49694000  1.0
  H  H11  1  0.34857000  0.05999000  0.00306000  1.0
  H  H12  1  0.23327000  0.52694000  0.93315000  1.0
  H  H13  1  0.73327000  0.47307000  0.56685000  1.0
  H  H14  1  0.76672000  0.97307000  0.43315000  1.0
  H  H15  1  0.26672000  0.02693000  0.06685000  1.0
  H  H16  1  0.21161000  0.40211000  0.84652000  1.0
  H  H17  1  0.71161000  0.59789000  0.65348000  1.0
  H  H18  1  0.78839000  0.09789000  0.34652000  1.0
  H  H19  1  0.28838000  0.90211000  0.15348000  1.0
  H  H20  1  0.11077000  0.28159000  0.81639000  1.0
  H  H21  1  0.61076000  0.71841000  0.68361000  1.0
  H  H22  1  0.88923000  0.21841000  0.31639000  1.0
  H  H23  1  0.38923000  0.78159000  0.18361000  1.0
  H  H24  1  0.69131000  0.07689000  0.93853000  1.0
  H  H25  1  0.19130000  0.92311000  0.56147000  1.0
  H  H26  1  0.30869000  0.42311000  0.43853000  1.0
  H  H27  1  0.80869000  0.57689000  0.06148000  1.0
  H  H28  1  0.04703000  0.30701000  0.04868000  1.0
  H  H29  1  0.54703000  0.69299000  0.45132000  1.0
  H  H30  1  0.95297000  0.19300000  0.54868000  1.0
  H  H31  1  0.45297000  0.80701000  0.95132000  1.0
  H  H32  1  0.08915000  0.89582000  0.66440000  1.0
  H  H33  1  0.58916000  0.10419000  0.83561000  1.0
  H  H34  1  0.91086000  0.60419000  0.16440000  1.0
  H  H35  1  0.41084000  0.39582000  0.33560000  1.0
  H  H36  1  0.03516000  0.07871000  0.83788000  1.0
  H  H37  1  0.53517000  0.92128000  0.66212000  1.0
  H  H38  1  0.96483000  0.42128000  0.33788000  1.0
  H  H39  1  0.46484000  0.57871000  0.16212000  1.0
  H  H40  1  0.04224000  0.86566000  0.88756000  1.0
  H  H41  1  0.54225000  0.13434000  0.61244000  1.0
  H  H42  1  0.95775000  0.63434000  0.38756000  1.0
  H  H43  1  0.45776000  0.36566000  0.11244000  1.0
  C  C44  1  0.77369000  0.11351000  0.97674000  1.0
  C  C45  1  0.27369000  0.88649000  0.52326000  1.0
  C  C46  1  0.22631000  0.38649000  0.47674000  1.0
  C  C47  1  0.72631000  0.61351000  0.02326000  1.0
  C  C48  1  0.95587000  0.22970000  0.03203000  1.0
  C  C49  1  0.45587000  0.77030000  0.46797000  1.0
  C  C50  1  0.04412000  0.27030000  0.53203000  1.0
  C  C51  1  0.54412000  0.72970000  0.96797000  1.0
  C  C52  1  0.07429000  0.76013000  0.80402000  1.0
  C  C53  1  0.57429000  0.23987000  0.69598000  1.0
  C  C54  1  0.92572000  0.73987000  0.30402000  1.0
  C  C55  1  0.42571000  0.26013000  0.19598000  1.0
  C  C56  1  0.08775000  0.76903000  0.74071000  1.0
  C  C57  1  0.58775000  0.23097000  0.75929000  1.0
  C  C58  1  0.91225000  0.73097000  0.24071000  1.0
  C  C59  1  0.41226000  0.26903000  0.25929000  1.0
  C  C60  1  0.08052000  0.88956000  0.71334000  1.0
  C  C61  1  0.58053000  0.11044000  0.78666000  1.0
  C  C62  1  0.91948000  0.61044000  0.21334000  1.0
  C  C63  1  0.41948000  0.38956000  0.28665000  1.0
  C  C64  1  0.06266000  0.00153000  0.74753000  1.0
  C  C65  1  0.56267000  0.99846000  0.75247000  1.0
  C  C66  1  0.93734000  0.49847000  0.24753000  1.0
  C  C67  1  0.43734000  0.50153000  0.25247000  1.0
  C  C68  1  0.04985000  0.99219000  0.81061000  1.0
  C  C69  1  0.54986000  0.00780000  0.68940000  1.0
  C  C70  1  0.95014000  0.50781000  0.31061000  1.0
  C  C71  1  0.45015000  0.49219000  0.18939000  1.0
  C  C72  1  0.05447000  0.87234000  0.83848000  1.0
  C  C73  1  0.55447000  0.12766000  0.66152000  1.0
  C  C74  1  0.94553000  0.62766000  0.33848000  1.0
  C  C75  1  0.44553000  0.37234000  0.16152000  1.0
  C  C76  1  0.07849000  0.63413000  0.83717000  1.0
  C  C77  1  0.57849000  0.36587000  0.66283000  1.0
  C  C78  1  0.92151000  0.86587000  0.33717000  1.0
  C  C79  1  0.42150000  0.13413000  0.16283000  1.0
  C  C80  1  0.10744000  0.65203000  0.70192000  1.0
  C  C81  1  0.60744000  0.34797000  0.79808000  1.0
  C  C82  1  0.89257000  0.84797000  0.20192000  1.0
  C  C83  1  0.39256000  0.15203000  0.29808000  1.0
  C  C84  1  0.06083000  0.12774000  0.71561000  1.0
  C  C85  1  0.56084000  0.87226000  0.78439000  1.0
  C  C86  1  0.93916000  0.37226000  0.21561000  1.0
  C  C87  1  0.43916000  0.62774000  0.28439000  1.0
  N  N88  1  0.90427000  0.12907000  0.06537000  1.0
  N  N89  1  0.40427000  0.87093000  0.43463000  1.0
  N  N90  1  0.09573000  0.37093000  0.56537000  1.0
  N  N91  1  0.59573000  0.62907000  0.93463000  1.0
  N  N92  1  0.78696000  0.05386000  0.03006000  1.0
  N  N93  1  0.28696000  0.94614000  0.46994000  1.0
  N  N94  1  0.21304000  0.44614000  0.53006000  1.0
  N  N95  1  0.71303000  0.55386000  0.96994000  1.0
  N  N96  1  0.87772000  0.22426000  0.97600000  1.0
  N  N97  1  0.37772000  0.77574000  0.52400000  1.0
  N  N98  1  0.12227000  0.27574000  0.47600000  1.0
  N  N99  1  0.62228000  0.72426000  0.02400000  1.0
  O  O100  1  0.91650000  0.58558000  0.85243000  1.0
  O  O101  1  0.41650000  0.41441000  0.64757000  1.0
  O  O102  1  0.08350000  0.91442000  0.35243000  1.0
  O  O103  1  0.58350000  0.08558000  0.14757000  1.0
  O  O104  1  0.24088000  0.58678000  0.85417000  1.0
  O  O105  1  0.74088000  0.41322000  0.64583000  1.0
  O  O106  1  0.75912000  0.91322000  0.35416000  1.0
  O  O107  1  0.25912000  0.08678000  0.14583000  1.0
  O  O108  1  0.08237000  0.54401000  0.72815000  1.0
  O  O109  1  0.58238000  0.45599000  0.77184000  1.0
  O  O110  1  0.91764000  0.95600000  0.22816000  1.0
  O  O111  1  0.41763000  0.04401000  0.27184000  1.0
  O  O112  1  0.14260000  0.66723000  0.64592000  1.0
  O  O113  1  0.64259000  0.33278000  0.85408000  1.0
  O  O114  1  0.85741000  0.83278000  0.14592000  1.0
  O  O115  1  0.35740000  0.16722000  0.35408000  1.0
  O  O116  1  0.05602000  0.13197000  0.65858000  1.0
  O  O117  1  0.55604000  0.86803000  0.84143000  1.0
  O  O118  1  0.94397000  0.36804000  0.15857000  1.0
  O  O119  1  0.44398000  0.63197000  0.34142000  1.0
  O  O120  1  0.06627000  0.23211000  0.74754000  1.0
  O  O121  1  0.56627000  0.76789000  0.75246000  1.0
  O  O122  1  0.93372000  0.26789000  0.24754000  1.0
  O  O123  1  0.43373000  0.73211000  0.25246000  1.0
  O  O124  1  0.17720000  0.48779000  0.97014000  1.0
  O  O125  1  0.67721000  0.51222000  0.52987000  1.0
  O  O126  1  0.82279000  0.01222000  0.47013000  1.0
  O  O127  1  0.32279000  0.98778000  0.02987000  1.0
  O  O128  1  0.14390000  0.32158000  0.85638000  1.0
  O  O129  1  0.64390000  0.67842000  0.64362000  1.0
  O  O130  1  0.85610000  0.17842000  0.35638000  1.0
  O  O131  1  0.35610000  0.82158000  0.14361000  1.0
