# generated using pymatgen
data_Dy2H18(CO2)9
_symmetry_space_group_name_H-M   'P 1'
_cell_length_a   10.45030000
_cell_length_b   10.45110000
_cell_length_c   10.70755187
_cell_angle_alpha   101.28255850
_cell_angle_beta   117.93829795
_cell_angle_gamma   108.63000000
_symmetry_Int_Tables_number   1
_chemical_formula_structural   Dy2H18(CO2)9
_chemical_formula_sum   'Dy4 H36 C18 O36'
_cell_volume   891.84740651
_cell_formula_units_Z   2
loop_
 _symmetry_equiv_pos_site_id
 _symmetry_equiv_pos_as_xyz
  1  'x, y, z'
loop_
 _atom_site_type_symbol
 _atom_site_label
 _atom_site_symmetry_multiplicity
 _atom_site_fract_x
 _atom_site_fract_y
 _atom_site_fract_z
 _atom_site_occupancy
  Dy  Dy0  1  0.75552000  0.57086000  0.62043000  1.0
  Dy  Dy1  1  0.45044000  0.13510000  0.87958000  1.0
  Dy  Dy2  1  0.24448000  0.42914000  0.37957000  1.0
  Dy  Dy3  1  0.54956000  0.86490000  0.12042000  1.0
  H  H4  1  0.05002000  0.12798000  0.83354000  1.0
  H  H5  1  0.79454000  0.21657000  0.66652000  1.0
  H  H6  1  0.94998000  0.87203000  0.16646000  1.0
  H  H7  1  0.20546000  0.78343000  0.33348000  1.0
  H  H8  1  0.87735000  0.00989000  0.64032000  1.0
  H  H9  1  0.86961000  0.23709000  0.85973000  1.0
  H  H10  1  0.12266000  0.99011000  0.35968000  1.0
  H  H11  1  0.13039000  0.76291000  0.14027000  1.0
  H  H12  1  0.24786000  0.10533000  0.21289000  1.0
  H  H13  1  0.39245000  0.03499000  0.28716000  1.0
  H  H14  1  0.75215000  0.89467000  0.78712000  1.0
  H  H15  1  0.60755000  0.96501000  0.71284000  1.0
  H  H16  1  0.75041000  0.72382000  0.89331000  1.0
  H  H17  1  0.33051000  0.85712000  0.60665000  1.0
  H  H18  1  0.24959000  0.27618000  0.10669000  1.0
  H  H19  1  0.66949000  0.14288000  0.39335000  1.0
  H  H20  1  0.85236000  0.64213000  0.94935000  1.0
  H  H21  1  0.19278000  0.90301000  0.55061000  1.0
  H  H22  1  0.14764000  0.35787000  0.05065000  1.0
  H  H23  1  0.80722000  0.09699000  0.44939000  1.0
  H  H24  1  0.93616000  0.66054000  0.47814000  1.0
  H  H25  1  0.68239000  0.45798000  0.02179000  1.0
  H  H26  1  0.06384000  0.33946000  0.52186000  1.0
  H  H27  1  0.31760000  0.54201000  0.97821000  1.0
  H  H28  1  0.88045000  0.48883000  0.43406000  1.0
  H  H29  1  0.55483000  0.44640000  0.06596000  1.0
  H  H30  1  0.11955000  0.51116000  0.56594000  1.0
  H  H31  1  0.44516000  0.55359000  0.93404000  1.0
  H  H32  1  0.69483000  0.68453000  0.35870000  1.0
  H  H33  1  0.82581000  0.33609000  0.14124000  1.0
  H  H34  1  0.30517000  0.31547000  0.64130000  1.0
  H  H35  1  0.17420000  0.66392000  0.85877000  1.0
  H  H36  1  0.52920000  0.60529000  0.34210000  1.0
  H  H37  1  0.76318000  0.18708000  0.15789000  1.0
  H  H38  1  0.47081000  0.39472000  0.65791000  1.0
  H  H39  1  0.23682000  0.81292000  0.84211000  1.0
  C  C40  1  0.04665000  0.92798000  0.74111000  1.0
  C  C41  1  0.68689000  0.30558000  0.75891000  1.0
  C  C42  1  0.95335000  0.07202000  0.25889000  1.0
  C  C43  1  0.31311000  0.69442000  0.24109000  1.0
  C  C44  1  0.01061000  0.05444000  0.71906000  1.0
  C  C45  1  0.83543000  0.29159000  0.78100000  1.0
  C  C46  1  0.98939000  0.94556000  0.28094000  1.0
  C  C47  1  0.16456000  0.70840000  0.21899000  1.0
  C  C48  1  0.09650000  0.15173000  0.66526000  1.0
  C  C49  1  0.98651000  0.43129000  0.83480000  1.0
  C  C50  1  0.90350000  0.84827000  0.33474000  1.0
  C  C51  1  0.01349000  0.56870000  0.16519000  1.0
  C  C52  1  0.50038000  0.27435000  0.37788000  1.0
  C  C53  1  0.39651000  0.12250000  0.12217000  1.0
  C  C54  1  0.49962000  0.72564000  0.62212000  1.0
  C  C55  1  0.60349000  0.87750000  0.87783000  1.0
  C  C56  1  0.37100000  0.12100000  0.25002000  1.0
  C  C57  1  0.62900000  0.87900000  0.74998000  1.0
  O  O58  1  0.92917000  0.81324000  0.71215000  1.0
  O  O59  1  0.60106000  0.21702000  0.78784000  1.0
  O  O60  1  0.07082000  0.18676000  0.28784000  1.0
  O  O61  1  0.39893000  0.78298000  0.21216000  1.0
  O  O62  1  0.18952000  0.94248000  0.79079000  1.0
  O  O63  1  0.65170000  0.39875000  0.70924000  1.0
  O  O64  1  0.81048000  0.05752000  0.20921000  1.0
  O  O65  1  0.34830000  0.60125000  0.29076000  1.0
  O  O66  1  0.01307000  0.19532000  0.56991000  1.0
  O  O67  1  0.12545000  0.44323000  0.93020000  1.0
  O  O68  1  0.98694000  0.80468000  0.43009000  1.0
  O  O69  1  0.87454000  0.55676000  0.06980000  1.0
  O  O70  1  0.24678000  0.18935000  0.71781000  1.0
  O  O71  1  0.97159000  0.52902000  0.78227000  1.0
  O  O72  1  0.75322000  0.81065000  0.28219000  1.0
  O  O73  1  0.02841000  0.47098000  0.21773000  1.0
  O  O74  1  0.65167000  0.30832000  0.44458000  1.0
  O  O75  1  0.36382000  0.20712000  0.05549000  1.0
  O  O76  1  0.34833000  0.69168000  0.55542000  1.0
  O  O77  1  0.63618000  0.79288000  0.94451000  1.0
  O  O78  1  0.45809000  0.37026000  0.41102000  1.0
  O  O79  1  0.45926000  0.04706000  0.08901000  1.0
  O  O80  1  0.54191000  0.62973000  0.58898000  1.0
  O  O81  1  0.54075000  0.95294000  0.91099000  1.0
  O  O82  1  0.83038000  0.69902000  0.88371000  1.0
  O  O83  1  0.31530000  0.94668000  0.61628000  1.0
  O  O84  1  0.16963000  0.30098000  0.11630000  1.0
  O  O85  1  0.68470000  0.05332000  0.38372000  1.0
  O  O86  1  0.91973000  0.58102000  0.51682000  1.0
  O  O87  1  0.56421000  0.40290000  0.98317000  1.0
  O  O88  1  0.08027000  0.41898000  0.48318000  1.0
  O  O89  1  0.43579000  0.59709000  0.01683000  1.0
  O  O90  1  0.63848000  0.60858000  0.38401000  1.0
  O  O91  1  0.72454000  0.25443000  0.11596000  1.0
  O  O92  1  0.36152000  0.39142000  0.61599000  1.0
  O  O93  1  0.27546000  0.74557000  0.88404000  1.0
