# generated using pymatgen
data_ZnH11C14N7O6
_symmetry_space_group_name_H-M   'P 1'
_cell_length_a   9.27926000
_cell_length_b   9.75304000
_cell_length_c   11.14990000
_cell_angle_alpha   87.28490000
_cell_angle_beta   83.69860000
_cell_angle_gamma   65.72670000
_symmetry_Int_Tables_number   1
_chemical_formula_structural   ZnH11C14N7O6
_chemical_formula_sum   'Zn2 H22 C28 N14 O12'
_cell_volume   914.30910503
_cell_formula_units_Z   2
loop_
 _symmetry_equiv_pos_site_id
 _symmetry_equiv_pos_as_xyz
  1  'x, y, z'
loop_
 _atom_site_type_symbol
 _atom_site_label
 _atom_site_symmetry_multiplicity
 _atom_site_fract_x
 _atom_site_fract_y
 _atom_site_fract_z
 _atom_site_occupancy
  Zn  Zn0  1  0.62037000  0.99883000  0.30870000  1.0
  Zn  Zn1  1  0.37963000  0.00119000  0.69130000  1.0
  H  H2  1  0.90319000  0.21648000  0.85002000  1.0
  H  H3  1  0.09683000  0.78350000  0.14997000  1.0
  H  H4  1  0.82049000  0.34809000  0.97091000  1.0
  H  H5  1  0.17954000  0.65190000  0.02908000  1.0
  H  H6  1  0.54435000  0.40072000  0.91632000  1.0
  H  H7  1  0.45567000  0.59928000  0.08369000  1.0
  H  H8  1  0.66123000  0.44397000  0.79619000  1.0
  H  H9  1  0.33879000  0.55601000  0.20380000  1.0
  H  H10  1  0.82802000  0.81732000  0.05120000  1.0
  H  H11  1  0.17198000  0.18267000  0.94881000  1.0
  H  H12  1  0.65287000  0.27089000  0.15464000  1.0
  H  H13  1  0.34715000  0.72911000  0.84535000  1.0
  H  H14  1  0.72400000  0.00857000  0.56873000  1.0
  H  H15  1  0.27600000  0.99142000  0.43126000  1.0
  H  H16  1  0.39802000  0.25358000  0.85573000  1.0
  H  H17  1  0.60199000  0.74643000  0.14427000  1.0
  H  H18  1  0.11398000  0.49148000  0.26999000  1.0
  H  H19  1  0.88598000  0.50853000  0.73002000  1.0
  H  H20  1  0.96901000  0.78338000  0.57909000  1.0
  H  H21  1  0.03098000  0.21664000  0.42092000  1.0
  H  H22  1  0.40916000  0.38496000  0.56218000  1.0
  H  H23  1  0.59083000  0.61504000  0.43782000  1.0
  C  C24  1  0.79950000  0.26918000  0.91558000  1.0
  C  C25  1  0.20052000  0.73079000  0.08441000  1.0
  C  C26  1  0.65000000  0.35221000  0.85143000  1.0
  C  C27  1  0.35000000  0.64777000  0.14856000  1.0
  C  C28  1  0.79848000  0.93700000  0.04844000  1.0
  C  C29  1  0.20153000  0.06300000  0.95156000  1.0
  C  C30  1  0.70938000  0.16602000  0.10501000  1.0
  C  C31  1  0.29063000  0.83398000  0.89497000  1.0
  C  C32  1  0.66859000  0.08528000  0.64435000  1.0
  C  C33  1  0.33140000  0.91471000  0.35565000  1.0
  C  C34  1  0.50130000  0.20665000  0.79062000  1.0
  C  C35  1  0.49869000  0.79336000  0.20938000  1.0
  C  C36  1  0.27542000  0.42495000  0.40765000  1.0
  C  C37  1  0.72456000  0.57505000  0.59235000  1.0
  C  C38  1  0.13661000  0.51999000  0.35725000  1.0
  C  C39  1  0.86337000  0.48001000  0.64275000  1.0
  C  C40  1  0.02713000  0.65042000  0.41618000  1.0
  C  C41  1  0.97286000  0.34959000  0.58382000  1.0
  C  C42  1  0.05304000  0.68389000  0.53008000  1.0
  C  C43  1  0.94695000  0.31612000  0.46993000  1.0
  C  C44  1  0.18981000  0.58608000  0.58037000  1.0
  C  C45  1  0.81016000  0.41393000  0.41964000  1.0
  C  C46  1  0.30329000  0.45840000  0.52076000  1.0
  C  C47  1  0.69669000  0.54160000  0.47924000  1.0
  C  C48  1  0.39105000  0.28892000  0.33727000  1.0
  C  C49  1  0.60894000  0.71109000  0.66272000  1.0
  C  C50  1  0.88392000  0.75121000  0.35482000  1.0
  C  C51  1  0.11607000  0.24880000  0.64518000  1.0
  N  N52  1  0.78422000  0.15121000  0.99347000  1.0
  N  N53  1  0.21580000  0.84878000  0.00652000  1.0
  N  N54  1  0.84062000  0.00598000  0.95485000  1.0
  N  N55  1  0.15940000  0.99400000  0.04515000  1.0
  N  N56  1  0.71701000  0.03159000  0.14314000  1.0
  N  N57  1  0.28298000  0.96842000  0.85685000  1.0
  N  N58  1  0.62210000  0.24936000  0.77677000  1.0
  N  N59  1  0.37791000  0.75063000  0.22323000  1.0
  N  N60  1  0.73020000  0.17332000  0.68411000  1.0
  N  N61  1  0.26981000  0.82667000  0.31589000  1.0
  N  N62  1  0.52695000  0.10257000  0.70774000  1.0
  N  N63  1  0.47304000  0.89744000  0.29226000  1.0
  N  N64  1  0.21213000  0.61571000  0.70258000  1.0
  N  N65  1  0.78788000  0.38428000  0.29743000  1.0
  O  O66  1  0.50006000  0.18954000  0.39735000  1.0
  O  O67  1  0.49992000  0.81046000  0.60265000  1.0
  O  O68  1  0.37619000  0.28000000  0.22817000  1.0
  O  O69  1  0.62381000  0.72003000  0.77182000  1.0
  O  O70  1  0.79496000  0.87769000  0.40838000  1.0
  O  O71  1  0.20504000  0.12233000  0.59163000  1.0
  O  O72  1  0.85876000  0.71064000  0.25704000  1.0
  O  O73  1  0.14123000  0.28939000  0.74296000  1.0
  O  O74  1  0.09676000  0.70608000  0.76586000  1.0
  O  O75  1  0.90326000  0.29393000  0.23414000  1.0
  O  O76  1  0.34681000  0.54690000  0.73825000  1.0
  O  O77  1  0.65320000  0.45308000  0.26175000  1.0
