# generated using pymatgen
data_ZnH8C15S2NO4
_symmetry_space_group_name_H-M   'P 1'
_cell_length_a   13.87200000
_cell_length_b   14.10200000
_cell_length_c   14.18070000
_cell_angle_alpha   86.93690000
_cell_angle_beta   70.86110000
_cell_angle_gamma   70.52850000
_symmetry_Int_Tables_number   1
_chemical_formula_structural   ZnH8C15S2NO4
_chemical_formula_sum   'Zn4 H32 C60 S8 N4 O16'
_cell_volume   2465.98845437
_cell_formula_units_Z   4
loop_
 _symmetry_equiv_pos_site_id
 _symmetry_equiv_pos_as_xyz
  1  'x, y, z'
loop_
 _atom_site_type_symbol
 _atom_site_label
 _atom_site_symmetry_multiplicity
 _atom_site_fract_x
 _atom_site_fract_y
 _atom_site_fract_z
 _atom_site_occupancy
  Zn  Zn0  1  0.86271000  0.13586000  0.82596000  1.0
  Zn  Zn1  1  0.63738000  0.17389000  0.86396000  1.0
  Zn  Zn2  1  0.13729000  0.86414000  0.17404000  1.0
  Zn  Zn3  1  0.36262000  0.82611000  0.13604000  1.0
  H  H4  1  0.54733000  0.70449000  0.90857000  1.0
  H  H5  1  0.95262000  0.09156000  0.29775000  1.0
  H  H6  1  0.45267000  0.29552000  0.09143000  1.0
  H  H7  1  0.04738000  0.90844000  0.70225000  1.0
  H  H8  1  0.50970000  0.53304000  0.91028000  1.0
  H  H9  1  0.98941000  0.08993000  0.46870000  1.0
  H  H10  1  0.49030000  0.46697000  0.08972000  1.0
  H  H11  1  0.01059000  0.91007000  0.53130000  1.0
  H  H12  1  0.98285000  0.77308000  0.81955000  1.0
  H  H13  1  0.51834000  0.18013000  0.22517000  1.0
  H  H14  1  0.01715000  0.22692000  0.18045000  1.0
  H  H15  1  0.48166000  0.81986000  0.77483000  1.0
  H  H16  1  0.94139000  0.60205000  0.82808000  1.0
  H  H17  1  0.55889000  0.17187000  0.39563000  1.0
  H  H18  1  0.05861000  0.39795000  0.17192000  1.0
  H  H19  1  0.44111000  0.82813000  0.60437000  1.0
  H  H20  1  0.21658000  0.21320000  0.69750000  1.0
  H  H21  1  0.28275000  0.30328000  0.78636000  1.0
  H  H22  1  0.78342000  0.78680000  0.30250000  1.0
  H  H23  1  0.71725000  0.69671000  0.21364000  1.0
  H  H24  1  0.04403000  0.19718000  0.69071000  1.0
  H  H25  1  0.45532000  0.30992000  0.80225000  1.0
  H  H26  1  0.95597000  0.80282000  0.30929000  1.0
  H  H27  1  0.54468000  0.69008000  0.19775000  1.0
  H  H28  1  0.98377000  0.07523000  0.96671000  1.0
  H  H29  1  0.51672000  0.03278000  0.92526000  1.0
  H  H30  1  0.01623000  0.92477000  0.03329000  1.0
  H  H31  1  0.48328000  0.96722000  0.07473000  1.0
  H  H32  1  0.15370000  0.08236000  0.98554000  1.0
  H  H33  1  0.34701000  0.01387000  0.91810000  1.0
  H  H34  1  0.84630000  0.91764000  0.01446000  1.0
  H  H35  1  0.65299000  0.98613000  0.08190000  1.0
  C  C36  1  0.80075000  0.95855000  0.84014000  1.0
  C  C37  1  0.70006000  0.15985000  0.04161000  1.0
  C  C38  1  0.19924000  0.04145000  0.15986000  1.0
  C  C39  1  0.29993000  0.84015000  0.95839000  1.0
  C  C40  1  0.69875000  0.34891000  0.85245000  1.0
  C  C41  1  0.80030000  0.14762000  0.65095000  1.0
  C  C42  1  0.30123000  0.65110000  0.14755000  1.0
  C  C43  1  0.19970000  0.85238000  0.34905000  1.0
  C  C44  1  0.68385000  0.45682000  0.85784000  1.0
  C  C45  1  0.81520000  0.14238000  0.54341000  1.0
  C  C46  1  0.31615000  0.54318000  0.14216000  1.0
  C  C47  1  0.18480000  0.85762000  0.45659000  1.0
  C  C48  1  0.72118000  0.61711000  0.85445000  1.0
  C  C49  1  0.77860000  0.14573000  0.38307000  1.0
  C  C50  1  0.27882000  0.38289000  0.14555000  1.0
  C  C51  1  0.22140000  0.85427000  0.61693000  1.0
  C  C52  1  0.81347000  0.85124000  0.83708000  1.0
  C  C53  1  0.68748000  0.16289000  0.14852000  1.0
  C  C54  1  0.18653000  0.14876000  0.16292000  1.0
  C  C55  1  0.31253000  0.83711000  0.85147000  1.0
  C  C56  1  0.61071000  0.63118000  0.88542000  1.0
  C  C57  1  0.88893000  0.11479000  0.37018000  1.0
  C  C58  1  0.38929000  0.36882000  0.11458000  1.0
  C  C59  1  0.11107000  0.88521000  0.62982000  1.0
  C  C60  1  0.58995000  0.53974000  0.88709000  1.0
  C  C61  1  0.90921000  0.11317000  0.46150000  1.0
  C  C62  1  0.41004000  0.46027000  0.11291000  1.0
  C  C63  1  0.09079000  0.88683000  0.53850000  1.0
  C  C64  1  0.77351000  0.69145000  0.84498000  1.0
  C  C65  1  0.72672000  0.15511000  0.30841000  1.0
  C  C66  1  0.22649000  0.30855000  0.15503000  1.0
  C  C67  1  0.27328000  0.84489000  0.69159000  1.0
  C  C68  1  0.90410000  0.76731000  0.82819000  1.0
  C  C69  1  0.59691000  0.17165000  0.23143000  1.0
  C  C70  1  0.09590000  0.23269000  0.17181000  1.0
  C  C71  1  0.40309000  0.82835000  0.76857000  1.0
  C  C72  1  0.88171000  0.67654000  0.83248000  1.0
  C  C73  1  0.61882000  0.16747000  0.32207000  1.0
  C  C74  1  0.11829000  0.32346000  0.16752000  1.0
  C  C75  1  0.38119000  0.83253000  0.67792000  1.0
  C  C76  1  0.16730000  0.18232000  0.75913000  1.0
  C  C77  1  0.33222000  0.24133000  0.81751000  1.0
  C  C78  1  0.83270000  0.81768000  0.24088000  1.0
  C  C79  1  0.66778000  0.75867000  0.18249000  1.0
  C  C80  1  0.07233000  0.17332000  0.75426000  1.0
  C  C81  1  0.42726000  0.24617000  0.82644000  1.0
  C  C82  1  0.92767000  0.82668000  0.24574000  1.0
  C  C83  1  0.57274000  0.75383000  0.17356000  1.0
  C  C84  1  0.03947000  0.10327000  0.90847000  1.0
  C  C85  1  0.46079000  0.09134000  0.89702000  1.0
  C  C86  1  0.96053000  0.89673000  0.09153000  1.0
  C  C87  1  0.53921000  0.90866000  0.10298000  1.0
  C  C88  1  0.13394000  0.10833000  0.91830000  1.0
  C  C89  1  0.36633000  0.08149000  0.89200000  1.0
  C  C90  1  0.86606000  0.89167000  0.08170000  1.0
  C  C91  1  0.63367000  0.91851000  0.10800000  1.0
  C  C92  1  0.19978000  0.14934000  0.84262000  1.0
  C  C93  1  0.30009000  0.15754000  0.85076000  1.0
  C  C94  1  0.80022000  0.85066000  0.15739000  1.0
  C  C95  1  0.69991000  0.84246000  0.14924000  1.0
  S  S96  1  0.70110000  0.81815000  0.84940000  1.0
  S  S97  1  0.79931000  0.15075000  0.18279000  1.0
  S  S98  1  0.29890000  0.18185000  0.15060000  1.0
  S  S99  1  0.20069000  0.84925000  0.81721000  1.0
  S  S100  1  0.79800000  0.49105000  0.82745000  1.0
  S  S101  1  0.70143000  0.17274000  0.50810000  1.0
  S  S102  1  0.20200000  0.50895000  0.17255000  1.0
  S  S103  1  0.29857000  0.82727000  0.49190000  1.0
  N  N104  1  0.00930000  0.13487000  0.82806000  1.0
  N  N105  1  0.49064000  0.17205000  0.86516000  1.0
  N  N106  1  0.99070000  0.86513000  0.17194000  1.0
  N  N107  1  0.50936000  0.82795000  0.13484000  1.0
  O  O108  1  0.88305000  0.98312000  0.83453000  1.0
  O  O109  1  0.61773000  0.16526000  0.01706000  1.0
  O  O110  1  0.11695000  0.01688000  0.16548000  1.0
  O  O111  1  0.38227000  0.83474000  0.98294000  1.0
  O  O112  1  0.61421000  0.32315000  0.87739000  1.0
  O  O113  1  0.88504000  0.12258000  0.67676000  1.0
  O  O114  1  0.38578000  0.67686000  0.12261000  1.0
  O  O115  1  0.11496000  0.87742000  0.32324000  1.0
  O  O116  1  0.70559000  0.01933000  0.85012000  1.0
  O  O117  1  0.79484000  0.15009000  0.98123000  1.0
  O  O118  1  0.29442000  0.98066000  0.14988000  1.0
  O  O119  1  0.20517000  0.84991000  0.01877000  1.0
  O  O120  1  0.79690000  0.28970000  0.82380000  1.0
  O  O121  1  0.70232000  0.17613000  0.70968000  1.0
  O  O122  1  0.20309000  0.71030000  0.17620000  1.0
  O  O123  1  0.29768000  0.82387000  0.29032000  1.0
