# generated using pymatgen
data_MnH19C23(NO)5
_symmetry_space_group_name_H-M   'P 1'
_cell_length_a   7.43850000
_cell_length_b   7.63079000
_cell_length_c   10.58850000
_cell_angle_alpha   82.18180000
_cell_angle_beta   74.55140000
_cell_angle_gamma   62.99050000
_symmetry_Int_Tables_number   1
_chemical_formula_structural   MnH19C23(NO)5
_chemical_formula_sum   'Mn1 H19 C23 N5 O5'
_cell_volume   516.04203435
_cell_formula_units_Z   1
loop_
 _symmetry_equiv_pos_site_id
 _symmetry_equiv_pos_as_xyz
  1  'x, y, z'
loop_
 _atom_site_type_symbol
 _atom_site_label
 _atom_site_symmetry_multiplicity
 _atom_site_fract_x
 _atom_site_fract_y
 _atom_site_fract_z
 _atom_site_occupancy
  Mn  Mn0  1  0.04382000  0.49558000  0.45947000  1.0
  H  H1  1  0.50480000  0.46702000  0.46466000  1.0
  H  H2  1  0.13352000  0.09287000  0.50292000  1.0
  H  H3  1  0.46853000  0.95006000  0.50329000  1.0
  H  H4  1  0.50420000  0.14091000  0.39730000  1.0
  H  H5  1  0.47400000  0.95310000  0.33333333  1.0
  H  H6  1  0.22212000  0.24894000  0.06100000  1.0
  H  H7  1  0.12581000  0.07342000  0.26474000  1.0
  H  H8  1  0.84869000  0.96710000  0.29047000  1.0
  H  H9  1  0.65151000  0.04963000  0.11560000  1.0
  H  H10  1  0.60608000  0.19561000  0.89302000  1.0
  H  H11  1  0.80434000  0.67420000  0.10178000  1.0
  H  H12  1  0.76358000  0.81118000  0.87748000  1.0
  H  H13  1  0.56721000  0.90194000  0.70414000  1.0
  H  H14  1  0.24504000  0.85363000  0.74387000  1.0
  H  H15  1  0.12737000  0.70633000  0.95186000  1.0
  H  H16  1  0.16349000  0.58073000  0.17784000  1.0
  H  H17  1  0.35556000  0.50815000  0.65806000  1.0
  H  H18  1  0.40985000  0.34946000  0.79264000  1.0
  H  H19  1  0.48878000  0.25138000  0.63388000  1.0
  C  C20  1  0.42498000  0.04592000  0.41856000  1.0
  C  C21  1  0.95903000  0.38022000  0.75886000  1.0
  C  C22  1  0.99283000  0.24219000  0.97559000  1.0
  C  C23  1  0.09999000  0.20221000  0.07351000  1.0
  C  C24  1  0.04490000  0.10416000  0.18647000  1.0
  C  C25  1  0.88477000  0.04742000  0.20180000  1.0
  C  C26  1  0.77732000  0.09103000  0.10443000  1.0
  C  C27  1  0.83003000  0.18986000  0.98820000  1.0
  C  C28  1  0.72987000  0.23916000  0.88305000  1.0
  C  C29  1  0.78651000  0.33312000  0.76945000  1.0
  C  C30  1  0.67560000  0.38240000  0.66441000  1.0
  C  C31  1  0.72082000  0.53255000  0.33304000  1.0
  C  C32  1  0.59409000  0.58128000  0.23708000  1.0
  C  C33  1  0.66269000  0.65636000  0.11674000  1.0
  C  C34  1  0.55566000  0.70969000  0.01607000  1.0
  C  C35  1  0.62228000  0.79170000  0.89432000  1.0
  C  C36  1  0.51256000  0.84295000  0.79815000  1.0
  C  C37  1  0.33219000  0.81235000  0.82001000  1.0
  C  C38  1  0.26596000  0.72995000  0.93629000  1.0
  C  C39  1  0.37340000  0.67716000  0.03868000  1.0
  C  C40  1  0.30482000  0.59990000  0.16050000  1.0
  C  C41  1  0.40550000  0.55576000  0.26315000  1.0
  C  C42  1  0.47352000  0.37091000  0.68971000  1.0
  N  N43  1  0.75499000  0.43418000  0.54797000  1.0
  N  N44  1  0.64532000  0.47542000  0.45470000  1.0
  N  N45  1  0.89098000  0.80462000  0.49451000  1.0
  N  N46  1  0.96565000  0.87679000  0.54522000  1.0
  N  N47  1  0.03736000  0.94939000  0.59689000  1.0
  O  O48  1  0.03783000  0.45860000  0.66529000  1.0
  O  O49  1  0.05011000  0.33582000  0.86376000  1.0
  O  O50  1  0.89091000  0.54466000  0.30571000  1.0
  O  O51  1  0.33435000  0.49256000  0.37981000  1.0
  O  O52  1  0.20570000  0.16997000  0.44473000  1.0
