# generated using pymatgen
data_NaH15C13(NO3)2
_symmetry_space_group_name_H-M   'P 1'
_cell_length_a   4.61809000
_cell_length_b   9.81504072
_cell_length_c   15.98254328
_cell_angle_alpha   87.10417205
_cell_angle_beta   88.40362391
_cell_angle_gamma   80.31327095
_symmetry_Int_Tables_number   1
_chemical_formula_structural   NaH15C13(NO3)2
_chemical_formula_sum   'Na2 H30 C26 N4 O12'
_cell_volume   713.05815500
_cell_formula_units_Z   2
loop_
 _symmetry_equiv_pos_site_id
 _symmetry_equiv_pos_as_xyz
  1  'x, y, z'
loop_
 _atom_site_type_symbol
 _atom_site_label
 _atom_site_symmetry_multiplicity
 _atom_site_fract_x
 _atom_site_fract_y
 _atom_site_fract_z
 _atom_site_occupancy
  Na  Na0  1  0.00000000  0.00000000  0.00000000  1.0
  Na  Na1  1  0.50000000  0.50000000  0.00000000  1.0
  H  H2  1  0.62088000  0.63967000  0.38239000  1.0
  H  H3  1  0.37916000  0.36033000  0.61761000  1.0
  H  H4  1  0.81378000  0.71095000  0.24131000  1.0
  H  H5  1  0.18624000  0.28906000  0.75869000  1.0
  H  H6  1  0.32317000  0.59642000  0.80473000  1.0
  H  H7  1  0.67682000  0.40358000  0.19526000  1.0
  H  H8  1  0.03155000  0.50202000  0.88651000  1.0
  H  H9  1  0.96844000  0.49798000  0.11349000  1.0
  H  H10  1  0.97826000  0.64902000  0.92212000  1.0
  H  H11  1  0.02173000  0.35098000  0.07788000  1.0
  H  H12  1  0.10128000  0.05255000  0.22364000  1.0
  H  H13  1  0.89874000  0.94745000  0.77637000  1.0
  H  H14  1  0.71790000  0.76105000  0.02682000  1.0
  H  H15  1  0.28209000  0.23895000  0.97318000  1.0
  H  H16  1  0.60341000  0.80983000  0.93902000  1.0
  H  H17  1  0.39657000  0.19018000  0.06098000  1.0
  H  H18  1  0.91100000  0.98142000  0.36570000  1.0
  H  H19  1  0.08902000  0.01858000  0.63431000  1.0
  H  H20  1  0.92630000  0.28881000  0.87363000  1.0
  H  H21  1  0.07368000  0.71120000  0.12637000  1.0
  H  H22  1  0.69780000  0.41570000  0.83176000  1.0
  H  H23  1  0.30218000  0.58430000  0.16824000  1.0
  H  H24  1  0.47150000  0.91751000  0.57846000  1.0
  H  H25  1  0.52851000  0.08249000  0.42154000  1.0
  H  H26  1  0.25998000  0.80568000  0.70597000  1.0
  H  H27  1  0.74003000  0.19432000  0.29403000  1.0
  H  H28  1  0.92940000  0.44679000  0.68179000  1.0
  H  H29  1  0.07057000  0.55320000  0.31820000  1.0
  H  H30  1  0.14469000  0.56178000  0.55655000  1.0
  H  H31  1  0.85530000  0.43821000  0.44344000  1.0
  C  C32  1  0.25570000  0.80628000  0.38177000  1.0
  C  C33  1  0.74432000  0.19371000  0.61824000  1.0
  C  C34  1  0.51263000  0.73081000  0.34696000  1.0
  C  C35  1  0.48740000  0.26919000  0.65304000  1.0
  C  C36  1  0.61740000  0.77043000  0.26885000  1.0
  C  C37  1  0.38262000  0.22957000  0.73115000  1.0
  C  C38  1  0.46768000  0.88592000  0.22364000  1.0
  C  C39  1  0.53233000  0.11409000  0.77636000  1.0
  C  C40  1  0.21419000  0.96288000  0.25955000  1.0
  C  C41  1  0.78583000  0.03712000  0.74046000  1.0
  C  C42  1  0.10887000  0.92436000  0.33766000  1.0
  C  C43  1  0.89113000  0.07565000  0.66235000  1.0
  C  C44  1  0.56889000  0.92633000  0.13790000  1.0
  C  C45  1  0.43112000  0.07367000  0.86210000  1.0
  C  C46  1  0.82126000  0.74689000  0.56090000  1.0
  C  C47  1  0.17874000  0.25311000  0.43910000  1.0
  C  C48  1  0.57173000  0.81525000  0.60302000  1.0
  C  C49  1  0.42826000  0.18475000  0.39699000  1.0
  C  C50  1  0.45521000  0.75335000  0.67365000  1.0
  C  C51  1  0.54479000  0.24664000  0.32635000  1.0
  C  C52  1  0.58625000  0.62001000  0.70178000  1.0
  C  C53  1  0.41374000  0.37998000  0.29822000  1.0
  C  C54  1  0.83530000  0.55084000  0.65936000  1.0
  C  C55  1  0.16468000  0.44915000  0.34064000  1.0
  C  C56  1  0.95231000  0.61337000  0.59026000  1.0
  C  C57  1  0.04767000  0.38663000  0.40973000  1.0
  N  N58  1  0.15789000  0.74908000  0.45754000  1.0
  N  N59  1  0.84211000  0.25092000  0.54247000  1.0
  N  N60  1  0.92247000  0.81487000  0.48939000  1.0
  N  N61  1  0.07756000  0.18512000  0.51061000  1.0
  O  O62  1  0.81163000  0.86036000  0.10754000  1.0
  O  O63  1  0.18838000  0.13964000  0.89246000  1.0
  O  O64  1  0.40937000  0.02400000  0.09681000  1.0
  O  O65  1  0.59061000  0.97601000  0.90320000  1.0
  O  O66  1  0.48359000  0.54793000  0.76747000  1.0
  O  O67  1  0.51639000  0.45206000  0.23252000  1.0
  O  O68  1  0.13609000  0.58176000  0.89519000  1.0
  O  O69  1  0.86390000  0.41824000  0.10481000  1.0
  O  O70  1  0.66888000  0.72332000  0.97343000  1.0
  O  O71  1  0.33111000  0.27668000  0.02657000  1.0
  O  O72  1  0.80954000  0.38185000  0.88262000  1.0
  O  O73  1  0.19045000  0.61815000  0.11737000  1.0
