# generated using pymatgen
data_CuPH4C5NO3
_symmetry_space_group_name_H-M   'P 1'
_cell_length_a   7.44294000
_cell_length_b   9.13155000
_cell_length_c   11.57380000
_cell_angle_alpha   100.35200000
_cell_angle_beta   104.38500000
_cell_angle_gamma   92.87030000
_symmetry_Int_Tables_number   1
_chemical_formula_structural   CuPH4C5NO3
_chemical_formula_sum   'Cu4 P4 H16 C20 N4 O12'
_cell_volume   745.84294798
_cell_formula_units_Z   4
loop_
 _symmetry_equiv_pos_site_id
 _symmetry_equiv_pos_as_xyz
  1  'x, y, z'
loop_
 _atom_site_type_symbol
 _atom_site_label
 _atom_site_symmetry_multiplicity
 _atom_site_fract_x
 _atom_site_fract_y
 _atom_site_fract_z
 _atom_site_occupancy
  Cu  Cu0  1  0.15969000  0.12333000  0.51319000  1.0
  Cu  Cu1  1  0.84031000  0.87667000  0.48681000  1.0
  Cu  Cu2  1  0.64447000  0.06958000  0.71961000  1.0
  Cu  Cu3  1  0.35553000  0.93042000  0.28039000  1.0
  P  P4  1  0.35564000  0.83511000  0.52443000  1.0
  P  P5  1  0.64436000  0.16489000  0.47557000  1.0
  P  P6  1  0.03182000  0.08291000  0.73866000  1.0
  P  P7  1  0.96818000  0.91709000  0.26133000  1.0
  H  H8  1  0.32744000  0.56029000  0.33782000  1.0
  H  H9  1  0.67255000  0.43971000  0.66217000  1.0
  H  H10  1  0.24604000  0.28951000  0.34265000  1.0
  H  H11  1  0.75396000  0.71049000  0.65735000  1.0
  H  H12  1  0.15080000  0.40153000  0.68248000  1.0
  H  H13  1  0.84920000  0.59847000  0.31752000  1.0
  H  H14  1  0.22764000  0.67715000  0.69283000  1.0
  H  H15  1  0.77236000  0.32286000  0.30717000  1.0
  H  H16  1  0.05481000  0.80332000  0.83044000  1.0
  H  H17  1  0.94519000  0.19668000  0.16956000  1.0
  H  H18  1  0.18982000  0.75289000  0.03935000  1.0
  H  H19  1  0.81018000  0.24711000  0.96065000  1.0
  H  H20  1  0.42236000  0.18977000  0.17049000  1.0
  H  H21  1  0.57764000  0.81023000  0.82951000  1.0
  H  H22  1  0.28986000  0.26125000  0.96803000  1.0
  H  H23  1  0.71014000  0.73875000  0.03197000  1.0
  C  C24  1  0.28608000  0.63923000  0.51598000  1.0
  C  C25  1  0.71392000  0.36077000  0.48402000  1.0
  C  C26  1  0.28766000  0.52937000  0.41535000  1.0
  C  C27  1  0.71234000  0.47063000  0.58465000  1.0
  C  C28  1  0.24251000  0.38030000  0.41693000  1.0
  C  C29  1  0.75748000  0.61970000  0.58307000  1.0
  C  C30  1  0.19032000  0.44347000  0.60899000  1.0
  C  C31  1  0.80968000  0.55654000  0.39101000  1.0
  C  C32  1  0.23382000  0.59440000  0.61362000  1.0
  C  C33  1  0.76618000  0.40560000  0.38638000  1.0
  C  C34  1  0.15718000  0.03759000  0.88290000  1.0
  C  C35  1  0.84282000  0.96241000  0.11710000  1.0
  C  C36  1  0.13680000  0.89183000  0.90322000  1.0
  C  C37  1  0.86320000  0.10817000  0.09678000  1.0
  C  C38  1  0.21299000  0.86255000  0.01807000  1.0
  C  C39  1  0.78702000  0.13745000  0.98193000  1.0
  C  C40  1  0.34028000  0.10893000  0.09158000  1.0
  C  C41  1  0.65972000  0.89107000  0.90842000  1.0
  C  C42  1  0.26644000  0.14647000  0.97933000  1.0
  C  C43  1  0.73356000  0.85353000  0.02066000  1.0
  N  N44  1  0.19691000  0.33834000  0.51253000  1.0
  N  N45  1  0.80309000  0.66166000  0.48747000  1.0
  N  N46  1  0.30985000  0.96991000  0.11172000  1.0
  N  N47  1  0.69015000  0.03009000  0.88828000  1.0
  O  O48  1  0.17310000  0.90957000  0.50840000  1.0
  O  O49  1  0.82690000  0.09043000  0.49160000  1.0
  O  O50  1  0.48715000  0.88114000  0.65319000  1.0
  O  O51  1  0.51285000  0.11886000  0.34681000  1.0
  O  O52  1  0.45401000  0.84359000  0.42277000  1.0
  O  O53  1  0.54599000  0.15641000  0.57723000  1.0
  O  O54  1  0.18296000  0.15502000  0.69155000  1.0
  O  O55  1  0.81704000  0.84498000  0.30845000  1.0
  O  O56  1  0.92863000  0.92942000  0.66735000  1.0
  O  O57  1  0.07137000  0.07058000  0.33265000  1.0
  O  O58  1  0.89102000  0.19424000  0.76841000  1.0
  O  O59  1  0.10898000  0.80575000  0.23158000  1.0
