# generated using pymatgen
data_ZnH14Pd(C5N4)2
_symmetry_space_group_name_H-M   'P 1'
_cell_length_a   8.52971000
_cell_length_b   8.72560000
_cell_length_c   11.24590000
_cell_angle_alpha   75.68060000
_cell_angle_beta   75.33750000
_cell_angle_gamma   67.84300000
_symmetry_Int_Tables_number   1
_chemical_formula_structural   ZnH14Pd(C5N4)2
_chemical_formula_sum   'Zn2 H28 Pd2 C20 N16'
_cell_volume   739.09246759
_cell_formula_units_Z   2
loop_
 _symmetry_equiv_pos_site_id
 _symmetry_equiv_pos_as_xyz
  1  'x, y, z'
loop_
 _atom_site_type_symbol
 _atom_site_label
 _atom_site_symmetry_multiplicity
 _atom_site_fract_x
 _atom_site_fract_y
 _atom_site_fract_z
 _atom_site_occupancy
  Zn  Zn0  1  0.66622000  0.85091000  0.23107000  1.0
  Zn  Zn1  1  0.33377000  0.14909000  0.76894000  1.0
  H  H2  1  0.62507000  0.62257000  0.43599000  1.0
  H  H3  1  0.37493000  0.37743000  0.56402000  1.0
  H  H4  1  0.43180000  0.74562000  0.41084000  1.0
  H  H5  1  0.56821000  0.25438000  0.58917000  1.0
  H  H6  1  0.54439000  0.81337000  0.47108000  1.0
  H  H7  1  0.45561000  0.18663000  0.52892000  1.0
  H  H8  1  0.27841000  0.00840000  0.20108000  1.0
  H  H9  1  0.72158000  0.99160000  0.79892000  1.0
  H  H10  1  0.68688000  0.01577000  0.99859000  1.0
  H  H11  1  0.31311000  0.98423000  0.00141000  1.0
  H  H12  1  0.88222000  0.87888000  0.01396000  1.0
  H  H13  1  0.11777000  0.12112000  0.98604000  1.0
  H  H14  1  0.81029000  0.05845000  0.06707000  1.0
  H  H15  1  0.18970000  0.94155000  0.93294000  1.0
  H  H16  1  0.03211000  0.27501000  0.20488000  1.0
  H  H17  1  0.96789000  0.72500000  0.79512000  1.0
  H  H18  1  0.58797000  0.20738000  0.29922000  1.0
  H  H19  1  0.41203000  0.79262000  0.70078000  1.0
  H  H20  1  0.34887000  0.47918000  0.31977000  1.0
  H  H21  1  0.65113000  0.52081000  0.68024000  1.0
  H  H22  1  0.97752000  0.57651000  0.37395000  1.0
  H  H23  1  0.02248000  0.42350000  0.62605000  1.0
  H  H24  1  0.07901000  0.66933000  0.23457000  1.0
  H  H25  1  0.92099000  0.33066000  0.76543000  1.0
  H  H26  1  0.81972000  0.51203000  0.25724000  1.0
  H  H27  1  0.18028000  0.48797000  0.74277000  1.0
  H  H28  1  0.91872000  0.59088000  0.12373000  1.0
  H  H29  1  0.08128000  0.40912000  0.87627000  1.0
  Pd  Pd30  1  0.49999000  0.49999000  0.00000000  1.0
  Pd  Pd31  1  0.00001000  0.00001000  0.49999000  1.0
  C  C32  1  0.85728000  0.24083000  0.48108000  1.0
  C  C33  1  0.14273000  0.75918000  0.51891000  1.0
  C  C34  1  0.28957000  0.11710000  0.22524000  1.0
  C  C35  1  0.71042000  0.88290000  0.77476000  1.0
  C  C36  1  0.87577000  0.95887000  0.39177000  1.0
  C  C37  1  0.12424000  0.04113000  0.60822000  1.0
  C  C38  1  0.74093000  0.37216000  0.02374000  1.0
  C  C39  1  0.25906000  0.62783000  0.97626000  1.0
  C  C40  1  0.15086000  0.26652000  0.22977000  1.0
  C  C41  1  0.84914000  0.73349000  0.77024000  1.0
  C  C42  1  0.46111000  0.22657000  0.28187000  1.0
  C  C43  1  0.53889000  0.77342000  0.71814000  1.0
  C  C44  1  0.50840000  0.67209000  0.08230000  1.0
  C  C45  1  0.49159000  0.32790000  0.91770000  1.0
  C  C46  1  0.32796000  0.37847000  0.29166000  1.0
  C  C47  1  0.67204000  0.62153000  0.70835000  1.0
  C  C48  1  0.16813000  0.40164000  0.26447000  1.0
  C  C49  1  0.83187000  0.59836000  0.73554000  1.0
  C  C50  1  0.02517000  0.56766000  0.27453000  1.0
  C  C51  1  0.97483000  0.43234000  0.72547000  1.0
  N  N52  1  0.55317000  0.74525000  0.40634000  1.0
  N  N53  1  0.44684000  0.25475000  0.59366000  1.0
  N  N54  1  0.80370000  0.93202000  0.32767000  1.0
  N  N55  1  0.19631000  0.06798000  0.67234000  1.0
  N  N56  1  0.88377000  0.29771000  0.03760000  1.0
  N  N57  1  0.11622000  0.70229000  0.96241000  1.0
  N  N58  1  0.44346000  0.09594000  0.24954000  1.0
  N  N59  1  0.55654000  0.90406000  0.75047000  1.0
  N  N60  1  0.51982000  0.76967000  0.13223000  1.0
  N  N61  1  0.48018000  0.23031000  0.86776000  1.0
  N  N62  1  0.77171000  0.38319000  0.46974000  1.0
  N  N63  1  0.22830000  0.61682000  0.53026000  1.0
  N  N64  1  0.77471000  0.96323000  0.05702000  1.0
  N  N65  1  0.22528000  0.03677000  0.94298000  1.0
  N  N66  1  0.87737000  0.60065000  0.21622000  1.0
  N  N67  1  0.12263000  0.39935000  0.78378000  1.0
