# generated using pymatgen
data_CdH14C14N2O5
_symmetry_space_group_name_H-M   'P 1'
_cell_length_a   5.87130000
_cell_length_b   8.54720000
_cell_length_c   15.54360000
_cell_angle_alpha   85.52840000
_cell_angle_beta   89.52840000
_cell_angle_gamma   72.07570000
_symmetry_Int_Tables_number   1
_chemical_formula_structural   CdH14C14N2O5
_chemical_formula_sum   'Cd2 H28 C28 N4 O10'
_cell_volume   739.80651528
_cell_formula_units_Z   2
loop_
 _symmetry_equiv_pos_site_id
 _symmetry_equiv_pos_as_xyz
  1  'x, y, z'
loop_
 _atom_site_type_symbol
 _atom_site_label
 _atom_site_symmetry_multiplicity
 _atom_site_fract_x
 _atom_site_fract_y
 _atom_site_fract_z
 _atom_site_occupancy
  Cd  Cd0  1  0.75061000  0.74679000  0.25016000  1.0
  Cd  Cd1  1  0.24940000  0.25320000  0.74984000  1.0
  H  H2  1  0.65291000  0.06527000  0.65840000  1.0
  H  H3  1  0.35017000  0.37275000  0.89201000  1.0
  H  H4  1  0.34710000  0.93472000  0.34160000  1.0
  H  H5  1  0.64979000  0.62728000  0.10799000  1.0
  H  H6  1  0.44421000  0.96911000  0.66626000  1.0
  H  H7  1  0.07468000  0.49680000  0.86916000  1.0
  H  H8  1  0.55582000  0.03088000  0.33375000  1.0
  H  H9  1  0.92528000  0.50321000  0.13083000  1.0
  H  H10  1  0.47712000  0.44459000  0.41689000  1.0
  H  H11  1  0.28024000  0.99984000  0.11848000  1.0
  H  H12  1  0.52289000  0.55539000  0.58310000  1.0
  H  H13  1  0.71975000  0.00017000  0.88152000  1.0
  H  H14  1  0.90781000  0.22723000  0.42961000  1.0
  H  H15  1  0.56918000  0.32174000  0.06349000  1.0
  H  H16  1  0.09219000  0.77277000  0.57039000  1.0
  H  H17  1  0.43081000  0.67826000  0.93651000  1.0
  H  H18  1  0.09853000  0.04977000  0.56153000  1.0
  H  H19  1  0.72132000  0.45681000  0.93555000  1.0
  H  H20  1  0.90147000  0.95023000  0.43847000  1.0
  H  H21  1  0.27865000  0.54320000  0.06445000  1.0
  H  H22  1  0.66086000  0.27616000  0.55059000  1.0
  H  H23  1  0.43279000  0.13491000  0.99535000  1.0
  H  H24  1  0.33915000  0.72382000  0.44941000  1.0
  H  H25  1  0.56719000  0.86511000  0.00464000  1.0
  H  H26  1  0.33302000  0.63841000  0.25327000  1.0
  H  H27  1  0.23211000  0.80491000  0.19858000  1.0
  H  H28  1  0.66699000  0.36158000  0.74673000  1.0
  H  H29  1  0.76790000  0.19508000  0.80142000  1.0
  C  C30  1  0.17519000  0.35079000  0.41652000  1.0
  C  C31  1  0.91176000  0.15015000  0.09839000  1.0
  C  C32  1  0.82481000  0.64920000  0.58349000  1.0
  C  C33  1  0.08823000  0.84985000  0.90161000  1.0
  C  C34  1  0.03623000  0.47801000  0.34988000  1.0
  C  C35  1  0.80948000  0.06451000  0.16939000  1.0
  C  C36  1  0.96377000  0.52199000  0.65012000  1.0
  C  C37  1  0.19052000  0.93548000  0.83061000  1.0
  C  C38  1  0.39325000  0.35902000  0.44890000  1.0
  C  C39  1  0.15532000  0.09841000  0.07842000  1.0
  C  C40  1  0.60675000  0.64097000  0.55110000  1.0
  C  C41  1  0.84467000  0.90160000  0.92158000  1.0
  C  C42  1  0.38954000  0.15416000  0.56500000  1.0
  C  C43  1  0.08648000  0.30365000  0.95703000  1.0
  C  C44  1  0.61047000  0.84584000  0.43500000  1.0
  C  C45  1  0.91349000  0.69636000  0.04297000  1.0
  C  C46  1  0.07534000  0.23438000  0.45596000  1.0
  C  C47  1  0.75768000  0.28137000  0.04666000  1.0
  C  C48  1  0.92467000  0.76561000  0.54405000  1.0
  C  C49  1  0.24230000  0.71864000  0.95334000  1.0
  C  C50  1  0.18093000  0.13636000  0.52944000  1.0
  C  C51  1  0.84215000  0.35628000  0.97619000  1.0
  C  C52  1  0.81908000  0.86364000  0.47057000  1.0
  C  C53  1  0.15782000  0.64373000  0.02381000  1.0
  C  C54  1  0.49861000  0.26251000  0.52277000  1.0
  C  C55  1  0.24215000  0.17448000  0.00899000  1.0
  C  C56  1  0.50140000  0.73748000  0.47723000  1.0
  C  C57  1  0.75783000  0.82554000  0.99100000  1.0
  N  N58  1  0.47721000  0.07724000  0.64710000  1.0
  N  N59  1  0.17486000  0.37750000  0.88522000  1.0
  N  N60  1  0.52281000  0.92275000  0.35290000  1.0
  N  N61  1  0.82510000  0.62252000  0.11478000  1.0
  O  O62  1  0.82963000  0.47762000  0.32560000  1.0
  O  O63  1  0.59441000  0.12109000  0.18933000  1.0
  O  O64  1  0.17036000  0.52238000  0.67442000  1.0
  O  O65  1  0.40559000  0.87890000  0.81066000  1.0
  O  O66  1  0.12150000  0.59476000  0.32275000  1.0
  O  O67  1  0.95363000  0.92649000  0.20544000  1.0
  O  O68  1  0.87851000  0.40523000  0.67725000  1.0
  O  O69  1  0.04638000  0.07351000  0.79455000  1.0
  O  O70  1  0.38348000  0.70983000  0.20836000  1.0
  O  O71  1  0.61653000  0.29016000  0.79164000  1.0
