# generated using pymatgen
data_CdH22C20(N2O3)2
_symmetry_space_group_name_H-M   'P 1'
_cell_length_a   9.50910000
_cell_length_b   9.81339000
_cell_length_c   12.05100000
_cell_angle_alpha   100.66800000
_cell_angle_beta   95.05570000
_cell_angle_gamma   106.31600000
_symmetry_Int_Tables_number   1
_chemical_formula_structural   CdH22C20(N2O3)2
_chemical_formula_sum   'Cd2 H44 C40 N8 O12'
_cell_volume   1048.84194121
_cell_formula_units_Z   2
loop_
 _symmetry_equiv_pos_site_id
 _symmetry_equiv_pos_as_xyz
  1  'x, y, z'
loop_
 _atom_site_type_symbol
 _atom_site_label
 _atom_site_symmetry_multiplicity
 _atom_site_fract_x
 _atom_site_fract_y
 _atom_site_fract_z
 _atom_site_occupancy
  Cd  Cd0  1  0.65193000  0.01353000  0.39223000  1.0
  Cd  Cd1  1  0.34807000  0.98648000  0.60777000  1.0
  H  H2  1  0.94734000  0.56337000  0.32646000  1.0
  H  H3  1  0.05267000  0.43663000  0.67354000  1.0
  H  H4  1  0.80448000  0.40382000  0.33681000  1.0
  H  H5  1  0.19552000  0.59618000  0.66319000  1.0
  H  H6  1  0.56745000  0.44602000  0.41680000  1.0
  H  H7  1  0.43256000  0.55398000  0.58320000  1.0
  H  H8  1  0.54723000  0.59909000  0.20915000  1.0
  H  H9  1  0.45277000  0.40091000  0.79084000  1.0
  H  H10  1  0.71198000  0.32687000  0.75074000  1.0
  H  H11  1  0.28802000  0.67313000  0.24926000  1.0
  H  H12  1  0.70265000  0.16436000  0.79791000  1.0
  H  H13  1  0.29735000  0.83564000  0.20209000  1.0
  H  H14  1  0.44206000  0.23348000  0.92120000  1.0
  H  H15  1  0.55794000  0.76652000  0.07880000  1.0
  H  H16  1  0.18477000  0.45224000  0.87655000  1.0
  H  H17  1  0.81523000  0.54776000  0.12345000  1.0
  H  H18  1  0.46368000  0.69034000  0.44181000  1.0
  H  H19  1  0.53631000  0.30966000  0.55820000  1.0
  H  H20  1  0.89243000  0.79994000  0.34779000  1.0
  H  H21  1  0.10757000  0.20006000  0.65221000  1.0
  H  H22  1  0.85287000  0.47925000  0.54813000  1.0
  H  H23  1  0.14713000  0.52075000  0.45187000  1.0
  H  H24  1  0.97736000  0.64899000  0.54085000  1.0
  H  H25  1  0.02264000  0.35101000  0.45915000  1.0
  H  H26  1  0.73176000  0.36638000  0.94160000  1.0
  H  H27  1  0.26824000  0.63361000  0.05840000  1.0
  H  H28  1  0.57492000  0.17376000  0.05538000  1.0
  H  H29  1  0.42508000  0.82624000  0.94462000  1.0
  H  H30  1  0.38552000  0.10858000  0.06651000  1.0
  H  H31  1  0.61448000  0.89142000  0.93349000  1.0
  H  H32  1  0.20096000  0.27048000  0.11534000  1.0
  H  H33  1  0.79904000  0.72952000  0.88466000  1.0
  H  H34  1  0.01740000  0.25375000  0.05785000  1.0
  H  H35  1  0.98260000  0.74625000  0.94215000  1.0
  H  H36  1  0.15385000  0.00298000  0.05302000  1.0
  H  H37  1  0.84615000  0.99702000  0.94698000  1.0
  H  H38  1  0.11937000  0.08201000  0.93671000  1.0
  H  H39  1  0.88063000  0.91799000  0.06329000  1.0
  H  H40  1  0.03627000  0.06335000  0.44306000  1.0
  H  H41  1  0.96373000  0.93665000  0.55694000  1.0
  H  H42  1  0.80610000  0.15452000  0.16475000  1.0
  H  H43  1  0.19390000  0.84548000  0.83525000  1.0
  H  H44  1  0.23375000  0.15470000  0.29664000  1.0
  H  H45  1  0.76625000  0.84530000  0.70336000  1.0
  C  C46  1  0.86366000  0.51790000  0.37778000  1.0
  C  C47  1  0.13635000  0.48210000  0.62222000  1.0
  C  C48  1  0.53370000  0.11086000  0.21312000  1.0
  C  C49  1  0.46630000  0.88915000  0.78688000  1.0
  C  C50  1  0.61795000  0.55724000  0.41010000  1.0
  C  C51  1  0.38205000  0.44276000  0.58990000  1.0
  C  C52  1  0.52705000  0.55632000  0.11729000  1.0
  C  C53  1  0.47295000  0.44368000  0.88271000  1.0
  C  C54  1  0.74755000  0.15995000  0.62554000  1.0
  C  C55  1  0.25245000  0.84005000  0.37445000  1.0
  C  C56  1  0.49454000  0.40645000  0.07524000  1.0
  C  C57  1  0.50546000  0.59355000  0.92477000  1.0
  C  C58  1  0.76442000  0.23932000  0.74874000  1.0
  C  C59  1  0.23558000  0.76068000  0.25126000  1.0
  C  C60  1  0.95356000  0.39711000  0.89654000  1.0
  C  C61  1  0.04644000  0.60289000  0.10345000  1.0
  C  C62  1  0.46663000  0.34951000  0.95702000  1.0
  C  C63  1  0.53337000  0.65050000  0.04298000  1.0
  C  C64  1  0.10388000  0.47375000  0.93058000  1.0
  C  C65  1  0.89612000  0.52625000  0.06941000  1.0
  C  C66  1  0.56715000  0.67629000  0.41905000  1.0
  C  C67  1  0.43285000  0.32371000  0.58095000  1.0
  C  C68  1  0.78723000  0.74029000  0.36893000  1.0
  C  C69  1  0.21276000  0.25971000  0.63106000  1.0
  C  C70  1  0.93653000  0.53280000  0.49942000  1.0
  C  C71  1  0.06347000  0.46720000  0.50058000  1.0
  C  C72  1  0.84943000  0.42367000  0.96639000  1.0
  C  C73  1  0.15058000  0.57632000  0.03361000  1.0
  C  C74  1  0.49371000  0.17765000  0.11512000  1.0
  C  C75  1  0.50629000  0.82234000  0.88488000  1.0
  C  C76  1  0.08685000  0.19700000  0.09608000  1.0
  C  C77  1  0.91315000  0.80300000  0.90393000  1.0
  C  C78  1  0.07801000  0.05413000  0.01465000  1.0
  C  C79  1  0.92199000  0.94587000  0.98535000  1.0
  C  C80  1  0.01589000  0.09435000  0.36318000  1.0
  C  C81  1  0.98411000  0.90565000  0.63682000  1.0
  C  C82  1  0.89316000  0.14201000  0.22265000  1.0
  C  C83  1  0.10684000  0.85800000  0.77735000  1.0
  C  C84  1  0.11565000  0.13953000  0.29165000  1.0
  C  C85  1  0.88435000  0.86047000  0.70835000  1.0
  N  N86  1  0.75697000  0.59987000  0.37869000  1.0
  N  N87  1  0.24303000  0.40013000  0.62131000  1.0
  N  N88  1  0.67343000  0.78954000  0.39264000  1.0
  N  N89  1  0.32657000  0.21046000  0.60736000  1.0
  N  N90  1  0.87734000  0.09578000  0.31919000  1.0
  N  N91  1  0.12266000  0.90422000  0.68081000  1.0
  N  N92  1  0.03605000  0.17068000  0.20312000  1.0
  N  N93  1  0.96395000  0.82932000  0.79688000  1.0
  O  O94  1  0.61252000  0.10098000  0.57589000  1.0
  O  O95  1  0.38748000  0.89902000  0.42411000  1.0
  O  O96  1  0.56969000  0.18742000  0.31458000  1.0
  O  O97  1  0.43031000  0.81258000  0.68542000  1.0
  O  O98  1  0.53336000  0.97949000  0.18431000  1.0
  O  O99  1  0.46664000  0.02051000  0.81570000  1.0
  O  O100  1  0.91796000  0.29809000  0.79405000  1.0
  O  O101  1  0.08204000  0.70192000  0.20595000  1.0
  O  O102  1  0.85766000  0.15682000  0.57665000  1.0
  O  O103  1  0.14234000  0.84318000  0.42335000  1.0
  O  O104  1  0.49337000  0.32323000  0.15576000  1.0
  O  O105  1  0.50663000  0.67676000  0.84424000  1.0
