# generated using pymatgen
data_Zn4H13C21S2O19
_symmetry_space_group_name_H-M   'P 1'
_cell_length_a   18.50680000
_cell_length_b   18.50720000
_cell_length_c   18.52330000
_cell_angle_alpha   60.76000000
_cell_angle_beta   60.67070000
_cell_angle_gamma   60.16010000
_symmetry_Int_Tables_number   1
_chemical_formula_structural   Zn4H13C21S2O19
_chemical_formula_sum   'Zn8 H26 C42 S4 O38'
_cell_volume   4539.63399206
_cell_formula_units_Z   2
loop_
 _symmetry_equiv_pos_site_id
 _symmetry_equiv_pos_as_xyz
  1  'x, y, z'
loop_
 _atom_site_type_symbol
 _atom_site_label
 _atom_site_symmetry_multiplicity
 _atom_site_fract_x
 _atom_site_fract_y
 _atom_site_fract_z
 _atom_site_occupancy
  Zn  Zn0  1  0.46246000  0.45235000  0.95057000  1.0
  Zn  Zn1  1  0.46004000  0.45748000  0.12287000  1.0
  Zn  Zn2  1  0.45792000  0.62762000  0.95512000  1.0
  Zn  Zn3  1  0.63190000  0.45653000  0.95467000  1.0
  Zn  Zn4  1  0.04428000  0.04437000  0.54011000  1.0
  Zn  Zn5  1  0.04090000  0.87212000  0.54616000  1.0
  Zn  Zn6  1  0.03959000  0.04533000  0.37052000  1.0
  Zn  Zn7  1  0.86847000  0.04359000  0.54437000  1.0
  H  H8  1  0.60689000  0.25352000  0.83920000  1.0
  H  H9  1  0.18360000  0.88941000  0.20388000  1.0
  H  H10  1  0.77592000  0.42690000  0.76006000  1.0
  H  H11  1  0.26268000  0.65123000  0.26196000  1.0
  H  H12  1  0.19943000  0.20922000  0.18509000  1.0
  H  H13  1  0.19627000  0.21987000  0.34807000  1.0
  H  H14  1  0.32350000  0.26394000  0.10868000  1.0
  H  H15  1  0.91765000  0.44282000  0.64863000  1.0
  H  H16  1  0.96473000  0.23307000  0.57426000  1.0
  H  H17  1  0.27478000  0.80716000  0.82179000  1.0
  H  H18  1  0.68454000  0.21831000  0.40457000  1.0
  H  H19  1  0.25935000  0.64927000  0.82086000  1.0
  H  H20  1  0.19336000  0.70768000  0.47299000  1.0
  H  H21  1  0.31292000  0.80571000  0.10151000  1.0
  H  H22  1  0.26108000  0.49042000  0.21899000  1.0
  H  H23  1  0.15856000  0.33534000  0.53969000  1.0
  H  H24  1  0.70153000  0.15567000  0.74629000  1.0
  H  H25  1  0.13225000  0.93411000  0.87994000  1.0
  H  H26  1  0.24531000  0.74851000  0.67950000  1.0
  H  H27  1  0.68798000  0.90383000  0.69885000  1.0
  H  H28  1  0.84800000  0.73305000  0.71822000  1.0
  H  H29  1  0.59676000  0.80938000  0.80706000  1.0
  H  H30  1  0.76240000  0.65463000  0.75807000  1.0
  H  H31  1  0.83989000  0.18630000  0.23836000  1.0
  H  H32  1  0.59171000  0.29749000  0.30882000  1.0
  H  H33  1  0.76311000  0.31621000  0.15643000  1.0
  C  C34  1  0.63639000  0.37713000  0.13584000  1.0
  C  C35  1  0.19577000  0.81001000  0.69145000  1.0
  C  C36  1  0.25216000  0.77465000  0.80504000  1.0
  C  C37  1  0.34943000  0.63291000  0.87618000  1.0
  C  C38  1  0.28254000  0.68612000  0.83130000  1.0
  C  C39  1  0.72130000  0.83265000  0.72074000  1.0
  C  C40  1  0.81010000  0.80284000  0.69641000  1.0
  C  C41  1  0.66646000  0.77767000  0.77536000  1.0
  C  C42  1  0.69450000  0.69064000  0.78936000  1.0
  C  C43  1  0.71690000  0.22717000  0.33460000  1.0
  C  C44  1  0.80410000  0.18309000  0.30672000  1.0
  C  C45  1  0.92236000  0.27386000  0.61620000  1.0
  C  C46  1  0.66273000  0.28431000  0.27827000  1.0
  C  C47  1  0.69356000  0.32350000  0.19108000  1.0
  C  C48  1  0.22915000  0.82433000  0.22891000  1.0
  C  C49  1  0.36134000  0.36906000  0.12605000  1.0
  C  C50  1  0.22555000  0.80415000  0.31096000  1.0
  C  C51  1  0.28332000  0.77212000  0.17051000  1.0
  C  C52  1  0.29372000  0.68701000  0.19498000  1.0
  C  C53  1  0.21356000  0.23150000  0.22015000  1.0
  C  C54  1  0.18174000  0.20385000  0.30835000  1.0
  C  C55  1  0.27388000  0.28049000  0.16789000  1.0
  C  C56  1  0.84074000  0.26373000  0.67854000  1.0
  C  C57  1  0.28212000  0.34141000  0.18115000  1.0
  C  C58  1  0.86313000  0.86149000  0.63862000  1.0
  C  C59  1  0.12796000  0.14580000  0.35933000  1.0
  C  C60  1  0.13999000  0.86382000  0.63398000  1.0
  C  C61  1  0.63698000  0.63670000  0.84982000  1.0
  C  C62  1  0.85850000  0.12903000  0.36482000  1.0
  C  C63  1  0.15367000  0.86247000  0.36492000  1.0
  C  C64  1  0.86319000  0.13936000  0.63575000  1.0
  C  C65  1  0.35154000  0.63504000  0.13450000  1.0
  C  C66  1  0.64320000  0.36430000  0.85444000  1.0
  C  C67  1  0.78650000  0.32013000  0.73214000  1.0
  C  C68  1  0.81678000  0.38379000  0.72022000  1.0
  C  C69  1  0.89595000  0.39267000  0.65864000  1.0
  C  C70  1  0.94838000  0.33649000  0.60712000  1.0
  C  C71  1  0.70220000  0.31291000  0.79201000  1.0
  C  C72  1  0.67227000  0.25597000  0.79472000  1.0
  C  C73  1  0.72531000  0.20108000  0.74253000  1.0
  C  C74  1  0.80905000  0.20267000  0.68656000  1.0
  C  C75  1  0.19181000  0.82988000  0.75456000  1.0
  S  S76  1  0.30511000  0.71636000  0.36329000  1.0
  S  S77  1  0.20427000  0.39237000  0.26442000  1.0
  S  S78  1  0.04669000  0.35014000  0.52080000  1.0
  S  S79  1  0.11210000  0.93045000  0.77821000  1.0
  O  O80  1  0.50261000  0.49829000  0.99502000  1.0
  O  O81  1  0.94168000  0.10077000  0.32550000  1.0
  O  O82  1  0.12752000  0.82299000  0.44794000  1.0
  O  O83  1  0.67641000  0.39926000  0.05311000  1.0
  O  O84  1  0.82088000  0.11897000  0.61502000  1.0
  O  O85  1  0.12295000  0.94353000  0.32554000  1.0
  O  O86  1  0.94640000  0.10991000  0.61838000  1.0
  O  O87  1  0.12722000  0.94577000  0.60095000  1.0
  O  O88  1  0.82018000  0.11535000  0.44708000  1.0
  O  O89  1  0.94681000  0.82179000  0.61409000  1.0
  O  O90  1  0.10521000  0.12504000  0.31868000  1.0
  O  O91  1  0.39553000  0.37334000  0.04601000  1.0
  O  O92  1  0.37481000  0.54970000  0.89443000  1.0
  O  O93  1  0.38837000  0.38539000  0.16614000  1.0
  O  O94  1  0.55438000  0.67578000  0.88099000  1.0
  O  O95  1  0.36058000  0.55277000  0.16891000  1.0
  O  O96  1  0.67922000  0.37484000  0.89063000  1.0
  O  O97  1  0.38950000  0.67335000  0.05500000  1.0
  O  O98  1  0.56058000  0.39146000  0.86812000  1.0
  O  O99  1  0.37051000  0.65833000  0.31355000  1.0
  O  O100  1  0.33048000  0.75984000  0.38930000  1.0
  O  O101  1  0.24521000  0.66201000  0.44719000  1.0
  O  O102  1  0.67672000  0.55337000  0.86631000  1.0
  O  O103  1  0.11803000  0.40376000  0.27423000  1.0
  O  O104  1  0.23641000  0.34936000  0.33727000  1.0
  O  O105  1  0.20972000  0.48992000  0.21571000  1.0
  O  O106  1  0.08201000  0.28810000  0.47659000  1.0
  O  O107  1  0.03278000  0.44246000  0.47279000  1.0
  O  O108  1  0.10656000  0.31745000  0.57958000  1.0
  O  O109  1  0.15110000  0.99848000  0.72798000  1.0
  O  O110  1  0.02843000  0.94218000  0.78088000  1.0
  O  O111  1  0.10391000  0.90178000  0.87930000  1.0
  O  O112  1  0.55294000  0.39641000  0.17404000  1.0
  O  O113  1  0.37634000  0.67367000  0.89200000  1.0
  O  O114  1  0.99840000  0.00007000  0.49910000  1.0
  O  O115  1  0.82327000  0.94464000  0.61774000  1.0
  O  O116  1  0.10947000  0.12023000  0.44207000  1.0
  O  O117  1  0.11310000  0.82081000  0.62132000  1.0
