# generated using pymatgen
data_RbH5C6(ClO3)2
_symmetry_space_group_name_H-M   'P 1'
_cell_length_a   7.39011000
_cell_length_b   9.07671000
_cell_length_c   14.91950000
_cell_angle_alpha   95.38110000
_cell_angle_beta   89.99250000
_cell_angle_gamma   89.99880000
_symmetry_Int_Tables_number   1
_chemical_formula_structural   RbH5C6(ClO3)2
_chemical_formula_sum   'Rb4 H20 C24 Cl8 O24'
_cell_volume   996.35806804
_cell_formula_units_Z   4
loop_
 _symmetry_equiv_pos_site_id
 _symmetry_equiv_pos_as_xyz
  1  'x, y, z'
loop_
 _atom_site_type_symbol
 _atom_site_label
 _atom_site_symmetry_multiplicity
 _atom_site_fract_x
 _atom_site_fract_y
 _atom_site_fract_z
 _atom_site_occupancy
  Rb  Rb0  1  0.05989000  0.48020000  0.65840000  1.0
  Rb  Rb1  1  0.55992000  0.01978000  0.84159000  1.0
  Rb  Rb2  1  0.94010000  0.51978000  0.34160000  1.0
  Rb  Rb3  1  0.44010000  0.98021000  0.15841000  1.0
  H  H4  1  0.53468000  0.44446000  0.65847000  1.0
  H  H5  1  0.03471000  0.05552000  0.84152000  1.0
  H  H6  1  0.46530000  0.55554000  0.34153000  1.0
  H  H7  1  0.96531000  0.94447000  0.15848000  1.0
  H  H8  1  0.45396000  0.38627000  0.76167000  1.0
  H  H9  1  0.95396000  0.11372000  0.73832000  1.0
  H  H10  1  0.54604000  0.61373000  0.23833000  1.0
  H  H11  1  0.04604000  0.88627000  0.26168000  1.0
  H  H12  1  0.71956000  0.43442000  0.56020000  1.0
  H  H13  1  0.21955000  0.06558000  0.93978000  1.0
  H  H14  1  0.28043000  0.56559000  0.43980000  1.0
  H  H15  1  0.78047000  0.93441000  0.06021000  1.0
  H  H16  1  0.65590000  0.60203000  0.57316000  1.0
  H  H17  1  0.15592000  0.89797000  0.92683000  1.0
  H  H18  1  0.34409000  0.39797000  0.42684000  1.0
  H  H19  1  0.84411000  0.10202000  0.07316000  1.0
  H  H20  1  0.56741000  0.72997000  0.33510000  1.0
  H  H21  1  0.06739000  0.77003000  0.16490000  1.0
  H  H22  1  0.43256000  0.27003000  0.66490000  1.0
  H  H23  1  0.93264000  0.22997000  0.83510000  1.0
  C  C24  1  0.70686000  0.10162000  0.42343000  1.0
  C  C25  1  0.20683000  0.39837000  0.07656000  1.0
  C  C26  1  0.29310000  0.89839000  0.57657000  1.0
  C  C27  1  0.79321000  0.60162000  0.92344000  1.0
  C  C28  1  0.80411000  0.17528000  0.49587000  1.0
  C  C29  1  0.30412000  0.32473000  0.00413000  1.0
  C  C30  1  0.19586000  0.82472000  0.50414000  1.0
  C  C31  1  0.69591000  0.67528000  0.99587000  1.0
  C  C32  1  0.66373000  0.95085000  0.41703000  1.0
  C  C33  1  0.16370000  0.54916000  0.08297000  1.0
  C  C34  1  0.33623000  0.04918000  0.58297000  1.0
  C  C35  1  0.83633000  0.45084000  0.91703000  1.0
  C  C36  1  0.80731000  0.93717000  0.56978000  1.0
  C  C37  1  0.30741000  0.56285000  0.93023000  1.0
  C  C38  1  0.19263000  0.06284000  0.43022000  1.0
  C  C39  1  0.69261000  0.43716000  0.06977000  1.0
  C  C40  1  0.71449000  0.86195000  0.49589000  1.0
  C  C41  1  0.21453000  0.63807000  0.00411000  1.0
  C  C42  1  0.28546000  0.13806000  0.50411000  1.0
  C  C43  1  0.78550000  0.36194000  0.99589000  1.0
  C  C44  1  0.85590000  0.08716000  0.57491000  1.0
  C  C45  1  0.35597000  0.41285000  0.92510000  1.0
  C  C46  1  0.14406000  0.91285000  0.42510000  1.0
  C  C47  1  0.64406000  0.58715000  0.07491000  1.0
  Cl  Cl48  1  0.85557000  0.83915000  0.66045000  1.0
  Cl  Cl49  1  0.35576000  0.66087000  0.83956000  1.0
  Cl  Cl50  1  0.14438000  0.16085000  0.33955000  1.0
  Cl  Cl51  1  0.64426000  0.33913000  0.16043000  1.0
  Cl  Cl52  1  0.64154000  0.20496000  0.33777000  1.0
  Cl  Cl53  1  0.14142000  0.29503000  0.16221000  1.0
  Cl  Cl54  1  0.35843000  0.79506000  0.66223000  1.0
  Cl  Cl55  1  0.85861000  0.70497000  0.83779000  1.0
  O  O56  1  0.93912000  0.15738000  0.64020000  1.0
  O  O57  1  0.43921000  0.34263000  0.85979000  1.0
  O  O58  1  0.06084000  0.84262000  0.35980000  1.0
  O  O59  1  0.56082000  0.65738000  0.14021000  1.0
  O  O60  1  0.84808000  0.31028000  0.49988000  1.0
  O  O61  1  0.34809000  0.18973000  0.00011000  1.0
  O  O62  1  0.15190000  0.68972000  0.50013000  1.0
  O  O63  1  0.65193000  0.81028000  0.99989000  1.0
  O  O64  1  0.58043000  0.88507000  0.34995000  1.0
  O  O65  1  0.08036000  0.61494000  0.15004000  1.0
  O  O66  1  0.41954000  0.11494000  0.65004000  1.0
  O  O67  1  0.91968000  0.38507000  0.84997000  1.0
  O  O68  1  0.66923000  0.72777000  0.49000000  1.0
  O  O69  1  0.16927000  0.77224000  0.01000000  1.0
  O  O70  1  0.33074000  0.27223000  0.50999000  1.0
  O  O71  1  0.83075000  0.22776000  0.99000000  1.0
  O  O72  1  0.67108000  0.51162000  0.60569000  1.0
  O  O73  1  0.17111000  0.98838000  0.89430000  1.0
  O  O74  1  0.32890000  0.48838000  0.39431000  1.0
  O  O75  1  0.82892000  0.01162000  0.10569000  1.0
  O  O76  1  0.43911000  0.38372000  0.69284000  1.0
  O  O77  1  0.93915000  0.11627000  0.80716000  1.0
  O  O78  1  0.56087000  0.61628000  0.30716000  1.0
  O  O79  1  0.06087000  0.88372000  0.19285000  1.0
