# generated using pymatgen
data_Zr3H20C48(Cl3O8)2
_symmetry_space_group_name_H-M   'P 1'
_cell_length_a   21.70260000
_cell_length_b   21.70270000
_cell_length_c   21.70261402
_cell_angle_alpha   120.00102248
_cell_angle_beta   120.00093590
_cell_angle_gamma   89.99870000
_symmetry_Int_Tables_number   1
_chemical_formula_structural   Zr3H20C48(Cl3O8)2
_chemical_formula_sum   'Zr6 H40 C96 Cl12 O32'
_cell_volume   7227.94190149
_cell_formula_units_Z   2
loop_
 _symmetry_equiv_pos_site_id
 _symmetry_equiv_pos_as_xyz
  1  'x, y, z'
loop_
 _atom_site_type_symbol
 _atom_site_label
 _atom_site_symmetry_multiplicity
 _atom_site_fract_x
 _atom_site_fract_y
 _atom_site_fract_z
 _atom_site_occupancy
  Zr  Zr0  1  0.58144000  0.08143000  0.00000000  1.0
  Zr  Zr1  1  0.41857000  0.91858000  0.00000000  1.0
  Zr  Zr2  1  0.41857000  0.08144000  0.00000000  1.0
  Zr  Zr3  1  0.58143000  0.91856000  0.99999000  1.0
  Zr  Zr4  1  0.58147000  0.08145000  0.16291000  1.0
  Zr  Zr5  1  0.41854000  0.91855000  0.83709000  1.0
  H  H6  1  0.56414000  0.19239000  0.12827000  1.0
  H  H7  1  0.56412000  0.93587000  0.12825000  1.0
  H  H8  1  0.30762000  0.93588000  0.87174000  1.0
  H  H9  1  0.56413000  0.93587000  0.87174000  1.0
  H  H10  1  0.78198000  0.27877000  0.18634000  1.0
  H  H11  1  0.89543000  0.39508000  0.29559000  1.0
  H  H12  1  0.90158000  0.40226000  0.50103000  1.0
  H  H13  1  0.09776000  0.59844000  0.49898000  1.0
  H  H14  1  0.22129000  0.71799000  0.81366000  1.0
  H  H15  1  0.10497000  0.60454000  0.70441000  1.0
  H  H16  1  0.59244000  0.09564000  0.81366000  1.0
  H  H17  1  0.59950000  0.09984000  0.70441000  1.0
  H  H18  1  0.40124000  0.90055000  0.49898000  1.0
  H  H19  1  0.59946000  0.09877000  0.50102000  1.0
  H  H20  1  0.40432000  0.90763000  0.18634000  1.0
  H  H21  1  0.40012000  0.90057000  0.29559000  1.0
  H  H22  1  0.78201000  0.09565000  0.37439000  1.0
  H  H23  1  0.89547000  0.09987000  0.49491000  1.0
  H  H24  1  0.90158000  0.90054000  0.30278000  1.0
  H  H25  1  0.09775000  0.09876000  0.69719000  1.0
  H  H26  1  0.22129000  0.90762000  0.62560000  1.0
  H  H27  1  0.10498000  0.90056000  0.50507000  1.0
  H  H28  1  0.40439000  0.71805000  0.62558000  1.0
  H  H29  1  0.40022000  0.60461000  0.50507000  1.0
  H  H30  1  0.59948000  0.59844000  0.69720000  1.0
  H  H31  1  0.40127000  0.40227000  0.30281000  1.0
  H  H32  1  0.59240000  0.27872000  0.37440000  1.0
  H  H33  1  0.59947000  0.39505000  0.49492000  1.0
  H  H34  1  0.40437000  0.27878000  0.99680000  1.0
  H  H35  1  0.40017000  0.39509000  0.99966000  1.0
  H  H36  1  0.59946000  0.40225000  0.00069000  1.0
  H  H37  1  0.40125000  0.59844000  0.00070000  1.0
  H  H38  1  0.59239000  0.71799000  0.99670000  1.0
  H  H39  1  0.59946000  0.60453000  0.99957000  1.0
  H  H40  1  0.78200000  0.90759000  0.00319000  1.0
  H  H41  1  0.89547000  0.90057000  0.00036000  1.0
  H  H42  1  0.90155000  0.09883000  0.99934000  1.0
  H  H43  1  0.09773000  0.90060000  0.99930000  1.0
  H  H44  1  0.22129000  0.09572000  0.00329000  1.0
  H  H45  1  0.10498000  0.09994000  0.00044000  1.0
  C  C46  1  0.70914000  0.20529000  0.20916000  1.0
  C  C47  1  0.50002000  0.00389000  0.20915000  1.0
  C  C48  1  0.29473000  0.79087000  0.79084000  1.0
  C  C49  1  0.49613000  0.99998000  0.79084000  1.0
  C  C50  1  0.50003000  0.20529000  0.99616000  1.0
  C  C51  1  0.70914000  0.00387000  0.00385000  1.0
  C  C52  1  0.49612000  0.79086000  0.99613000  1.0
  C  C53  1  0.29473000  0.00001000  0.00386000  1.0
  C  C54  1  0.49614000  0.20527000  0.20527000  1.0
  C  C55  1  0.29473000  0.00388000  0.79473000  1.0
  C  C56  1  0.50001000  0.79086000  0.79472000  1.0
  C  C57  1  0.70914000  0.99998000  0.20525000  1.0
  C  C58  1  0.77757000  0.27461000  0.28042000  1.0
  C  C59  1  0.80928000  0.30691000  0.25593000  1.0
  C  C60  1  0.87220000  0.37145000  0.31653000  1.0
  C  C61  1  0.90661000  0.40689000  0.40635000  1.0
  C  C62  1  0.87568000  0.37552000  0.43204000  1.0
  C  C63  1  0.81234000  0.31060000  0.37060000  1.0
  C  C64  1  0.97122000  0.47257000  0.47101000  1.0
  C  C65  1  0.02746000  0.52878000  0.52898000  1.0
  C  C66  1  0.09314000  0.59339000  0.59365000  1.0
  C  C67  1  0.12450000  0.62432000  0.56796000  1.0
  C  C68  1  0.18942000  0.68767000  0.62941000  1.0
  C  C69  1  0.22542000  0.72244000  0.71959000  1.0
  C  C70  1  0.19313000  0.69070000  0.74407000  1.0
  C  C71  1  0.12859000  0.62778000  0.68347000  1.0
  C  C72  1  0.49421000  0.99715000  0.71959000  1.0
  C  C73  1  0.55099000  0.05335000  0.74407000  1.0
  C  C74  1  0.55493000  0.05567000  0.68347000  1.0
  C  C75  1  0.50054000  0.00025000  0.59365000  1.0
  C  C76  1  0.44348000  0.94364000  0.56796000  1.0
  C  C77  1  0.44001000  0.94175000  0.62941000  1.0
  C  C78  1  0.50156000  0.00021000  0.52899000  1.0
  C  C79  1  0.49980000  0.99847000  0.47102000  1.0
  C  C80  1  0.49974000  0.99949000  0.40635000  1.0
  C  C81  1  0.55637000  0.05654000  0.43204000  1.0
  C  C82  1  0.55826000  0.06001000  0.37059000  1.0
  C  C83  1  0.50285000  0.00583000  0.28041000  1.0
  C  C84  1  0.44663000  0.94906000  0.25593000  1.0
  C  C85  1  0.44431000  0.94512000  0.31653000  1.0
  C  C86  1  0.77756000  0.99714000  0.27173000  1.0
  C  C87  1  0.80929000  0.05335000  0.36024000  1.0
  C  C88  1  0.87222000  0.05568000  0.42710000  1.0
  C  C89  1  0.90662000  0.00026000  0.40712000  1.0
  C  C90  1  0.87568000  0.94364000  0.31913000  1.0
  C  C91  1  0.81234000  0.94174000  0.25232000  1.0
  C  C92  1  0.97124000  0.00021000  0.47274000  1.0
  C  C93  1  0.02747000  0.99847000  0.52723000  1.0
  C  C94  1  0.09315000  0.99948000  0.59286000  1.0
  C  C95  1  0.12449000  0.05652000  0.68084000  1.0
  C  C96  1  0.18941000  0.05999000  0.74766000  1.0
  C  C97  1  0.22541000  0.00582000  0.72825000  1.0
  C  C98  1  0.19313000  0.94904000  0.63974000  1.0
  C  C99  1  0.12860000  0.94511000  0.57288000  1.0
  C  C100  1  0.50286000  0.72244000  0.72824000  1.0
  C  C101  1  0.44668000  0.69074000  0.63973000  1.0
  C  C102  1  0.44437000  0.62783000  0.57288000  1.0
  C  C103  1  0.49977000  0.59342000  0.59286000  1.0
  C  C104  1  0.55638000  0.62433000  0.68085000  1.0
  C  C105  1  0.55827000  0.68768000  0.74766000  1.0
  C  C106  1  0.49983000  0.52881000  0.52724000  1.0
  C  C107  1  0.50157000  0.47256000  0.47276000  1.0
  C  C108  1  0.50054000  0.40688000  0.40714000  1.0
  C  C109  1  0.44349000  0.37551000  0.31915000  1.0
  C  C110  1  0.44002000  0.31059000  0.25234000  1.0
  C  C111  1  0.49419000  0.27459000  0.27175000  1.0
  C  C112  1  0.55097000  0.30689000  0.36026000  1.0
  C  C113  1  0.55491000  0.37142000  0.42712000  1.0
  C  C114  1  0.50287000  0.27462000  0.99706000  1.0
  C  C115  1  0.44666000  0.30692000  0.99765000  1.0
  C  C116  1  0.44434000  0.37146000  0.99926000  1.0
  C  C117  1  0.49976000  0.40689000  0.00029000  1.0
  C  C118  1  0.55637000  0.37552000  0.99984000  1.0
  C  C119  1  0.55826000  0.31060000  0.99827000  1.0
  C  C120  1  0.49981000  0.47257000  0.00135000  1.0
  C  C121  1  0.50155000  0.52879000  0.00134000  1.0
  C  C122  1  0.50053000  0.59339000  0.00026000  1.0
  C  C123  1  0.44348000  0.62433000  0.99983000  1.0
  C  C124  1  0.44000000  0.68767000  0.99825000  1.0
  C  C125  1  0.49418000  0.72243000  0.99702000  1.0
  C  C126  1  0.55096000  0.69070000  0.99758000  1.0
  C  C127  1  0.55490000  0.62777000  0.99919000  1.0
  C  C128  1  0.77756000  0.00583000  0.00296000  1.0
  C  C129  1  0.80929000  0.94904000  0.00236000  1.0
  C  C130  1  0.87222000  0.94513000  0.00077000  1.0
  C  C131  1  0.90662000  0.99953000  0.99974000  1.0
  C  C132  1  0.87568000  0.05659000  0.00019000  1.0
  C  C133  1  0.81232000  0.06003000  0.00175000  1.0
  C  C134  1  0.97124000  0.99854000  0.99869000  1.0
  C  C135  1  0.02746000  0.00030000  0.99870000  1.0
  C  C136  1  0.09313000  0.00034000  0.99975000  1.0
  C  C137  1  0.12449000  0.94370000  0.00017000  1.0
  C  C138  1  0.18941000  0.94179000  0.00175000  1.0
  C  C139  1  0.22541000  0.99719000  0.00297000  1.0
  C  C140  1  0.19314000  0.05342000  0.00242000  1.0
  C  C141  1  0.12860000  0.05576000  0.00081000  1.0
  Cl  Cl142  1  0.78160000  0.27992000  0.41358000  1.0
  Cl  Cl143  1  0.22011000  0.71842000  0.58643000  1.0
  Cl  Cl144  1  0.36634000  0.86802000  0.58643000  1.0
  Cl  Cl145  1  0.63200000  0.13368000  0.41358000  1.0
  Cl  Cl146  1  0.78160000  0.86801000  0.14791000  1.0
  Cl  Cl147  1  0.22009000  0.13366000  0.85207000  1.0
  Cl  Cl148  1  0.63199000  0.71841000  0.85207000  1.0
  Cl  Cl149  1  0.36635000  0.27991000  0.14792000  1.0
  Cl  Cl150  1  0.63199000  0.27991000  0.99833000  1.0
  Cl  Cl151  1  0.36635000  0.71842000  0.99833000  1.0
  Cl  Cl152  1  0.78155000  0.13369000  0.00168000  1.0
  Cl  Cl153  1  0.22008000  0.86804000  0.00167000  1.0
  O  O154  1  0.68313000  0.18052000  0.13070000  1.0
  O  O155  1  0.44757000  0.95019000  0.13069000  1.0
  O  O156  1  0.31950000  0.81688000  0.86931000  1.0
  O  O157  1  0.54982000  0.05244000  0.86931000  1.0
  O  O158  1  0.44757000  0.18053000  0.99740000  1.0
  O  O159  1  0.68314000  0.95017000  0.00260000  1.0
  O  O160  1  0.54982000  0.81687000  0.99737000  1.0
  O  O161  1  0.31950000  0.05246000  0.00262000  1.0
  O  O162  1  0.54983000  0.18051000  0.23296000  1.0
  O  O163  1  0.31950000  0.95018000  0.76705000  1.0
  O  O164  1  0.44756000  0.81687000  0.76703000  1.0
  O  O165  1  0.68314000  0.05244000  0.23295000  1.0
  O  O166  1  0.32392000  0.05546000  0.87481000  1.0
  O  O167  1  0.55090000  0.81935000  0.87480000  1.0
  O  O168  1  0.68064000  0.94908000  0.12517000  1.0
  O  O169  1  0.44455000  0.17609000  0.12519000  1.0
  O  O170  1  0.55091000  0.17610000  0.99546000  1.0
  O  O171  1  0.32390000  0.94912000  0.00455000  1.0
  O  O172  1  0.44455000  0.81936000  0.99545000  1.0
  O  O173  1  0.68064000  0.05546000  0.00455000  1.0
  O  O174  1  0.44455000  0.94909000  0.76844000  1.0
  O  O175  1  0.68066000  0.17610000  0.23157000  1.0
  O  O176  1  0.55092000  0.05547000  0.23156000  1.0
  O  O177  1  0.32391000  0.81935000  0.76844000  1.0
  O  O178  1  0.54588000  0.95409000  0.90819000  1.0
  O  O179  1  0.36231000  0.95411000  0.90819000  1.0
  O  O180  1  0.54590000  0.95412000  0.09180000  1.0
  O  O181  1  0.54591000  0.13769000  0.09181000  1.0
  O  O182  1  0.46623000  0.03381000  0.06761000  1.0
  O  O183  1  0.60139000  0.03379000  0.06760000  1.0
  O  O184  1  0.46620000  0.89861000  0.93239000  1.0
  O  O185  1  0.46620000  0.03379000  0.93239000  1.0
