# generated using pymatgen
data_Cd3H22C16N9ClO8
_symmetry_space_group_name_H-M   'P 1'
_cell_length_a   9.48360000
_cell_length_b   13.08890000
_cell_length_c   22.76890000
_cell_angle_alpha   90.00000000
_cell_angle_beta   91.67700000
_cell_angle_gamma   90.00000000
_symmetry_Int_Tables_number   1
_chemical_formula_structural   Cd3H22C16N9ClO8
_chemical_formula_sum   'Cd12 H88 C64 N36 Cl4 O32'
_cell_volume   2825.09056126
_cell_formula_units_Z   4
loop_
 _symmetry_equiv_pos_site_id
 _symmetry_equiv_pos_as_xyz
  1  'x, y, z'
loop_
 _atom_site_type_symbol
 _atom_site_label
 _atom_site_symmetry_multiplicity
 _atom_site_fract_x
 _atom_site_fract_y
 _atom_site_fract_z
 _atom_site_occupancy
  Cd  Cd0  1  0.55515000  0.84748000  0.41071000  1.0
  Cd  Cd1  1  0.44486000  0.34748000  0.08929000  1.0
  Cd  Cd2  1  0.44485000  0.15252000  0.58929000  1.0
  Cd  Cd3  1  0.55515000  0.65253000  0.91071000  1.0
  Cd  Cd4  1  0.03468000  0.60650000  0.25799000  1.0
  Cd  Cd5  1  0.96531000  0.10650000  0.24201000  1.0
  Cd  Cd6  1  0.96532000  0.39350000  0.74201000  1.0
  Cd  Cd7  1  0.03468000  0.89350000  0.75799000  1.0
  Cd  Cd8  1  0.07075000  0.50502000  0.42240000  1.0
  Cd  Cd9  1  0.92925000  0.00502000  0.07760000  1.0
  Cd  Cd10  1  0.92925000  0.49498000  0.57760000  1.0
  Cd  Cd11  1  0.07075000  0.99498000  0.92240000  1.0
  H  H12  1  0.48795000  0.88767000  0.60876000  1.0
  H  H13  1  0.51205000  0.38768000  0.89124000  1.0
  H  H14  1  0.51205000  0.11232000  0.39124000  1.0
  H  H15  1  0.48796000  0.61233000  0.10876000  1.0
  H  H16  1  0.31645000  0.84472000  0.59063000  1.0
  H  H17  1  0.68356000  0.34472000  0.90937000  1.0
  H  H18  1  0.68356000  0.15528000  0.40937000  1.0
  H  H19  1  0.31645000  0.65528000  0.09063000  1.0
  H  H20  1  0.25060000  0.66168000  0.60425000  1.0
  H  H21  1  0.74939000  0.16168000  0.89575000  1.0
  H  H22  1  0.74938000  0.33832000  0.39575000  1.0
  H  H23  1  0.25060000  0.83831000  0.10425000  1.0
  H  H24  1  0.27813000  0.51378000  0.67112000  1.0
  H  H25  1  0.72185000  0.01378000  0.82888000  1.0
  H  H26  1  0.72185000  0.48622000  0.32888000  1.0
  H  H27  1  0.27813000  0.98621000  0.17112000  1.0
  H  H28  1  0.68968000  0.62151000  0.72584000  1.0
  H  H29  1  0.31032000  0.12152000  0.77416000  1.0
  H  H30  1  0.31032000  0.37848000  0.27416000  1.0
  H  H31  1  0.68967000  0.87849000  0.22584000  1.0
  H  H32  1  0.65746000  0.77465000  0.66214000  1.0
  H  H33  1  0.34254000  0.27466000  0.83785000  1.0
  H  H34  1  0.34254000  0.22534000  0.33785000  1.0
  H  H35  1  0.65746000  0.72535000  0.16214000  1.0
  H  H36  1  0.40899000  0.41856000  0.74181000  1.0
  H  H37  1  0.59101000  0.91856000  0.75820000  1.0
  H  H38  1  0.59101000  0.58144000  0.25820000  1.0
  H  H39  1  0.40898000  0.08144000  0.24180000  1.0
  H  H40  1  0.59672000  0.42917000  0.74166000  1.0
  H  H41  1  0.40327000  0.92917000  0.75834000  1.0
  H  H42  1  0.40328000  0.57083000  0.25834000  1.0
  H  H43  1  0.59671000  0.07083000  0.24166000  1.0
  H  H44  1  0.73097000  0.75859000  0.29094000  1.0
  H  H45  1  0.26902000  0.25859000  0.20906000  1.0
  H  H46  1  0.26903000  0.24140000  0.70906000  1.0
  H  H47  1  0.73098000  0.74140000  0.79094000  1.0
  H  H48  1  0.80918000  0.67103000  0.46613000  1.0
  H  H49  1  0.19082000  0.17104000  0.03387000  1.0
  H  H50  1  0.19082000  0.32897000  0.53387000  1.0
  H  H51  1  0.80918000  0.82897000  0.96613000  1.0
  H  H52  1  0.31843000  0.78438000  0.28471000  1.0
  H  H53  1  0.68157000  0.28438000  0.21529000  1.0
  H  H54  1  0.68157000  0.21562000  0.71529000  1.0
  H  H55  1  0.31843000  0.71562000  0.78470000  1.0
  H  H56  1  0.37940000  0.63573000  0.44706000  1.0
  H  H57  1  0.62060000  0.13573000  0.05294000  1.0
  H  H58  1  0.62060000  0.36426000  0.55294000  1.0
  H  H59  1  0.37941000  0.86426000  0.94706000  1.0
  H  H60  1  0.02370000  0.85560000  0.29896000  1.0
  H  H61  1  0.97631000  0.35560000  0.20104000  1.0
  H  H62  1  0.97631000  0.14440000  0.70105000  1.0
  H  H63  1  0.02370000  0.64440000  0.79896000  1.0
  H  H64  1  0.98961000  0.75530000  0.12384000  1.0
  H  H65  1  0.01039000  0.25530000  0.37615000  1.0
  H  H66  1  0.01040000  0.24470000  0.87616000  1.0
  H  H67  1  0.98960000  0.74470000  0.62384000  1.0
  H  H68  1  0.33995000  0.42347000  0.40157000  1.0
  H  H69  1  0.66006000  0.92348000  0.09843000  1.0
  H  H70  1  0.66006000  0.57652000  0.59843000  1.0
  H  H71  1  0.33995000  0.07653000  0.90157000  1.0
  H  H72  1  0.34881000  0.35561000  0.45755000  1.0
  H  H73  1  0.65119000  0.85561000  0.04245000  1.0
  H  H74  1  0.65119000  0.64439000  0.54245000  1.0
  H  H75  1  0.34881000  0.14439000  0.95755000  1.0
  H  H76  1  0.85503000  0.60165000  0.14004000  1.0
  H  H77  1  0.14496000  0.10166000  0.35996000  1.0
  H  H78  1  0.14496000  0.39834000  0.85996000  1.0
  H  H79  1  0.85503000  0.89835000  0.64004000  1.0
  H  H80  1  0.76656000  0.51973000  0.17295000  1.0
  H  H81  1  0.23343000  0.01973000  0.32704000  1.0
  H  H82  1  0.23343000  0.48027000  0.82705000  1.0
  H  H83  1  0.76656000  0.98027000  0.67296000  1.0
  H  H84  1  0.06663000  0.51491000  0.15543000  1.0
  H  H85  1  0.93336000  0.01490000  0.34457000  1.0
  H  H86  1  0.93337000  0.48510000  0.84457000  1.0
  H  H87  1  0.06663000  0.98510000  0.65543000  1.0
  H  H88  1  0.23369000  0.50921000  0.17116000  1.0
  H  H89  1  0.76630000  0.00921000  0.32884000  1.0
  H  H90  1  0.76630000  0.49079000  0.82884000  1.0
  H  H91  1  0.23370000  0.99079000  0.67116000  1.0
  H  H92  1  0.66264000  0.01850000  0.48272000  1.0
  H  H93  1  0.33736000  0.51850000  0.01728000  1.0
  H  H94  1  0.33736000  0.98149000  0.51728000  1.0
  H  H95  1  0.66264000  0.48150000  0.98272000  1.0
  H  H96  1  0.78428000  0.98839000  0.44039000  1.0
  H  H97  1  0.21573000  0.48839000  0.05961000  1.0
  H  H98  1  0.21573000  0.01160000  0.55961000  1.0
  H  H99  1  0.78428000  0.51161000  0.94039000  1.0
  C  C100  1  0.47310000  0.81290000  0.52769000  1.0
  C  C101  1  0.52689000  0.31291000  0.97232000  1.0
  C  C102  1  0.52689000  0.18709000  0.47231000  1.0
  C  C103  1  0.47311000  0.68709000  0.02769000  1.0
  C  C104  1  0.42793000  0.82198000  0.59106000  1.0
  C  C105  1  0.57207000  0.32199000  0.90894000  1.0
  C  C106  1  0.57207000  0.17801000  0.40894000  1.0
  C  C107  1  0.42793000  0.67801000  0.09106000  1.0
  C  C108  1  0.45024000  0.73002000  0.62953000  1.0
  C  C109  1  0.54976000  0.23001000  0.87047000  1.0
  C  C110  1  0.54976000  0.26999000  0.37047000  1.0
  C  C111  1  0.45024000  0.76999000  0.12954000  1.0
  C  C112  1  0.34571000  0.65479000  0.63207000  1.0
  C  C113  1  0.65430000  0.15478000  0.86793000  1.0
  C  C114  1  0.65429000  0.34522000  0.36794000  1.0
  C  C115  1  0.34570000  0.84522000  0.13207000  1.0
  C  C116  1  0.36190000  0.57060000  0.66917000  1.0
  C  C117  1  0.63811000  0.07061000  0.83083000  1.0
  C  C118  1  0.63810000  0.42940000  0.33083000  1.0
  C  C119  1  0.36189000  0.92940000  0.16917000  1.0
  C  C120  1  0.48493000  0.55830000  0.70387000  1.0
  C  C121  1  0.51508000  0.05830000  0.79613000  1.0
  C  C122  1  0.51508000  0.44170000  0.29613000  1.0
  C  C123  1  0.48493000  0.94171000  0.20387000  1.0
  C  C124  1  0.59227000  0.63162000  0.69988000  1.0
  C  C125  1  0.40773000  0.13163000  0.80012000  1.0
  C  C126  1  0.40773000  0.36838000  0.30012000  1.0
  C  C127  1  0.59227000  0.86838000  0.19988000  1.0
  C  C128  1  0.57419000  0.71712000  0.66380000  1.0
  C  C129  1  0.42581000  0.21713000  0.83620000  1.0
  C  C130  1  0.42582000  0.28287000  0.33620000  1.0
  C  C131  1  0.57419000  0.78288000  0.16380000  1.0
  C  C132  1  0.49807000  0.47130000  0.74753000  1.0
  C  C133  1  0.50192000  0.97131000  0.75247000  1.0
  C  C134  1  0.50192000  0.52869000  0.25247000  1.0
  C  C135  1  0.49807000  0.02870000  0.24753000  1.0
  C  C136  1  0.49961000  0.51740000  0.80877000  1.0
  C  C137  1  0.50039000  0.01740000  0.69123000  1.0
  C  C138  1  0.50039000  0.48259000  0.19123000  1.0
  C  C139  1  0.49960000  0.98260000  0.30877000  1.0
  C  C140  1  0.77320000  0.72025000  0.32986000  1.0
  C  C141  1  0.22680000  0.22025000  0.17014000  1.0
  C  C142  1  0.22680000  0.27975000  0.67014000  1.0
  C  C143  1  0.77320000  0.77975000  0.82986000  1.0
  C  C144  1  0.81195000  0.67592000  0.41868000  1.0
  C  C145  1  0.18805000  0.17593000  0.08132000  1.0
  C  C146  1  0.18805000  0.32407000  0.58132000  1.0
  C  C147  1  0.81196000  0.82408000  0.91868000  1.0
  C  C148  1  0.30931000  0.73173000  0.32128000  1.0
  C  C149  1  0.69070000  0.23173000  0.17872000  1.0
  C  C150  1  0.69070000  0.26827000  0.67872000  1.0
  C  C151  1  0.30931000  0.76827000  0.82128000  1.0
  C  C152  1  0.34051000  0.65612000  0.40331000  1.0
  C  C153  1  0.65950000  0.15613000  0.09669000  1.0
  C  C154  1  0.65950000  0.34387000  0.59670000  1.0
  C  C155  1  0.34051000  0.84388000  0.90330000  1.0
  C  C156  1  0.00666000  0.85347000  0.25165000  1.0
  C  C157  1  0.99335000  0.35347000  0.24835000  1.0
  C  C158  1  0.99335000  0.14653000  0.74836000  1.0
  C  C159  1  0.00665000  0.64653000  0.75165000  1.0
  C  C160  1  0.98850000  0.80195000  0.16326000  1.0
  C  C161  1  0.01149000  0.30195000  0.33674000  1.0
  C  C162  1  0.01151000  0.19806000  0.83674000  1.0
  C  C163  1  0.98850000  0.69805000  0.66326000  1.0
  N  N164  1  0.73258000  0.74042000  0.38508000  1.0
  N  N165  1  0.26743000  0.24042000  0.11493000  1.0
  N  N166  1  0.26743000  0.25958000  0.61492000  1.0
  N  N167  1  0.73257000  0.75958000  0.88508000  1.0
  N  N168  1  0.89712000  0.61945000  0.38645000  1.0
  N  N169  1  0.10288000  0.11945000  0.11354000  1.0
  N  N170  1  0.10289000  0.38055000  0.61354000  1.0
  N  N171  1  0.89712000  0.88055000  0.88646000  1.0
  N  N172  1  0.87219000  0.64787000  0.32901000  1.0
  N  N173  1  0.12781000  0.14787000  0.17099000  1.0
  N  N174  1  0.12781000  0.35213000  0.67099000  1.0
  N  N175  1  0.87219000  0.85213000  0.82901000  1.0
  N  N176  1  0.38823000  0.73590000  0.37167000  1.0
  N  N177  1  0.61178000  0.23590000  0.12833000  1.0
  N  N178  1  0.61178000  0.26410000  0.62833000  1.0
  N  N179  1  0.38823000  0.76410000  0.87166000  1.0
  N  N180  1  0.21799000  0.65394000  0.32152000  1.0
  N  N181  1  0.78201000  0.15394000  0.17848000  1.0
  N  N182  1  0.78201000  0.34606000  0.67848000  1.0
  N  N183  1  0.21799000  0.84606000  0.82152000  1.0
  N  N184  1  0.23819000  0.60530000  0.37461000  1.0
  N  N185  1  0.76182000  0.10530000  0.12539000  1.0
  N  N186  1  0.76182000  0.39470000  0.62539000  1.0
  N  N187  1  0.23818000  0.89471000  0.87461000  1.0
  N  N188  1  0.01324000  0.76756000  0.21875000  1.0
  N  N189  1  0.98677000  0.26756000  0.28125000  1.0
  N  N190  1  0.98677000  0.23244000  0.78126000  1.0
  N  N191  1  0.01323000  0.73244000  0.71875000  1.0
  N  N192  1  0.97847000  0.93571000  0.21878000  1.0
  N  N193  1  0.02154000  0.43571000  0.28122000  1.0
  N  N194  1  0.02154000  0.06429000  0.78123000  1.0
  N  N195  1  0.97846000  0.56429000  0.71878000  1.0
  N  N196  1  0.96666000  0.90232000  0.16175000  1.0
  N  N197  1  0.03334000  0.40233000  0.33825000  1.0
  N  N198  1  0.03335000  0.09768000  0.83825000  1.0
  N  N199  1  0.96666000  0.59768000  0.66175000  1.0
  Cl  Cl200  1  0.91963000  0.37891000  0.48186000  1.0
  Cl  Cl201  1  0.08037000  0.87891000  0.01814000  1.0
  Cl  Cl202  1  0.08037000  0.62109000  0.51814000  1.0
  Cl  Cl203  1  0.91963000  0.12109000  0.98186000  1.0
  O  O204  1  0.42586000  0.88297000  0.49240000  1.0
  O  O205  1  0.57414000  0.38298000  0.00760000  1.0
  O  O206  1  0.57413000  0.11702000  0.50760000  1.0
  O  O207  1  0.42586000  0.61703000  0.99240000  1.0
  O  O208  1  0.55584000  0.74405000  0.51083000  1.0
  O  O209  1  0.44417000  0.24405000  0.98916000  1.0
  O  O210  1  0.44417000  0.25595000  0.48916000  1.0
  O  O211  1  0.55584000  0.75595000  0.01084000  1.0
  O  O212  1  0.61733000  0.55393000  0.82892000  1.0
  O  O213  1  0.38266000  0.05393000  0.67108000  1.0
  O  O214  1  0.38266000  0.44606000  0.17108000  1.0
  O  O215  1  0.61732000  0.94606000  0.32892000  1.0
  O  O216  1  0.38804000  0.52530000  0.83753000  1.0
  O  O217  1  0.61197000  0.02530000  0.66247000  1.0
  O  O218  1  0.61196000  0.47470000  0.16247000  1.0
  O  O219  1  0.38803000  0.97470000  0.33753000  1.0
  O  O220  1  0.71447000  0.95842000  0.46573000  1.0
  O  O221  1  0.28553000  0.45843000  0.03427000  1.0
  O  O222  1  0.28553000  0.04157000  0.53427000  1.0
  O  O223  1  0.71447000  0.54158000  0.96573000  1.0
  O  O224  1  0.14981000  0.55578000  0.16632000  1.0
  O  O225  1  0.85019000  0.05578000  0.33368000  1.0
  O  O226  1  0.85019000  0.44422000  0.83368000  1.0
  O  O227  1  0.14980000  0.94422000  0.66632000  1.0
  O  O228  1  0.86390000  0.55185000  0.17163000  1.0
  O  O229  1  0.13609000  0.05185000  0.32837000  1.0
  O  O230  1  0.13609000  0.44815000  0.82837000  1.0
  O  O231  1  0.86390000  0.94815000  0.67163000  1.0
  O  O232  1  0.29865000  0.41582000  0.44004000  1.0
  O  O233  1  0.70135000  0.91583000  0.05996000  1.0
  O  O234  1  0.70135000  0.58417000  0.55996000  1.0
  O  O235  1  0.29866000  0.08418000  0.94004000  1.0
