# generated using pymatgen
data_CoPH28C39N5O7
_symmetry_space_group_name_H-M   'P 1'
_cell_length_a   8.62207000
_cell_length_b   18.71710000
_cell_length_c   23.76080000
_cell_angle_alpha   90.00010000
_cell_angle_beta   90.00020000
_cell_angle_gamma   90.00000000
_symmetry_Int_Tables_number   1
_chemical_formula_structural   CoPH28C39N5O7
_chemical_formula_sum   'Co4 P4 H112 C156 N20 O28'
_cell_volume   3834.52138248
_cell_formula_units_Z   4
loop_
 _symmetry_equiv_pos_site_id
 _symmetry_equiv_pos_as_xyz
  1  'x, y, z'
loop_
 _atom_site_type_symbol
 _atom_site_label
 _atom_site_symmetry_multiplicity
 _atom_site_fract_x
 _atom_site_fract_y
 _atom_site_fract_z
 _atom_site_occupancy
  Co  Co0  1  0.70165000  0.47955000  0.34129000  1.0
  Co  Co1  1  0.29835000  0.97955000  0.65871000  1.0
  Co  Co2  1  0.79835000  0.47955000  0.84129000  1.0
  Co  Co3  1  0.20165000  0.97955000  0.15871000  1.0
  P  P4  1  0.47392000  0.13399000  0.59843000  1.0
  P  P5  1  0.52608000  0.63399000  0.40157000  1.0
  P  P6  1  0.02608000  0.13399000  0.09843000  1.0
  P  P7  1  0.97393000  0.63399000  0.90157000  1.0
  H  H8  1  0.05200000  0.45069000  0.34397000  1.0
  H  H9  1  0.94800000  0.95069000  0.65603000  1.0
  H  H10  1  0.44800000  0.45069000  0.84397000  1.0
  H  H11  1  0.55200000  0.95069000  0.15603000  1.0
  H  H12  1  0.26008000  0.44329000  0.41585000  1.0
  H  H13  1  0.73993000  0.94329000  0.58415000  1.0
  H  H14  1  0.23992000  0.44329000  0.91584000  1.0
  H  H15  1  0.76008000  0.94329000  0.08415000  1.0
  H  H16  1  0.91675000  0.49900000  0.54059000  1.0
  H  H17  1  0.08326000  0.99901000  0.45942000  1.0
  H  H18  1  0.58325000  0.49900000  0.04058000  1.0
  H  H19  1  0.41674000  0.99900000  0.95942000  1.0
  H  H20  1  0.72241000  0.50671000  0.46230000  1.0
  H  H21  1  0.27760000  0.00671000  0.53770000  1.0
  H  H22  1  0.77759000  0.50671000  0.96230000  1.0
  H  H23  1  0.22241000  0.00671000  0.03770000  1.0
  H  H24  1  0.41740000  0.43013000  0.48390000  1.0
  H  H25  1  0.58260000  0.93013000  0.51610000  1.0
  H  H26  1  0.08260000  0.43012000  0.98390000  1.0
  H  H27  1  0.91740000  0.93012000  0.01610000  1.0
  H  H28  1  0.45067000  0.41841000  0.66489000  1.0
  H  H29  1  0.54933000  0.91841000  0.33511000  1.0
  H  H30  1  0.04932000  0.41841000  0.16489000  1.0
  H  H31  1  0.95067000  0.91841000  0.83511000  1.0
  H  H32  1  0.27163000  0.38425000  0.73078000  1.0
  H  H33  1  0.72837000  0.88425000  0.26923000  1.0
  H  H34  1  0.22836000  0.38425000  0.23078000  1.0
  H  H35  1  0.77163000  0.88425000  0.76922000  1.0
  H  H36  1  0.10141000  0.39905000  0.81426000  1.0
  H  H37  1  0.89859000  0.89904000  0.18574000  1.0
  H  H38  1  0.39859000  0.39905000  0.31426000  1.0
  H  H39  1  0.60141000  0.89905000  0.68574000  1.0
  H  H40  1  0.86883000  0.56885000  0.74115000  1.0
  H  H41  1  0.13116000  0.06885000  0.25885000  1.0
  H  H42  1  0.63117000  0.56885000  0.24115000  1.0
  H  H43  1  0.36883000  0.06885000  0.75885000  1.0
  H  H44  1  0.01916000  0.55626000  0.65199000  1.0
  H  H45  1  0.98085000  0.05627000  0.34801000  1.0
  H  H46  1  0.48084000  0.55626000  0.15199000  1.0
  H  H47  1  0.51915000  0.05627000  0.84801000  1.0
  H  H48  1  0.59470000  0.34901000  0.48739000  1.0
  H  H49  1  0.40530000  0.84901000  0.51261000  1.0
  H  H50  1  0.90530000  0.34901000  0.98739000  1.0
  H  H51  1  0.09471000  0.84901000  0.01261000  1.0
  H  H52  1  0.85249000  0.29372000  0.48689000  1.0
  H  H53  1  0.14751000  0.79372000  0.51311000  1.0
  H  H54  1  0.64751000  0.29371000  0.98689000  1.0
  H  H55  1  0.35250000  0.79371000  0.01311000  1.0
  H  H56  1  0.93327000  0.37113000  0.65513000  1.0
  H  H57  1  0.06673000  0.87113000  0.34487000  1.0
  H  H58  1  0.56673000  0.37112000  0.15513000  1.0
  H  H59  1  0.43327000  0.87112000  0.84487000  1.0
  H  H60  1  0.68308000  0.43330000  0.65359000  1.0
  H  H61  1  0.31692000  0.93330000  0.34641000  1.0
  H  H62  1  0.81692000  0.43330000  0.15359000  1.0
  H  H63  1  0.18308000  0.93330000  0.84641000  1.0
  H  H64  1  0.14780000  0.31171000  0.49488000  1.0
  H  H65  1  0.85220000  0.81171000  0.50512000  1.0
  H  H66  1  0.35219000  0.31171000  0.99488000  1.0
  H  H67  1  0.64781000  0.81171000  0.00512000  1.0
  H  H68  1  0.38186000  0.23677000  0.50529000  1.0
  H  H69  1  0.61813000  0.73677000  0.49470000  1.0
  H  H70  1  0.11812000  0.23677000  0.00529000  1.0
  H  H71  1  0.88188000  0.73677000  0.99471000  1.0
  H  H72  1  0.21733000  0.16615000  0.66810000  1.0
  H  H73  1  0.78268000  0.66615000  0.33190000  1.0
  H  H74  1  0.28267000  0.16616000  0.16810000  1.0
  H  H75  1  0.71734000  0.66615000  0.83191000  1.0
  H  H76  1  0.98975000  0.24455000  0.65872000  1.0
  H  H77  1  0.01025000  0.74455000  0.34128000  1.0
  H  H78  1  0.51024000  0.24455000  0.15871000  1.0
  H  H79  1  0.48976000  0.74455000  0.84128000  1.0
  H  H80  1  0.39177000  0.10236000  0.48291000  1.0
  H  H81  1  0.60823000  0.60236000  0.51709000  1.0
  H  H82  1  0.10823000  0.10236000  0.98291000  1.0
  H  H83  1  0.89177000  0.60236000  0.01709000  1.0
  H  H84  1  0.53971000  0.10705000  0.39349000  1.0
  H  H85  1  0.46028000  0.60705000  0.60650000  1.0
  H  H86  1  0.96029000  0.10705000  0.89350000  1.0
  H  H87  1  0.03971000  0.60704000  0.10651000  1.0
  H  H88  1  0.81891000  0.13947000  0.39439000  1.0
  H  H89  1  0.18108000  0.63947000  0.60560000  1.0
  H  H90  1  0.68108000  0.13947000  0.89439000  1.0
  H  H91  1  0.31892000  0.63947000  0.10561000  1.0
  H  H92  1  0.95331000  0.16314000  0.48556000  1.0
  H  H93  1  0.04669000  0.66314000  0.51444000  1.0
  H  H94  1  0.54669000  0.16314000  0.98556000  1.0
  H  H95  1  0.45331000  0.66314000  0.01445000  1.0
  H  H96  1  0.80486000  0.16227000  0.57462000  1.0
  H  H97  1  0.19514000  0.66226000  0.42538000  1.0
  H  H98  1  0.69513000  0.16226000  0.07462000  1.0
  H  H99  1  0.30487000  0.66226000  0.92539000  1.0
  H  H100  1  0.71463000  0.07248000  0.66763000  1.0
  H  H101  1  0.28537000  0.57248000  0.33237000  1.0
  H  H102  1  0.78537000  0.07248000  0.16763000  1.0
  H  H103  1  0.21463000  0.57248000  0.83236000  1.0
  H  H104  1  0.86511000  0.11870000  0.74909000  1.0
  H  H105  1  0.13489000  0.61870000  0.25091000  1.0
  H  H106  1  0.63489000  0.11870000  0.24909000  1.0
  H  H107  1  0.36511000  0.61870000  0.75091000  1.0
  H  H108  1  0.81945000  0.24296000  0.78375000  1.0
  H  H109  1  0.18055000  0.74296000  0.21625000  1.0
  H  H110  1  0.68055000  0.24296000  0.28375000  1.0
  H  H111  1  0.31945000  0.74296000  0.71625000  1.0
  H  H112  1  0.63356000  0.32193000  0.73443000  1.0
  H  H113  1  0.36645000  0.82193000  0.26557000  1.0
  H  H114  1  0.86645000  0.32193000  0.23443000  1.0
  H  H115  1  0.13355000  0.82193000  0.76557000  1.0
  H  H116  1  0.48511000  0.27645000  0.65189000  1.0
  H  H117  1  0.51490000  0.77645000  0.34810000  1.0
  H  H118  1  0.01490000  0.27645000  0.15190000  1.0
  H  H119  1  0.98511000  0.77645000  0.84810000  1.0
  C  C120  1  0.02703000  0.46233000  0.38802000  1.0
  C  C121  1  0.97297000  0.96233000  0.61198000  1.0
  C  C122  1  0.47297000  0.46232000  0.88802000  1.0
  C  C123  1  0.52703000  0.96233000  0.11198000  1.0
  C  C124  1  0.14279000  0.45784000  0.42866000  1.0
  C  C125  1  0.85721000  0.95784000  0.57134000  1.0
  C  C126  1  0.35721000  0.45784000  0.92866000  1.0
  C  C127  1  0.64279000  0.95784000  0.07134000  1.0
  C  C128  1  0.10524000  0.47080000  0.48525000  1.0
  C  C129  1  0.89476000  0.97080000  0.51475000  1.0
  C  C130  1  0.39476000  0.47080000  0.98525000  1.0
  C  C131  1  0.60524000  0.97080000  0.01475000  1.0
  C  C132  1  0.95129000  0.48985000  0.49715000  1.0
  C  C133  1  0.04871000  0.98985000  0.50285000  1.0
  C  C134  1  0.54871000  0.48985000  0.99715000  1.0
  C  C135  1  0.45129000  0.98985000  0.00285000  1.0
  C  C136  1  0.84329000  0.49348000  0.45419000  1.0
  C  C137  1  0.15671000  0.99349000  0.54581000  1.0
  C  C138  1  0.65671000  0.49348000  0.95419000  1.0
  C  C139  1  0.34329000  0.99348000  0.04581000  1.0
  C  C140  1  0.21495000  0.46090000  0.53263000  1.0
  C  C141  1  0.78506000  0.96090000  0.46737000  1.0
  C  C142  1  0.28505000  0.46089000  0.03263000  1.0
  C  C143  1  0.71495000  0.96089000  0.96737000  1.0
  C  C144  1  0.36811000  0.43721000  0.52579000  1.0
  C  C145  1  0.63189000  0.93721000  0.47421000  1.0
  C  C146  1  0.13189000  0.43721000  0.02579000  1.0
  C  C147  1  0.86811000  0.93721000  0.97421000  1.0
  C  C148  1  0.45781000  0.42191000  0.57368000  1.0
  C  C149  1  0.54220000  0.92191000  0.42632000  1.0
  C  C150  1  0.04219000  0.42191000  0.07368000  1.0
  C  C151  1  0.95781000  0.92191000  0.92632000  1.0
  C  C152  1  0.38780000  0.43077000  0.62644000  1.0
  C  C153  1  0.61221000  0.93077000  0.37356000  1.0
  C  C154  1  0.11220000  0.43077000  0.12644000  1.0
  C  C155  1  0.88780000  0.93077000  0.87356000  1.0
  C  C156  1  0.23723000  0.45751000  0.62944000  1.0
  C  C157  1  0.76278000  0.95751000  0.37056000  1.0
  C  C158  1  0.26277000  0.45751000  0.12944000  1.0
  C  C159  1  0.73723000  0.95751000  0.87056000  1.0
  C  C160  1  0.15693000  0.46871000  0.68351000  1.0
  C  C161  1  0.84307000  0.96871000  0.31649000  1.0
  C  C162  1  0.34307000  0.46871000  0.18351000  1.0
  C  C163  1  0.65692000  0.96871000  0.81649000  1.0
  C  C164  1  0.18310000  0.42582000  0.73091000  1.0
  C  C165  1  0.81690000  0.92582000  0.26909000  1.0
  C  C166  1  0.31690000  0.42582000  0.23091000  1.0
  C  C167  1  0.68310000  0.92582000  0.76909000  1.0
  C  C168  1  0.08765000  0.43349000  0.77766000  1.0
  C  C169  1  0.91235000  0.93349000  0.22234000  1.0
  C  C170  1  0.41235000  0.43350000  0.27766000  1.0
  C  C171  1  0.58765000  0.93349000  0.72234000  1.0
  C  C172  1  0.95626000  0.52730000  0.73655000  1.0
  C  C173  1  0.04373000  0.02730000  0.26345000  1.0
  C  C174  1  0.54373000  0.52730000  0.23655000  1.0
  C  C175  1  0.45626000  0.02730000  0.76345000  1.0
  C  C176  1  0.04222000  0.52135000  0.68764000  1.0
  C  C177  1  0.95778000  0.02135000  0.31236000  1.0
  C  C178  1  0.45778000  0.52135000  0.18764000  1.0
  C  C179  1  0.54221000  0.02135000  0.81236000  1.0
  C  C180  1  0.61754000  0.39430000  0.57075000  1.0
  C  C181  1  0.38246000  0.89430000  0.42925000  1.0
  C  C182  1  0.88246000  0.39429000  0.07075000  1.0
  C  C183  1  0.11754000  0.89429000  0.92925000  1.0
  C  C184  1  0.67026000  0.35622000  0.52362000  1.0
  C  C185  1  0.32974000  0.85622000  0.47638000  1.0
  C  C186  1  0.82974000  0.35622000  0.02362000  1.0
  C  C187  1  0.17026000  0.85621000  0.97638000  1.0
  C  C188  1  0.81594000  0.32431000  0.52355000  1.0
  C  C189  1  0.18406000  0.82431000  0.47645000  1.0
  C  C190  1  0.68406000  0.32431000  0.02354000  1.0
  C  C191  1  0.31594000  0.82431000  0.97645000  1.0
  C  C192  1  0.91008000  0.32672000  0.57166000  1.0
  C  C193  1  0.08992000  0.82672000  0.42834000  1.0
  C  C194  1  0.58992000  0.32672000  0.07166000  1.0
  C  C195  1  0.41008000  0.82672000  0.92834000  1.0
  C  C196  1  0.85968000  0.36699000  0.61802000  1.0
  C  C197  1  0.14031000  0.86699000  0.38198000  1.0
  C  C198  1  0.64032000  0.36699000  0.11801000  1.0
  C  C199  1  0.35969000  0.86699000  0.88198000  1.0
  C  C200  1  0.71754000  0.40156000  0.61722000  1.0
  C  C201  1  0.28245000  0.90156000  0.38278000  1.0
  C  C202  1  0.78246000  0.40156000  0.11722000  1.0
  C  C203  1  0.21754000  0.90156000  0.88278000  1.0
  C  C204  1  0.05272000  0.28374000  0.57611000  1.0
  C  C205  1  0.94728000  0.78374000  0.42389000  1.0
  C  C206  1  0.44728000  0.28374000  0.07611000  1.0
  C  C207  1  0.55272000  0.78374000  0.92389000  1.0
  C  C208  1  0.16330000  0.27983000  0.53289000  1.0
  C  C209  1  0.83670000  0.77983000  0.46711000  1.0
  C  C210  1  0.33669000  0.27983000  0.03289000  1.0
  C  C211  1  0.66331000  0.77983000  0.96711000  1.0
  C  C212  1  0.29508000  0.23716000  0.53865000  1.0
  C  C213  1  0.70492000  0.73716000  0.46136000  1.0
  C  C214  1  0.20491000  0.23716000  0.03864000  1.0
  C  C215  1  0.79509000  0.73716000  0.96136000  1.0
  C  C216  1  0.31545000  0.19542000  0.58715000  1.0
  C  C217  1  0.68456000  0.69542000  0.41285000  1.0
  C  C218  1  0.18455000  0.19542000  0.08715000  1.0
  C  C219  1  0.81546000  0.69542000  0.91285000  1.0
  C  C220  1  0.20479000  0.19902000  0.63053000  1.0
  C  C221  1  0.79521000  0.69902000  0.36947000  1.0
  C  C222  1  0.29520000  0.19902000  0.13053000  1.0
  C  C223  1  0.70480000  0.69902000  0.86947000  1.0
  C  C224  1  0.07643000  0.24323000  0.62528000  1.0
  C  C225  1  0.92357000  0.74323000  0.37472000  1.0
  C  C226  1  0.42356000  0.24323000  0.12528000  1.0
  C  C227  1  0.57644000  0.74323000  0.87472000  1.0
  C  C228  1  0.58806000  0.13301000  0.53482000  1.0
  C  C229  1  0.41194000  0.63302000  0.46517000  1.0
  C  C230  1  0.91194000  0.13301000  0.03482000  1.0
  C  C231  1  0.08806000  0.63301000  0.96518000  1.0
  C  C232  1  0.51468000  0.11625000  0.48349000  1.0
  C  C233  1  0.48532000  0.61625000  0.51651000  1.0
  C  C234  1  0.98532000  0.11625000  0.98349000  1.0
  C  C235  1  0.01468000  0.61625000  0.01651000  1.0
  C  C236  1  0.59753000  0.11880000  0.43325000  1.0
  C  C237  1  0.40246000  0.61880000  0.56675000  1.0
  C  C238  1  0.90247000  0.11880000  0.93325000  1.0
  C  C239  1  0.09753000  0.61880000  0.06675000  1.0
  C  C240  1  0.75504000  0.13650000  0.43391000  1.0
  C  C241  1  0.24495000  0.63650000  0.56609000  1.0
  C  C242  1  0.74495000  0.13650000  0.93390000  1.0
  C  C243  1  0.25504000  0.63650000  0.06610000  1.0
  C  C244  1  0.82991000  0.15036000  0.48479000  1.0
  C  C245  1  0.17009000  0.65036000  0.51521000  1.0
  C  C246  1  0.67009000  0.15035000  0.98479000  1.0
  C  C247  1  0.32991000  0.65035000  0.01521000  1.0
  C  C248  1  0.74661000  0.14939000  0.53519000  1.0
  C  C249  1  0.25339000  0.64939000  0.46481000  1.0
  C  C250  1  0.75338000  0.14939000  0.03519000  1.0
  C  C251  1  0.24661000  0.64939000  0.96481000  1.0
  C  C252  1  0.58917000  0.17135000  0.65472000  1.0
  C  C253  1  0.41083000  0.67135000  0.34528000  1.0
  C  C254  1  0.91083000  0.17135000  0.15472000  1.0
  C  C255  1  0.08917000  0.67135000  0.84528000  1.0
  C  C256  1  0.69769000  0.12728000  0.68201000  1.0
  C  C257  1  0.30230000  0.62728000  0.31799000  1.0
  C  C258  1  0.80231000  0.12728000  0.18201000  1.0
  C  C259  1  0.19770000  0.62728000  0.81799000  1.0
  C  C260  1  0.78141000  0.15313000  0.72794000  1.0
  C  C261  1  0.21859000  0.65313000  0.27206000  1.0
  C  C262  1  0.71859000  0.15312000  0.22794000  1.0
  C  C263  1  0.28141000  0.65313000  0.77206000  1.0
  C  C264  1  0.75686000  0.22291000  0.74710000  1.0
  C  C265  1  0.24314000  0.72291000  0.25290000  1.0
  C  C266  1  0.74314000  0.22291000  0.24710000  1.0
  C  C267  1  0.25686000  0.72291000  0.75290000  1.0
  C  C268  1  0.65086000  0.26735000  0.71964000  1.0
  C  C269  1  0.34914000  0.76735000  0.28036000  1.0
  C  C270  1  0.84914000  0.26734000  0.21965000  1.0
  C  C271  1  0.15086000  0.76735000  0.78036000  1.0
  C  C272  1  0.56763000  0.24180000  0.67341000  1.0
  C  C273  1  0.43237000  0.74180000  0.32659000  1.0
  C  C274  1  0.93238000  0.24180000  0.17342000  1.0
  C  C275  1  0.06763000  0.74180000  0.82659000  1.0
  N  N276  1  0.87859000  0.47932000  0.40006000  1.0
  N  N277  1  0.12141000  0.97932000  0.59994000  1.0
  N  N278  1  0.62141000  0.47932000  0.90006000  1.0
  N  N279  1  0.37859000  0.97932000  0.09994000  1.0
  N  N280  1  0.15311000  0.47289000  0.58367000  1.0
  N  N281  1  0.84689000  0.97289000  0.41634000  1.0
  N  N282  1  0.34689000  0.47288000  0.08366000  1.0
  N  N283  1  0.65311000  0.97289000  0.91634000  1.0
  N  N284  1  0.97267000  0.48221000  0.78054000  1.0
  N  N285  1  0.02733000  0.98221000  0.21946000  1.0
  N  N286  1  0.52732000  0.48221000  0.28054000  1.0
  N  N287  1  0.47267000  0.98221000  0.71946000  1.0
  N  N288  1  0.89429000  0.51648000  0.25748000  1.0
  N  N289  1  0.10571000  0.01648000  0.74252000  1.0
  N  N290  1  0.60570000  0.51648000  0.75748000  1.0
  N  N291  1  0.39429000  0.01648000  0.24252000  1.0
  N  N292  1  0.61448000  0.35196000  0.37850000  1.0
  N  N293  1  0.38553000  0.85196000  0.62150000  1.0
  N  N294  1  0.88553000  0.35196000  0.87850000  1.0
  N  N295  1  0.11447000  0.85196000  0.12149000  1.0
  O  O296  1  0.41578000  0.05992000  0.61333000  1.0
  O  O297  1  0.58422000  0.55992000  0.38667000  1.0
  O  O298  1  0.08422000  0.05992000  0.11333000  1.0
  O  O299  1  0.91578000  0.55992000  0.88667000  1.0
  O  O300  1  0.54657000  0.41010000  0.39452000  1.0
  O  O301  1  0.45343000  0.91011000  0.60549000  1.0
  O  O302  1  0.95343000  0.41011000  0.89452000  1.0
  O  O303  1  0.04657000  0.91011000  0.10548000  1.0
  O  O304  1  0.72617000  0.36082000  0.34364000  1.0
  O  O305  1  0.27383000  0.86082000  0.65636000  1.0
  O  O306  1  0.77383000  0.36082000  0.84364000  1.0
  O  O307  1  0.22617000  0.86082000  0.15636000  1.0
  O  O308  1  0.57338000  0.29235000  0.39550000  1.0
  O  O309  1  0.42662000  0.79235000  0.60450000  1.0
  O  O310  1  0.92662000  0.29235000  0.89550000  1.0
  O  O311  1  0.07338000  0.79235000  0.10450000  1.0
  O  O312  1  0.84569000  0.56049000  0.29513000  1.0
  O  O313  1  0.15432000  0.06050000  0.70487000  1.0
  O  O314  1  0.65432000  0.56050000  0.79513000  1.0
  O  O315  1  0.34568000  0.06050000  0.20487000  1.0
  O  O316  1  0.97247000  0.53622000  0.21645000  1.0
  O  O317  1  0.02753000  0.03622000  0.78355000  1.0
  O  O318  1  0.52753000  0.53622000  0.71645000  1.0
  O  O319  1  0.47247000  0.03622000  0.28355000  1.0
  O  O320  1  0.85466000  0.45113000  0.26480000  1.0
  O  O321  1  0.14534000  0.95113000  0.73520000  1.0
  O  O322  1  0.64532000  0.45113000  0.76481000  1.0
  O  O323  1  0.35467000  0.95113000  0.23519000  1.0
