# generated using pymatgen
data_Al2H13C18N2O10F
_symmetry_space_group_name_H-M   'P 1'
_cell_length_a   6.68579000
_cell_length_b   16.05030000
_cell_length_c   17.54170000
_cell_angle_alpha   80.06400000
_cell_angle_beta   90.01080000
_cell_angle_gamma   90.00020000
_symmetry_Int_Tables_number   1
_chemical_formula_structural   Al2H13C18N2O10F
_chemical_formula_sum   'Al4 H26 C36 N4 O20 F2'
_cell_volume   1854.14747918
_cell_formula_units_Z   2
loop_
 _symmetry_equiv_pos_site_id
 _symmetry_equiv_pos_as_xyz
  1  'x, y, z'
loop_
 _atom_site_type_symbol
 _atom_site_label
 _atom_site_symmetry_multiplicity
 _atom_site_fract_x
 _atom_site_fract_y
 _atom_site_fract_z
 _atom_site_occupancy
  Al  Al0  1  0.10939000  0.49983000  0.49457000  1.0
  Al  Al1  1  0.60939000  0.50017000  0.50548000  1.0
  Al  Al2  1  0.65652000  0.00156000  0.00140000  1.0
  Al  Al3  1  0.15654000  0.99837000  0.99912000  1.0
  H  H4  1  0.59816000  0.19087000  0.81294000  1.0
  H  H5  1  0.09844000  0.80910000  0.18692000  1.0
  H  H6  1  0.05602000  0.19393000  0.79275000  1.0
  H  H7  1  0.55616000  0.80639000  0.20778000  1.0
  H  H8  1  0.57798000  0.30101000  0.69722000  1.0
  H  H9  1  0.07796000  0.69895000  0.30272000  1.0
  H  H10  1  0.03866000  0.30477000  0.69741000  1.0
  H  H11  1  0.53862000  0.69523000  0.30270000  1.0
  H  H12  1  0.24398000  0.18186000  0.30050000  1.0
  H  H13  1  0.74390000  0.81820000  0.69975000  1.0
  H  H14  1  0.21537000  0.09365000  0.19701000  1.0
  H  H15  1  0.71522000  0.90627000  0.80329000  1.0
  H  H16  1  0.63638000  0.19690000  0.13390000  1.0
  H  H17  1  0.13630000  0.80286000  0.86624000  1.0
  H  H18  1  0.35606000  0.38888000  0.29401000  1.0
  H  H19  1  0.49404000  0.43437000  0.35551000  1.0
  H  H20  1  0.85627000  0.61101000  0.70595000  1.0
  H  H21  1  0.99434000  0.56560000  0.64446000  1.0
  H  H22  1  0.40696000  0.38002000  0.17873000  1.0
  H  H23  1  0.45181000  0.28845000  0.14723000  1.0
  H  H24  1  0.95212000  0.71121000  0.85293000  1.0
  H  H25  1  0.90721000  0.61978000  0.82124000  1.0
  H  H26  1  0.35806000  0.38807000  0.51858000  1.0
  H  H27  1  0.85798000  0.61190000  0.48133000  1.0
  H  H28  1  0.40157000  0.11178000  0.98580000  1.0
  H  H29  1  0.90118000  0.88855000  0.00832000  1.0
  C  C30  1  0.35289000  0.59087000  0.59805000  1.0
  C  C31  1  0.85268000  0.40914000  0.40199000  1.0
  C  C32  1  0.36496000  0.61233000  0.38834000  1.0
  C  C33  1  0.86501000  0.38767000  0.61172000  1.0
  C  C34  1  0.73896000  0.21369000  0.78521000  1.0
  C  C35  1  0.23910000  0.78635000  0.21485000  1.0
  C  C36  1  0.90825000  0.17674000  0.81673000  1.0
  C  C37  1  0.40848000  0.82345000  0.18362000  1.0
  C  C38  1  0.72716000  0.28065000  0.71822000  1.0
  C  C39  1  0.22716000  0.71934000  0.28180000  1.0
  C  C40  1  0.88479000  0.32056000  0.68003000  1.0
  C  C41  1  0.38477000  0.67942000  0.32004000  1.0
  C  C42  1  0.82875000  0.35617000  0.34074000  1.0
  C  C43  1  0.32892000  0.64384000  0.65932000  1.0
  C  C44  1  0.92232000  0.14254000  0.15972000  1.0
  C  C45  1  0.42226000  0.85729000  0.84058000  1.0
  C  C46  1  0.11235000  0.18595000  0.26350000  1.0
  C  C47  1  0.61231000  0.81402000  0.73672000  1.0
  C  C48  1  0.09670000  0.13714000  0.20670000  1.0
  C  C49  1  0.59663000  0.86274000  0.79360000  1.0
  C  C50  1  0.76846000  0.19700000  0.17035000  1.0
  C  C51  1  0.26844000  0.80285000  0.82983000  1.0
  C  C52  1  0.78257000  0.25100000  0.22622000  1.0
  C  C53  1  0.28261000  0.74891000  0.77392000  1.0
  C  C54  1  0.95926000  0.24427000  0.27398000  1.0
  C  C55  1  0.45929000  0.75570000  0.72618000  1.0
  C  C56  1  0.97551000  0.29832000  0.32865000  1.0
  C  C57  1  0.47564000  0.70170000  0.67147000  1.0
  C  C58  1  0.64913000  0.35976000  0.29529000  1.0
  C  C59  1  0.14930000  0.64019000  0.70475000  1.0
  C  C60  1  0.63181000  0.31033000  0.23663000  1.0
  C  C61  1  0.13191000  0.68957000  0.76345000  1.0
  C  C62  1  0.40679000  0.88952000  0.11363000  1.0
  C  C63  1  0.90635000  0.11069000  0.88674000  1.0
  C  C64  1  0.40979000  0.90886000  0.90332000  1.0
  C  C65  1  0.91001000  0.09084000  0.09711000  1.0
  N  N66  1  0.49187000  0.41389000  0.30366000  1.0
  N  N67  1  0.99212000  0.58605000  0.69631000  1.0
  N  N68  1  0.45599000  0.31929000  0.19298000  1.0
  N  N69  1  0.95613000  0.68052000  0.80709000  1.0
  O  O70  1  0.52996000  0.58647000  0.42108000  1.0
  O  O71  1  0.03007000  0.41360000  0.57908000  1.0
  O  O72  1  0.19154000  0.57174000  0.56597000  1.0
  O  O73  1  0.69133000  0.42834000  0.43401000  1.0
  O  O74  1  0.19099000  0.58529000  0.41020000  1.0
  O  O75  1  0.69105000  0.41465000  0.58979000  1.0
  O  O76  1  0.02674000  0.43183000  0.41959000  1.0
  O  O77  1  0.52695000  0.56811000  0.58054000  1.0
  O  O78  1  0.35996000  0.44889000  0.50236000  1.0
  O  O79  1  0.86000000  0.55110000  0.49773000  1.0
  O  O80  1  0.23704000  0.92618000  0.92742000  1.0
  O  O81  1  0.73746000  0.07396000  0.07256000  1.0
  O  O82  1  0.57791000  0.91664000  0.08802000  1.0
  O  O83  1  0.07754000  0.08396000  0.91272000  1.0
  O  O84  1  0.57656000  0.93070000  0.92914000  1.0
  O  O85  1  0.07671000  0.06844000  0.07176000  1.0
  O  O86  1  0.73730000  0.08654000  0.91610000  1.0
  O  O87  1  0.23796000  0.91331000  0.08389000  1.0
  O  O88  1  0.40506000  0.05063000  0.99568000  1.0
  O  O89  1  0.90509000  0.94934000  0.00457000  1.0
  F  F90  1  0.14340000  0.28972000  0.37393000  1.0
  F  F91  1  0.64358000  0.71033000  0.62623000  1.0
