# generated using pymatgen
data_ZnH16C21(NO)6
_symmetry_space_group_name_H-M   'P 1'
_cell_length_a   9.55513000
_cell_length_b   10.36560000
_cell_length_c   11.68580000
_cell_angle_alpha   83.29880000
_cell_angle_beta   71.13320000
_cell_angle_gamma   69.64200000
_symmetry_Int_Tables_number   1
_chemical_formula_structural   ZnH16C21(NO)6
_chemical_formula_sum   'Zn2 H32 C42 N12 O12'
_cell_volume   1026.80877293
_cell_formula_units_Z   2
loop_
 _symmetry_equiv_pos_site_id
 _symmetry_equiv_pos_as_xyz
  1  'x, y, z'
loop_
 _atom_site_type_symbol
 _atom_site_label
 _atom_site_symmetry_multiplicity
 _atom_site_fract_x
 _atom_site_fract_y
 _atom_site_fract_z
 _atom_site_occupancy
  Zn  Zn0  1  0.23484000  0.58991000  0.65408000  1.0
  Zn  Zn1  1  0.76516000  0.41009000  0.34591000  1.0
  H  H2  1  0.60481000  0.17367000  0.67495000  1.0
  H  H3  1  0.39519000  0.82633000  0.32505000  1.0
  H  H4  1  0.58350000  0.76949000  0.64886000  1.0
  H  H5  1  0.41650000  0.23051000  0.35114000  1.0
  H  H6  1  0.18676000  0.12910000  0.64946000  1.0
  H  H7  1  0.81324000  0.87090000  0.35054000  1.0
  H  H8  1  0.14419000  0.82231000  0.44946000  1.0
  H  H9  1  0.85581000  0.17769000  0.55054000  1.0
  H  H10  1  0.22960000  0.39495000  0.45457000  1.0
  H  H11  1  0.77040000  0.60505000  0.54543000  1.0
  H  H12  1  0.04483000  0.87124000  0.25576000  1.0
  H  H13  1  0.95517000  0.12877000  0.74423000  1.0
  H  H14  1  0.05419000  0.72566000  0.18488000  1.0
  H  H15  1  0.94581000  0.27434000  0.81511000  1.0
  H  H16  1  0.13699000  0.96973000  0.05235000  1.0
  H  H17  1  0.86301000  0.03027000  0.94765000  1.0
  H  H18  1  0.37143000  0.00048000  0.89771000  1.0
  H  H19  1  0.62857000  0.99951000  0.10229000  1.0
  H  H20  1  0.63591000  0.83263000  0.88319000  1.0
  H  H21  1  0.36409000  0.16737000  0.11681000  1.0
  H  H22  1  0.43118000  0.60150000  0.17956000  1.0
  H  H23  1  0.56882000  0.39850000  0.82044000  1.0
  H  H24  1  0.71387000  0.57534000  0.11741000  1.0
  H  H25  1  0.28613000  0.42466000  0.88259000  1.0
  H  H26  1  0.71668000  0.50179000  0.98667000  1.0
  H  H27  1  0.28332000  0.49821000  0.01333000  1.0
  H  H28  1  0.90901000  0.53112000  0.78444000  1.0
  H  H29  1  0.09099000  0.46888000  0.21556000  1.0
  H  H30  1  0.10642000  0.76856000  0.91296000  1.0
  H  H31  1  0.89358000  0.23144000  0.08703000  1.0
  H  H32  1  0.96822000  0.92774000  0.65494000  1.0
  H  H33  1  0.03178000  0.07226000  0.34506000  1.0
  C  C34  1  0.30410000  0.31907000  0.67078000  1.0
  C  C35  1  0.69590000  0.68093000  0.32922000  1.0
  C  C36  1  0.78208000  0.89448000  0.64851000  1.0
  C  C37  1  0.21792000  0.10553000  0.35149000  1.0
  C  C38  1  0.28193000  0.84922000  0.64612000  1.0
  C  C39  1  0.71808000  0.15077000  0.35389000  1.0
  C  C40  1  0.38646000  0.16644000  0.66605000  1.0
  C  C41  1  0.61354000  0.83356000  0.33395000  1.0
  C  C42  1  0.54165000  0.10732000  0.66748000  1.0
  C  C43  1  0.45835000  0.89268000  0.33253000  1.0
  C  C44  1  0.61401000  0.96425000  0.65749000  1.0
  C  C45  1  0.38599000  0.03575000  0.34251000  1.0
  C  C46  1  0.52870000  0.88065000  0.65218000  1.0
  C  C47  1  0.47130000  0.11934000  0.34782000  1.0
  C  C48  1  0.37372000  0.93875000  0.65149000  1.0
  C  C49  1  0.62628000  0.06124000  0.34851000  1.0
  C  C50  1  0.30487000  0.08171000  0.65557000  1.0
  C  C51  1  0.69513000  0.91829000  0.34443000  1.0
  C  C52  1  0.16344000  0.71831000  0.42547000  1.0
  C  C53  1  0.83656000  0.28169000  0.57453000  1.0
  C  C54  1  0.20999000  0.50071000  0.42436000  1.0
  C  C55  1  0.79001000  0.49929000  0.57564000  1.0
  C  C56  1  0.12208000  0.76893000  0.22011000  1.0
  C  C57  1  0.87792000  0.23107000  0.77989000  1.0
  C  C58  1  0.26775000  0.78117000  0.12432000  1.0
  C  C59  1  0.73225000  0.21883000  0.87568000  1.0
  C  C60  1  0.25235000  0.89343000  0.04417000  1.0
  C  C61  1  0.74765000  0.10657000  0.95583000  1.0
  C  C62  1  0.38417000  0.91124000  0.95769000  1.0
  C  C63  1  0.61583000  0.08876000  0.04231000  1.0
  C  C64  1  0.53305000  0.81703000  0.94987000  1.0
  C  C65  1  0.46695000  0.18297000  0.05013000  1.0
  C  C66  1  0.54966000  0.70505000  0.02886000  1.0
  C  C67  1  0.45034000  0.29496000  0.97114000  1.0
  C  C68  1  0.41656000  0.68739000  0.11593000  1.0
  C  C69  1  0.58344000  0.31261000  0.88407000  1.0
  C  C70  1  0.70619000  0.59794000  0.02510000  1.0
  C  C71  1  0.29381000  0.40207000  0.97490000  1.0
  C  C72  1  0.93338000  0.59220000  0.84085000  1.0
  C  C73  1  0.06662000  0.40780000  0.15915000  1.0
  C  C74  1  0.02877000  0.71506000  0.90833000  1.0
  C  C75  1  0.97123000  0.28494000  0.09167000  1.0
  N  N76  1  0.19885000  0.60477000  0.49233000  1.0
  N  N77  1  0.80115000  0.39523000  0.50766000  1.0
  N  N78  1  0.15459000  0.68269000  0.32203000  1.0
  N  N79  1  0.84541000  0.31731000  0.67797000  1.0
  N  N80  1  0.18516000  0.54439000  0.31936000  1.0
  N  N81  1  0.81484000  0.45562000  0.68064000  1.0
  N  N82  1  0.05291000  0.64139000  0.80974000  1.0
  N  N83  1  0.94709000  0.35861000  0.19025000  1.0
  N  N84  1  0.84346000  0.63419000  0.95337000  1.0
  N  N85  1  0.15654000  0.36581000  0.04663000  1.0
  N  N86  1  0.90217000  0.71324000  0.99850000  1.0
  N  N87  1  0.09784000  0.28676000  0.00150000  1.0
  O  O88  1  0.16331000  0.36443000  0.67239000  1.0
  O  O89  1  0.83669000  0.63557000  0.32761000  1.0
  O  O90  1  0.38342000  0.39886000  0.67056000  1.0
  O  O91  1  0.61658000  0.60114000  0.32944000  1.0
  O  O92  1  0.85275000  0.97833000  0.66643000  1.0
  O  O93  1  0.14725000  0.02167000  0.33357000  1.0
  O  O94  1  0.84989000  0.77113000  0.62616000  1.0
  O  O95  1  0.15011000  0.22887000  0.37384000  1.0
  O  O96  1  0.34734000  0.71912000  0.65716000  1.0
  O  O97  1  0.65266000  0.28088000  0.34284000  1.0
  O  O98  1  0.14837000  0.90671000  0.63164000  1.0
  O  O99  1  0.85163000  0.09328000  0.36836000  1.0
