# generated using pymatgen
data_CuH14C16NO4F
_symmetry_space_group_name_H-M   'P 1'
_cell_length_a   10.55750000
_cell_length_b   15.19920000
_cell_length_c   30.61410000
_cell_angle_alpha   100.05000000
_cell_angle_beta   89.99080000
_cell_angle_gamma   89.99740000
_symmetry_Int_Tables_number   1
_chemical_formula_structural   CuH14C16NO4F
_chemical_formula_sum   'Cu12 H168 C192 N12 O48 F12'
_cell_volume   4837.13013122
_cell_formula_units_Z   12
loop_
 _symmetry_equiv_pos_site_id
 _symmetry_equiv_pos_as_xyz
  1  'x, y, z'
loop_
 _atom_site_type_symbol
 _atom_site_label
 _atom_site_symmetry_multiplicity
 _atom_site_fract_x
 _atom_site_fract_y
 _atom_site_fract_z
 _atom_site_occupancy
  Cu  Cu0  1  0.91331000  0.98107000  0.97000000  1.0
  Cu  Cu1  1  0.41390000  0.51881000  0.02983000  1.0
  Cu  Cu2  1  0.08673000  0.01894000  0.03001000  1.0
  Cu  Cu3  1  0.58609000  0.48120000  0.97017000  1.0
  Cu  Cu4  1  0.58707000  0.15178000  0.63737000  1.0
  Cu  Cu5  1  0.08707000  0.34821000  0.36263000  1.0
  Cu  Cu6  1  0.41292000  0.84821000  0.36263000  1.0
  Cu  Cu7  1  0.91293000  0.65178000  0.63737000  1.0
  Cu  Cu8  1  0.41198000  0.18615000  0.69702000  1.0
  Cu  Cu9  1  0.91198000  0.31385000  0.30298000  1.0
  Cu  Cu10  1  0.58802000  0.81385000  0.30298000  1.0
  Cu  Cu11  1  0.08802000  0.68615000  0.69702000  1.0
  H  H12  1  0.31099000  0.34377000  0.86486000  1.0
  H  H13  1  0.81102000  0.15621000  0.13514000  1.0
  H  H14  1  0.68901000  0.65622000  0.13514000  1.0
  H  H15  1  0.18898000  0.84379000  0.86486000  1.0
  H  H16  1  0.44330000  0.29369000  0.53581000  1.0
  H  H17  1  0.94329000  0.20630000  0.46418000  1.0
  H  H18  1  0.55670000  0.70631000  0.46419000  1.0
  H  H19  1  0.05671000  0.79370000  0.53581000  1.0
  H  H20  1  0.23508000  0.25600000  0.98854000  1.0
  H  H21  1  0.73507000  0.24398000  0.01145000  1.0
  H  H22  1  0.76491000  0.74400000  0.01146000  1.0
  H  H23  1  0.26492000  0.75602000  0.98854000  1.0
  H  H24  1  0.64126000  0.43511000  0.87026000  1.0
  H  H25  1  0.14125000  0.06490000  0.12975000  1.0
  H  H26  1  0.35874000  0.56490000  0.12974000  1.0
  H  H27  1  0.85875000  0.93510000  0.87025000  1.0
  H  H28  1  0.17881000  0.50937000  0.53191000  1.0
  H  H29  1  0.67881000  0.99063000  0.46809000  1.0
  H  H30  1  0.82119000  0.49063000  0.46809000  1.0
  H  H31  1  0.32119000  0.00937000  0.53191000  1.0
  H  H32  1  0.75857000  0.41695000  0.67905000  1.0
  H  H33  1  0.25856000  0.08306000  0.32096000  1.0
  H  H34  1  0.24144000  0.58305000  0.32095000  1.0
  H  H35  1  0.74144000  0.91694000  0.67904000  1.0
  H  H36  1  0.87325000  0.47409000  0.98132000  1.0
  H  H37  1  0.37328000  0.02591000  0.01868000  1.0
  H  H38  1  0.12675000  0.52591000  0.01868000  1.0
  H  H39  1  0.62672000  0.97409000  0.98132000  1.0
  H  H40  1  0.68433000  0.32530000  0.80183000  1.0
  H  H41  1  0.18433000  0.17470000  0.19817000  1.0
  H  H42  1  0.31567000  0.67471000  0.19817000  1.0
  H  H43  1  0.81567000  0.82530000  0.80183000  1.0
  H  H44  1  0.25881000  0.42135000  0.65525000  1.0
  H  H45  1  0.75882000  0.07866000  0.34476000  1.0
  H  H46  1  0.74119000  0.57865000  0.34475000  1.0
  H  H47  1  0.24117000  0.92134000  0.65524000  1.0
  H  H48  1  0.94989000  0.21018000  0.81466000  1.0
  H  H49  1  0.44991000  0.28982000  0.18534000  1.0
  H  H50  1  0.05011000  0.78982000  0.18534000  1.0
  H  H51  1  0.55009000  0.71018000  0.81465000  1.0
  H  H52  1  0.04653000  0.45655000  0.85223000  1.0
  H  H53  1  0.54652000  0.04345000  0.14776000  1.0
  H  H54  1  0.95347000  0.54345000  0.14777000  1.0
  H  H55  1  0.45348000  0.95655000  0.85224000  1.0
  H  H56  1  0.35519000  0.23279000  0.79704000  1.0
  H  H57  1  0.85521000  0.26721000  0.20295000  1.0
  H  H58  1  0.64481000  0.76721000  0.20296000  1.0
  H  H59  1  0.14479000  0.73279000  0.79705000  1.0
  H  H60  1  0.04914000  0.12704000  0.86966000  1.0
  H  H61  1  0.54916000  0.37296000  0.13035000  1.0
  H  H62  1  0.95086000  0.87296000  0.13034000  1.0
  H  H63  1  0.45084000  0.62704000  0.86965000  1.0
  H  H64  1  0.94825000  0.54122000  0.79800000  1.0
  H  H65  1  0.44826000  0.95877000  0.20199000  1.0
  H  H66  1  0.05175000  0.45878000  0.20200000  1.0
  H  H67  1  0.55174000  0.04123000  0.79801000  1.0
  H  H68  1  0.12474000  0.18858000  0.68560000  1.0
  H  H69  1  0.62472000  0.31142000  0.31440000  1.0
  H  H70  1  0.87526000  0.81142000  0.31440000  1.0
  H  H71  1  0.37528000  0.68858000  0.68560000  1.0
  H  H72  1  0.54185000  0.38293000  0.48244000  1.0
  H  H73  1  0.04186000  0.11706000  0.51755000  1.0
  H  H74  1  0.45816000  0.61707000  0.51756000  1.0
  H  H75  1  0.95814000  0.88293000  0.48245000  1.0
  H  H76  1  0.37280000  0.36074000  0.35252000  1.0
  H  H77  1  0.87278000  0.13926000  0.64748000  1.0
  H  H78  1  0.62720000  0.63926000  0.64748000  1.0
  H  H79  1  0.12722000  0.86074000  0.35252000  1.0
  H  H80  1  0.13650000  0.39665000  0.46245000  1.0
  H  H81  1  0.63651000  0.10335000  0.53755000  1.0
  H  H82  1  0.86350000  0.60335000  0.53754000  1.0
  H  H83  1  0.36349000  0.89665000  0.46245000  1.0
  H  H84  1  0.21966000  0.42312000  0.81053000  1.0
  H  H85  1  0.71966000  0.07688000  0.18947000  1.0
  H  H86  1  0.78034000  0.57688000  0.18947000  1.0
  H  H87  1  0.28033000  0.92312000  0.81053000  1.0
  H  H88  1  0.24588000  0.53867000  0.81394000  1.0
  H  H89  1  0.74589000  0.96133000  0.18606000  1.0
  H  H90  1  0.75412000  0.46133000  0.18606000  1.0
  H  H91  1  0.25411000  0.03867000  0.81394000  1.0
  H  H92  1  0.16970000  0.47176000  0.73808000  1.0
  H  H93  1  0.66970000  0.02824000  0.26193000  1.0
  H  H94  1  0.83030000  0.52824000  0.26192000  1.0
  H  H95  1  0.33031000  0.97176000  0.73807000  1.0
  H  H96  1  0.29816000  0.39411000  0.73183000  1.0
  H  H97  1  0.79816000  0.10589000  0.26817000  1.0
  H  H98  1  0.70183000  0.60590000  0.26817000  1.0
  H  H99  1  0.20184000  0.89411000  0.73184000  1.0
  H  H100  1  0.32689000  0.50991000  0.73465000  1.0
  H  H101  1  0.82689000  0.99009000  0.26534000  1.0
  H  H102  1  0.67311000  0.49009000  0.26535000  1.0
  H  H103  1  0.17311000  0.00991000  0.73466000  1.0
  H  H104  1  0.45343000  0.39381000  0.79768000  1.0
  H  H105  1  0.95343000  0.10619000  0.20231000  1.0
  H  H106  1  0.54656000  0.60619000  0.20232000  1.0
  H  H107  1  0.04657000  0.89381000  0.79769000  1.0
  H  H108  1  0.42619000  0.46732000  0.84913000  1.0
  H  H109  1  0.92621000  0.03268000  0.15087000  1.0
  H  H110  1  0.57381000  0.53269000  0.15087000  1.0
  H  H111  1  0.07379000  0.96732000  0.84913000  1.0
  H  H112  1  0.48045000  0.50950000  0.80178000  1.0
  H  H113  1  0.98046000  0.99050000  0.19822000  1.0
  H  H114  1  0.51955000  0.49050000  0.19822000  1.0
  H  H115  1  0.01954000  0.00950000  0.80178000  1.0
  H  H116  1  0.68657000  0.15242000  0.93172000  1.0
  H  H117  1  0.18657000  0.34758000  0.06828000  1.0
  H  H118  1  0.31343000  0.84758000  0.06827000  1.0
  H  H119  1  0.81343000  0.65242000  0.93172000  1.0
  H  H120  1  0.68559000  0.27070000  0.93706000  1.0
  H  H121  1  0.18560000  0.22930000  0.06294000  1.0
  H  H122  1  0.31441000  0.72930000  0.06294000  1.0
  H  H123  1  0.81440000  0.77070000  0.93706000  1.0
  H  H124  1  0.83125000  0.21043000  0.93072000  1.0
  H  H125  1  0.33127000  0.28957000  0.06928000  1.0
  H  H126  1  0.16875000  0.78957000  0.06928000  1.0
  H  H127  1  0.66874000  0.71044000  0.93072000  1.0
  H  H128  1  0.52851000  0.14749000  0.86457000  1.0
  H  H129  1  0.02851000  0.35251000  0.13544000  1.0
  H  H130  1  0.47149000  0.85251000  0.13543000  1.0
  H  H131  1  0.97149000  0.64748000  0.86456000  1.0
  H  H132  1  0.57464000  0.19633000  0.81828000  1.0
  H  H133  1  0.07462000  0.30367000  0.18172000  1.0
  H  H134  1  0.42536000  0.80367000  0.18172000  1.0
  H  H135  1  0.92538000  0.69633000  0.81828000  1.0
  H  H136  1  0.53608000  0.26501000  0.87011000  1.0
  H  H137  1  0.03608000  0.23499000  0.12990000  1.0
  H  H138  1  0.46392000  0.73499000  0.12989000  1.0
  H  H139  1  0.96392000  0.76500000  0.87010000  1.0
  H  H140  1  0.77243000  0.25631000  0.85912000  1.0
  H  H141  1  0.27243000  0.24369000  0.14088000  1.0
  H  H142  1  0.22758000  0.74369000  0.14088000  1.0
  H  H143  1  0.72758000  0.75631000  0.85912000  1.0
  H  H144  1  0.76659000  0.13884000  0.85336000  1.0
  H  H145  1  0.26658000  0.36115000  0.14664000  1.0
  H  H146  1  0.23341000  0.86116000  0.14664000  1.0
  H  H147  1  0.73342000  0.63885000  0.85336000  1.0
  H  H148  1  0.82538000  0.43392000  0.60952000  1.0
  H  H149  1  0.32539000  0.06609000  0.39049000  1.0
  H  H150  1  0.17462000  0.56608000  0.39048000  1.0
  H  H151  1  0.67461000  0.93391000  0.60951000  1.0
  H  H152  1  0.96143000  0.36678000  0.61108000  1.0
  H  H153  1  0.46144000  0.13321000  0.38892000  1.0
  H  H154  1  0.03857000  0.63322000  0.38893000  1.0
  H  H155  1  0.53856000  0.86679000  0.61108000  1.0
  H  H156  1  0.80889000  0.31627000  0.60520000  1.0
  H  H157  1  0.30889000  0.18373000  0.39480000  1.0
  H  H158  1  0.19111000  0.68373000  0.39480000  1.0
  H  H159  1  0.69111000  0.81627000  0.60520000  1.0
  H  H160  1  0.75728000  0.34463000  0.48622000  1.0
  H  H161  1  0.25726000  0.15537000  0.51378000  1.0
  H  H162  1  0.24272000  0.65537000  0.51378000  1.0
  H  H163  1  0.74274000  0.84463000  0.48622000  1.0
  H  H164  1  0.69121000  0.41084000  0.53483000  1.0
  H  H165  1  0.19122000  0.08917000  0.46518000  1.0
  H  H166  1  0.30879000  0.58917000  0.46517000  1.0
  H  H167  1  0.80879000  0.91083000  0.53482000  1.0
  H  H168  1  0.69671000  0.29301000  0.52977000  1.0
  H  H169  1  0.19671000  0.20699000  0.47023000  1.0
  H  H170  1  0.30329000  0.70699000  0.47023000  1.0
  H  H171  1  0.80329000  0.79301000  0.52977000  1.0
  H  H172  1  0.93108000  0.41622000  0.53661000  1.0
  H  H173  1  0.43108000  0.08378000  0.46339000  1.0
  H  H174  1  0.06892000  0.58378000  0.46339000  1.0
  H  H175  1  0.56892000  0.91622000  0.53661000  1.0
  H  H176  1  0.93530000  0.29918000  0.53212000  1.0
  H  H177  1  0.43529000  0.20082000  0.46787000  1.0
  H  H178  1  0.06470000  0.70082000  0.46788000  1.0
  H  H179  1  0.56471000  0.79918000  0.53212000  1.0
  C  C180  1  0.82004000  0.43362000  0.80571000  1.0
  C  C181  1  0.32004000  0.06637000  0.19429000  1.0
  C  C182  1  0.17996000  0.56638000  0.19429000  1.0
  C  C183  1  0.67996000  0.93362000  0.80571000  1.0
  C  C184  1  0.26088000  0.29921000  0.88323000  1.0
  C  C185  1  0.76093000  0.20072000  0.11675000  1.0
  C  C186  1  0.73911000  0.70080000  0.11677000  1.0
  C  C187  1  0.23908000  0.79928000  0.88325000  1.0
  C  C188  1  0.84093000  0.44269000  0.85396000  1.0
  C  C189  1  0.34094000  0.05730000  0.14605000  1.0
  C  C190  1  0.15907000  0.55731000  0.14604000  1.0
  C  C191  1  0.65906000  0.94270000  0.85395000  1.0
  C  C192  1  0.37816000  0.34449000  0.55226000  1.0
  C  C193  1  0.87816000  0.15550000  0.44773000  1.0
  C  C194  1  0.62184000  0.65551000  0.44774000  1.0
  C  C195  1  0.12184000  0.84449000  0.55227000  1.0
  C  C196  1  0.08265000  0.11636000  0.95593000  1.0
  C  C197  1  0.58284000  0.38341000  0.04412000  1.0
  C  C198  1  0.91736000  0.88364000  0.04407000  1.0
  C  C199  1  0.41716000  0.61659000  0.95588000  1.0
  C  C200  1  0.91373000  0.55464000  0.71202000  1.0
  C  C201  1  0.41373000  0.94536000  0.28798000  1.0
  C  C202  1  0.08627000  0.44536000  0.28798000  1.0
  C  C203  1  0.58627000  0.05464000  0.71202000  1.0
  C  C204  1  0.13177000  0.54643000  0.62044000  1.0
  C  C205  1  0.63178000  0.95357000  0.37956000  1.0
  C  C206  1  0.86823000  0.45357000  0.37956000  1.0
  C  C207  1  0.36822000  0.04643000  0.62044000  1.0
  C  C208  1  0.13825000  0.18389000  0.93120000  1.0
  C  C209  1  0.63834000  0.31602000  0.06883000  1.0
  C  C210  1  0.86177000  0.81610000  0.06880000  1.0
  C  C211  1  0.36164000  0.68397000  0.93117000  1.0
  C  C212  1  0.36279000  0.37979000  0.95318000  1.0
  C  C213  1  0.86310000  0.11999000  0.04675000  1.0
  C  C214  1  0.63720000  0.62021000  0.04681000  1.0
  C  C215  1  0.13690000  0.88001000  0.95325000  1.0
  C  C216  1  0.31467000  0.40120000  0.52802000  1.0
  C  C217  1  0.81467000  0.09879000  0.47198000  1.0
  C  C218  1  0.68533000  0.59880000  0.47198000  1.0
  C  C219  1  0.18533000  0.90121000  0.52802000  1.0
  C  C220  1  0.21864000  0.25030000  0.95307000  1.0
  C  C221  1  0.71871000  0.24962000  0.04693000  1.0
  C  C222  1  0.78135000  0.74971000  0.04693000  1.0
  C  C223  1  0.28128000  0.75038000  0.95307000  1.0
  C  C224  1  0.73800000  0.44234000  0.88293000  1.0
  C  C225  1  0.23802000  0.05767000  0.11709000  1.0
  C  C226  1  0.26200000  0.55766000  0.11707000  1.0
  C  C227  1  0.76198000  0.94233000  0.88291000  1.0
  C  C228  1  0.27885000  0.30829000  0.92904000  1.0
  C  C229  1  0.77893000  0.19160000  0.07094000  1.0
  C  C230  1  0.72113000  0.69173000  0.07096000  1.0
  C  C231  1  0.22108000  0.80841000  0.92906000  1.0
  C  C232  1  0.22924000  0.46452000  0.55003000  1.0
  C  C233  1  0.72924000  0.03548000  0.44997000  1.0
  C  C234  1  0.77076000  0.53548000  0.44997000  1.0
  C  C235  1  0.27075000  0.96452000  0.55003000  1.0
  C  C236  1  0.77557000  0.42160000  0.71442000  1.0
  C  C237  1  0.27557000  0.07840000  0.28559000  1.0
  C  C238  1  0.22444000  0.57840000  0.28558000  1.0
  C  C239  1  0.72444000  0.92160000  0.71441000  1.0
  C  C240  1  0.86644000  0.46468000  0.94527000  1.0
  C  C241  1  0.36650000  0.03532000  0.05473000  1.0
  C  C242  1  0.13357000  0.53532000  0.05473000  1.0
  C  C243  1  0.63350000  0.96468000  0.94527000  1.0
  C  C244  1  0.15544000  0.22486000  0.81313000  1.0
  C  C245  1  0.65547000  0.27510000  0.18687000  1.0
  C  C246  1  0.84456000  0.77514000  0.18687000  1.0
  C  C247  1  0.34453000  0.72490000  0.81313000  1.0
  C  C248  1  0.73433000  0.37042000  0.78375000  1.0
  C  C249  1  0.23432000  0.12958000  0.21625000  1.0
  C  C250  1  0.26568000  0.62958000  0.21625000  1.0
  C  C251  1  0.76568000  0.87042000  0.78375000  1.0
  C  C252  1  0.35449000  0.34952000  0.59757000  1.0
  C  C253  1  0.85449000  0.15047000  0.40243000  1.0
  C  C254  1  0.64551000  0.65048000  0.40243000  1.0
  C  C255  1  0.14551000  0.84952000  0.59757000  1.0
  C  C256  1  0.27400000  0.41553000  0.61970000  1.0
  C  C257  1  0.77401000  0.08447000  0.38030000  1.0
  C  C258  1  0.72600000  0.58447000  0.38030000  1.0
  C  C259  1  0.22599000  0.91553000  0.61970000  1.0
  C  C260  1  0.03445000  0.21085000  0.79427000  1.0
  C  C261  1  0.53447000  0.28914000  0.20573000  1.0
  C  C262  1  0.96555000  0.78915000  0.20573000  1.0
  C  C263  1  0.46553000  0.71086000  0.79427000  1.0
  C  C264  1  0.96219000  0.45555000  0.87268000  1.0
  C  C265  1  0.46220000  0.04445000  0.12731000  1.0
  C  C266  1  0.03781000  0.54445000  0.12732000  1.0
  C  C267  1  0.53780000  0.95555000  0.87269000  1.0
  C  C268  1  0.25866000  0.22474000  0.78422000  1.0
  C  C269  1  0.75868000  0.27525000  0.21578000  1.0
  C  C270  1  0.74134000  0.77526000  0.21578000  1.0
  C  C271  1  0.24132000  0.72475000  0.78422000  1.0
  C  C272  1  0.11348000  0.17851000  0.88595000  1.0
  C  C273  1  0.61350000  0.32145000  0.11407000  1.0
  C  C274  1  0.88653000  0.82149000  0.11405000  1.0
  C  C275  1  0.38649000  0.67855000  0.88593000  1.0
  C  C276  1  0.71584000  0.36271000  0.73805000  1.0
  C  C277  1  0.21584000  0.13729000  0.26196000  1.0
  C  C278  1  0.28416000  0.63729000  0.26195000  1.0
  C  C279  1  0.78417000  0.86271000  0.73805000  1.0
  C  C280  1  0.97238000  0.46631000  0.91847000  1.0
  C  C281  1  0.47242000  0.03368000  0.08153000  1.0
  C  C282  1  0.02762000  0.53369000  0.08153000  1.0
  C  C283  1  0.52758000  0.96631000  0.91847000  1.0
  C  C284  1  0.88274000  0.49079000  0.78155000  1.0
  C  C285  1  0.38275000  0.00920000  0.21844000  1.0
  C  C286  1  0.11726000  0.50921000  0.21845000  1.0
  C  C287  1  0.61725000  0.99080000  0.78156000  1.0
  C  C288  1  0.02485000  0.19841000  0.74842000  1.0
  C  C289  1  0.52484000  0.30159000  0.25158000  1.0
  C  C290  1  0.97515000  0.80159000  0.25157000  1.0
  C  C291  1  0.47516000  0.69841000  0.74842000  1.0
  C  C292  1  0.17579000  0.23532000  0.86147000  1.0
  C  C293  1  0.67580000  0.26462000  0.13852000  1.0
  C  C294  1  0.82421000  0.76468000  0.13853000  1.0
  C  C295  1  0.32419000  0.73538000  0.86148000  1.0
  C  C296  1  0.33606000  0.39265000  0.47979000  1.0
  C  C297  1  0.83607000  0.10734000  0.52020000  1.0
  C  C298  1  0.66394000  0.60735000  0.52021000  1.0
  C  C299  1  0.16393000  0.89265000  0.47980000  1.0
  C  C300  1  0.41302000  0.28316000  0.62237000  1.0
  C  C301  1  0.91302000  0.21684000  0.37763000  1.0
  C  C302  1  0.58698000  0.71684000  0.37763000  1.0
  C  C303  1  0.08698000  0.78316000  0.62237000  1.0
  C  C304  1  0.21291000  0.47353000  0.59591000  1.0
  C  C305  1  0.71291000  0.02647000  0.40410000  1.0
  C  C306  1  0.78709000  0.52647000  0.40409000  1.0
  C  C307  1  0.28709000  0.97353000  0.59590000  1.0
  C  C308  1  0.13111000  0.19941000  0.72169000  1.0
  C  C309  1  0.63110000  0.30059000  0.27831000  1.0
  C  C310  1  0.86889000  0.80059000  0.27831000  1.0
  C  C311  1  0.36890000  0.69941000  0.72169000  1.0
  C  C312  1  0.63292000  0.29089000  0.71351000  1.0
  C  C313  1  0.13291000  0.20912000  0.28650000  1.0
  C  C314  1  0.36709000  0.70912000  0.28649000  1.0
  C  C315  1  0.86709000  0.79088000  0.71350000  1.0
  C  C316  1  0.85695000  0.48709000  0.73648000  1.0
  C  C317  1  0.35695000  0.01291000  0.26352000  1.0
  C  C318  1  0.14305000  0.51291000  0.26352000  1.0
  C  C319  1  0.64305000  0.98709000  0.73648000  1.0
  C  C320  1  0.45820000  0.38223000  0.46158000  1.0
  C  C321  1  0.95820000  0.11777000  0.53842000  1.0
  C  C322  1  0.54180000  0.61777000  0.53842000  1.0
  C  C323  1  0.04180000  0.88223000  0.46158000  1.0
  C  C324  1  0.36493000  0.37055000  0.38855000  1.0
  C  C325  1  0.86491000  0.12945000  0.61144000  1.0
  C  C326  1  0.63507000  0.62945000  0.61145000  1.0
  C  C327  1  0.13508000  0.87055000  0.38856000  1.0
  C  C328  1  0.47018000  0.37127000  0.41586000  1.0
  C  C329  1  0.97017000  0.12872000  0.58414000  1.0
  C  C330  1  0.52982000  0.62873000  0.58414000  1.0
  C  C331  1  0.02983000  0.87127000  0.41586000  1.0
  C  C332  1  0.23397000  0.39109000  0.45036000  1.0
  C  C333  1  0.73398000  0.10891000  0.54964000  1.0
  C  C334  1  0.76603000  0.60891000  0.54964000  1.0
  C  C335  1  0.26602000  0.89109000  0.45036000  1.0
  C  C336  1  0.28104000  0.47232000  0.79826000  1.0
  C  C337  1  0.78105000  0.02768000  0.20174000  1.0
  C  C338  1  0.71895000  0.52768000  0.20174000  1.0
  C  C339  1  0.21895000  0.97232000  0.79826000  1.0
  C  C340  1  0.26773000  0.46111000  0.74792000  1.0
  C  C341  1  0.76772000  0.03889000  0.25209000  1.0
  C  C342  1  0.73227000  0.53889000  0.25208000  1.0
  C  C343  1  0.23228000  0.96111000  0.74791000  1.0
  C  C344  1  0.41741000  0.45998000  0.81285000  1.0
  C  C345  1  0.91742000  0.04001000  0.18714000  1.0
  C  C346  1  0.58259000  0.54002000  0.18715000  1.0
  C  C347  1  0.08258000  0.95999000  0.81286000  1.0
  C  C348  1  0.73178000  0.20933000  0.92013000  1.0
  C  C349  1  0.23179000  0.29067000  0.07987000  1.0
  C  C350  1  0.26822000  0.79067000  0.07987000  1.0
  C  C351  1  0.76821000  0.70933000  0.92013000  1.0
  C  C352  1  0.58259000  0.20265000  0.85453000  1.0
  C  C353  1  0.08259000  0.29735000  0.14547000  1.0
  C  C354  1  0.41741000  0.79735000  0.14547000  1.0
  C  C355  1  0.91741000  0.70265000  0.85453000  1.0
  C  C356  1  0.72024000  0.20089000  0.86985000  1.0
  C  C357  1  0.22024000  0.29911000  0.13015000  1.0
  C  C358  1  0.27976000  0.79911000  0.13015000  1.0
  C  C359  1  0.77976000  0.70089000  0.86985000  1.0
  C  C360  1  0.86801000  0.36920000  0.59549000  1.0
  C  C361  1  0.36802000  0.13079000  0.40451000  1.0
  C  C362  1  0.13198000  0.63080000  0.40451000  1.0
  C  C363  1  0.63198000  0.86921000  0.59549000  1.0
  C  C364  1  0.74909000  0.35137000  0.52249000  1.0
  C  C365  1  0.24908000  0.14863000  0.47752000  1.0
  C  C366  1  0.25091000  0.64863000  0.47751000  1.0
  C  C367  1  0.75092000  0.85137000  0.52248000  1.0
  C  C368  1  0.87856000  0.35886000  0.54511000  1.0
  C  C369  1  0.37856000  0.14114000  0.45489000  1.0
  C  C370  1  0.12144000  0.64114000  0.45489000  1.0
  C  C371  1  0.62144000  0.85886000  0.54511000  1.0
  N  N372  1  0.24845000  0.37991000  0.40628000  1.0
  N  N373  1  0.74844000  0.12009000  0.59372000  1.0
  N  N374  1  0.75155000  0.62009000  0.59372000  1.0
  N  N375  1  0.25156000  0.87991000  0.40628000  1.0
  N  N376  1  0.75066000  0.45338000  0.92705000  1.0
  N  N377  1  0.25074000  0.04664000  0.07297000  1.0
  N  N378  1  0.24934000  0.54662000  0.07295000  1.0
  N  N379  1  0.74927000  0.95336000  0.92703000  1.0
  N  N380  1  0.24660000  0.21203000  0.74003000  1.0
  N  N381  1  0.74660000  0.28798000  0.25997000  1.0
  N  N382  1  0.75340000  0.78797000  0.25997000  1.0
  N  N383  1  0.25340000  0.71202000  0.74003000  1.0
  O  O384  1  0.86016000  0.56383000  0.67580000  1.0
  O  O385  1  0.36015000  0.93617000  0.32420000  1.0
  O  O386  1  0.13984000  0.43617000  0.32420000  1.0
  O  O387  1  0.63985000  0.06383000  0.67580000  1.0
  O  O388  1  0.32138000  0.42063000  0.99028000  1.0
  O  O389  1  0.82151000  0.07936000  0.00966000  1.0
  O  O390  1  0.67863000  0.57937000  0.00972000  1.0
  O  O391  1  0.17849000  0.92065000  0.99034000  1.0
  O  O392  1  0.46810000  0.39306000  0.93500000  1.0
  O  O393  1  0.96822000  0.10696000  0.06503000  1.0
  O  O394  1  0.53190000  0.60692000  0.06500000  1.0
  O  O395  1  0.03176000  0.89302000  0.93497000  1.0
  O  O396  1  0.98810000  0.07185000  0.93808000  1.0
  O  O397  1  0.48814000  0.42808000  0.06185000  1.0
  O  O398  1  0.01187000  0.92816000  0.06193000  1.0
  O  O399  1  0.51189000  0.57195000  0.93815000  1.0
  O  O400  1  0.00978000  0.59757000  0.72974000  1.0
  O  O401  1  0.50980000  0.90243000  0.27025000  1.0
  O  O402  1  0.99022000  0.40243000  0.27026000  1.0
  O  O403  1  0.49020000  0.09757000  0.72975000  1.0
  O  O404  1  0.17464000  0.58508000  0.65776000  1.0
  O  O405  1  0.67465000  0.91492000  0.34224000  1.0
  O  O406  1  0.82536000  0.41492000  0.34224000  1.0
  O  O407  1  0.32534000  0.08508000  0.65776000  1.0
  O  O408  1  0.02822000  0.56280000  0.60213000  1.0
  O  O409  1  0.52821000  0.93721000  0.39788000  1.0
  O  O410  1  0.97178000  0.43721000  0.39788000  1.0
  O  O411  1  0.47178000  0.06279000  0.60212000  1.0
  O  O412  1  0.13614000  0.10856000  0.99238000  1.0
  O  O413  1  0.63615000  0.39140000  0.00764000  1.0
  O  O414  1  0.86387000  0.89144000  0.00762000  1.0
  O  O415  1  0.36385000  0.60860000  0.99236000  1.0
  O  O416  1  0.67630000  0.25085000  0.67653000  1.0
  O  O417  1  0.17629000  0.24915000  0.32347000  1.0
  O  O418  1  0.32370000  0.74915000  0.32348000  1.0
  O  O419  1  0.82371000  0.75085000  0.67653000  1.0
  O  O420  1  0.35843000  0.27311000  0.65833000  1.0
  O  O421  1  0.85843000  0.22690000  0.34167000  1.0
  O  O422  1  0.64157000  0.72689000  0.34167000  1.0
  O  O423  1  0.14157000  0.77310000  0.65832000  1.0
  O  O424  1  0.51100000  0.24204000  0.60515000  1.0
  O  O425  1  0.01098000  0.25796000  0.39485000  1.0
  O  O426  1  0.48900000  0.75796000  0.39485000  1.0
  O  O427  1  0.98902000  0.74204000  0.60515000  1.0
  O  O428  1  0.52774000  0.27669000  0.73142000  1.0
  O  O429  1  0.02775000  0.22332000  0.26859000  1.0
  O  O430  1  0.47226000  0.72331000  0.26858000  1.0
  O  O431  1  0.97226000  0.77668000  0.73141000  1.0
  F  F432  1  0.08845000  0.47968000  0.93780000  1.0
  F  F433  1  0.58849000  0.02031000  0.06219000  1.0
  F  F434  1  0.91155000  0.52032000  0.06220000  1.0
  F  F435  1  0.41151000  0.97969000  0.93781000  1.0
  F  F436  1  0.90903000  0.18410000  0.72897000  1.0
  F  F437  1  0.40901000  0.31590000  0.27104000  1.0
  F  F438  1  0.09097000  0.81590000  0.27103000  1.0
  F  F439  1  0.59099000  0.68410000  0.72896000  1.0
  F  F440  1  0.58719000  0.35979000  0.39708000  1.0
  F  F441  1  0.08717000  0.14020000  0.60291000  1.0
  F  F442  1  0.41281000  0.64021000  0.60292000  1.0
  F  F443  1  0.91283000  0.85979000  0.39709000  1.0
