# generated using pymatgen
data_MnH8C12(NO3)2
_symmetry_space_group_name_H-M   'P 1'
_cell_length_a   5.64478000
_cell_length_b   7.42071581
_cell_length_c   15.81260000
_cell_angle_alpha   92.30834511
_cell_angle_beta   90.00450000
_cell_angle_gamma   112.32754628
_symmetry_Int_Tables_number   1
_chemical_formula_structural   MnH8C12(NO3)2
_chemical_formula_sum   'Mn2 H16 C24 N4 O12'
_cell_volume   612.12188756
_cell_formula_units_Z   2
loop_
 _symmetry_equiv_pos_site_id
 _symmetry_equiv_pos_as_xyz
  1  'x, y, z'
loop_
 _atom_site_type_symbol
 _atom_site_label
 _atom_site_symmetry_multiplicity
 _atom_site_fract_x
 _atom_site_fract_y
 _atom_site_fract_z
 _atom_site_occupancy
  Mn  Mn0  1  0.62896000  0.99931000  0.74998000  1.0
  Mn  Mn1  1  0.37110000  0.00069000  0.25002000  1.0
  H  H2  1  0.75376000  0.15297000  0.96096000  1.0
  H  H3  1  0.59864000  0.84567000  0.53925000  1.0
  H  H4  1  0.24627000  0.84702000  0.03905000  1.0
  H  H5  1  0.40128000  0.15433000  0.46075000  1.0
  H  H6  1  0.12681000  0.25982000  0.05993000  1.0
  H  H7  1  0.86578000  0.73985000  0.44023000  1.0
  H  H8  1  0.87319000  0.74016000  0.94008000  1.0
  H  H9  1  0.13412000  0.26014000  0.55976000  1.0
  H  H10  1  0.56779000  0.63212000  0.86323000  1.0
  H  H11  1  0.93536000  0.36704000  0.63662000  1.0
  H  H12  1  0.43225000  0.36788000  0.13679000  1.0
  H  H13  1  0.06459000  0.63298000  0.36337000  1.0
  H  H14  1  0.17821000  0.50627000  0.77322000  1.0
  H  H15  1  0.67078000  0.49204000  0.72670000  1.0
  H  H16  1  0.82182000  0.49373000  0.22679000  1.0
  H  H17  1  0.32918000  0.50798000  0.27330000  1.0
  C  C18  1  0.16049000  0.05455000  0.70782000  1.0
  C  C19  1  0.10515000  0.94398000  0.79206000  1.0
  C  C20  1  0.83957000  0.94547000  0.29217000  1.0
  C  C21  1  0.89491000  0.05603000  0.20793000  1.0
  C  C22  1  0.94070000  0.25792000  0.94443000  1.0
  C  C23  1  0.68086000  0.74074000  0.55566000  1.0
  C  C24  1  0.05933000  0.74206000  0.05557000  1.0
  C  C25  1  0.31904000  0.25925000  0.44433000  1.0
  C  C26  1  0.15177000  0.32174000  0.99765000  1.0
  C  C27  1  0.82870000  0.67754000  0.50243000  1.0
  C  C28  1  0.84824000  0.67824000  0.00237000  1.0
  C  C29  1  0.17120000  0.32245000  0.49756000  1.0
  C  C30  1  0.38779000  0.46174000  0.97189000  1.0
  C  C31  1  0.92543000  0.53780000  0.52811000  1.0
  C  C32  1  0.61223000  0.53825000  0.02813000  1.0
  C  C33  1  0.07449000  0.46220000  0.47189000  1.0
  C  C34  1  0.39470000  0.52525000  0.88879000  1.0
  C  C35  1  0.86867000  0.47377000  0.61113000  1.0
  C  C36  1  0.60533000  0.47475000  0.11123000  1.0
  C  C37  1  0.13127000  0.52624000  0.38887000  1.0
  C  C38  1  0.18029000  0.45794000  0.83706000  1.0
  C  C39  1  0.72115000  0.54063000  0.66290000  1.0
  C  C40  1  0.81974000  0.54206000  0.16296000  1.0
  C  C41  1  0.27879000  0.45938000  0.33710000  1.0
  N  N42  1  0.95442000  0.32771000  0.86522000  1.0
  N  N43  1  0.62503000  0.67073000  0.63483000  1.0
  N  N44  1  0.04562000  0.67228000  0.13479000  1.0
  N  N45  1  0.37491000  0.32928000  0.36516000  1.0
  O  O46  1  0.97915000  0.09533000  0.67727000  1.0
  O  O47  1  0.88276000  0.90286000  0.82243000  1.0
  O  O48  1  0.02091000  0.90467000  0.32272000  1.0
  O  O49  1  0.11728000  0.09712000  0.17755000  1.0
  O  O50  1  0.37899000  0.09578000  0.67604000  1.0
  O  O51  1  0.28246000  0.90308000  0.82402000  1.0
  O  O52  1  0.62108000  0.90425000  0.32396000  1.0
  O  O53  1  0.71760000  0.09693000  0.17597000  1.0
  O  O54  1  0.74759000  0.26794000  0.81531000  1.0
  O  O55  1  0.47793000  0.73038000  0.68481000  1.0
  O  O56  1  0.25246000  0.73205000  0.18469000  1.0
  O  O57  1  0.52202000  0.26963000  0.31519000  1.0
