# generated using pymatgen
data_KH12C11O6
_symmetry_space_group_name_H-M   'P 1'
_cell_length_a   5.80650000
_cell_length_b   8.39586000
_cell_length_c   13.32349566
_cell_angle_alpha   103.55673771
_cell_angle_beta   102.01227530
_cell_angle_gamma   94.73600000
_symmetry_Int_Tables_number   1
_chemical_formula_structural   KH12C11O6
_chemical_formula_sum   'K2 H24 C22 O12'
_cell_volume   611.68340076
_cell_formula_units_Z   2
loop_
 _symmetry_equiv_pos_site_id
 _symmetry_equiv_pos_as_xyz
  1  'x, y, z'
loop_
 _atom_site_type_symbol
 _atom_site_label
 _atom_site_symmetry_multiplicity
 _atom_site_fract_x
 _atom_site_fract_y
 _atom_site_fract_z
 _atom_site_occupancy
  K  K0  1  0.26790000  0.67144000  0.04644000  1.0
  K  K1  1  0.73211000  0.32857000  0.95356000  1.0
  H  H2  1  0.03714000  0.47131000  0.20024000  1.0
  H  H3  1  0.96286000  0.52869000  0.79976000  1.0
  H  H4  1  0.90758000  0.62349000  0.18425000  1.0
  H  H5  1  0.09241000  0.37652000  0.81575000  1.0
  H  H6  1  0.66296000  0.13510000  0.42914000  1.0
  H  H7  1  0.33705000  0.86490000  0.57086000  1.0
  H  H8  1  0.50148000  0.04686000  0.15092000  1.0
  H  H9  1  0.49851000  0.95314000  0.84907000  1.0
  H  H10  1  0.23573000  0.03267000  0.15736000  1.0
  H  H11  1  0.76429000  0.96734000  0.84264000  1.0
  H  H12  1  0.61114000  0.66840000  0.28901000  1.0
  H  H13  1  0.38884000  0.33159000  0.71098000  1.0
  H  H14  1  0.02571000  0.60206000  0.43503000  1.0
  H  H15  1  0.97428000  0.39794000  0.56497000  1.0
  H  H16  1  0.66275000  0.36990000  0.27142000  1.0
  H  H17  1  0.33724000  0.63010000  0.72858000  1.0
  H  H18  1  0.38677000  0.19007000  0.33046000  1.0
  H  H19  1  0.61323000  0.80993000  0.66954000  1.0
  H  H20  1  0.07343000  0.30558000  0.41387000  1.0
  H  H21  1  0.92657000  0.69441000  0.58613000  1.0
  H  H22  1  0.23549000  0.22171000  0.92835000  1.0
  H  H23  1  0.76452000  0.77830000  0.07165000  1.0
  H  H24  1  0.29201000  0.19024000  0.04282000  1.0
  H  H25  1  0.70800000  0.80976000  0.95718000  1.0
  C  C26  1  0.83158000  0.96174000  0.27088000  1.0
  C  C27  1  0.16842000  0.03825000  0.72912000  1.0
  C  C28  1  0.81242000  0.07671000  0.46039000  1.0
  C  C29  1  0.18759000  0.92329000  0.53961000  1.0
  C  C30  1  0.11881000  0.90765000  0.43020000  1.0
  C  C31  1  0.88121000  0.09236000  0.56980000  1.0
  C  C32  1  0.26548000  0.82242000  0.35978000  1.0
  C  C33  1  0.73450000  0.17756000  0.64021000  1.0
  C  C34  1  0.31814000  0.65455000  0.36472000  1.0
  C  C35  1  0.68186000  0.34544000  0.63529000  1.0
  C  C36  1  0.49838000  0.58871000  0.31857000  1.0
  C  C37  1  0.50162000  0.41128000  0.68142000  1.0
  C  C38  1  0.16940000  0.55289000  0.40199000  1.0
  C  C39  1  0.83060000  0.44711000  0.59801000  1.0
  C  C40  1  0.52587000  0.42304000  0.30814000  1.0
  C  C41  1  0.47411000  0.57695000  0.69186000  1.0
  C  C42  1  0.37205000  0.32153000  0.34253000  1.0
  C  C43  1  0.62796000  0.67847000  0.65747000  1.0
  C  C44  1  0.19553000  0.38657000  0.38997000  1.0
  C  C45  1  0.80446000  0.61342000  0.61003000  1.0
  C  C46  1  0.92669000  0.98378000  0.38906000  1.0
  C  C47  1  0.07331000  0.01621000  0.61094000  1.0
  O  O48  1  0.76432000  0.08597000  0.24129000  1.0
  O  O49  1  0.23568000  0.91403000  0.75871000  1.0
  O  O50  1  0.81828000  0.81710000  0.20996000  1.0
  O  O51  1  0.18169000  0.18290000  0.79004000  1.0
  O  O52  1  0.33853000  0.89268000  0.29798000  1.0
  O  O53  1  0.66145000  0.10731000  0.70201000  1.0
  O  O54  1  0.94931000  0.51755000  0.14592000  1.0
  O  O55  1  0.05069000  0.48246000  0.85408000  1.0
  O  O56  1  0.33426000  0.02557000  0.10589000  1.0
  O  O57  1  0.66574000  0.97442000  0.89410000  1.0
  O  O58  1  0.27290000  0.27929000  0.00524000  1.0
  O  O59  1  0.72712000  0.72072000  0.99476000  1.0
