# generated using pymatgen
data_TbH8C8NO9
_symmetry_space_group_name_H-M   'P 1'
_cell_length_a   10.00550000
_cell_length_b   10.12740000
_cell_length_c   12.35910000
_cell_angle_alpha   90.00000000
_cell_angle_beta   90.00000000
_cell_angle_gamma   94.09130000
_symmetry_Int_Tables_number   1
_chemical_formula_structural   TbH8C8NO9
_chemical_formula_sum   'Tb4 H32 C32 N4 O36'
_cell_volume   1249.15246561
_cell_formula_units_Z   4
loop_
 _symmetry_equiv_pos_site_id
 _symmetry_equiv_pos_as_xyz
  1  'x, y, z'
loop_
 _atom_site_type_symbol
 _atom_site_label
 _atom_site_symmetry_multiplicity
 _atom_site_fract_x
 _atom_site_fract_y
 _atom_site_fract_z
 _atom_site_occupancy
  Tb  Tb0  1  0.98828000  0.12548000  0.35250000  1.0
  Tb  Tb1  1  0.51172000  0.87452000  0.85250000  1.0
  Tb  Tb2  1  0.01173000  0.87452000  0.64750000  1.0
  Tb  Tb3  1  0.48828000  0.12548000  0.14750000  1.0
  H  H4  1  0.78230000  0.92617000  0.43768000  1.0
  H  H5  1  0.71770000  0.07383000  0.93768000  1.0
  H  H6  1  0.21770000  0.07383000  0.56232000  1.0
  H  H7  1  0.28230000  0.92617000  0.06232000  1.0
  H  H8  1  0.73449000  0.95178000  0.31406000  1.0
  H  H9  1  0.76551000  0.04822000  0.81406000  1.0
  H  H10  1  0.26551000  0.04822000  0.68594000  1.0
  H  H11  1  0.23449000  0.95178000  0.18594000  1.0
  H  H12  1  0.83777000  0.10901000  0.13007000  1.0
  H  H13  1  0.66223000  0.89099000  0.63008000  1.0
  H  H14  1  0.16224000  0.89099000  0.86993000  1.0
  H  H15  1  0.33777000  0.10901000  0.36993000  1.0
  H  H16  1  0.99425000  0.10839000  0.13107000  1.0
  H  H17  1  0.50575000  0.89161000  0.63107000  1.0
  H  H18  1  0.00575000  0.89161000  0.86893000  1.0
  H  H19  1  0.49425000  0.10839000  0.36893000  1.0
  H  H20  1  0.43301000  0.22449000  0.54485000  1.0
  H  H21  1  0.06699000  0.77551000  0.04485000  1.0
  H  H22  1  0.56699000  0.77550000  0.45515000  1.0
  H  H23  1  0.93302000  0.22450000  0.95515000  1.0
  H  H24  1  0.14328000  0.52009000  0.55636000  1.0
  H  H25  1  0.35672000  0.47991000  0.05636000  1.0
  H  H26  1  0.85672000  0.47991000  0.44364000  1.0
  H  H27  1  0.64328000  0.52009000  0.94364000  1.0
  H  H28  1  0.58702000  0.36486000  0.66128000  1.0
  H  H29  1  0.91297000  0.63513000  0.16128000  1.0
  H  H30  1  0.41298000  0.63513000  0.33872000  1.0
  H  H31  1  0.08703000  0.36487000  0.83872000  1.0
  H  H32  1  0.51868000  0.58299000  0.72641000  1.0
  H  H33  1  0.98132000  0.41700000  0.22641000  1.0
  H  H34  1  0.48132000  0.41701000  0.27359000  1.0
  H  H35  1  0.01868000  0.58300000  0.77359000  1.0
  C  C36  1  0.18447000  0.28241000  0.47296000  1.0
  C  C37  1  0.31552000  0.71759000  0.97296000  1.0
  C  C38  1  0.81552000  0.71759000  0.52704000  1.0
  C  C39  1  0.68448000  0.28241000  0.02703000  1.0
  C  C40  1  0.27870000  0.36392000  0.54253000  1.0
  C  C41  1  0.22130000  0.63608000  0.04253000  1.0
  C  C42  1  0.72130000  0.63608000  0.45747000  1.0
  C  C43  1  0.77870000  0.36393000  0.95747000  1.0
  C  C44  1  0.40359000  0.32041000  0.57264000  1.0
  C  C45  1  0.09641000  0.67959000  0.07264000  1.0
  C  C46  1  0.59641000  0.67959000  0.42736000  1.0
  C  C47  1  0.90360000  0.32041000  0.92735000  1.0
  C  C48  1  0.24028000  0.48630000  0.57946000  1.0
  C  C49  1  0.25972000  0.51370000  0.07946000  1.0
  C  C50  1  0.75972000  0.51370000  0.42054000  1.0
  C  C51  1  0.74028000  0.48630000  0.92053000  1.0
  C  C52  1  0.49005000  0.39901000  0.63839000  1.0
  C  C53  1  0.00994000  0.60099000  0.13839000  1.0
  C  C54  1  0.50995000  0.60099000  0.36161000  1.0
  C  C55  1  0.99006000  0.39902000  0.86161000  1.0
  C  C56  1  0.32708000  0.56510000  0.64516000  1.0
  C  C57  1  0.17292000  0.43490000  0.14516000  1.0
  C  C58  1  0.67292000  0.43490000  0.35484000  1.0
  C  C59  1  0.82708000  0.56510000  0.85484000  1.0
  C  C60  1  0.45220000  0.52137000  0.67437000  1.0
  C  C61  1  0.04780000  0.47863000  0.17437000  1.0
  C  C62  1  0.54780000  0.47863000  0.32562000  1.0
  C  C63  1  0.95220000  0.52138000  0.82563000  1.0
  C  C64  1  0.28643000  0.69682000  0.68201000  1.0
  C  C65  1  0.21357000  0.30318000  0.18201000  1.0
  C  C66  1  0.71357000  0.30318000  0.31799000  1.0
  C  C67  1  0.78644000  0.69682000  0.81799000  1.0
  N  N68  1  0.12487000  0.86645000  0.37105000  1.0
  N  N69  1  0.37512000  0.13355000  0.87105000  1.0
  N  N70  1  0.87512000  0.13354000  0.62895000  1.0
  N  N71  1  0.62487000  0.86646000  0.12895000  1.0
  O  O72  1  0.79668000  0.98309000  0.37244000  1.0
  O  O73  1  0.70332000  0.01691000  0.87244000  1.0
  O  O74  1  0.20333000  0.01691000  0.62756000  1.0
  O  O75  1  0.29668000  0.98309000  0.12756000  1.0
  O  O76  1  0.91382000  0.06843000  0.16643000  1.0
  O  O77  1  0.58618000  0.93157000  0.66643000  1.0
  O  O78  1  0.08618000  0.93156000  0.83357000  1.0
  O  O79  1  0.41382000  0.06844000  0.33357000  1.0
  O  O80  1  0.83479000  0.27723000  0.33027000  1.0
  O  O81  1  0.66522000  0.72277000  0.83027000  1.0
  O  O82  1  0.16521000  0.72277000  0.66973000  1.0
  O  O83  1  0.33479000  0.27724000  0.16973000  1.0
  O  O84  1  0.05615000  0.90891000  0.45072000  1.0
  O  O85  1  0.44384000  0.09108000  0.95072000  1.0
  O  O86  1  0.94385000  0.09108000  0.54928000  1.0
  O  O87  1  0.55615000  0.90892000  0.04928000  1.0
  O  O88  1  0.11599000  0.93647000  0.28436000  1.0
  O  O89  1  0.38401000  0.06352000  0.78436000  1.0
  O  O90  1  0.88401000  0.06352000  0.71564000  1.0
  O  O91  1  0.61599000  0.93648000  0.21564000  1.0
  O  O92  1  0.21082000  0.16142000  0.44749000  1.0
  O  O93  1  0.28918000  0.83858000  0.94749000  1.0
  O  O94  1  0.78918000  0.83858000  0.55251000  1.0
  O  O95  1  0.71082000  0.16142000  0.05251000  1.0
  O  O96  1  0.07687000  0.32634000  0.44013000  1.0
  O  O97  1  0.42313000  0.67366000  0.94013000  1.0
  O  O98  1  0.92313000  0.67366000  0.55988000  1.0
  O  O99  1  0.57687000  0.32634000  0.05987000  1.0
  O  O100  1  0.12446000  0.22168000  0.22294000  1.0
  O  O101  1  0.37554000  0.77832000  0.72294000  1.0
  O  O102  1  0.87554000  0.77832000  0.77706000  1.0
  O  O103  1  0.62446000  0.22168000  0.27706000  1.0
  O  O104  1  0.19155000  0.77032000  0.37722000  1.0
  O  O105  1  0.30844000  0.22967000  0.87722000  1.0
  O  O106  1  0.80844000  0.22966000  0.62277000  1.0
  O  O107  1  0.69155000  0.77033000  0.12277000  1.0
