# generated using pymatgen
data_ZnH29C38N7O4
_symmetry_space_group_name_H-M   'P 1'
_cell_length_a   14.68360000
_cell_length_b   15.38240000
_cell_length_c   16.56100000
_cell_angle_alpha   90.43740000
_cell_angle_beta   97.93050000
_cell_angle_gamma   99.73370000
_symmetry_Int_Tables_number   1
_chemical_formula_structural   ZnH29C38N7O4
_chemical_formula_sum   'Zn2 H58 C76 N14 O8'
_cell_volume   3649.67077708
_cell_formula_units_Z   2
loop_
 _symmetry_equiv_pos_site_id
 _symmetry_equiv_pos_as_xyz
  1  'x, y, z'
loop_
 _atom_site_type_symbol
 _atom_site_label
 _atom_site_symmetry_multiplicity
 _atom_site_fract_x
 _atom_site_fract_y
 _atom_site_fract_z
 _atom_site_occupancy
  Zn  Zn0  1  0.59571000  0.48739000  0.52382000  1.0
  Zn  Zn1  1  0.41165000  0.53111000  0.47316000  1.0
  H  H2  1  0.41951000  0.54871000  0.22040000  1.0
  H  H3  1  0.41508000  0.56518000  0.76574000  1.0
  H  H4  1  0.64662000  0.17173000  0.51975000  1.0
  H  H5  1  0.44330000  0.86640000  0.36470000  1.0
  H  H6  1  0.99210000  0.64231000  0.31506000  1.0
  H  H7  1  0.99362000  0.31102000  0.62204000  1.0
  H  H8  1  0.76123000  0.51675000  0.45385000  1.0
  H  H9  1  0.23193000  0.46484000  0.51261000  1.0
  H  H10  1  0.15952000  0.68643000  0.31277000  1.0
  H  H11  1  0.85017000  0.32780000  0.67876000  1.0
  H  H12  1  0.39207000  0.51012000  0.90448000  1.0
  H  H13  1  0.38592000  0.48719000  0.07742000  1.0
  H  H14  1  0.53381000  0.22838000  0.50302000  1.0
  H  H15  1  0.49153000  0.79277000  0.45472000  1.0
  H  H16  1  0.70525000  0.35474000  0.72594000  1.0
  H  H17  1  0.63092000  0.41657000  0.67121000  1.0
  H  H18  1  0.32343000  0.70124000  0.29678000  1.0
  H  H19  1  0.39628000  0.63452000  0.34569000  1.0
  H  H20  1  0.83491000  0.68935000  0.39386000  1.0
  H  H21  1  0.69920000  0.71019000  0.29293000  1.0
  H  H22  1  0.63093000  0.59347000  0.18581000  1.0
  H  H23  1  0.69473000  0.45389000  0.18420000  1.0
  H  H24  1  0.82597000  0.43050000  0.28859000  1.0
  H  H25  1  0.16939000  0.35520000  0.66348000  1.0
  H  H26  1  0.27666000  0.24667000  0.66563000  1.0
  H  H27  1  0.29288000  0.16894000  0.53746000  1.0
  H  H28  1  0.20137000  0.20120000  0.40678000  1.0
  H  H29  1  0.09533000  0.31157000  0.40367000  1.0
  H  H30  1  0.49800000  0.24779000  0.70470000  1.0
  H  H31  1  0.47550000  0.31518000  0.62737000  1.0
  H  H32  1  0.57168000  0.26438000  0.29970000  1.0
  H  H33  1  0.60316000  0.36017000  0.35745000  1.0
  H  H34  1  0.23138000  0.40231000  0.87933000  1.0
  H  H35  1  0.07162000  0.37593000  0.91686000  1.0
  H  H36  1  0.03727000  0.28634000  0.03747000  1.0
  H  H37  1  0.16401000  0.22178000  0.11827000  1.0
  H  H38  1  0.32497000  0.25064000  0.08192000  1.0
  H  H39  1  0.59814000  0.50730000  0.04206000  1.0
  H  H40  1  0.75632000  0.53171000  0.00038000  1.0
  H  H41  1  0.80968000  0.41203000  0.92645000  1.0
  H  H42  1  0.70177000  0.26848000  0.89268000  1.0
  H  H43  1  0.54233000  0.24671000  0.93021000  1.0
  H  H44  1  0.55229000  0.25087000  0.08731000  1.0
  H  H45  1  0.61174000  0.25832000  0.18242000  1.0
  H  H46  1  0.38365000  0.18797000  0.77280000  1.0
  H  H47  1  0.37082000  0.20402000  0.87114000  1.0
  H  H48  1  0.78517000  0.15929000  0.58617000  1.0
  H  H49  1  0.83106000  0.06797000  0.58207000  1.0
  H  H50  1  0.35160000  0.89469000  0.24373000  1.0
  H  H51  1  0.31244000  0.99340000  0.22888000  1.0
  H  H52  1  0.31401000  0.34395000  0.33194000  1.0
  H  H53  1  0.25208000  0.26032000  0.26457000  1.0
  H  H54  1  0.73837000  0.68952000  0.60436000  1.0
  H  H55  1  0.82348000  0.77843000  0.62925000  1.0
  H  H56  1  0.80281000  0.88632000  0.69786000  1.0
  H  H57  1  0.79659000  0.99163000  0.67386000  1.0
  H  H58  1  0.22223000  0.09603000  0.25193000  1.0
  H  H59  1  0.29359000  0.16042000  0.19961000  1.0
  C  C60  1  0.57696000  0.67252000  0.52382000  1.0
  C  C61  1  0.43779000  0.34666000  0.45463000  1.0
  C  C62  1  0.61257000  0.76918000  0.53111000  1.0
  C  C63  1  0.42645000  0.25810000  0.41497000  1.0
  C  C64  1  0.71973000  0.89839000  0.59247000  1.0
  C  C65  1  0.35401000  0.14007000  0.31499000  1.0
  C  C66  1  0.69728000  0.80597000  0.58027000  1.0
  C  C67  1  0.36209000  0.22820000  0.34337000  1.0
  C  C68  1  0.55758000  0.82403000  0.48915000  1.0
  C  C69  1  0.48458000  0.20225000  0.44982000  1.0
  C  C70  1  0.58402000  0.91594000  0.49202000  1.0
  C  C71  1  0.48011000  0.11547000  0.42197000  1.0
  C  C72  1  0.66649000  0.95496000  0.54615000  1.0
  C  C73  1  0.40942000  0.08107000  0.35519000  1.0
  C  C74  1  0.52681000  0.97087000  0.44484000  1.0
  C  C75  1  0.54421000  0.06242000  0.46199000  1.0
  C  C76  1  0.62701000  0.10002000  0.51387000  1.0
  C  C77  1  0.45497000  0.93678000  0.38073000  1.0
  C  C78  1  0.68933000  0.05004000  0.55124000  1.0
  C  C79  1  0.40045000  0.98824000  0.33381000  1.0
  C  C80  1  0.17331000  0.63568000  0.35621000  1.0
  C  C81  1  0.83254000  0.37020000  0.62850000  1.0
  C  C82  1  0.52314000  0.49464000  0.34706000  1.0
  C  C83  1  0.46085000  0.47604000  0.64248000  1.0
  C  C84  1  0.26390000  0.61931000  0.37729000  1.0
  C  C85  1  0.74712000  0.40002000  0.61945000  1.0
  C  C86  1  0.21038000  0.51013000  0.46655000  1.0
  C  C87  1  0.78586000  0.47615000  0.50286000  1.0
  C  C88  1  0.11587000  0.51775000  0.44500000  1.0
  C  C89  1  0.87577000  0.45420000  0.50990000  1.0
  C  C90  1  0.09921000  0.58574000  0.38910000  1.0
  C  C91  1  0.89722000  0.39672000  0.57494000  1.0
  C  C92  1  0.03827000  0.46713000  0.47905000  1.0
  C  C93  1  0.94730000  0.48960000  0.46071000  1.0
  C  C94  1  0.93150000  0.54981000  0.39530000  1.0
  C  C95  1  0.04984000  0.39438000  0.53265000  1.0
  C  C96  1  0.00586000  0.59731000  0.36413000  1.0
  C  C97  1  0.98287000  0.36468000  0.58097000  1.0
  C  C98  1  0.50278000  0.45226000  0.26455000  1.0
  C  C99  1  0.43493000  0.43883000  0.72095000  1.0
  C  C100  1  0.44605000  0.49011000  0.20376000  1.0
  C  C101  1  0.41512000  0.49606000  0.77961000  1.0
  C  C102  1  0.42700000  0.45575000  0.12485000  1.0
  C  C103  1  0.40111000  0.46509000  0.85615000  1.0
  C  C104  1  0.46517000  0.38197000  0.10303000  1.0
  C  C105  1  0.39842000  0.37540000  0.87291000  1.0
  C  C106  1  0.51632000  0.33967000  0.16381000  1.0
  C  C107  1  0.41054000  0.31650000  0.81188000  1.0
  C  C108  1  0.53556000  0.37422000  0.24560000  1.0
  C  C109  1  0.43600000  0.34946000  0.73679000  1.0
  C  C110  1  0.46438000  0.36232000  0.01515000  1.0
  C  C111  1  0.38618000  0.35013000  0.95823000  1.0
  C  C112  1  0.83953000  0.55863000  0.34779000  1.0
  C  C113  1  0.80331000  0.63728000  0.34850000  1.0
  C  C114  1  0.72762000  0.64924000  0.29112000  1.0
  C  C115  1  0.68932000  0.58396000  0.23123000  1.0
  C  C116  1  0.72459000  0.50514000  0.23066000  1.0
  C  C117  1  0.79807000  0.49185000  0.28936000  1.0
  C  C118  1  0.12485000  0.34048000  0.53346000  1.0
  C  C119  1  0.17597000  0.32107000  0.60712000  1.0
  C  C120  1  0.23594000  0.25972000  0.60844000  1.0
  C  C121  1  0.24530000  0.21633000  0.53653000  1.0
  C  C122  1  0.19447000  0.23514000  0.46299000  1.0
  C  C123  1  0.13543000  0.29734000  0.46108000  1.0
  C  C124  1  0.29034000  0.33036000  0.97910000  1.0
  C  C125  1  0.21675000  0.36316000  0.93211000  1.0
  C  C126  1  0.12683000  0.34808000  0.95330000  1.0
  C  C127  1  0.10755000  0.29813000  0.02086000  1.0
  C  C128  1  0.17925000  0.26262000  0.06649000  1.0
  C  C129  1  0.26932000  0.27835000  0.04605000  1.0
  C  C130  1  0.55929000  0.37536000  0.98937000  1.0
  C  C131  1  0.62117000  0.45516000  0.00917000  1.0
  C  C132  1  0.71001000  0.46868000  0.98577000  1.0
  C  C133  1  0.73966000  0.40177000  0.94376000  1.0
  C  C134  1  0.67926000  0.32168000  0.92469000  1.0
  C  C135  1  0.58971000  0.30871000  0.94699000  1.0
  N  N136  1  0.28086000  0.55791000  0.43447000  1.0
  N  N137  1  0.72414000  0.45037000  0.55418000  1.0
  N  N138  1  0.68348000  0.37985000  0.67177000  1.0
  N  N139  1  0.33833000  0.66373000  0.34510000  1.0
  N  N140  1  0.45549000  0.28951000  0.68023000  1.0
  N  N141  1  0.59135000  0.33115000  0.30044000  1.0
  N  N142  1  0.55000000  0.26284000  0.14741000  1.0
  N  N143  1  0.40645000  0.22593000  0.82470000  1.0
  N  N144  1  0.77488000  0.09320000  0.59566000  1.0
  N  N145  1  0.33484000  0.94893000  0.26928000  1.0
  N  N146  1  0.31154000  0.28530000  0.30171000  1.0
  N  N147  1  0.75407000  0.75377000  0.62503000  1.0
  N  N148  1  0.79688000  0.92964000  0.65186000  1.0
  N  N149  1  0.29003000  0.11207000  0.24157000  1.0
  O  O150  1  0.63666000  0.61981000  0.52888000  1.0
  O  O151  1  0.38395000  0.40063000  0.42747000  1.0
  O  O152  1  0.48883000  0.64864000  0.51266000  1.0
  O  O153  1  0.50344000  0.36610000  0.51469000  1.0
  O  O154  1  0.58607000  0.46912000  0.39898000  1.0
  O  O155  1  0.39567000  0.49155000  0.58896000  1.0
  O  O156  1  0.47619000  0.55328000  0.36475000  1.0
  O  O157  1  0.54802000  0.48958000  0.63623000  1.0
