# generated using pymatgen
data_ZnH3C6(NO2)2
_symmetry_space_group_name_H-M   'P 1'
_cell_length_a   5.60975000
_cell_length_b   9.46236134
_cell_length_c   9.51696111
_cell_angle_alpha   115.49434631
_cell_angle_beta   100.51885602
_cell_angle_gamma   103.05879587
_symmetry_Int_Tables_number   1
_chemical_formula_structural   ZnH3C6(NO2)2
_chemical_formula_sum   'Zn2 H6 C12 N4 O8'
_cell_volume   421.10035671
_cell_formula_units_Z   2
loop_
 _symmetry_equiv_pos_site_id
 _symmetry_equiv_pos_as_xyz
  1  'x, y, z'
loop_
 _atom_site_type_symbol
 _atom_site_label
 _atom_site_symmetry_multiplicity
 _atom_site_fract_x
 _atom_site_fract_y
 _atom_site_fract_z
 _atom_site_occupancy
  Zn  Zn0  1  0.32125000  0.82150000  0.64289000  1.0
  Zn  Zn1  1  0.67876000  0.17850000  0.35711000  1.0
  H  H2  1  0.59726000  0.58752000  0.73302000  1.0
  H  H3  1  0.13539000  0.14569000  0.73323000  1.0
  H  H4  1  0.40271000  0.41245000  0.26697000  1.0
  H  H5  1  0.86457000  0.85430000  0.26676000  1.0
  H  H6  1  0.81675000  0.60237000  0.99985000  1.0
  H  H7  1  0.18324000  0.39763000  0.00016000  1.0
  C  C8  1  0.55534000  0.93548000  0.99998000  1.0
  C  C9  1  0.44468000  0.06452000  0.00000000  1.0
  C  C10  1  0.62030000  0.68956000  0.85291000  1.0
  C  C11  1  0.23254000  0.16354000  0.85310000  1.0
  C  C12  1  0.37969000  0.31042000  0.14708000  1.0
  C  C13  1  0.76745000  0.83645000  0.14688000  1.0
  C  C14  1  0.74202000  0.69907000  0.99986000  1.0
  C  C15  1  0.25798000  0.30093000  0.00014000  1.0
  C  C16  1  0.91061000  0.52885000  0.55262000  1.0
  C  C17  1  0.64201000  0.02372000  0.55266000  1.0
  C  C18  1  0.08937000  0.47117000  0.44739000  1.0
  C  C19  1  0.35803000  0.97630000  0.44738000  1.0
  N  N20  1  0.52737000  0.80901000  0.85415000  1.0
  N  N21  1  0.32661000  0.04525000  0.85424000  1.0
  N  N22  1  0.47261000  0.19096000  0.14582000  1.0
  N  N23  1  0.67339000  0.95475000  0.14575000  1.0
  O  O24  1  0.97515000  0.68327000  0.65043000  1.0
  O  O25  1  0.67520000  0.96715000  0.65053000  1.0
  O  O26  1  0.02483000  0.31674000  0.34955000  1.0
  O  O27  1  0.32485000  0.03286000  0.34948000  1.0
  O  O28  1  0.71273000  0.41691000  0.53309000  1.0
  O  O29  1  0.82054000  0.11602000  0.53313000  1.0
  O  O30  1  0.28725000  0.58308000  0.46692000  1.0
  O  O31  1  0.17951000  0.88403000  0.46692000  1.0
