# generated using pymatgen
data_Zn2H8C5(N4O)2
_symmetry_space_group_name_H-M   'P 1'
_cell_length_a   6.86229000
_cell_length_b   10.09710000
_cell_length_c   13.93360000
_cell_angle_alpha   90.00000000
_cell_angle_beta   90.00010000
_cell_angle_gamma   89.99990000
_symmetry_Int_Tables_number   1
_chemical_formula_structural   Zn2H8C5(N4O)2
_chemical_formula_sum   'Zn8 H32 C20 N32 O8'
_cell_volume   965.44839226
_cell_formula_units_Z   4
loop_
 _symmetry_equiv_pos_site_id
 _symmetry_equiv_pos_as_xyz
  1  'x, y, z'
loop_
 _atom_site_type_symbol
 _atom_site_label
 _atom_site_symmetry_multiplicity
 _atom_site_fract_x
 _atom_site_fract_y
 _atom_site_fract_z
 _atom_site_occupancy
  Zn  Zn0  1  0.03098000  0.62777000  0.37155000  1.0
  Zn  Zn1  1  0.53099000  0.37223000  0.62845000  1.0
  Zn  Zn2  1  0.53098000  0.12777000  0.12845000  1.0
  Zn  Zn3  1  0.03098000  0.87223000  0.87155000  1.0
  Zn  Zn4  1  0.03421000  0.13424000  0.13208000  1.0
  Zn  Zn5  1  0.53421000  0.86576000  0.86792000  1.0
  Zn  Zn6  1  0.53420000  0.63424000  0.36792000  1.0
  Zn  Zn7  1  0.03421000  0.36576000  0.63208000  1.0
  H  H8  1  0.24481000  0.04117000  0.32461000  1.0
  H  H9  1  0.74482000  0.95882000  0.67539000  1.0
  H  H10  1  0.74481000  0.54117000  0.17539000  1.0
  H  H11  1  0.24482000  0.45883000  0.82461000  1.0
  H  H12  1  0.25062000  0.88871000  0.38685000  1.0
  H  H13  1  0.75062000  0.11129000  0.61315000  1.0
  H  H14  1  0.75062000  0.38871000  0.11315000  1.0
  H  H15  1  0.25062000  0.61129000  0.88685000  1.0
  H  H16  1  0.07895000  0.06125000  0.48040000  1.0
  H  H17  1  0.57895000  0.93875000  0.51960000  1.0
  H  H18  1  0.57895000  0.56125000  0.01960000  1.0
  H  H19  1  0.07895000  0.43875000  0.98040000  1.0
  H  H20  1  0.92301000  0.92626000  0.45348000  1.0
  H  H21  1  0.42301000  0.07374000  0.54652000  1.0
  H  H22  1  0.42301000  0.42626000  0.04652000  1.0
  H  H23  1  0.92301000  0.57374000  0.95348000  1.0
  H  H24  1  0.77185000  0.05173000  0.32016000  1.0
  H  H25  1  0.27185000  0.94827000  0.67984000  1.0
  H  H26  1  0.27185000  0.55173000  0.17984000  1.0
  H  H27  1  0.77185000  0.44827000  0.82016000  1.0
  H  H28  1  0.74267000  0.13064000  0.43143000  1.0
  H  H29  1  0.24267000  0.86936000  0.56858000  1.0
  H  H30  1  0.24267000  0.63064000  0.06857000  1.0
  H  H31  1  0.74268000  0.36936000  0.93142000  1.0
  H  H32  1  0.30316000  0.64493000  0.49979000  1.0
  H  H33  1  0.80315000  0.35507000  0.50021000  1.0
  H  H34  1  0.80315000  0.14493000  0.00021000  1.0
  H  H35  1  0.30316000  0.85507000  0.99979000  1.0
  H  H36  1  0.79235000  0.65153000  0.50286000  1.0
  H  H37  1  0.29235000  0.34847000  0.49714000  1.0
  H  H38  1  0.29235000  0.15153000  0.99713000  1.0
  H  H39  1  0.79235000  0.84847000  0.00286000  1.0
  C  C40  1  0.06585000  0.88939000  0.26626000  1.0
  C  C41  1  0.56585000  0.11061000  0.73374000  1.0
  C  C42  1  0.56585000  0.38939000  0.23374000  1.0
  C  C43  1  0.06585000  0.61061000  0.76626000  1.0
  C  C44  1  0.15388000  0.95881000  0.34998000  1.0
  C  C45  1  0.65389000  0.04119000  0.65002000  1.0
  C  C46  1  0.65388000  0.45881000  0.15002000  1.0
  C  C47  1  0.15389000  0.54119000  0.84998000  1.0
  C  C48  1  0.00192000  0.01042000  0.42179000  1.0
  C  C49  1  0.50192000  0.98958000  0.57821000  1.0
  C  C50  1  0.50192000  0.51042000  0.07821000  1.0
  C  C51  1  0.00192000  0.48958000  0.92179000  1.0
  C  C52  1  0.85136000  0.10404000  0.37707000  1.0
  C  C53  1  0.35136000  0.89596000  0.62293000  1.0
  C  C54  1  0.35136000  0.60404000  0.12293000  1.0
  C  C55  1  0.85136000  0.39596000  0.87707000  1.0
  C  C56  1  0.93246000  0.23018000  0.33875000  1.0
  C  C57  1  0.43246000  0.76982000  0.66125000  1.0
  C  C58  1  0.43246000  0.73019000  0.16125000  1.0
  C  C59  1  0.93247000  0.26981000  0.83875000  1.0
  N  N60  1  0.02135000  0.75963000  0.26190000  1.0
  N  N61  1  0.52136000  0.24037000  0.73810000  1.0
  N  N62  1  0.52136000  0.25963000  0.23811000  1.0
  N  N63  1  0.02136000  0.74037000  0.76190000  1.0
  N  N64  1  0.94226000  0.73657000  0.17453000  1.0
  N  N65  1  0.44226000  0.26343000  0.82547000  1.0
  N  N66  1  0.44226000  0.23657000  0.32547000  1.0
  N  N67  1  0.94226000  0.76343000  0.67453000  1.0
  N  N68  1  0.93837000  0.84766000  0.12693000  1.0
  N  N69  1  0.43837000  0.15234000  0.87307000  1.0
  N  N70  1  0.43837000  0.34766000  0.37307000  1.0
  N  N71  1  0.93837000  0.65234000  0.62693000  1.0
  N  N72  1  0.01484000  0.94502000  0.18246000  1.0
  N  N73  1  0.51484000  0.05498000  0.81754000  1.0
  N  N74  1  0.51484000  0.44502000  0.31754000  1.0
  N  N75  1  0.01484000  0.55498000  0.68246000  1.0
  N  N76  1  0.01563000  0.25084000  0.25161000  1.0
  N  N77  1  0.51563000  0.74917000  0.74839000  1.0
  N  N78  1  0.51563000  0.75084000  0.24839000  1.0
  N  N79  1  0.01563000  0.24916000  0.75161000  1.0
  N  N80  1  0.06254000  0.37966000  0.24629000  1.0
  N  N81  1  0.56254000  0.62035000  0.75371000  1.0
  N  N82  1  0.56254000  0.87966000  0.25371000  1.0
  N  N83  1  0.06254000  0.12035000  0.74629000  1.0
  N  N84  1  0.00917000  0.43429000  0.32774000  1.0
  N  N85  1  0.50917000  0.56571000  0.67226000  1.0
  N  N86  1  0.50917000  0.93430000  0.17226000  1.0
  N  N87  1  0.00917000  0.06570000  0.82774000  1.0
  N  N88  1  0.92832000  0.34469000  0.38687000  1.0
  N  N89  1  0.42832000  0.65531000  0.61313000  1.0
  N  N90  1  0.42832000  0.84469000  0.11313000  1.0
  N  N91  1  0.92832000  0.15531000  0.88687000  1.0
  O  O92  1  0.28203000  0.66021000  0.43034000  1.0
  O  O93  1  0.78203000  0.33979000  0.56966000  1.0
  O  O94  1  0.78203000  0.16021000  0.06966000  1.0
  O  O95  1  0.28203000  0.83979000  0.93034000  1.0
  O  O96  1  0.78023000  0.66407000  0.43318000  1.0
  O  O97  1  0.28023000  0.33593000  0.56682000  1.0
  O  O98  1  0.28023000  0.16407000  0.06682000  1.0
  O  O99  1  0.78023000  0.83593000  0.93318000  1.0
