# generated using pymatgen
data_InH5C8O5
_symmetry_space_group_name_H-M   'P 1'
_cell_length_a   7.27287000
_cell_length_b   21.93320000
_cell_length_c   21.95210000
_cell_angle_alpha   60.47200000
_cell_angle_beta   89.99960000
_cell_angle_gamma   89.99960000
_symmetry_Int_Tables_number   1
_chemical_formula_structural   InH5C8O5
_chemical_formula_sum   'In6 H30 C48 O30'
_cell_volume   3046.91631172
_cell_formula_units_Z   6
loop_
 _symmetry_equiv_pos_site_id
 _symmetry_equiv_pos_as_xyz
  1  'x, y, z'
loop_
 _atom_site_type_symbol
 _atom_site_label
 _atom_site_symmetry_multiplicity
 _atom_site_fract_x
 _atom_site_fract_y
 _atom_site_fract_z
 _atom_site_occupancy
  In  In0  1  0.00039000  0.49982000  0.99940000  1.0
  In  In1  1  0.49961000  0.49982000  0.99940000  1.0
  In  In2  1  0.50020000  0.99990000  0.50124000  1.0
  In  In3  1  0.99979000  0.99990000  0.50124000  1.0
  In  In4  1  0.99987000  0.00162000  0.99804000  1.0
  In  In5  1  0.50013000  0.00162000  0.99804000  1.0
  H  H6  1  0.54521000  0.68031000  0.79316000  1.0
  H  H7  1  0.95487000  0.32058000  0.97040000  1.0
  H  H8  1  0.95474000  0.20872000  0.96447000  1.0
  H  H9  1  0.04505000  0.31971000  0.20577000  1.0
  H  H10  1  0.45500000  0.67763000  0.03050000  1.0
  H  H11  1  0.45480000  0.79018000  0.03475000  1.0
  H  H12  1  0.95493000  0.79440000  0.67955000  1.0
  H  H13  1  0.54506000  0.96961000  0.32154000  1.0
  H  H14  1  0.54504000  0.96551000  0.20918000  1.0
  H  H15  1  0.45494000  0.20685000  0.32033000  1.0
  H  H16  1  0.04517000  0.02879000  0.67980000  1.0
  H  H17  1  0.04526000  0.03598000  0.79087000  1.0
  H  H18  1  0.45495000  0.31971000  0.20577000  1.0
  H  H19  1  0.04499000  0.67763000  0.03049000  1.0
  H  H20  1  0.04520000  0.79018000  0.03475000  1.0
  H  H21  1  0.95479000  0.68031000  0.79316000  1.0
  H  H22  1  0.54512000  0.32058000  0.97040000  1.0
  H  H23  1  0.54526000  0.20872000  0.96447000  1.0
  H  H24  1  0.04506000  0.20685000  0.32033000  1.0
  H  H25  1  0.45482000  0.02879000  0.67981000  1.0
  H  H26  1  0.45474000  0.03598000  0.79087000  1.0
  H  H27  1  0.54507000  0.79440000  0.67955000  1.0
  H  H28  1  0.95494000  0.96961000  0.32153000  1.0
  H  H29  1  0.95496000  0.96551000  0.20918000  1.0
  H  H30  1  0.25000000  0.10039000  0.46317000  1.0
  H  H31  1  0.75000000  0.53501000  0.89973000  1.0
  H  H32  1  0.25000000  0.46485000  0.09932000  1.0
  H  H33  1  0.75000000  0.93865000  0.46096000  1.0
  H  H34  1  0.75000000  0.01008000  0.08055000  1.0
  H  H35  1  0.25000000  0.91923000  0.98935000  1.0
  C  C36  1  0.41683000  0.70538000  0.76748000  1.0
  C  C37  1  0.08294000  0.29560000  0.96887000  1.0
  C  C38  1  0.08291000  0.23396000  0.96542000  1.0
  C  C39  1  0.91674000  0.29493000  0.23177000  1.0
  C  C40  1  0.58304000  0.70286000  0.03159000  1.0
  C  C41  1  0.58322000  0.76510000  0.03389000  1.0
  C  C42  1  0.08305000  0.76852000  0.70475000  1.0
  C  C43  1  0.41672000  0.96828000  0.29664000  1.0
  C  C44  1  0.41667000  0.96615000  0.23438000  1.0
  C  C45  1  0.58328000  0.23246000  0.29515000  1.0
  C  C46  1  0.91709000  0.03071000  0.70453000  1.0
  C  C47  1  0.91708000  0.03486000  0.76573000  1.0
  C  C48  1  0.58326000  0.29493000  0.23177000  1.0
  C  C49  1  0.91696000  0.70286000  0.03158000  1.0
  C  C50  1  0.91677000  0.76510000  0.03389000  1.0
  C  C51  1  0.08318000  0.70538000  0.76748000  1.0
  C  C52  1  0.41705000  0.29560000  0.96887000  1.0
  C  C53  1  0.41710000  0.23397000  0.96542000  1.0
  C  C54  1  0.91672000  0.23246000  0.29515000  1.0
  C  C55  1  0.58292000  0.03071000  0.70453000  1.0
  C  C56  1  0.58291000  0.03486000  0.76573000  1.0
  C  C57  1  0.41694000  0.76852000  0.70475000  1.0
  C  C58  1  0.08327000  0.96828000  0.29664000  1.0
  C  C59  1  0.08333000  0.96615000  0.23438000  1.0
  C  C60  1  0.25000000  0.60824000  0.86941000  1.0
  C  C61  1  0.25000000  0.67373000  0.79962000  1.0
  C  C62  1  0.24999000  0.39137000  0.97743000  1.0
  C  C63  1  0.25000000  0.32647000  0.97104000  1.0
  C  C64  1  0.25000000  0.20266000  0.96407000  1.0
  C  C65  1  0.25001000  0.13414000  0.96467000  1.0
  C  C66  1  0.75000000  0.39169000  0.12946000  1.0
  C  C67  1  0.75000000  0.32636000  0.19947000  1.0
  C  C68  1  0.75000000  0.60721000  0.02290000  1.0
  C  C69  1  0.74999000  0.67194000  0.02959000  1.0
  C  C70  1  0.75000000  0.79710000  0.03420000  1.0
  C  C71  1  0.74999000  0.86669000  0.03150000  1.0
  C  C72  1  0.24999000  0.87100000  0.60841000  1.0
  C  C73  1  0.25001000  0.80077000  0.67348000  1.0
  C  C74  1  0.24998000  0.97599000  0.39290000  1.0
  C  C75  1  0.25000000  0.96994000  0.32786000  1.0
  C  C76  1  0.24999000  0.96574000  0.20246000  1.0
  C  C77  1  0.25000000  0.96826000  0.13295000  1.0
  C  C78  1  0.75001000  0.13131000  0.39340000  1.0
  C  C79  1  0.75000000  0.20058000  0.32708000  1.0
  C  C80  1  0.75002000  0.02047000  0.60989000  1.0
  C  C81  1  0.74999000  0.02810000  0.67396000  1.0
  C  C82  1  0.75000000  0.03643000  0.79691000  1.0
  C  C83  1  0.74999000  0.03584000  0.86537000  1.0
  O  O84  1  0.09365000  0.58320000  0.89660000  1.0
  O  O85  1  0.09333000  0.41606000  0.98008000  1.0
  O  O86  1  0.09372000  0.10741000  0.96551000  1.0
  O  O87  1  0.59360000  0.41658000  0.10240000  1.0
  O  O88  1  0.59326000  0.58277000  0.02003000  1.0
  O  O89  1  0.59341000  0.89376000  0.02989000  1.0
  O  O90  1  0.40640000  0.89805000  0.58372000  1.0
  O  O91  1  0.40669000  0.97869000  0.41758000  1.0
  O  O92  1  0.40662000  0.96978000  0.10608000  1.0
  O  O93  1  0.90663000  0.10457000  0.41862000  1.0
  O  O94  1  0.90639000  0.01727000  0.58542000  1.0
  O  O95  1  0.90626000  0.03495000  0.89210000  1.0
  O  O96  1  0.90640000  0.41658000  0.10240000  1.0
  O  O97  1  0.90673000  0.58277000  0.02003000  1.0
  O  O98  1  0.90659000  0.89376000  0.02989000  1.0
  O  O99  1  0.40635000  0.58320000  0.89660000  1.0
  O  O100  1  0.40666000  0.41606000  0.98008000  1.0
  O  O101  1  0.40627000  0.10742000  0.96551000  1.0
  O  O102  1  0.59336000  0.10457000  0.41862000  1.0
  O  O103  1  0.59361000  0.01728000  0.58541000  1.0
  O  O104  1  0.59376000  0.03495000  0.89210000  1.0
  O  O105  1  0.09362000  0.89805000  0.58372000  1.0
  O  O106  1  0.09331000  0.97870000  0.41758000  1.0
  O  O107  1  0.09337000  0.96978000  0.10607000  1.0
  O  O108  1  0.25000000  0.50014000  0.04995000  1.0
  O  O109  1  0.75000000  0.49991000  0.94917000  1.0
  O  O110  1  0.25000000  0.05118000  0.49900000  1.0
  O  O111  1  0.75000000  0.95136000  0.49762000  1.0
  O  O112  1  0.25000000  0.96948000  0.97230000  1.0
  O  O113  1  0.75000000  0.02751000  0.03030000  1.0
