# generated using pymatgen
data_TbH16C15O11
_symmetry_space_group_name_H-M   'P 1'
_cell_length_a   8.02889000
_cell_length_b   9.34773000
_cell_length_c   12.78020000
_cell_angle_alpha   104.75900000
_cell_angle_beta   95.39060000
_cell_angle_gamma   109.78200000
_symmetry_Int_Tables_number   1
_chemical_formula_structural   TbH16C15O11
_chemical_formula_sum   'Tb2 H32 C30 O22'
_cell_volume   855.51593106
_cell_formula_units_Z   2
loop_
 _symmetry_equiv_pos_site_id
 _symmetry_equiv_pos_as_xyz
  1  'x, y, z'
loop_
 _atom_site_type_symbol
 _atom_site_label
 _atom_site_symmetry_multiplicity
 _atom_site_fract_x
 _atom_site_fract_y
 _atom_site_fract_z
 _atom_site_occupancy
  Tb  Tb0  1  0.63600000  0.22259000  0.51285000  1.0
  Tb  Tb1  1  0.36399000  0.77740000  0.48715000  1.0
  H  H2  1  0.53828000  0.01110000  0.80610000  1.0
  H  H3  1  0.46170000  0.98888000  0.19390000  1.0
  H  H4  1  0.71614000  0.94261000  0.77611000  1.0
  H  H5  1  0.28385000  0.05738000  0.22389000  1.0
  H  H6  1  0.59214000  0.88535000  0.92793000  1.0
  H  H7  1  0.40788000  0.11466000  0.07208000  1.0
  H  H8  1  0.65893000  0.80722000  0.08888000  1.0
  H  H9  1  0.34109000  0.19279000  0.91113000  1.0
  H  H10  1  0.09088000  0.26627000  0.23789000  1.0
  H  H11  1  0.90914000  0.73374000  0.76211000  1.0
  H  H12  1  0.03343000  0.34059000  0.06757000  1.0
  H  H13  1  0.96659000  0.65941000  0.93243000  1.0
  H  H14  1  0.93090000  0.80906000  0.32388000  1.0
  H  H15  1  0.06911000  0.19094000  0.67612000  1.0
  H  H16  1  0.74808000  0.76226000  0.21689000  1.0
  H  H17  1  0.25194000  0.23775000  0.78311000  1.0
  H  H18  1  0.35580000  0.33701000  0.21849000  1.0
  H  H19  1  0.64418000  0.66299000  0.78150000  1.0
  H  H20  1  0.50484000  0.53094000  0.30282000  1.0
  H  H21  1  0.49514000  0.46905000  0.69717000  1.0
  H  H22  1  0.74740000  0.39753000  0.00707000  1.0
  H  H23  1  0.25261000  0.60247000  0.99293000  1.0
  H  H24  1  0.34278000  0.53625000  0.15763000  1.0
  H  H25  1  0.65721000  0.46375000  0.84237000  1.0
  H  H26  1  0.68413000  0.57004000  0.58275000  1.0
  H  H27  1  0.31586000  0.42994000  0.41725000  1.0
  H  H28  1  0.86825000  0.55618000  0.55729000  1.0
  H  H29  1  0.13175000  0.44382000  0.44270000  1.0
  H  H30  1  0.05356000  0.36741000  0.59291000  1.0
  H  H31  1  0.94643000  0.63258000  0.40709000  1.0
  H  H32  1  0.96642000  0.22318000  0.47984000  1.0
  H  H33  1  0.03356000  0.77683000  0.52016000  1.0
  C  C34  1  0.69077000  0.10920000  0.69685000  1.0
  C  C35  1  0.30922000  0.89078000  0.30314000  1.0
  C  C36  1  0.68077000  0.04939000  0.79624000  1.0
  C  C37  1  0.31922000  0.95060000  0.20377000  1.0
  C  C38  1  0.81562000  0.11575000  0.98412000  1.0
  C  C39  1  0.18437000  0.88424000  0.01588000  1.0
  C  C40  1  0.70677000  0.96864000  0.99284000  1.0
  C  C41  1  0.29324000  0.03136000  0.00716000  1.0
  C  C42  1  0.74360000  0.92485000  0.08695000  1.0
  C  C43  1  0.25641000  0.07515000  0.91305000  1.0
  C  C44  1  0.88787000  0.02904000  0.17264000  1.0
  C  C45  1  0.11215000  0.97097000  0.82737000  1.0
  C  C46  1  0.98721000  0.18143000  0.16716000  1.0
  C  C47  1  0.01281000  0.81858000  0.83284000  1.0
  C  C48  1  0.95294000  0.22396000  0.07347000  1.0
  C  C49  1  0.04708000  0.77605000  0.92653000  1.0
  C  C50  1  0.83942000  0.85803000  0.28953000  1.0
  C  C51  1  0.16059000  0.14198000  0.71048000  1.0
  C  C52  1  0.72991000  0.90102000  0.37548000  1.0
  C  C53  1  0.27009000  0.09896000  0.62451000  1.0
  C  C54  1  0.54913000  0.33978000  0.34456000  1.0
  C  C55  1  0.45086000  0.66023000  0.65544000  1.0
  C  C56  1  0.49768000  0.41034000  0.25924000  1.0
  C  C57  1  0.50231000  0.58966000  0.74076000  1.0
  C  C58  1  0.55264000  0.46117000  0.09308000  1.0
  C  C59  1  0.44734000  0.53882000  0.90692000  1.0
  C  C60  1  0.64055000  0.44423000  0.00419000  1.0
  C  C61  1  0.35944000  0.55577000  0.99580000  1.0
  C  C62  1  0.41183000  0.51804000  0.08905000  1.0
  C  C63  1  0.58816000  0.48196000  0.91094000  1.0
  O  O64  1  0.78502000  0.24939000  0.69962000  1.0
  O  O65  1  0.21497000  0.75061000  0.30038000  1.0
  O  O66  1  0.58971000  0.00684000  0.60548000  1.0
  O  O67  1  0.41027000  0.99315000  0.39452000  1.0
  O  O68  1  0.79862000  0.16652000  0.89246000  1.0
  O  O69  1  0.20137000  0.83348000  0.10755000  1.0
  O  O70  1  0.95087000  0.99306000  0.26368000  1.0
  O  O71  1  0.04915000  0.00694000  0.73632000  1.0
  O  O72  1  0.77716000  0.04761000  0.42978000  1.0
  O  O73  1  0.22285000  0.95241000  0.57023000  1.0
  O  O74  1  0.60015000  0.78687000  0.38773000  1.0
  O  O75  1  0.39986000  0.21315000  0.61226000  1.0
  O  O76  1  0.44661000  0.32540000  0.41627000  1.0
  O  O77  1  0.55338000  0.67459000  0.58373000  1.0
  O  O78  1  0.68329000  0.29811000  0.34798000  1.0
  O  O79  1  0.31668000  0.70189000  0.65202000  1.0
  O  O80  1  0.61076000  0.41681000  0.18043000  1.0
  O  O81  1  0.38923000  0.58319000  0.81958000  1.0
  O  O82  1  0.76196000  0.50613000  0.58759000  1.0
  O  O83  1  0.23803000  0.49387000  0.41240000  1.0
  O  O84  1  0.98415000  0.33574000  0.51835000  1.0
  O  O85  1  0.01585000  0.66427000  0.48164000  1.0
