# generated using pymatgen
data_CdH5C5Br2NO
_symmetry_space_group_name_H-M   'P 1'
_cell_length_a   6.49165000
_cell_length_b   7.07208000
_cell_length_c   10.46490000
_cell_angle_alpha   71.58730000
_cell_angle_beta   82.91360000
_cell_angle_gamma   64.98440000
_symmetry_Int_Tables_number   1
_chemical_formula_structural   CdH5C5Br2NO
_chemical_formula_sum   'Cd2 H10 C10 Br4 N2 O2'
_cell_volume   413.05203634
_cell_formula_units_Z   2
loop_
 _symmetry_equiv_pos_site_id
 _symmetry_equiv_pos_as_xyz
  1  'x, y, z'
loop_
 _atom_site_type_symbol
 _atom_site_label
 _atom_site_symmetry_multiplicity
 _atom_site_fract_x
 _atom_site_fract_y
 _atom_site_fract_z
 _atom_site_occupancy
  Cd  Cd0  1  0.32945000  0.32363000  0.49574000  1.0
  Cd  Cd1  1  0.67054000  0.67637000  0.50426000  1.0
  H  H2  1  0.15716000  0.05682000  0.32085000  1.0
  H  H3  1  0.84284000  0.94318000  0.67914000  1.0
  H  H4  1  0.06207000  0.29303000  0.08205000  1.0
  H  H5  1  0.93795000  0.70696000  0.91795000  1.0
  H  H6  1  0.19515000  0.11605000  0.89376000  1.0
  H  H7  1  0.80487000  0.88395000  0.10624000  1.0
  H  H8  1  0.42086000  0.71284000  0.95454000  1.0
  H  H9  1  0.57913000  0.28716000  0.04545000  1.0
  H  H10  1  0.50880000  0.49779000  0.20279000  1.0
  H  H11  1  0.49118000  0.50221000  0.79721000  1.0
  C  C12  1  0.21165000  0.99276000  0.23500000  1.0
  C  C13  1  0.78835000  0.00724000  0.76500000  1.0
  C  C14  1  0.16095000  0.11799000  0.10193000  1.0
  C  C15  1  0.83906000  0.88201000  0.89806000  1.0
  C  C16  1  0.23437000  0.01971000  0.99890000  1.0
  C  C17  1  0.76564000  0.98030000  0.00110000  1.0
  C  C18  1  0.36009000  0.79433000  0.03288000  1.0
  C  C19  1  0.63990000  0.20568000  0.96712000  1.0
  C  C20  1  0.41039000  0.67336000  0.16638000  1.0
  C  C21  1  0.58961000  0.32664000  0.83362000  1.0
  Br  Br22  1  0.34673000  0.91884000  0.65443000  1.0
  Br  Br23  1  0.65327000  0.08115000  0.34557000  1.0
  Br  Br24  1  0.02674000  0.50901000  0.68013000  1.0
  Br  Br25  1  0.97327000  0.49099000  0.31987000  1.0
  N  N26  1  0.33585000  0.77436000  0.26458000  1.0
  N  N27  1  0.66414000  0.22564000  0.73542000  1.0
  O  O28  1  0.38497000  0.65739000  0.39317000  1.0
  O  O29  1  0.61503000  0.34261000  0.60683000  1.0
