# generated using pymatgen
data_LiH5C5N2O3
_symmetry_space_group_name_H-M   'P 1'
_cell_length_a   4.74213000
_cell_length_b   5.60394000
_cell_length_c   24.13530000
_cell_angle_alpha   90.00000000
_cell_angle_beta   90.00040000
_cell_angle_gamma   89.99980000
_symmetry_Int_Tables_number   1
_chemical_formula_structural   LiH5C5N2O3
_chemical_formula_sum   'Li4 H20 C20 N8 O12'
_cell_volume   641.38623280
_cell_formula_units_Z   4
loop_
 _symmetry_equiv_pos_site_id
 _symmetry_equiv_pos_as_xyz
  1  'x, y, z'
loop_
 _atom_site_type_symbol
 _atom_site_label
 _atom_site_symmetry_multiplicity
 _atom_site_fract_x
 _atom_site_fract_y
 _atom_site_fract_z
 _atom_site_occupancy
  Li  Li0  1  0.06957000  0.04254000  0.72529000  1.0
  Li  Li1  1  0.93043000  0.54254000  0.27471000  1.0
  Li  Li2  1  0.93042000  0.04254000  0.22530000  1.0
  Li  Li3  1  0.06957000  0.54255000  0.77470000  1.0
  H  H4  1  0.49869000  0.01690000  0.51854000  1.0
  H  H5  1  0.50133000  0.51689000  0.48147000  1.0
  H  H6  1  0.50131000  0.01691000  0.01854000  1.0
  H  H7  1  0.49871000  0.51692000  0.98146000  1.0
  H  H8  1  0.42267000  0.21543000  0.61037000  1.0
  H  H9  1  0.57733000  0.71543000  0.38963000  1.0
  H  H10  1  0.57732000  0.21543000  0.11038000  1.0
  H  H11  1  0.42267000  0.71545000  0.88962000  1.0
  H  H12  1  0.90772000  0.49688000  0.56016000  1.0
  H  H13  1  0.09228000  0.99686000  0.43984000  1.0
  H  H14  1  0.09228000  0.49688000  0.06016000  1.0
  H  H15  1  0.90773000  0.99690000  0.93984000  1.0
  H  H16  1  0.48376000  0.78394000  0.74805000  1.0
  H  H17  1  0.51624000  0.28393000  0.25195000  1.0
  H  H18  1  0.51624000  0.78393000  0.24805000  1.0
  H  H19  1  0.48376000  0.28394000  0.75195000  1.0
  H  H20  1  0.40751000  0.90832000  0.80372000  1.0
  H  H21  1  0.59249000  0.40832000  0.19628000  1.0
  H  H22  1  0.59249000  0.90831000  0.30372000  1.0
  H  H23  1  0.40750000  0.40832000  0.69628000  1.0
  C  C24  1  0.98173000  0.76924000  0.62223000  1.0
  C  C25  1  0.01827000  0.26923000  0.37777000  1.0
  C  C26  1  0.01826000  0.76924000  0.12223000  1.0
  C  C27  1  0.98174000  0.26926000  0.87777000  1.0
  C  C28  1  0.77585000  0.67151000  0.66406000  1.0
  C  C29  1  0.22415000  0.17150000  0.33594000  1.0
  C  C30  1  0.22415000  0.67150000  0.16406000  1.0
  C  C31  1  0.77584000  0.17151000  0.83594000  1.0
  C  C32  1  0.34668000  0.94334000  0.54812000  1.0
  C  C33  1  0.65332000  0.44333000  0.45188000  1.0
  C  C34  1  0.65332000  0.94334000  0.04812000  1.0
  C  C35  1  0.34669000  0.44336000  0.95188000  1.0
  C  C36  1  0.30583000  0.05452000  0.59935000  1.0
  C  C37  1  0.69417000  0.55451000  0.40065000  1.0
  C  C38  1  0.69416000  0.05452000  0.09935000  1.0
  C  C39  1  0.30583000  0.55454000  0.90064000  1.0
  C  C40  1  0.02341000  0.65888000  0.57084000  1.0
  C  C41  1  0.97659000  0.15886000  0.42916000  1.0
  C  C42  1  0.97659000  0.65888000  0.07084000  1.0
  C  C43  1  0.02341000  0.15889000  0.92916000  1.0
  N  N44  1  0.12490000  0.96650000  0.63681000  1.0
  N  N45  1  0.87510000  0.46650000  0.36319000  1.0
  N  N46  1  0.87510000  0.96650000  0.13681000  1.0
  N  N47  1  0.12489000  0.46651000  0.86319000  1.0
  N  N48  1  0.20679000  0.74466000  0.53366000  1.0
  N  N49  1  0.79322000  0.24464000  0.46634000  1.0
  N  N50  1  0.79321000  0.74467000  0.03366000  1.0
  N  N51  1  0.20680000  0.24469000  0.96634000  1.0
  O  O52  1  0.79892000  0.74962000  0.71380000  1.0
  O  O53  1  0.20107000  0.24961000  0.28620000  1.0
  O  O54  1  0.20108000  0.74961000  0.21380000  1.0
  O  O55  1  0.79892000  0.24962000  0.78620000  1.0
  O  O56  1  0.59669000  0.52280000  0.64686000  1.0
  O  O57  1  0.40331000  0.02279000  0.35314000  1.0
  O  O58  1  0.40331000  0.52280000  0.14686000  1.0
  O  O59  1  0.59670000  0.02282000  0.85314000  1.0
  O  O60  1  0.31606000  0.82931000  0.77077000  1.0
  O  O61  1  0.68394000  0.32931000  0.22923000  1.0
  O  O62  1  0.68394000  0.82931000  0.27077000  1.0
  O  O63  1  0.31606000  0.32931000  0.72923000  1.0
