# generated using pymatgen
data_TbH13C20S(N2O3)2
_symmetry_space_group_name_H-M   'P 1'
_cell_length_a   6.84277000
_cell_length_b   9.96507000
_cell_length_c   15.01290000
_cell_angle_alpha   85.06450000
_cell_angle_beta   79.22460000
_cell_angle_gamma   79.50390000
_symmetry_Int_Tables_number   1
_chemical_formula_structural   TbH13C20S(N2O3)2
_chemical_formula_sum   'Tb2 H26 C40 S2 N8 O12'
_cell_volume   987.39943475
_cell_formula_units_Z   2
loop_
 _symmetry_equiv_pos_site_id
 _symmetry_equiv_pos_as_xyz
  1  'x, y, z'
loop_
 _atom_site_type_symbol
 _atom_site_label
 _atom_site_symmetry_multiplicity
 _atom_site_fract_x
 _atom_site_fract_y
 _atom_site_fract_z
 _atom_site_occupancy
  Tb  Tb0  1  0.43637000  0.04772000  0.11426000  1.0
  Tb  Tb1  1  0.56362000  0.95228000  0.88574000  1.0
  H  H2  1  0.17974000  0.60226000  0.71311000  1.0
  H  H3  1  0.82026000  0.39773000  0.28689000  1.0
  H  H4  1  0.26565000  0.36099000  0.77357000  1.0
  H  H5  1  0.73436000  0.63901000  0.22643000  1.0
  H  H6  1  0.27101000  0.50410000  0.03439000  1.0
  H  H7  1  0.72898000  0.49589000  0.96561000  1.0
  H  H8  1  0.19537000  0.74507000  0.97474000  1.0
  H  H9  1  0.80462000  0.25493000  0.02526000  1.0
  H  H10  1  0.42077000  0.75856000  0.24875000  1.0
  H  H11  1  0.57923000  0.24145000  0.75125000  1.0
  H  H12  1  0.37138000  0.66148000  0.40948000  1.0
  H  H13  1  0.62861000  0.33852000  0.59051000  1.0
  H  H14  1  0.27478000  0.82294000  0.53608000  1.0
  H  H15  1  0.72523000  0.17706000  0.46392000  1.0
  H  H16  1  0.10071000  0.24393000  0.70142000  1.0
  H  H17  1  0.89929000  0.75607000  0.29858000  1.0
  H  H18  1  0.15539000  0.50923000  0.41355000  1.0
  H  H19  1  0.84463000  0.49077000  0.58645000  1.0
  H  H20  1  0.22980000  0.57548000  0.24603000  1.0
  H  H21  1  0.77020000  0.42452000  0.75397000  1.0
  H  H22  1  0.33680000  0.38880000  0.13637000  1.0
  H  H23  1  0.66318000  0.61119000  0.86363000  1.0
  H  H24  1  0.17390000  0.00488000  0.64154000  1.0
  H  H25  1  0.82610000  0.99513000  0.35846000  1.0
  H  H26  1  0.18329000  0.99120000  0.00517000  1.0
  H  H27  1  0.81671000  0.00880000  0.99483000  1.0
  C  C28  1  0.18068000  0.68648000  0.84068000  1.0
  C  C29  1  0.81932000  0.31351000  0.15932000  1.0
  C  C30  1  0.19974000  0.57985000  0.78341000  1.0
  C  C31  1  0.80026000  0.42015000  0.21659000  1.0
  C  C32  1  0.24749000  0.44559000  0.81731000  1.0
  C  C33  1  0.75251000  0.55441000  0.18269000  1.0
  C  C34  1  0.27516000  0.41705000  0.90760000  1.0
  C  C35  1  0.72483000  0.58295000  0.09240000  1.0
  C  C36  1  0.25136000  0.52598000  0.96415000  1.0
  C  C37  1  0.74864000  0.47402000  0.03585000  1.0
  C  C38  1  0.20556000  0.66074000  0.93133000  1.0
  C  C39  1  0.79444000  0.33926000  0.06867000  1.0
  C  C40  1  0.33594000  0.27153000  0.94215000  1.0
  C  C41  1  0.66406000  0.72846000  0.05785000  1.0
  C  C42  1  0.37814000  0.82537000  0.30550000  1.0
  C  C43  1  0.62186000  0.17463000  0.69450000  1.0
  C  C44  1  0.35025000  0.77172000  0.39566000  1.0
  C  C45  1  0.64975000  0.22828000  0.60434000  1.0
  C  C46  1  0.29855000  0.86070000  0.46520000  1.0
  C  C47  1  0.70145000  0.13930000  0.53480000  1.0
  C  C48  1  0.27665000  0.00247000  0.44305000  1.0
  C  C49  1  0.72335000  0.99754000  0.55695000  1.0
  C  C50  1  0.22275000  0.10488000  0.50786000  1.0
  C  C51  1  0.77726000  0.89512000  0.49214000  1.0
  C  C52  1  0.13902000  0.22435000  0.62967000  1.0
  C  C53  1  0.86099000  0.77565000  0.37033000  1.0
  C  C54  1  0.20242000  0.24512000  0.48446000  1.0
  C  C55  1  0.79760000  0.75488000  0.51554000  1.0
  C  C56  1  0.23554000  0.29333000  0.39125000  1.0
  C  C57  1  0.76448000  0.70667000  0.60876000  1.0
  C  C58  1  0.21081000  0.43287000  0.36298000  1.0
  C  C59  1  0.78921000  0.56714000  0.63702000  1.0
  C  C60  1  0.24802000  0.46891000  0.27126000  1.0
  C  C61  1  0.75199000  0.53108000  0.72874000  1.0
  C  C62  1  0.30738000  0.36532000  0.20931000  1.0
  C  C63  1  0.69262000  0.63468000  0.79070000  1.0
  C  C64  1  0.29283000  0.19425000  0.32395000  1.0
  C  C65  1  0.70718000  0.80576000  0.67605000  1.0
  C  C66  1  0.31149000  0.04877000  0.34966000  1.0
  C  C67  1  0.68851000  0.95124000  0.65035000  1.0
  S  S68  1  0.12742000  0.85854000  0.79820000  1.0
  S  S69  1  0.87258000  0.14146000  0.20180000  1.0
  N  N70  1  0.36118000  0.95882000  0.28268000  1.0
  N  N71  1  0.63882000  0.04118000  0.71732000  1.0
  N  N72  1  0.32790000  0.23257000  0.23408000  1.0
  N  N73  1  0.67210000  0.76743000  0.76592000  1.0
  N  N74  1  0.15027000  0.31890000  0.56160000  1.0
  N  N75  1  0.84974000  0.68110000  0.43840000  1.0
  N  N76  1  0.18194000  0.09423000  0.60099000  1.0
  N  N77  1  0.81806000  0.90577000  0.39901000  1.0
  O  O78  1  0.27837000  0.93080000  0.82155000  1.0
  O  O79  1  0.72163000  0.06920000  0.17846000  1.0
  O  O80  1  0.14144000  0.85340000  0.69975000  1.0
  O  O81  1  0.85856000  0.14661000  0.30025000  1.0
  O  O82  1  0.92588000  0.91716000  0.84532000  1.0
  O  O83  1  0.07412000  0.08284000  0.15468000  1.0
  O  O84  1  0.38921000  0.18136000  0.88307000  1.0
  O  O85  1  0.61079000  0.81864000  0.11692000  1.0
  O  O86  1  0.33121000  0.24942000  0.02722000  1.0
  O  O87  1  0.66879000  0.75058000  0.97278000  1.0
  O  O88  1  0.31788000  0.94406000  0.01110000  1.0
  O  O89  1  0.68212000  0.05594000  0.98890000  1.0
