# generated using pymatgen
data_CdH17C20N3O4
_symmetry_space_group_name_H-M   'P 1'
_cell_length_a   7.54190000
_cell_length_b   10.67880000
_cell_length_c   12.16690000
_cell_angle_alpha   102.20000000
_cell_angle_beta   107.35300000
_cell_angle_gamma   90.96890000
_symmetry_Int_Tables_number   1
_chemical_formula_structural   CdH17C20N3O4
_chemical_formula_sum   'Cd2 H34 C40 N6 O8'
_cell_volume   910.81801248
_cell_formula_units_Z   2
loop_
 _symmetry_equiv_pos_site_id
 _symmetry_equiv_pos_as_xyz
  1  'x, y, z'
loop_
 _atom_site_type_symbol
 _atom_site_label
 _atom_site_symmetry_multiplicity
 _atom_site_fract_x
 _atom_site_fract_y
 _atom_site_fract_z
 _atom_site_occupancy
  Cd  Cd0  1  0.28984000  0.53311000  0.06162000  1.0
  Cd  Cd1  1  0.71016000  0.46689000  0.93838000  1.0
  H  H2  1  0.12685000  0.94554000  0.11220000  1.0
  H  H3  1  0.87315000  0.05446000  0.88780000  1.0
  H  H4  1  0.97701000  0.15180000  0.13998000  1.0
  H  H5  1  0.02299000  0.84820000  0.86003000  1.0
  H  H6  1  0.65346000  0.14888000  0.15168000  1.0
  H  H7  1  0.34654000  0.85111000  0.84832000  1.0
  H  H8  1  0.48073000  0.94116000  0.13473000  1.0
  H  H9  1  0.51927000  0.05883000  0.86527000  1.0
  H  H10  1  0.03322000  0.50623000  0.25210000  1.0
  H  H11  1  0.96678000  0.49377000  0.74790000  1.0
  H  H12  1  0.35396000  0.20158000  0.35199000  1.0
  H  H13  1  0.64604000  0.79843000  0.64801000  1.0
  H  H14  1  0.46048000  0.28929000  0.17715000  1.0
  H  H15  1  0.53952000  0.71071000  0.82286000  1.0
  H  H16  1  0.80681000  0.39603000  0.30315000  1.0
  H  H17  1  0.19319000  0.60398000  0.69685000  1.0
  H  H18  1  0.62932000  0.34598000  0.43177000  1.0
  H  H19  1  0.37068000  0.65402000  0.56823000  1.0
  H  H20  1  0.12094000  0.22224000  0.65393000  1.0
  H  H21  1  0.87905000  0.77776000  0.34607000  1.0
  H  H22  1  0.30181000  0.27636000  0.52841000  1.0
  H  H23  1  0.69818000  0.72364000  0.47159000  1.0
  H  H24  1  0.83647000  0.18609000  0.68637000  1.0
  H  H25  1  0.16353000  0.81390000  0.31363000  1.0
  H  H26  1  0.67649000  0.30420000  0.65781000  1.0
  H  H27  1  0.32351000  0.69580000  0.34219000  1.0
  H  H28  1  0.76922000  0.97382000  0.53413000  1.0
  H  H29  1  0.23078000  0.02618000  0.46587000  1.0
  H  H30  1  0.73879000  0.05462000  0.41661000  1.0
  H  H31  1  0.26120000  0.94538000  0.58339000  1.0
  H  H32  1  0.44039000  0.15904000  0.65712000  1.0
  H  H33  1  0.55961000  0.84096000  0.34288000  1.0
  H  H34  1  0.58876000  0.03286000  0.67242000  1.0
  H  H35  1  0.41124000  0.96713000  0.32757000  1.0
  C  C36  1  0.98343000  0.70723000  0.08751000  1.0
  C  C37  1  0.01657000  0.29277000  0.91248000  1.0
  C  C38  1  0.88865000  0.82857000  0.10556000  1.0
  C  C39  1  0.11136000  0.17143000  0.89444000  1.0
  C  C40  1  0.98543000  0.94656000  0.11773000  1.0
  C  C41  1  0.01457000  0.05344000  0.88226000  1.0
  C  C42  1  0.90211000  0.06139000  0.13430000  1.0
  C  C43  1  0.09789000  0.93861000  0.86570000  1.0
  C  C44  1  0.72027000  0.05945000  0.14059000  1.0
  C  C45  1  0.27974000  0.94054000  0.85941000  1.0
  C  C46  1  0.62319000  0.94326000  0.13063000  1.0
  C  C47  1  0.37681000  0.05674000  0.86937000  1.0
  C  C48  1  0.70553000  0.82710000  0.11247000  1.0
  C  C49  1  0.29447000  0.17289000  0.88753000  1.0
  C  C50  1  0.58547000  0.70720000  0.09761000  1.0
  C  C51  1  0.41453000  0.29279000  0.90238000  1.0
  C  C52  1  0.13565000  0.43602000  0.25548000  1.0
  C  C53  1  0.86435000  0.56399000  0.74452000  1.0
  C  C54  1  0.30528000  0.27673000  0.30537000  1.0
  C  C55  1  0.69472000  0.72328000  0.69464000  1.0
  C  C56  1  0.35768000  0.32078000  0.22071000  1.0
  C  C57  1  0.64232000  0.67923000  0.77930000  1.0
  C  C58  1  0.06404000  0.33457000  0.40581000  1.0
  C  C59  1  0.93596000  0.66543000  0.59419000  1.0
  C  C60  1  0.87606000  0.35853000  0.38040000  1.0
  C  C61  1  0.12394000  0.64147000  0.61961000  1.0
  C  C62  1  0.77666000  0.33005000  0.45301000  1.0
  C  C63  1  0.22334000  0.66996000  0.54700000  1.0
  C  C64  1  0.85972000  0.27486000  0.54878000  1.0
  C  C65  1  0.14028000  0.72514000  0.45122000  1.0
  C  C66  1  0.05070000  0.25937000  0.57672000  1.0
  C  C67  1  0.94930000  0.74062000  0.42328000  1.0
  C  C68  1  0.15350000  0.28996000  0.50646000  1.0
  C  C69  1  0.84650000  0.71004000  0.49354000  1.0
  C  C70  1  0.74354000  0.22585000  0.61496000  1.0
  C  C71  1  0.25646000  0.77415000  0.38504000  1.0
  C  C72  1  0.66627000  0.01985000  0.47188000  1.0
  C  C73  1  0.33372000  0.98015000  0.52812000  1.0
  C  C74  1  0.49262000  0.07872000  0.60644000  1.0
  C  C75  1  0.50738000  0.92128000  0.39356000  1.0
  N  N76  1  0.25174000  0.41993000  0.19098000  1.0
  N  N77  1  0.74826000  0.58007000  0.80903000  1.0
  N  N78  1  0.16470000  0.35107000  0.32708000  1.0
  N  N79  1  0.83530000  0.64893000  0.67293000  1.0
  N  N80  1  0.59412000  0.12813000  0.53674000  1.0
  N  N81  1  0.40588000  0.87187000  0.46326000  1.0
  O  O82  1  0.13411000  0.71334000  0.06124000  1.0
  O  O83  1  0.86589000  0.28666000  0.93875000  1.0
  O  O84  1  0.91060000  0.60471000  0.10143000  1.0
  O  O85  1  0.08941000  0.39529000  0.89857000  1.0
  O  O86  1  0.50501000  0.64010000  0.99168000  1.0
  O  O87  1  0.49500000  0.35990000  0.00832000  1.0
  O  O88  1  0.55153000  0.68323000  0.18693000  1.0
  O  O89  1  0.44847000  0.31676000  0.81307000  1.0
