# generated using pymatgen
data_CuH3C3N2
_symmetry_space_group_name_H-M   'P 1'
_cell_length_a   11.39820000
_cell_length_b   11.39820000
_cell_length_c   12.79180000
_cell_angle_alpha   97.18960000
_cell_angle_beta   97.18960000
_cell_angle_gamma   90.04070000
_symmetry_Int_Tables_number   1
_chemical_formula_structural   CuH3C3N2
_chemical_formula_sum   'Cu16 H48 C48 N32'
_cell_volume   1635.64024372
_cell_formula_units_Z   16
loop_
 _symmetry_equiv_pos_site_id
 _symmetry_equiv_pos_as_xyz
  1  'x, y, z'
loop_
 _atom_site_type_symbol
 _atom_site_label
 _atom_site_symmetry_multiplicity
 _atom_site_fract_x
 _atom_site_fract_y
 _atom_site_fract_z
 _atom_site_occupancy
  Cu  Cu0  1  0.92331000  0.09764000  0.85568000  1.0
  Cu  Cu1  1  0.90236000  0.07669000  0.64431000  1.0
  Cu  Cu2  1  0.07669000  0.90236000  0.14431000  1.0
  Cu  Cu3  1  0.09764000  0.92331000  0.35569000  1.0
  Cu  Cu4  1  0.42277000  0.11066000  0.85351000  1.0
  Cu  Cu5  1  0.88934000  0.57723000  0.64649000  1.0
  Cu  Cu6  1  0.57723000  0.88934000  0.14649000  1.0
  Cu  Cu7  1  0.11066000  0.42277000  0.35351000  1.0
  Cu  Cu8  1  0.39919000  0.07967000  0.64793000  1.0
  Cu  Cu9  1  0.92033000  0.60081000  0.85207000  1.0
  Cu  Cu10  1  0.60081000  0.92033000  0.35207000  1.0
  Cu  Cu11  1  0.07967000  0.39919000  0.14793000  1.0
  Cu  Cu12  1  0.38811000  0.57905000  0.64425000  1.0
  Cu  Cu13  1  0.42095000  0.61188000  0.85575000  1.0
  Cu  Cu14  1  0.61189000  0.42095000  0.35575000  1.0
  Cu  Cu15  1  0.57905000  0.38811000  0.14425000  1.0
  H  H16  1  0.17258000  0.00418000  0.81026000  1.0
  H  H17  1  0.99582000  0.82742000  0.68974000  1.0
  H  H18  1  0.82742000  0.99582000  0.18974000  1.0
  H  H19  1  0.00418000  0.17258000  0.31026000  1.0
  H  H20  1  0.29582000  0.35240000  0.92154000  1.0
  H  H21  1  0.64760000  0.70418000  0.57845000  1.0
  H  H22  1  0.70418000  0.64760000  0.07845000  1.0
  H  H23  1  0.35240000  0.29582000  0.42155000  1.0
  H  H24  1  0.05408000  0.34023000  0.92790000  1.0
  H  H25  1  0.65977000  0.94592000  0.57210000  1.0
  H  H26  1  0.94592000  0.65977000  0.07210000  1.0
  H  H27  1  0.34023000  0.05408000  0.42790000  1.0
  H  H28  1  0.66993000  0.19259000  0.81166000  1.0
  H  H29  1  0.80741000  0.33007000  0.68834000  1.0
  H  H30  1  0.33007000  0.80741000  0.18834000  1.0
  H  H31  1  0.19259000  0.66993000  0.31166000  1.0
  H  H32  1  0.79696000  0.87654000  0.92237000  1.0
  H  H33  1  0.12346000  0.20304000  0.57763000  1.0
  H  H34  1  0.20304000  0.12346000  0.07763000  1.0
  H  H35  1  0.87654000  0.79697000  0.42237000  1.0
  H  H36  1  0.55402000  0.88422000  0.92226000  1.0
  H  H37  1  0.11578000  0.44598000  0.57774000  1.0
  H  H38  1  0.44598000  0.11578000  0.07774000  1.0
  H  H39  1  0.88422000  0.55402000  0.42226000  1.0
  H  H40  1  0.30514000  0.33013000  0.68929000  1.0
  H  H41  1  0.66987000  0.69486000  0.81071000  1.0
  H  H42  1  0.69486000  0.66987000  0.31071000  1.0
  H  H43  1  0.33013000  0.30514000  0.18929000  1.0
  H  H44  1  0.61170000  0.44751000  0.57611000  1.0
  H  H45  1  0.55249000  0.38830000  0.92389000  1.0
  H  H46  1  0.38830000  0.55249000  0.42389000  1.0
  H  H47  1  0.44751000  0.61170000  0.07611000  1.0
  H  H48  1  0.62319000  0.20552000  0.58175000  1.0
  H  H49  1  0.79448000  0.37681000  0.91825000  1.0
  H  H50  1  0.37681000  0.79448000  0.41825000  1.0
  H  H51  1  0.20552000  0.62319000  0.08175000  1.0
  H  H52  1  0.49454000  0.83298000  0.68762000  1.0
  H  H53  1  0.16702000  0.50546000  0.81238000  1.0
  H  H54  1  0.50546000  0.16702000  0.31238000  1.0
  H  H55  1  0.83298000  0.49453000  0.18762000  1.0
  H  H56  1  0.15371000  0.94733000  0.58001000  1.0
  H  H57  1  0.05267000  0.84629000  0.91999000  1.0
  H  H58  1  0.84629000  0.05267000  0.41999000  1.0
  H  H59  1  0.94733000  0.15371000  0.08001000  1.0
  H  H60  1  0.14778000  0.70384000  0.57730000  1.0
  H  H61  1  0.29616000  0.85222000  0.92270000  1.0
  H  H62  1  0.85222000  0.29616000  0.42270000  1.0
  H  H63  1  0.70384000  0.14778000  0.07730000  1.0
  C  C64  1  0.17291000  0.09729000  0.84119000  1.0
  C  C65  1  0.90271000  0.82709000  0.65881000  1.0
  C  C66  1  0.82709000  0.90271000  0.15881000  1.0
  C  C67  1  0.09729000  0.17291000  0.34119000  1.0
  C  C68  1  0.23436000  0.27836000  0.89795000  1.0
  C  C69  1  0.72165000  0.76564000  0.60205000  1.0
  C  C70  1  0.76564000  0.72165000  0.10205000  1.0
  C  C71  1  0.27835000  0.23436000  0.39795000  1.0
  C  C72  1  0.11436000  0.27201000  0.90239000  1.0
  C  C73  1  0.72799000  0.88564000  0.59761000  1.0
  C  C74  1  0.88564000  0.72799000  0.09761000  1.0
  C  C75  1  0.27201000  0.11436000  0.40239000  1.0
  C  C76  1  0.67191000  0.10760000  0.84163000  1.0
  C  C77  1  0.89240000  0.32809000  0.65837000  1.0
  C  C78  1  0.32809000  0.89240000  0.15837000  1.0
  C  C79  1  0.10760000  0.67191000  0.34163000  1.0
  C  C80  1  0.73484000  0.94309000  0.89833000  1.0
  C  C81  1  0.05691000  0.26516000  0.60167000  1.0
  C  C82  1  0.26516000  0.05691000  0.10167000  1.0
  C  C83  1  0.94309000  0.73484000  0.39833000  1.0
  C  C84  1  0.61402000  0.94706000  0.89868000  1.0
  C  C85  1  0.05295000  0.38598000  0.60132000  1.0
  C  C86  1  0.38598000  0.05295000  0.10132000  1.0
  C  C87  1  0.94705000  0.61402000  0.39868000  1.0
  C  C88  1  0.39011000  0.32958000  0.65937000  1.0
  C  C89  1  0.67042000  0.60989000  0.84063000  1.0
  C  C90  1  0.60989000  0.67042000  0.34063000  1.0
  C  C91  1  0.32958000  0.39011000  0.15937000  1.0
  C  C92  1  0.54948000  0.38751000  0.60052000  1.0
  C  C93  1  0.61249000  0.45051000  0.89948000  1.0
  C  C94  1  0.45051000  0.61249000  0.39948000  1.0
  C  C95  1  0.38751000  0.54949000  0.10052000  1.0
  C  C96  1  0.55588000  0.26739000  0.60459000  1.0
  C  C97  1  0.73262000  0.44412000  0.89541000  1.0
  C  C98  1  0.44412000  0.73262000  0.39541000  1.0
  C  C99  1  0.26738000  0.55588000  0.10459000  1.0
  C  C100  1  0.40102000  0.83048000  0.65794000  1.0
  C  C101  1  0.16952000  0.59898000  0.84206000  1.0
  C  C102  1  0.59898000  0.16952000  0.34206000  1.0
  C  C103  1  0.83048000  0.40102000  0.15794000  1.0
  C  C104  1  0.22367000  0.88747000  0.60250000  1.0
  C  C105  1  0.11252000  0.77633000  0.89750000  1.0
  C  C106  1  0.77633000  0.11252000  0.39750000  1.0
  C  C107  1  0.88748000  0.22367000  0.10250000  1.0
  C  C108  1  0.22078000  0.76642000  0.60149000  1.0
  C  C109  1  0.23358000  0.77922000  0.89851000  1.0
  C  C110  1  0.77922000  0.23358000  0.39851000  1.0
  C  C111  1  0.76642000  0.22078000  0.10149000  1.0
  N  N112  1  0.07630000  0.15687000  0.86696000  1.0
  N  N113  1  0.84313000  0.92370000  0.63304000  1.0
  N  N114  1  0.92370000  0.84313000  0.13304000  1.0
  N  N115  1  0.15687000  0.07630000  0.36696000  1.0
  N  N116  1  0.27079000  0.16726000  0.85924000  1.0
  N  N117  1  0.83274000  0.72921000  0.64076000  1.0
  N  N118  1  0.72921000  0.83274000  0.14076000  1.0
  N  N119  1  0.16726000  0.27079000  0.35924000  1.0
  N  N120  1  0.57482000  0.05182000  0.86300000  1.0
  N  N121  1  0.94818000  0.42518000  0.63700000  1.0
  N  N122  1  0.42518000  0.94818000  0.13700000  1.0
  N  N123  1  0.05182000  0.57482000  0.36300000  1.0
  N  N124  1  0.77074000  0.04522000  0.86246000  1.0
  N  N125  1  0.95478000  0.22926000  0.63754000  1.0
  N  N126  1  0.22926000  0.95478000  0.13754000  1.0
  N  N127  1  0.04522000  0.77074000  0.36246000  1.0
  N  N128  1  0.45460000  0.23141000  0.64187000  1.0
  N  N129  1  0.76859000  0.54540000  0.85813000  1.0
  N  N130  1  0.54540000  0.76859000  0.35813000  1.0
  N  N131  1  0.23141000  0.45460000  0.14187000  1.0
  N  N132  1  0.44387000  0.42605000  0.63472000  1.0
  N  N133  1  0.57394000  0.55612000  0.86528000  1.0
  N  N134  1  0.55612000  0.57394000  0.36528000  1.0
  N  N135  1  0.42606000  0.44388000  0.13472000  1.0
  N  N136  1  0.33345000  0.73116000  0.63631000  1.0
  N  N137  1  0.26884000  0.66655000  0.86369000  1.0
  N  N138  1  0.66655000  0.26884000  0.36369000  1.0
  N  N139  1  0.73116000  0.33345000  0.13631000  1.0
  N  N140  1  0.33829000  0.92739000  0.63807000  1.0
  N  N141  1  0.07261000  0.66171000  0.86193000  1.0
  N  N142  1  0.66171000  0.07261000  0.36193000  1.0
  N  N143  1  0.92739000  0.33829000  0.13807000  1.0
