# generated using pymatgen
data_ZnH21C28N2O7
_symmetry_space_group_name_H-M   'P 1'
_cell_length_a   9.56470000
_cell_length_b   10.84590000
_cell_length_c   28.12810000
_cell_angle_alpha   90.07410000
_cell_angle_beta   90.23080000
_cell_angle_gamma   89.85190000
_symmetry_Int_Tables_number   1
_chemical_formula_structural   ZnH21C28N2O7
_chemical_formula_sum   'Zn2 H42 C56 N4 O14'
_cell_volume   2917.91081894
_cell_formula_units_Z   2
loop_
 _symmetry_equiv_pos_site_id
 _symmetry_equiv_pos_as_xyz
  1  'x, y, z'
loop_
 _atom_site_type_symbol
 _atom_site_label
 _atom_site_symmetry_multiplicity
 _atom_site_fract_x
 _atom_site_fract_y
 _atom_site_fract_z
 _atom_site_occupancy
  Zn  Zn0  1  0.64699000  0.49967000  0.49996000  1.0
  Zn  Zn1  1  0.35314000  0.50062000  0.50050000  1.0
  H  H2  1  0.27847000  0.49967000  0.65355000  1.0
  H  H3  1  0.28103000  0.49613000  0.74287000  1.0
  H  H4  1  0.27189000  0.50258000  0.34849000  1.0
  H  H5  1  0.26678000  0.49684000  0.25911000  1.0
  H  H6  1  0.50711000  0.17467000  0.03376000  1.0
  H  H7  1  0.58511000  0.18671000  0.96732000  1.0
  H  H8  1  0.72657000  0.49534000  0.65229000  1.0
  H  H9  1  0.73039000  0.49138000  0.74163000  1.0
  H  H10  1  0.41010000  0.78652000  0.87764000  1.0
  H  H11  1  0.45716000  0.79873000  0.03456000  1.0
  H  H12  1  0.71969000  0.48854000  0.34665000  1.0
  H  H13  1  0.45923000  0.79504000  0.12224000  1.0
  H  H14  1  0.71591000  0.48228000  0.25729000  1.0
  H  H15  1  0.40718000  0.79138000  0.96592000  1.0
  H  H16  1  0.67899000  0.10760000  0.45446000  1.0
  H  H17  1  0.29333000  0.10880000  0.53198000  1.0
  H  H18  1  0.51840000  0.10727000  0.42331000  1.0
  H  H19  1  0.29054000  0.10821000  0.46944000  1.0
  H  H20  1  0.51804000  0.89234000  0.42333000  1.0
  H  H21  1  0.28999000  0.89269000  0.46972000  1.0
  H  H22  1  0.67868000  0.89118000  0.45445000  1.0
  H  H23  1  0.29351000  0.89332000  0.53225000  1.0
  H  H24  1  0.68275000  0.10818000  0.54420000  1.0
  H  H25  1  0.52473000  0.10776000  0.57640000  1.0
  H  H26  1  0.68292000  0.89175000  0.54406000  1.0
  H  H27  1  0.52519000  0.89283000  0.57644000  1.0
  H  H28  1  0.12620000  0.37814000  0.55863000  1.0
  H  H29  1  0.87742000  0.37792000  0.55881000  1.0
  H  H30  1  0.12540000  0.30730000  0.50202000  1.0
  H  H31  1  0.87686000  0.30678000  0.50225000  1.0
  H  H32  1  0.12505000  0.59806000  0.56539000  1.0
  H  H33  1  0.87608000  0.59762000  0.56548000  1.0
  H  H34  1  0.12279000  0.59527000  0.43627000  1.0
  H  H35  1  0.87465000  0.59499000  0.43642000  1.0
  H  H36  1  0.12331000  0.43303000  0.43135000  1.0
  H  H37  1  0.87552000  0.43274000  0.43138000  1.0
  H  H38  1  0.12368000  0.69102000  0.51375000  1.0
  H  H39  1  0.87486000  0.69044000  0.51382000  1.0
  H  H40  1  0.64484000  0.08292000  0.90333000  1.0
  H  H41  1  0.53849000  0.11303000  0.85205000  1.0
  H  H42  1  0.71034000  0.16558000  0.85310000  1.0
  H  H43  1  0.37477000  0.03763000  0.16459000  1.0
  C  C44  1  0.50144000  0.26057000  0.49978000  1.0
  C  C45  1  0.49961000  0.49914000  0.59440000  1.0
  C  C46  1  0.50087000  0.73969000  0.49991000  1.0
  C  C47  1  0.49760000  0.49866000  0.40605000  1.0
  C  C48  1  0.54117000  0.37932000  0.82064000  1.0
  C  C49  1  0.47087000  0.60225000  0.82118000  1.0
  C  C50  1  0.63187000  0.49329000  0.72203000  1.0
  C  C51  1  0.62973000  0.49537000  0.67254000  1.0
  C  C52  1  0.37669000  0.49769000  0.67326000  1.0
  C  C53  1  0.37813000  0.49538000  0.72271000  1.0
  C  C54  1  0.50586000  0.49307000  0.74675000  1.0
  C  C55  1  0.50056000  0.48682000  0.89850000  1.0
  C  C56  1  0.53791000  0.37752000  0.87330000  1.0
  C  C57  1  0.57135000  0.26934000  0.89856000  1.0
  C  C58  1  0.46919000  0.59723000  0.87359000  1.0
  C  C59  1  0.50230000  0.49750000  0.64781000  1.0
  C  C60  1  0.49597000  0.49558000  0.35262000  1.0
  C  C61  1  0.50219000  0.37295000  0.02600000  1.0
  C  C62  1  0.47093000  0.60082000  0.02613000  1.0
  C  C63  1  0.48509000  0.48657000  0.05096000  1.0
  C  C64  1  0.50141000  0.26325000  0.05192000  1.0
  C  C65  1  0.49265000  0.26151000  0.10171000  1.0
  C  C66  1  0.49149000  0.37249000  0.12707000  1.0
  C  C67  1  0.48351000  0.48554000  0.10181000  1.0
  C  C68  1  0.47268000  0.59861000  0.12693000  1.0
  C  C69  1  0.46842000  0.60151000  0.17940000  1.0
  C  C70  1  0.50757000  0.37321000  0.17946000  1.0
  C  C71  1  0.36544000  0.49446000  0.27863000  1.0
  C  C72  1  0.36827000  0.49787000  0.32808000  1.0
  C  C73  1  0.62123000  0.49008000  0.32706000  1.0
  C  C74  1  0.61917000  0.48675000  0.27757000  1.0
  C  C75  1  0.49107000  0.48889000  0.25377000  1.0
  C  C76  1  0.51902000  0.37532000  0.97431000  1.0
  C  C77  1  0.49470000  0.48777000  0.94932000  1.0
  C  C78  1  0.46548000  0.59984000  0.97414000  1.0
  C  C79  1  0.55933000  0.27159000  0.94846000  1.0
  C  C80  1  0.43505000  0.70421000  0.89826000  1.0
  C  C81  1  0.46315000  0.71002000  0.05254000  1.0
  C  C82  1  0.46425000  0.70911000  0.10217000  1.0
  C  C83  1  0.43401000  0.70579000  0.94782000  1.0
  C  C84  1  0.57198000  0.07110000  0.45508000  1.0
  C  C85  1  0.34691000  0.07180000  0.50054000  1.0
  C  C86  1  0.57176000  0.92837000  0.45508000  1.0
  C  C87  1  0.34679000  0.92940000  0.50066000  1.0
  C  C88  1  0.57578000  0.07153000  0.54428000  1.0
  C  C89  1  0.49764000  0.12030000  0.49993000  1.0
  C  C90  1  0.49743000  0.87999000  0.49997000  1.0
  C  C91  1  0.57588000  0.92872000  0.54426000  1.0
  C  C92  1  0.08199000  0.38412000  0.52263000  1.0
  C  C93  1  0.92026000  0.38384000  0.52274000  1.0
  C  C94  1  0.08091000  0.60673000  0.52947000  1.0
  C  C95  1  0.91906000  0.60639000  0.52953000  1.0
  C  C96  1  0.08006000  0.51052000  0.45165000  1.0
  C  C97  1  0.91865000  0.51027000  0.45171000  1.0
  C  C98  1  0.61887000  0.15112000  0.87584000  1.0
  C  C99  1  0.48583000  0.13584000  0.12416000  1.0
  N  N100  1  0.50667000  0.49184000  0.79808000  1.0
  N  N101  1  0.48713000  0.48730000  0.20242000  1.0
  N  N102  1  0.13429000  0.50057000  0.50116000  1.0
  N  N103  1  0.86598000  0.50000000  0.50125000  1.0
  O  O104  1  0.62098000  0.31179000  0.49954000  1.0
  O  O105  1  0.38457000  0.31683000  0.49989000  1.0
  O  O106  1  0.61723000  0.49980000  0.57324000  1.0
  O  O107  1  0.37991000  0.49953000  0.57442000  1.0
  O  O108  1  0.62028000  0.68764000  0.49917000  1.0
  O  O109  1  0.38382000  0.68423000  0.50065000  1.0
  O  O110  1  0.61655000  0.49846000  0.42650000  1.0
  O  O111  1  0.37951000  0.50100000  0.42665000  1.0
  O  O112  1  0.57062000  0.28884000  0.79611000  1.0
  O  O113  1  0.53951000  0.28059000  0.20225000  1.0
  O  O114  1  0.44292000  0.69620000  0.79850000  1.0
  O  O115  1  0.45160000  0.69695000  0.20238000  1.0
  O  O116  1  0.57063000  0.05414000  0.11597000  1.0
  O  O117  1  0.36796000  0.11937000  0.14982000  1.0
