# generated using pymatgen
data_LaH8C9NO7
_symmetry_space_group_name_H-M   'P 1'
_cell_length_a   8.36690000
_cell_length_b   9.56953000
_cell_length_c   17.06010000
_cell_angle_alpha   105.10400000
_cell_angle_beta   90.00000000
_cell_angle_gamma   90.00000000
_symmetry_Int_Tables_number   1
_chemical_formula_structural   LaH8C9NO7
_chemical_formula_sum   'La4 H32 C36 N4 O28'
_cell_volume   1318.76843652
_cell_formula_units_Z   4
loop_
 _symmetry_equiv_pos_site_id
 _symmetry_equiv_pos_as_xyz
  1  'x, y, z'
loop_
 _atom_site_type_symbol
 _atom_site_label
 _atom_site_symmetry_multiplicity
 _atom_site_fract_x
 _atom_site_fract_y
 _atom_site_fract_z
 _atom_site_occupancy
  La  La0  1  0.42598000  0.33713000  0.90273000  1.0
  La  La1  1  0.92598000  0.16287000  0.59726000  1.0
  La  La2  1  0.57402000  0.66287000  0.09727000  1.0
  La  La3  1  0.07402000  0.83713000  0.40274000  1.0
  H  H4  1  0.68610000  0.16602000  0.78342000  1.0
  H  H5  1  0.18610000  0.33398000  0.71658000  1.0
  H  H6  1  0.31389000  0.83399000  0.21658000  1.0
  H  H7  1  0.81389000  0.66602000  0.28342000  1.0
  H  H8  1  0.74169000  0.13441000  0.86645000  1.0
  H  H9  1  0.24168000  0.36559000  0.63355000  1.0
  H  H10  1  0.25832000  0.86559000  0.13355000  1.0
  H  H11  1  0.75831000  0.63441000  0.36646000  1.0
  H  H12  1  0.45244000  0.99259000  0.94856000  1.0
  H  H13  1  0.95243000  0.50743000  0.55144000  1.0
  H  H14  1  0.54757000  0.00742000  0.05144000  1.0
  H  H15  1  0.04756000  0.49258000  0.44856000  1.0
  H  H16  1  0.03128000  0.86343000  0.74183000  1.0
  H  H17  1  0.53128000  0.63656000  0.75817000  1.0
  H  H18  1  0.96872000  0.13656000  0.25817000  1.0
  H  H19  1  0.46872000  0.36344000  0.24183000  1.0
  H  H20  1  0.14032000  0.66793000  0.80440000  1.0
  H  H21  1  0.64032000  0.83208000  0.69561000  1.0
  H  H22  1  0.85968000  0.33208000  0.19560000  1.0
  H  H23  1  0.35968000  0.16792000  0.30440000  1.0
  H  H24  1  0.02750000  0.56027000  0.89986000  1.0
  H  H25  1  0.52750000  0.93972000  0.60013000  1.0
  H  H26  1  0.97251000  0.43973000  0.10013000  1.0
  H  H27  1  0.47251000  0.06027000  0.39986000  1.0
  H  H28  1  0.86310000  0.53009000  0.82988000  1.0
  H  H29  1  0.36310000  0.96990000  0.67012000  1.0
  H  H30  1  0.13690000  0.46991000  0.17012000  1.0
  H  H31  1  0.63691000  0.03008000  0.32988000  1.0
  H  H32  1  0.92640000  0.39069000  0.87341000  1.0
  H  H33  1  0.42640000  0.10930000  0.62658000  1.0
  H  H34  1  0.07360000  0.60931000  0.12658000  1.0
  H  H35  1  0.57362000  0.89069000  0.37341000  1.0
  C  C36  1  0.36038000  0.71017000  0.92717000  1.0
  C  C37  1  0.86038000  0.78983000  0.57284000  1.0
  C  C38  1  0.63962000  0.28983000  0.07284000  1.0
  C  C39  1  0.13962000  0.21017000  0.42716000  1.0
  C  C40  1  0.29920000  0.81757000  0.88370000  1.0
  C  C41  1  0.79920000  0.68244000  0.61631000  1.0
  C  C42  1  0.70079000  0.18243000  0.11630000  1.0
  C  C43  1  0.20079000  0.31756000  0.38370000  1.0
  C  C44  1  0.35782000  0.95951000  0.90380000  1.0
  C  C45  1  0.85782000  0.54050000  0.59620000  1.0
  C  C46  1  0.64219000  0.04049000  0.09620000  1.0
  C  C47  1  0.14218000  0.45950000  0.40379000  1.0
  C  C48  1  0.18720000  0.02515000  0.81378000  1.0
  C  C49  1  0.68721000  0.47485000  0.68622000  1.0
  C  C50  1  0.81280000  0.97485000  0.18622000  1.0
  C  C51  1  0.31279000  0.52515000  0.31378000  1.0
  C  C52  1  0.12376000  0.88554000  0.78836000  1.0
  C  C53  1  0.62377000  0.61446000  0.71165000  1.0
  C  C54  1  0.87624000  0.11446000  0.21165000  1.0
  C  C55  1  0.37624000  0.38554000  0.28835000  1.0
  C  C56  1  0.18266000  0.77941000  0.82304000  1.0
  C  C57  1  0.68266000  0.72059000  0.67697000  1.0
  C  C58  1  0.81734000  0.22059000  0.17696000  1.0
  C  C59  1  0.31734000  0.27941000  0.32303000  1.0
  C  C60  1  0.13268000  0.14328000  0.77672000  1.0
  C  C61  1  0.63269000  0.35671000  0.72328000  1.0
  C  C62  1  0.86730000  0.85671000  0.22329000  1.0
  C  C63  1  0.36730000  0.64329000  0.27672000  1.0
  C  C64  1  0.91103000  0.50816000  0.88545000  1.0
  C  C65  1  0.41103000  0.99183000  0.61454000  1.0
  C  C66  1  0.08898000  0.49184000  0.11454000  1.0
  C  C67  1  0.58898000  0.00815000  0.38545000  1.0
  C  C68  1  0.79415000  0.56068000  0.95364000  1.0
  C  C69  1  0.29414000  0.93930000  0.54635000  1.0
  C  C70  1  0.20586000  0.43932000  0.04635000  1.0
  C  C71  1  0.70586000  0.06069000  0.45364000  1.0
  N  N72  1  0.30472000  0.06091000  0.86928000  1.0
  N  N73  1  0.80473000  0.43909000  0.63072000  1.0
  N  N74  1  0.69528000  0.93909000  0.13072000  1.0
  N  N75  1  0.19527000  0.56091000  0.36927000  1.0
  O  O76  1  0.32053000  0.57915000  0.89809000  1.0
  O  O77  1  0.82053000  0.92085000  0.60191000  1.0
  O  O78  1  0.67946000  0.42085000  0.10191000  1.0
  O  O79  1  0.17947000  0.07915000  0.39809000  1.0
  O  O80  1  0.44564000  0.76062000  0.99008000  1.0
  O  O81  1  0.94564000  0.73938000  0.50993000  1.0
  O  O82  1  0.55435000  0.23938000  0.00993000  1.0
  O  O83  1  0.05436000  0.26062000  0.49007000  1.0
  O  O84  1  0.01494000  0.11779000  0.72914000  1.0
  O  O85  1  0.51494000  0.38221000  0.77086000  1.0
  O  O86  1  0.98506000  0.88220000  0.27086000  1.0
  O  O87  1  0.48506000  0.61780000  0.22914000  1.0
  O  O88  1  0.21268000  0.26133000  0.79470000  1.0
  O  O89  1  0.71268000  0.23866000  0.70530000  1.0
  O  O90  1  0.78730000  0.73867000  0.20531000  1.0
  O  O91  1  0.28731000  0.76134000  0.29470000  1.0
  O  O92  1  0.64786000  0.14718000  0.83554000  1.0
  O  O93  1  0.14786000  0.35282000  0.66446000  1.0
  O  O94  1  0.35214000  0.85283000  0.16446000  1.0
  O  O95  1  0.85213000  0.64717000  0.33555000  1.0
  O  O96  1  0.83075000  0.66158000  0.01531000  1.0
  O  O97  1  0.33074000  0.83840000  0.48469000  1.0
  O  O98  1  0.16925000  0.33843000  0.98468000  1.0
  O  O99  1  0.66926000  0.16158000  0.51531000  1.0
  O  O100  1  0.65473000  0.50035000  0.94802000  1.0
  O  O101  1  0.15473000  0.99965000  0.55198000  1.0
  O  O102  1  0.34527000  0.49965000  0.05198000  1.0
  O  O103  1  0.84528000  0.00035000  0.44802000  1.0
