# generated using pymatgen
data_CuH9C12INO
_symmetry_space_group_name_H-M   'P 1'
_cell_length_a   4.05340000
_cell_length_b   11.18800000
_cell_length_c   24.28870000
_cell_angle_alpha   90.00010000
_cell_angle_beta   90.00090000
_cell_angle_gamma   96.64260000
_symmetry_Int_Tables_number   1
_chemical_formula_structural   CuH9C12INO
_chemical_formula_sum   'Cu4 H36 C48 I4 N4 O4'
_cell_volume   1094.08473328
_cell_formula_units_Z   4
loop_
 _symmetry_equiv_pos_site_id
 _symmetry_equiv_pos_as_xyz
  1  'x, y, z'
loop_
 _atom_site_type_symbol
 _atom_site_label
 _atom_site_symmetry_multiplicity
 _atom_site_fract_x
 _atom_site_fract_y
 _atom_site_fract_z
 _atom_site_occupancy
  Cu  Cu0  1  0.73826000  0.96852000  0.46655000  1.0
  Cu  Cu1  1  0.76174000  0.53148000  0.96655000  1.0
  Cu  Cu2  1  0.26174000  0.03147000  0.53345000  1.0
  Cu  Cu3  1  0.23827000  0.46852000  0.03345000  1.0
  H  H4  1  0.00518000  0.87514000  0.36055000  1.0
  H  H5  1  0.49482000  0.62487000  0.86055000  1.0
  H  H6  1  0.99479000  0.12486000  0.63945000  1.0
  H  H7  1  0.50521000  0.37514000  0.13945000  1.0
  H  H8  1  0.02863000  0.93486000  0.26289000  1.0
  H  H9  1  0.47135000  0.56516000  0.76289000  1.0
  H  H10  1  0.97134000  0.06515000  0.73711000  1.0
  H  H11  1  0.52865000  0.43485000  0.23711000  1.0
  H  H12  1  0.50165000  0.23617000  0.30648000  1.0
  H  H13  1  0.99831000  0.26383000  0.80648000  1.0
  H  H14  1  0.49833000  0.76383000  0.69352000  1.0
  H  H15  1  0.00168000  0.73618000  0.19351000  1.0
  H  H16  1  0.47947000  0.15820000  0.40321000  1.0
  H  H17  1  0.02051000  0.34179000  0.90321000  1.0
  H  H18  1  0.52051000  0.84179000  0.59679000  1.0
  H  H19  1  0.97948000  0.65821000  0.09679000  1.0
  H  H20  1  0.52810000  0.90966000  0.20316000  1.0
  H  H21  1  0.97190000  0.59035000  0.70316000  1.0
  H  H22  1  0.47190000  0.09035000  0.79685000  1.0
  H  H23  1  0.02809000  0.40965000  0.29684000  1.0
  H  H24  1  0.57122000  0.79028000  0.11784000  1.0
  H  H25  1  0.92879000  0.70973000  0.61784000  1.0
  H  H26  1  0.42879000  0.20972000  0.88216000  1.0
  H  H27  1  0.07122000  0.29027000  0.38215000  1.0
  H  H28  1  0.92675000  0.87174000  0.04090000  1.0
  H  H29  1  0.57325000  0.62827000  0.54089000  1.0
  H  H30  1  0.07328000  0.12828000  0.95910000  1.0
  H  H31  1  0.42675000  0.37172000  0.45910000  1.0
  H  H32  1  0.21728000  0.08149000  0.04600000  1.0
  H  H33  1  0.28276000  0.41850000  0.54599000  1.0
  H  H34  1  0.78275000  0.91851000  0.95401000  1.0
  H  H35  1  0.71725000  0.58149000  0.45401000  1.0
  H  H36  1  0.14113000  0.20724000  0.12825000  1.0
  H  H37  1  0.35886000  0.29277000  0.62825000  1.0
  H  H38  1  0.85887000  0.79277000  0.87176000  1.0
  H  H39  1  0.64113000  0.70723000  0.37175000  1.0
  C  C40  1  0.88648000  0.95265000  0.34691000  1.0
  C  C41  1  0.61353000  0.54736000  0.84691000  1.0
  C  C42  1  0.11352000  0.04736000  0.65309000  1.0
  C  C43  1  0.38648000  0.45264000  0.15309000  1.0
  C  C44  1  0.90009000  0.98741000  0.29184000  1.0
  C  C45  1  0.59992000  0.51260000  0.79185000  1.0
  C  C46  1  0.09989000  0.01259000  0.70815000  1.0
  C  C47  1  0.40009000  0.48741000  0.20815000  1.0
  C  C48  1  0.76376000  0.09162000  0.27608000  1.0
  C  C49  1  0.73620000  0.40838000  0.77608000  1.0
  C  C50  1  0.23618000  0.90838000  0.72392000  1.0
  C  C51  1  0.26379000  0.59162000  0.22392000  1.0
  C  C52  1  0.61017000  0.15448000  0.31688000  1.0
  C  C53  1  0.88980000  0.34552000  0.81688000  1.0
  C  C54  1  0.38979000  0.84552000  0.68312000  1.0
  C  C55  1  0.11019000  0.65448000  0.18312000  1.0
  C  C56  1  0.59904000  0.11215000  0.37050000  1.0
  C  C57  1  0.90095000  0.38784000  0.87050000  1.0
  C  C58  1  0.40095000  0.88785000  0.62950000  1.0
  C  C59  1  0.09905000  0.61215000  0.12950000  1.0
  C  C60  1  0.80208000  0.14509000  0.21961000  1.0
  C  C61  1  0.69790000  0.35492000  0.71961000  1.0
  C  C62  1  0.19789000  0.85491000  0.78039000  1.0
  C  C63  1  0.30210000  0.64509000  0.28039000  1.0
  C  C64  1  0.83653000  0.06652000  0.17136000  1.0
  C  C65  1  0.66348000  0.43348000  0.67136000  1.0
  C  C66  1  0.16348000  0.93348000  0.82864000  1.0
  C  C67  1  0.33652000  0.56652000  0.32864000  1.0
  C  C68  1  0.67854000  0.94781000  0.16877000  1.0
  C  C69  1  0.82148000  0.55220000  0.66877000  1.0
  C  C70  1  0.32148000  0.05220000  0.83123000  1.0
  C  C71  1  0.17853000  0.44780000  0.33122000  1.0
  C  C72  1  0.70438000  0.88027000  0.12110000  1.0
  C  C73  1  0.79565000  0.61973000  0.62110000  1.0
  C  C74  1  0.29565000  0.11973000  0.87891000  1.0
  C  C75  1  0.20436000  0.38027000  0.37890000  1.0
  C  C76  1  0.89933000  0.92745000  0.07709000  1.0
  C  C77  1  0.60070000  0.57255000  0.57708000  1.0
  C  C78  1  0.10069000  0.07255000  0.92292000  1.0
  C  C79  1  0.39931000  0.42744000  0.42291000  1.0
  C  C80  1  0.06017000  0.04468000  0.07978000  1.0
  C  C81  1  0.43986000  0.45532000  0.57977000  1.0
  C  C82  1  0.93986000  0.95532000  0.92023000  1.0
  C  C83  1  0.56016000  0.54467000  0.42022000  1.0
  C  C84  1  0.02275000  0.11486000  0.12611000  1.0
  C  C85  1  0.47725000  0.38515000  0.62610000  1.0
  C  C86  1  0.97727000  0.88515000  0.87390000  1.0
  C  C87  1  0.52275000  0.61485000  0.37390000  1.0
  I  I88  1  0.18543000  0.82011000  0.48290000  1.0
  I  I89  1  0.31456000  0.67989000  0.98290000  1.0
  I  I90  1  0.81455000  0.17988000  0.51710000  1.0
  I  I91  1  0.68543000  0.32011000  0.01710000  1.0
  N  N92  1  0.73977000  0.01357000  0.38603000  1.0
  N  N93  1  0.76022000  0.48643000  0.88603000  1.0
  N  N94  1  0.26022000  0.98643000  0.61397000  1.0
  N  N95  1  0.23977000  0.51357000  0.11397000  1.0
  O  O96  1  0.81186000  0.25582000  0.21450000  1.0
  O  O97  1  0.68812000  0.24418000  0.71450000  1.0
  O  O98  1  0.18813000  0.74417000  0.78550000  1.0
  O  O99  1  0.31187000  0.75582000  0.28550000  1.0
