# generated using pymatgen
data_Zn4H12C15O13
_symmetry_space_group_name_H-M   'P 1'
_cell_length_a   13.02150000
_cell_length_b   13.66170000
_cell_length_c   15.30540000
_cell_angle_alpha   75.36790000
_cell_angle_beta   69.92300000
_cell_angle_gamma   72.80380000
_symmetry_Int_Tables_number   1
_chemical_formula_structural   Zn4H12C15O13
_chemical_formula_sum   'Zn8 H24 C30 O26'
_cell_volume   2408.09224768
_cell_formula_units_Z   2
loop_
 _symmetry_equiv_pos_site_id
 _symmetry_equiv_pos_as_xyz
  1  'x, y, z'
loop_
 _atom_site_type_symbol
 _atom_site_label
 _atom_site_symmetry_multiplicity
 _atom_site_fract_x
 _atom_site_fract_y
 _atom_site_fract_z
 _atom_site_occupancy
  Zn  Zn0  1  0.19011000  0.08825000  0.90185000  1.0
  Zn  Zn1  1  0.96347000  0.01440000  0.02363000  1.0
  Zn  Zn2  1  0.07007000  0.13128000  0.11472000  1.0
  Zn  Zn3  1  0.19284000  0.89946000  0.07743000  1.0
  Zn  Zn4  1  0.60855000  0.52019000  0.65212000  1.0
  Zn  Zn5  1  0.75415000  0.48153000  0.44180000  1.0
  Zn  Zn6  1  0.63444000  0.70981000  0.47536000  1.0
  Zn  Zn7  1  0.48991000  0.54982000  0.48882000  1.0
  H  H8  1  0.04700000  0.10408000  0.67397000  1.0
  H  H9  1  0.93088000  0.04891000  0.74761000  1.0
  H  H10  1  0.81342000  0.23232000  0.77539000  1.0
  H  H11  1  0.98713000  0.26061000  0.57948000  1.0
  H  H12  1  0.09530000  0.44027000  0.90186000  1.0
  H  H13  1  0.15505000  0.43358000  0.99224000  1.0
  H  H14  1  0.34959000  0.40293000  0.87729000  1.0
  H  H15  1  0.20835000  0.47331000  0.73761000  1.0
  H  H16  1  0.55467000  0.95021000  0.82638000  1.0
  H  H17  1  0.55803000  0.85425000  0.93090000  1.0
  H  H18  1  0.51045000  0.73058000  0.85675000  1.0
  H  H19  1  0.62065000  0.87947000  0.68544000  1.0
  H  H20  1  0.65052000  0.15510000  0.23398000  1.0
  H  H21  1  0.71884000  0.06422000  0.31219000  1.0
  H  H22  1  0.78613000  0.21717000  0.33610000  1.0
  H  H23  1  0.54943000  0.31244000  0.31194000  1.0
  H  H24  1  0.98870000  0.68635000  0.99793000  1.0
  H  H25  1  0.10918000  0.62441000  0.03789000  1.0
  H  H26  1  0.95154000  0.56364000  0.16385000  1.0
  H  H27  1  0.88909000  0.78763000  0.20294000  1.0
  H  H28  1  0.15294000  0.01057000  0.38132000  1.0
  H  H29  1  0.07357000  0.91831000  0.39776000  1.0
  H  H30  1  0.25272000  0.77587000  0.36566000  1.0
  H  H31  1  0.32759000  0.93862000  0.42291000  1.0
  C  C32  1  0.01027000  0.09776000  0.82293000  1.0
  C  C33  1  0.97277000  0.11254000  0.73561000  1.0
  C  C34  1  0.89140000  0.21392000  0.71908000  1.0
  C  C35  1  0.90994000  0.27886000  0.63636000  1.0
  C  C36  1  0.82684000  0.37218000  0.60949000  1.0
  C  C37  1  0.16214000  0.28765000  0.96123000  1.0
  C  C38  1  0.16810000  0.40177000  0.92913000  1.0
  C  C39  1  0.27388000  0.42018000  0.85506000  1.0
  C  C40  1  0.28082000  0.45678000  0.76386000  1.0
  C  C41  1  0.38533000  0.47839000  0.69176000  1.0
  C  C42  1  0.39398000  0.92584000  0.91729000  1.0
  C  C43  1  0.51938000  0.88527000  0.87293000  1.0
  C  C44  1  0.54006000  0.80094000  0.81838000  1.0
  C  C45  1  0.59236000  0.80917000  0.72553000  1.0
  C  C46  1  0.61238000  0.72906000  0.66832000  1.0
  C  C47  1  0.83049000  0.11796000  0.18421000  1.0
  C  C48  1  0.72124000  0.13893000  0.26307000  1.0
  C  C49  1  0.71352000  0.22193000  0.31362000  1.0
  C  C50  1  0.62493000  0.30190000  0.33241000  1.0
  C  C51  1  0.62368000  0.38097000  0.38353000  1.0
  C  C52  1  0.04992000  0.78660000  0.04640000  1.0
  C  C53  1  0.02836000  0.68164000  0.05239000  1.0
  C  C54  1  0.95440000  0.64561000  0.14785000  1.0
  C  C55  1  0.89262000  0.70478000  0.21403000  1.0
  C  C56  1  0.82182000  0.66242000  0.30638000  1.0
  C  C57  1  0.15603000  0.96730000  0.25526000  1.0
  C  C58  1  0.15464000  0.94001000  0.35863000  1.0
  C  C59  1  0.24837000  0.85222000  0.37860000  1.0
  C  C60  1  0.32710000  0.86342000  0.41081000  1.0
  C  C61  1  0.41933000  0.77601000  0.43139000  1.0
  O  O62  1  0.10485000  0.03336000  0.02910000  1.0
  O  O63  1  0.93555000  0.08859000  0.90246000  1.0
  O  O64  1  0.11332000  0.09471000  0.80890000  1.0
  O  O65  1  0.85340000  0.41048000  0.52135000  1.0
  O  O66  1  0.73704000  0.40546000  0.67239000  1.0
  O  O67  1  0.11720000  0.26049000  0.04923000  1.0
  O  O68  1  0.19864000  0.23138000  0.89752000  1.0
  O  O69  1  0.37825000  0.50861000  0.60729000  1.0
  O  O70  1  0.47150000  0.46672000  0.71867000  1.0
  O  O71  1  0.35034000  0.87785000  0.99853000  1.0
  O  O72  1  0.34439000  0.00331000  0.86849000  1.0
  O  O73  1  0.65221000  0.75702000  0.57925000  1.0
  O  O74  1  0.58920000  0.64114000  0.70998000  1.0
  O  O75  1  0.90663000  0.16224000  0.17774000  1.0
  O  O76  1  0.83632000  0.05619000  0.13165000  1.0
  O  O77  1  0.53154000  0.44968000  0.40342000  1.0
  O  O78  1  0.71300000  0.37494000  0.40387000  1.0
  O  O79  1  0.13617000  0.78509000  0.06847000  1.0
  O  O80  1  0.97808000  0.86654000  0.02291000  1.0
  O  O81  1  0.75863000  0.72907000  0.35961000  1.0
  O  O82  1  0.82887000  0.56444000  0.32581000  1.0
  O  O83  1  0.18132000  0.89226000  0.21073000  1.0
  O  O84  1  0.12944000  0.06387000  0.22304000  1.0
  O  O85  1  0.49469000  0.80105000  0.45184000  1.0
  O  O86  1  0.41699000  0.68442000  0.42756000  1.0
  O  O87  1  0.61926000  0.56565000  0.51755000  1.0
