# generated using pymatgen
data_AlH5C14Br2N2O5
_symmetry_space_group_name_H-M   'P 1'
_cell_length_a   6.70496000
_cell_length_b   23.07400000
_cell_length_c   26.14930000
_cell_angle_alpha   79.56800000
_cell_angle_beta   89.99850000
_cell_angle_gamma   89.99840000
_symmetry_Int_Tables_number   1
_chemical_formula_structural   AlH5C14Br2N2O5
_chemical_formula_sum   'Al4 H20 C56 Br8 N8 O20'
_cell_volume   3978.69348522
_cell_formula_units_Z   4
loop_
 _symmetry_equiv_pos_site_id
 _symmetry_equiv_pos_as_xyz
  1  'x, y, z'
loop_
 _atom_site_type_symbol
 _atom_site_label
 _atom_site_symmetry_multiplicity
 _atom_site_fract_x
 _atom_site_fract_y
 _atom_site_fract_z
 _atom_site_occupancy
  Al  Al0  1  0.20497000  0.74910000  0.75045000  1.0
  Al  Al1  1  0.79502000  0.25090000  0.24955000  1.0
  Al  Al2  1  0.70497000  0.75090000  0.74955000  1.0
  Al  Al3  1  0.29502000  0.24910000  0.25045000  1.0
  H  H4  1  0.30135000  0.00871000  0.44358000  1.0
  H  H5  1  0.69867000  0.99129000  0.55642000  1.0
  H  H6  1  0.80134000  0.49129000  0.05642000  1.0
  H  H7  1  0.19868000  0.50870000  0.94358000  1.0
  H  H8  1  0.73974000  0.17055000  0.12238000  1.0
  H  H9  1  0.26025000  0.82945000  0.87762000  1.0
  H  H10  1  0.23971000  0.32945000  0.37762000  1.0
  H  H11  1  0.76028000  0.67055000  0.62238000  1.0
  H  H12  1  0.73547000  0.10521000  0.05580000  1.0
  H  H13  1  0.26453000  0.89480000  0.94420000  1.0
  H  H14  1  0.23547000  0.39480000  0.44421000  1.0
  H  H15  1  0.76455000  0.60521000  0.55579000  1.0
  H  H16  1  0.34041000  0.11548000  0.16356000  1.0
  H  H17  1  0.65958000  0.88453000  0.83644000  1.0
  H  H18  1  0.84039000  0.38452000  0.33643000  1.0
  H  H19  1  0.15961000  0.61548000  0.66357000  1.0
  H  H20  1  0.45116000  0.82603000  0.72814000  1.0
  H  H21  1  0.54883000  0.17396000  0.27186000  1.0
  H  H22  1  0.95117000  0.67396000  0.77186000  1.0
  H  H23  1  0.04883000  0.32603000  0.22814000  1.0
  C  C24  1  0.45596000  0.68557000  0.68662000  1.0
  C  C25  1  0.54403000  0.31442000  0.31337000  1.0
  C  C26  1  0.95597000  0.81442000  0.81338000  1.0
  C  C27  1  0.04403000  0.18557000  0.18662000  1.0
  C  C28  1  0.45672000  0.67336000  0.82657000  1.0
  C  C29  1  0.54327000  0.32664000  0.17343000  1.0
  C  C30  1  0.95674000  0.82664000  0.67343000  1.0
  C  C31  1  0.04325000  0.17336000  0.32657000  1.0
  C  C32  1  0.16967000  0.00454000  0.46831000  1.0
  C  C33  1  0.83034000  0.99546000  0.53169000  1.0
  C  C34  1  0.66965000  0.49546000  0.03169000  1.0
  C  C35  1  0.33036000  0.50454000  0.96831000  1.0
  C  C36  1  0.01252000  0.04535000  0.45563000  1.0
  C  C37  1  0.98748000  0.95465000  0.54437000  1.0
  C  C38  1  0.51251000  0.45465000  0.04437000  1.0
  C  C39  1  0.48749000  0.54535000  0.95564000  1.0
  C  C40  1  0.84256000  0.03986000  0.48831000  1.0
  C  C41  1  0.15746000  0.96014000  0.51168000  1.0
  C  C42  1  0.34257000  0.46014000  0.01168000  1.0
  C  C43  1  0.65745000  0.53986000  0.98832000  1.0
  C  C44  1  0.02720000  0.08996000  0.41112000  1.0
  C  C45  1  0.97281000  0.91004000  0.58888000  1.0
  C  C46  1  0.52720000  0.41004000  0.08888000  1.0
  C  C47  1  0.47281000  0.58996000  0.91112000  1.0
  C  C48  1  0.96167000  0.87179000  0.62752000  1.0
  C  C49  1  0.03833000  0.12822000  0.37248000  1.0
  C  C50  1  0.46166000  0.62821000  0.87248000  1.0
  C  C51  1  0.53834000  0.37178000  0.12752000  1.0
  C  C52  1  0.86969000  0.14426000  0.11634000  1.0
  C  C53  1  0.13030000  0.85574000  0.88366000  1.0
  C  C54  1  0.36969000  0.35575000  0.38366000  1.0
  C  C55  1  0.63033000  0.64426000  0.61634000  1.0
  C  C56  1  0.86735000  0.10772000  0.07958000  1.0
  C  C57  1  0.13264000  0.89228000  0.92041000  1.0
  C  C58  1  0.36735000  0.39228000  0.42042000  1.0
  C  C59  1  0.63266000  0.60772000  0.57958000  1.0
  C  C60  1  0.03287000  0.07259000  0.07275000  1.0
  C  C61  1  0.96713000  0.92742000  0.92725000  1.0
  C  C62  1  0.53286000  0.42741000  0.42725000  1.0
  C  C63  1  0.46715000  0.57259000  0.57275000  1.0
  C  C64  1  0.20287000  0.07526000  0.10378000  1.0
  C  C65  1  0.79712000  0.92474000  0.89622000  1.0
  C  C66  1  0.70285000  0.42473000  0.39621000  1.0
  C  C67  1  0.29715000  0.57526000  0.60379000  1.0
  C  C68  1  0.20875000  0.11312000  0.13965000  1.0
  C  C69  1  0.79124000  0.88689000  0.86034000  1.0
  C  C70  1  0.70875000  0.38689000  0.36034000  1.0
  C  C71  1  0.29127000  0.61311000  0.63966000  1.0
  C  C72  1  0.04135000  0.14729000  0.14627000  1.0
  C  C73  1  0.95863000  0.85271000  0.85373000  1.0
  C  C74  1  0.54134000  0.35271000  0.35373000  1.0
  C  C75  1  0.45869000  0.64729000  0.64627000  1.0
  C  C76  1  0.98211000  0.96651000  0.96593000  1.0
  C  C77  1  0.01789000  0.03349000  0.03406000  1.0
  C  C78  1  0.48212000  0.53349000  0.53406000  1.0
  C  C79  1  0.51789000  0.46651000  0.46593000  1.0
  Br  Br80  1  0.37166000  0.90631000  0.52706000  1.0
  Br  Br81  1  0.62834000  0.09369000  0.47293000  1.0
  Br  Br82  1  0.87164000  0.59369000  0.97295000  1.0
  Br  Br83  1  0.12834000  0.40631000  0.02706000  1.0
  Br  Br84  1  0.42454000  0.02481000  0.10013000  1.0
  Br  Br85  1  0.57545000  0.97519000  0.89987000  1.0
  Br  Br86  1  0.92453000  0.47519000  0.39986000  1.0
  Br  Br87  1  0.07549000  0.52481000  0.60014000  1.0
  N  N88  1  0.16429000  0.03565000  0.99825000  1.0
  N  N89  1  0.83571000  0.96436000  0.00175000  1.0
  N  N90  1  0.66429000  0.46436000  0.50174000  1.0
  N  N91  1  0.33572000  0.53565000  0.49826000  1.0
  N  N92  1  0.14584000  0.00119000  0.96327000  1.0
  N  N93  1  0.85416000  0.99881000  0.03673000  1.0
  N  N94  1  0.64586000  0.49881000  0.53673000  1.0
  N  N95  1  0.35416000  0.50119000  0.46327000  1.0
  O  O96  1  0.62531000  0.69182000  0.80790000  1.0
  O  O97  1  0.37470000  0.30819000  0.19210000  1.0
  O  O98  1  0.12530000  0.80819000  0.69210000  1.0
  O  O99  1  0.87469000  0.19181000  0.30790000  1.0
  O  O100  1  0.28617000  0.69810000  0.70362000  1.0
  O  O101  1  0.71384000  0.30190000  0.29638000  1.0
  O  O102  1  0.78614000  0.80190000  0.79638000  1.0
  O  O103  1  0.21385000  0.19810000  0.20362000  1.0
  O  O104  1  0.28543000  0.69019000  0.80879000  1.0
  O  O105  1  0.71457000  0.30980000  0.19122000  1.0
  O  O106  1  0.78542000  0.80980000  0.69122000  1.0
  O  O107  1  0.21457000  0.19020000  0.30878000  1.0
  O  O108  1  0.12499000  0.79837000  0.79864000  1.0
  O  O109  1  0.87500000  0.20163000  0.20136000  1.0
  O  O110  1  0.62502000  0.70163000  0.70137000  1.0
  O  O111  1  0.37498000  0.29837000  0.29864000  1.0
  O  O112  1  0.45389000  0.78554000  0.74639000  1.0
  O  O113  1  0.54611000  0.21446000  0.25361000  1.0
  O  O114  1  0.95389000  0.71446000  0.75362000  1.0
  O  O115  1  0.04611000  0.28554000  0.24639000  1.0
