# generated using pymatgen
data_AlH37C23O2
_symmetry_space_group_name_H-M   'P 1'
_cell_length_a   8.82630000
_cell_length_b   11.78480000
_cell_length_c   12.41060000
_cell_angle_alpha   67.07230000
_cell_angle_beta   73.37360000
_cell_angle_gamma   77.98180000
_symmetry_Int_Tables_number   1
_chemical_formula_structural   AlH37C23O2
_chemical_formula_sum   'Al2 H74 C46 O4'
_cell_volume   1132.34283391
_cell_formula_units_Z   2
loop_
 _symmetry_equiv_pos_site_id
 _symmetry_equiv_pos_as_xyz
  1  'x, y, z'
loop_
 _atom_site_type_symbol
 _atom_site_label
 _atom_site_symmetry_multiplicity
 _atom_site_fract_x
 _atom_site_fract_y
 _atom_site_fract_z
 _atom_site_occupancy
  Al  Al0  1  0.11561000  0.35854000  0.25725000  1.0
  Al  Al1  1  0.88439000  0.64147000  0.74275000  1.0
  H  H2  1  0.22444000  0.96853000  0.00443000  1.0
  H  H3  1  0.77556000  0.03146000  0.99557000  1.0
  H  H4  1  0.51252000  0.26860000  0.83212000  1.0
  H  H5  1  0.48746000  0.73141000  0.16787000  1.0
  H  H6  1  0.80603000  0.04792000  0.28206000  1.0
  H  H7  1  0.19397000  0.95208000  0.71794000  1.0
  H  H8  1  0.85910000  0.11715000  0.12313000  1.0
  H  H9  1  0.14090000  0.88285000  0.87687000  1.0
  H  H10  1  0.90017000  0.18591000  0.21561000  1.0
  H  H11  1  0.09984000  0.81409000  0.78439000  1.0
  H  H12  1  0.01211000  0.92979000  0.40031000  1.0
  H  H13  1  0.98789000  0.07021000  0.59969000  1.0
  H  H14  1  0.10341000  0.06835000  0.34708000  1.0
  H  H15  1  0.89659000  0.93165000  0.65292000  1.0
  H  H16  1  0.21808000  0.93101000  0.33038000  1.0
  H  H17  1  0.78193000  0.06899000  0.66962000  1.0
  H  H18  1  0.95429000  0.84719000  0.27273000  1.0
  H  H19  1  0.04571000  0.15281000  0.72727000  1.0
  H  H20  1  0.15609000  0.83593000  0.19372000  1.0
  H  H21  1  0.84391000  0.16407000  0.80628000  1.0
  H  H22  1  0.00250000  0.91219000  0.11397000  1.0
  H  H23  1  0.99750000  0.08781000  0.88602000  1.0
  H  H24  1  0.52254000  0.12989000  0.73006000  1.0
  H  H25  1  0.47747000  0.87011000  0.26994000  1.0
  H  H26  1  0.34543000  0.06158000  0.76415000  1.0
  H  H27  1  0.65458000  0.93841000  0.23584000  1.0
  H  H28  1  0.50475000  0.97503000  0.83190000  1.0
  H  H29  1  0.49525000  0.02497000  0.16810000  1.0
  H  H30  1  0.19447000  0.62297000  0.14647000  1.0
  H  H31  1  0.80554000  0.37703000  0.85353000  1.0
  H  H32  1  0.01579000  0.69745000  0.09350000  1.0
  H  H33  1  0.98421000  0.30255000  0.90650000  1.0
  H  H34  1  0.19271000  0.65630000  0.99344000  1.0
  H  H35  1  0.80729000  0.34369000  0.00656000  1.0
  H  H36  1  0.86920000  0.58633000  0.05334000  1.0
  H  H37  1  0.13080000  0.41368000  0.94666000  1.0
  H  H38  1  0.89593000  0.42143000  0.11896000  1.0
  H  H39  1  0.10407000  0.57857000  0.88104000  1.0
  H  H40  1  0.81408000  0.32546000  0.32514000  1.0
  H  H41  1  0.18592000  0.67455000  0.67486000  1.0
  H  H42  1  0.92118000  0.23184000  0.43268000  1.0
  H  H43  1  0.07882000  0.76816000  0.56732000  1.0
  H  H44  1  0.92722000  0.42299000  0.48175000  1.0
  H  H45  1  0.07278000  0.57701000  0.51826000  1.0
  H  H46  1  0.64401000  0.42469000  0.59845000  1.0
  H  H47  1  0.35599000  0.57531000  0.40155000  1.0
  H  H48  1  0.73321000  0.27183000  0.60836000  1.0
  H  H49  1  0.26680000  0.72816000  0.39164000  1.0
  H  H50  1  0.59901000  0.35020000  0.51313000  1.0
  H  H51  1  0.40100000  0.64980000  0.48687000  1.0
  H  H52  1  0.88285000  0.59031000  0.29386000  1.0
  H  H53  1  0.11714000  0.40969000  0.70614000  1.0
  H  H54  1  0.72346000  0.60548000  0.41399000  1.0
  H  H55  1  0.27654000  0.39452000  0.58602000  1.0
  H  H56  1  0.69624000  0.54161000  0.31391000  1.0
  H  H57  1  0.30376000  0.45839000  0.68609000  1.0
  H  H58  1  0.35846000  0.46603000  0.23361000  1.0
  H  H59  1  0.64155000  0.53396000  0.76639000  1.0
  H  H60  1  0.21250000  0.45802000  0.36676000  1.0
  H  H61  1  0.78751000  0.54198000  0.63325000  1.0
  H  H62  1  0.45053000  0.33086000  0.42187000  1.0
  H  H63  1  0.54948000  0.66913000  0.57813000  1.0
  H  H64  1  0.35316000  0.12784000  0.54402000  1.0
  H  H65  1  0.64684000  0.87216000  0.45598000  1.0
  H  H66  1  0.22079000  0.15280000  0.45109000  1.0
  H  H67  1  0.77922000  0.84720000  0.54891000  1.0
  H  H68  1  0.18852000  0.24481000  0.54159000  1.0
  H  H69  1  0.81148000  0.75519000  0.45841000  1.0
  H  H70  1  0.58017000  0.15527000  0.35459000  1.0
  H  H71  1  0.41984000  0.84473000  0.64541000  1.0
  H  H72  1  0.58168000  0.29632000  0.22930000  1.0
  H  H73  1  0.41833000  0.70368000  0.77070000  1.0
  H  H74  1  0.44477000  0.19082000  0.26075000  1.0
  H  H75  1  0.55523000  0.80918000  0.73925000  1.0
  C  C76  1  0.23261000  0.20068000  0.10058000  1.0
  C  C77  1  0.76739000  0.79932000  0.89942000  1.0
  C  C78  1  0.18600000  0.09103000  0.10214000  1.0
  C  C79  1  0.81400000  0.90897000  0.89787000  1.0
  C  C80  1  0.25778000  0.05245000  0.00448000  1.0
  C  C81  1  0.74223000  0.94754000  0.99552000  1.0
  C  C82  1  0.37253000  0.11486000  0.90482000  1.0
  C  C83  1  0.62747000  0.88514000  0.09518000  1.0
  C  C84  1  0.42176000  0.21828000  0.90625000  1.0
  C  C85  1  0.57822000  0.78172000  0.09375000  1.0
  C  C86  1  0.35614000  0.26062000  0.00380000  1.0
  C  C87  1  0.64383000  0.73939000  0.99620000  1.0
  C  C88  1  0.41309000  0.36322000  0.00416000  1.0
  C  C89  1  0.58687000  0.63677000  0.99583000  1.0
  C  C90  1  0.46893000  0.45218000  0.00069000  1.0
  C  C91  1  0.53100000  0.54786000  0.99928000  1.0
  C  C92  1  0.05943000  0.01884000  0.20627000  1.0
  C  C93  1  0.94058000  0.98115000  0.79373000  1.0
  C  C94  1  0.89678000  0.09784000  0.20626000  1.0
  C  C95  1  0.10323000  0.90215000  0.79374000  1.0
  C  C96  1  0.10128000  0.98556000  0.32821000  1.0
  C  C97  1  0.89873000  0.01444000  0.67179000  1.0
  C  C98  1  0.04316000  0.89675000  0.19496000  1.0
  C  C99  1  0.95684000  0.10324000  0.80504000  1.0
  C  C100  1  0.44001000  0.06811000  0.80227000  1.0
  C  C101  1  0.55999000  0.93189000  0.19774000  1.0
  C  C102  1  0.12130000  0.63004000  0.08595000  1.0
  C  C103  1  0.87870000  0.36996000  0.91405000  1.0
  C  C104  1  0.95666000  0.50401000  0.06112000  1.0
  C  C105  1  0.04333000  0.49599000  0.93888000  1.0
  C  C106  1  0.90495000  0.32802000  0.36962000  1.0
  C  C107  1  0.09505000  0.67198000  0.63038000  1.0
  C  C108  1  0.83413000  0.41467000  0.44232000  1.0
  C  C109  1  0.16588000  0.58533000  0.55768000  1.0
  C  C110  1  0.69478000  0.36273000  0.54671000  1.0
  C  C111  1  0.30522000  0.63727000  0.45329000  1.0
  C  C112  1  0.78180000  0.54515000  0.36176000  1.0
  C  C113  1  0.21820000  0.45485000  0.63824000  1.0
  C  C114  1  0.27942000  0.40337000  0.30956000  1.0
  C  C115  1  0.72058000  0.59662000  0.69044000  1.0
  C  C116  1  0.38280000  0.29444000  0.38217000  1.0
  C  C117  1  0.61721000  0.70555000  0.61783000  1.0
  C  C118  1  0.28100000  0.19997000  0.48576000  1.0
  C  C119  1  0.71901000  0.80002000  0.51424000  1.0
  C  C120  1  0.50438000  0.23056000  0.30244000  1.0
  C  C121  1  0.49562000  0.76944000  0.69756000  1.0
  O  O122  1  0.16131000  0.24724000  0.18671000  1.0
  O  O123  1  0.83868000  0.75276000  0.81329000  1.0
  O  O124  1  0.07017000  0.50852000  0.12312000  1.0
  O  O125  1  0.92982000  0.49148000  0.87689000  1.0
