# generated using pymatgen
data_ZnH40C54(N2O3)2
_symmetry_space_group_name_H-M   'P 1'
_cell_length_a   15.73010000
_cell_length_b   15.73000000
_cell_length_c   20.02820000
_cell_angle_alpha   102.98900000
_cell_angle_beta   102.98900000
_cell_angle_gamma   113.37300000
_symmetry_Int_Tables_number   1
_chemical_formula_structural   ZnH40C54(N2O3)2
_chemical_formula_sum   'Zn4 H160 C216 N16 O24'
_cell_volume   4150.63677643
_cell_formula_units_Z   4
loop_
 _symmetry_equiv_pos_site_id
 _symmetry_equiv_pos_as_xyz
  1  'x, y, z'
loop_
 _atom_site_type_symbol
 _atom_site_label
 _atom_site_symmetry_multiplicity
 _atom_site_fract_x
 _atom_site_fract_y
 _atom_site_fract_z
 _atom_site_occupancy
  Zn  Zn0  1  0.56992000  0.60187000  0.61382000  1.0
  Zn  Zn1  1  0.39813000  0.43009000  0.88618000  1.0
  Zn  Zn2  1  0.43009000  0.39813000  0.38618000  1.0
  Zn  Zn3  1  0.60187000  0.56991000  0.11382000  1.0
  H  H4  1  0.74352000  0.60851000  0.72617000  1.0
  H  H5  1  0.39149000  0.25648000  0.77383000  1.0
  H  H6  1  0.25648000  0.39149000  0.27383000  1.0
  H  H7  1  0.60851000  0.74352000  0.22617000  1.0
  H  H8  1  0.03801000  0.73159000  0.34094000  1.0
  H  H9  1  0.26841000  0.96198000  0.15906000  1.0
  H  H10  1  0.96198000  0.26841000  0.65906000  1.0
  H  H11  1  0.73160000  0.03801000  0.84094000  1.0
  H  H12  1  0.00608000  0.61977000  0.35994000  1.0
  H  H13  1  0.38023000  0.99391000  0.14006000  1.0
  H  H14  1  0.99391000  0.38023000  0.64005000  1.0
  H  H15  1  0.61978000  0.00609000  0.85994000  1.0
  H  H16  1  0.24828000  0.50216000  0.67828000  1.0
  H  H17  1  0.49784000  0.75172000  0.82172000  1.0
  H  H18  1  0.75173000  0.49784000  0.32172000  1.0
  H  H19  1  0.50216000  0.24827000  0.17827000  1.0
  H  H20  1  0.18995000  0.87086000  0.49532000  1.0
  H  H21  1  0.12914000  0.81005000  0.00468000  1.0
  H  H22  1  0.81005000  0.12914000  0.50468000  1.0
  H  H23  1  0.87086000  0.18995000  0.99532000  1.0
  H  H24  1  0.88319000  0.66821000  0.30171000  1.0
  H  H25  1  0.33178000  0.11680000  0.19829000  1.0
  H  H26  1  0.11680000  0.33178000  0.69828000  1.0
  H  H27  1  0.66821000  0.88320000  0.80171000  1.0
  H  H28  1  0.54402000  0.41177000  0.67644000  1.0
  H  H29  1  0.58823000  0.45598000  0.82357000  1.0
  H  H30  1  0.45597000  0.58823000  0.32356000  1.0
  H  H31  1  0.41177000  0.54403000  0.17644000  1.0
  H  H32  1  0.37707000  0.16687000  0.47221000  1.0
  H  H33  1  0.83313000  0.62293000  0.02780000  1.0
  H  H34  1  0.62293000  0.83313000  0.52779000  1.0
  H  H35  1  0.16687000  0.37707000  0.97221000  1.0
  H  H36  1  0.47260000  0.11449000  0.67143000  1.0
  H  H37  1  0.88551000  0.52740000  0.82857000  1.0
  H  H38  1  0.52739000  0.88551000  0.32857000  1.0
  H  H39  1  0.11449000  0.47261000  0.17143000  1.0
  H  H40  1  0.30238000  0.72245000  0.57436000  1.0
  H  H41  1  0.27755000  0.69762000  0.92564000  1.0
  H  H42  1  0.69762000  0.27755000  0.42564000  1.0
  H  H43  1  0.72245000  0.30238000  0.07436000  1.0
  H  H44  1  0.33127000  0.66003000  0.39750000  1.0
  H  H45  1  0.33997000  0.66873000  0.10250000  1.0
  H  H46  1  0.66874000  0.33997000  0.60250000  1.0
  H  H47  1  0.66003000  0.33127000  0.89750000  1.0
  H  H48  1  0.45536000  0.71271000  0.57071000  1.0
  H  H49  1  0.28729000  0.54463000  0.92929000  1.0
  H  H50  1  0.54463000  0.28729000  0.42928000  1.0
  H  H51  1  0.71271000  0.45536000  0.07071000  1.0
  H  H52  1  0.40541000  0.50488000  0.67244000  1.0
  H  H53  1  0.49512000  0.59459000  0.82755000  1.0
  H  H54  1  0.59459000  0.49512000  0.32755000  1.0
  H  H55  1  0.50488000  0.40541000  0.17244000  1.0
  H  H56  1  0.94824000  0.79508000  0.53323000  1.0
  H  H57  1  0.20492000  0.05176000  0.96678000  1.0
  H  H58  1  0.05175000  0.20491000  0.46677000  1.0
  H  H59  1  0.79509000  0.94824000  0.03323000  1.0
  H  H60  1  0.66403000  0.71112000  0.37695000  1.0
  H  H61  1  0.28887000  0.33596000  0.12306000  1.0
  H  H62  1  0.33597000  0.28888000  0.62305000  1.0
  H  H63  1  0.71112000  0.66403000  0.87694000  1.0
  H  H64  1  0.17136000  0.58094000  0.72723000  1.0
  H  H65  1  0.41907000  0.82864000  0.77278000  1.0
  H  H66  1  0.82864000  0.41907000  0.27278000  1.0
  H  H67  1  0.58094000  0.17136000  0.22722000  1.0
  H  H68  1  0.36972000  0.96808000  0.60441000  1.0
  H  H69  1  0.03192000  0.63027000  0.89560000  1.0
  H  H70  1  0.63027000  0.03192000  0.39559000  1.0
  H  H71  1  0.96808000  0.36973000  0.10441000  1.0
  H  H72  1  0.46747000  0.98063000  0.56841000  1.0
  H  H73  1  0.01937000  0.53253000  0.93159000  1.0
  H  H74  1  0.53253000  0.01937000  0.43159000  1.0
  H  H75  1  0.98063000  0.46747000  0.06841000  1.0
  H  H76  1  0.13736000  0.64285000  0.52648000  1.0
  H  H77  1  0.35715000  0.86264000  0.97351000  1.0
  H  H78  1  0.86264000  0.35715000  0.47352000  1.0
  H  H79  1  0.64285000  0.13736000  0.02648000  1.0
  H  H80  1  0.14942000  0.60093000  0.34794000  1.0
  H  H81  1  0.39907000  0.85058000  0.15206000  1.0
  H  H82  1  0.85059000  0.39907000  0.65206000  1.0
  H  H83  1  0.60093000  0.14942000  0.84794000  1.0
  H  H84  1  0.82652000  0.56653000  0.50340000  1.0
  H  H85  1  0.43347000  0.17348000  0.99660000  1.0
  H  H86  1  0.17349000  0.43347000  0.49660000  1.0
  H  H87  1  0.56653000  0.82651000  0.00340000  1.0
  H  H88  1  0.78125000  0.78606000  0.50716000  1.0
  H  H89  1  0.21393000  0.21875000  0.99285000  1.0
  H  H90  1  0.21875000  0.21393000  0.49284000  1.0
  H  H91  1  0.78607000  0.78125000  0.00715000  1.0
  H  H92  1  0.97976000  0.63704000  0.52434000  1.0
  H  H93  1  0.36296000  0.02024000  0.97566000  1.0
  H  H94  1  0.02024000  0.36296000  0.47567000  1.0
  H  H95  1  0.63704000  0.97976000  0.02434000  1.0
  H  H96  1  0.55211000  0.29382000  0.74044000  1.0
  H  H97  1  0.70619000  0.44789000  0.75956000  1.0
  H  H98  1  0.44788000  0.70618000  0.25956000  1.0
  H  H99  1  0.29382000  0.55212000  0.24044000  1.0
  H  H100  1  0.01050000  0.57041000  0.72399000  1.0
  H  H101  1  0.42959000  0.98951000  0.77601000  1.0
  H  H102  1  0.98951000  0.42959000  0.27601000  1.0
  H  H103  1  0.57041000  0.01049000  0.22399000  1.0
  H  H104  1  0.90844000  0.62098000  0.73626000  1.0
  H  H105  1  0.37902000  0.09156000  0.76374000  1.0
  H  H106  1  0.09155000  0.37902000  0.26374000  1.0
  H  H107  1  0.62097000  0.90844000  0.23626000  1.0
  H  H108  1  0.44193000  0.82737000  0.49113000  1.0
  H  H109  1  0.17263000  0.55807000  0.00887000  1.0
  H  H110  1  0.55807000  0.17263000  0.50888000  1.0
  H  H111  1  0.82737000  0.44193000  0.99113000  1.0
  H  H112  1  0.66777000  0.56171000  0.50457000  1.0
  H  H113  1  0.43828000  0.33223000  0.99543000  1.0
  H  H114  1  0.33223000  0.43829000  0.49543000  1.0
  H  H115  1  0.56171000  0.66777000  0.00457000  1.0
  H  H116  1  0.22203000  0.85235000  0.32141000  1.0
  H  H117  1  0.14764000  0.77797000  0.17858000  1.0
  H  H118  1  0.77798000  0.14765000  0.67859000  1.0
  H  H119  1  0.85236000  0.22203000  0.82141000  1.0
  H  H120  1  0.97111000  0.17299000  0.33008000  1.0
  H  H121  1  0.82701000  0.02889000  0.16992000  1.0
  H  H122  1  0.02889000  0.82701000  0.66992000  1.0
  H  H123  1  0.17299000  0.97111000  0.83008000  1.0
  H  H124  1  0.22905000  0.13950000  0.29869000  1.0
  H  H125  1  0.86050000  0.77094000  0.20130000  1.0
  H  H126  1  0.77095000  0.86050000  0.70131000  1.0
  H  H127  1  0.13950000  0.22905000  0.79869000  1.0
  H  H128  1  0.08157000  0.15079000  0.30733000  1.0
  H  H129  1  0.84921000  0.91843000  0.19267000  1.0
  H  H130  1  0.91843000  0.84921000  0.69267000  1.0
  H  H131  1  0.15078000  0.08157000  0.80732000  1.0
  H  H132  1  0.80908000  0.16185000  0.32460000  1.0
  H  H133  1  0.83815000  0.19092000  0.17540000  1.0
  H  H134  1  0.19092000  0.83815000  0.67540000  1.0
  H  H135  1  0.16185000  0.80908000  0.82460000  1.0
  H  H136  1  0.35123000  0.82429000  0.28517000  1.0
  H  H137  1  0.17570000  0.64877000  0.21483000  1.0
  H  H138  1  0.64877000  0.17571000  0.71483000  1.0
  H  H139  1  0.82430000  0.35123000  0.78517000  1.0
  H  H140  1  0.38025000  0.15673000  0.33738000  1.0
  H  H141  1  0.84327000  0.61975000  0.16262000  1.0
  H  H142  1  0.61976000  0.84328000  0.66263000  1.0
  H  H143  1  0.15673000  0.38025000  0.83738000  1.0
  H  H144  1  0.16707000  0.91758000  0.39974000  1.0
  H  H145  1  0.08242000  0.83293000  0.10026000  1.0
  H  H146  1  0.83293000  0.08242000  0.60026000  1.0
  H  H147  1  0.91758000  0.16707000  0.89974000  1.0
  H  H148  1  0.02032000  0.93030000  0.41049000  1.0
  H  H149  1  0.06970000  0.97968000  0.08951000  1.0
  H  H150  1  0.97968000  0.06970000  0.58951000  1.0
  H  H151  1  0.93030000  0.02032000  0.91049000  1.0
  H  H152  1  0.50618000  0.11668000  0.30438000  1.0
  H  H153  1  0.88332000  0.49381000  0.19561000  1.0
  H  H154  1  0.49382000  0.88332000  0.69562000  1.0
  H  H155  1  0.11668000  0.50619000  0.80439000  1.0
  H  H156  1  0.72290000  0.90627000  0.37521000  1.0
  H  H157  1  0.09373000  0.27710000  0.12479000  1.0
  H  H158  1  0.27710000  0.09373000  0.62479000  1.0
  H  H159  1  0.90627000  0.72290000  0.87521000  1.0
  H  H160  1  0.87876000  0.90332000  0.38040000  1.0
  H  H161  1  0.09668000  0.12124000  0.11961000  1.0
  H  H162  1  0.12124000  0.09668000  0.61960000  1.0
  H  H163  1  0.90332000  0.87876000  0.88039000  1.0
  C  C164  1  0.76582000  0.60069000  0.67835000  1.0
  C  C165  1  0.39931000  0.23418000  0.82165000  1.0
  C  C166  1  0.23418000  0.39932000  0.32165000  1.0
  C  C167  1  0.60068000  0.76582000  0.17835000  1.0
  C  C168  1  0.69762000  0.64304000  0.25584000  1.0
  C  C169  1  0.35696000  0.30238000  0.24416000  1.0
  C  C170  1  0.30238000  0.35696000  0.74416000  1.0
  C  C171  1  0.64304000  0.69762000  0.75584000  1.0
  C  C172  1  0.05002000  0.70094000  0.38465000  1.0
  C  C173  1  0.29906000  0.94998000  0.11535000  1.0
  C  C174  1  0.94998000  0.29905000  0.61535000  1.0
  C  C175  1  0.70095000  0.05002000  0.88465000  1.0
  C  C176  1  0.29250000  0.55208000  0.65530000  1.0
  C  C177  1  0.44792000  0.70750000  0.84470000  1.0
  C  C178  1  0.70751000  0.44792000  0.34470000  1.0
  C  C179  1  0.55208000  0.29249000  0.15530000  1.0
  C  C180  1  0.22093000  0.82539000  0.47261000  1.0
  C  C181  1  0.17462000  0.77907000  0.02739000  1.0
  C  C182  1  0.77907000  0.17461000  0.52739000  1.0
  C  C183  1  0.82539000  0.22093000  0.97261000  1.0
  C  C184  1  0.86222000  0.69330000  0.34752000  1.0
  C  C185  1  0.30670000  0.13777000  0.15248000  1.0
  C  C186  1  0.13778000  0.30670000  0.65247000  1.0
  C  C187  1  0.69330000  0.86222000  0.84752000  1.0
  C  C188  1  0.88383000  0.59499000  0.62031000  1.0
  C  C189  1  0.40501000  0.11617000  0.87969000  1.0
  C  C190  1  0.11617000  0.40501000  0.37969000  1.0
  C  C191  1  0.59498000  0.88383000  0.12031000  1.0
  C  C192  1  0.41903000  0.12863000  0.56681000  1.0
  C  C193  1  0.87137000  0.58097000  0.93319000  1.0
  C  C194  1  0.58096000  0.87137000  0.43319000  1.0
  C  C195  1  0.12863000  0.41904000  0.06681000  1.0
  C  C196  1  0.26064000  0.61265000  0.62696000  1.0
  C  C197  1  0.38735000  0.73936000  0.87303000  1.0
  C  C198  1  0.73936000  0.38735000  0.37304000  1.0
  C  C199  1  0.61265000  0.26064000  0.12696000  1.0
  C  C200  1  0.15830000  0.73299000  0.41762000  1.0
  C  C201  1  0.26701000  0.84170000  0.08238000  1.0
  C  C202  1  0.84170000  0.26701000  0.58237000  1.0
  C  C203  1  0.73299000  0.15830000  0.91763000  1.0
  C  C204  1  0.51152000  0.33287000  0.64625000  1.0
  C  C205  1  0.66713000  0.48848000  0.85375000  1.0
  C  C206  1  0.48847000  0.66712000  0.35375000  1.0
  C  C207  1  0.33288000  0.51153000  0.14625000  1.0
  C  C208  1  0.46223000  0.29609000  0.57022000  1.0
  C  C209  1  0.70392000  0.53777000  0.92978000  1.0
  C  C210  1  0.53777000  0.70391000  0.42978000  1.0
  C  C211  1  0.29609000  0.46223000  0.07022000  1.0
  C  C212  1  0.41574000  0.19471000  0.53100000  1.0
  C  C213  1  0.80529000  0.58426000  0.96900000  1.0
  C  C214  1  0.58426000  0.80529000  0.46899000  1.0
  C  C215  1  0.19471000  0.41574000  0.03100000  1.0
  C  C216  1  0.46868000  0.16471000  0.64269000  1.0
  C  C217  1  0.83529000  0.53132000  0.85731000  1.0
  C  C218  1  0.53131000  0.83529000  0.35730000  1.0
  C  C219  1  0.16471000  0.46869000  0.14269000  1.0
  C  C220  1  0.32150000  0.67269000  0.59675000  1.0
  C  C221  1  0.32731000  0.67850000  0.90325000  1.0
  C  C222  1  0.67850000  0.32731000  0.40325000  1.0
  C  C223  1  0.67270000  0.32150000  0.09675000  1.0
  C  C224  1  0.29995000  0.70651000  0.41799000  1.0
  C  C225  1  0.29349000  0.70005000  0.08202000  1.0
  C  C226  1  0.70005000  0.29349000  0.58202000  1.0
  C  C227  1  0.70652000  0.29995000  0.91799000  1.0
  C  C228  1  0.40740000  0.66821000  0.59479000  1.0
  C  C229  1  0.33179000  0.59260000  0.90521000  1.0
  C  C230  1  0.59260000  0.33179000  0.40521000  1.0
  C  C231  1  0.66821000  0.40740000  0.09479000  1.0
  C  C232  1  0.37965000  0.55191000  0.65134000  1.0
  C  C233  1  0.44809000  0.62035000  0.84866000  1.0
  C  C234  1  0.62035000  0.44809000  0.34866000  1.0
  C  C235  1  0.55191000  0.37965000  0.15134000  1.0
  C  C236  1  0.16619000  0.61111000  0.62672000  1.0
  C  C237  1  0.38889000  0.83381000  0.87328000  1.0
  C  C238  1  0.83382000  0.38889000  0.37328000  1.0
  C  C239  1  0.61111000  0.16619000  0.12672000  1.0
  C  C240  1  0.89649000  0.76482000  0.47745000  1.0
  C  C241  1  0.23518000  0.10351000  0.02255000  1.0
  C  C242  1  0.10351000  0.23518000  0.52254000  1.0
  C  C243  1  0.76482000  0.89649000  0.97745000  1.0
  C  C244  1  0.45634000  0.36471000  0.53030000  1.0
  C  C245  1  0.63529000  0.54366000  0.96971000  1.0
  C  C246  1  0.54366000  0.63529000  0.46970000  1.0
  C  C247  1  0.36471000  0.45634000  0.03030000  1.0
  C  C248  1  0.73806000  0.71861000  0.39013000  1.0
  C  C249  1  0.28139000  0.26193000  0.10988000  1.0
  C  C250  1  0.26194000  0.28139000  0.60988000  1.0
  C  C251  1  0.71861000  0.73806000  0.89012000  1.0
  C  C252  1  0.98100000  0.60149000  0.62317000  1.0
  C  C253  1  0.39851000  0.01901000  0.87683000  1.0
  C  C254  1  0.01901000  0.39851000  0.37683000  1.0
  C  C255  1  0.60149000  0.98099000  0.12317000  1.0
  C  C256  1  0.12834000  0.59160000  0.68199000  1.0
  C  C257  1  0.40840000  0.87167000  0.81801000  1.0
  C  C258  1  0.87167000  0.40840000  0.31801000  1.0
  C  C259  1  0.59160000  0.12834000  0.18199000  1.0
  C  C260  1  0.32332000  0.86063000  0.49855000  1.0
  C  C261  1  0.13937000  0.67668000  0.00145000  1.0
  C  C262  1  0.67668000  0.13937000  0.50145000  1.0
  C  C263  1  0.86064000  0.32332000  0.99855000  1.0
  C  C264  1  0.38905000  0.96235000  0.55454000  1.0
  C  C265  1  0.03766000  0.61095000  0.94547000  1.0
  C  C266  1  0.61094000  0.03766000  0.44546000  1.0
  C  C267  1  0.96235000  0.38906000  0.05454000  1.0
  C  C268  1  0.11040000  0.62743000  0.57028000  1.0
  C  C269  1  0.37257000  0.88960000  0.92972000  1.0
  C  C270  1  0.88960000  0.37257000  0.42973000  1.0
  C  C271  1  0.62743000  0.11040000  0.07028000  1.0
  C  C272  1  0.76782000  0.68650000  0.33311000  1.0
  C  C273  1  0.31349000  0.23217000  0.16690000  1.0
  C  C274  1  0.23218000  0.31350000  0.66689000  1.0
  C  C275  1  0.68650000  0.76782000  0.83310000  1.0
  C  C276  1  0.19827000  0.67314000  0.39072000  1.0
  C  C277  1  0.32686000  0.80173000  0.10928000  1.0
  C  C278  1  0.80174000  0.32686000  0.60928000  1.0
  C  C279  1  0.67314000  0.19827000  0.89072000  1.0
  C  C280  1  0.81304000  0.57772000  0.55485000  1.0
  C  C281  1  0.42228000  0.18696000  0.94515000  1.0
  C  C282  1  0.18696000  0.42229000  0.44515000  1.0
  C  C283  1  0.57771000  0.81304000  0.05485000  1.0
  C  C284  1  0.80325000  0.75922000  0.46231000  1.0
  C  C285  1  0.24078000  0.19675000  0.03770000  1.0
  C  C286  1  0.19675000  0.24078000  0.53769000  1.0
  C  C287  1  0.75922000  0.80325000  0.96231000  1.0
  C  C288  1  0.01976000  0.62261000  0.56860000  1.0
  C  C289  1  0.37738000  0.98024000  0.93140000  1.0
  C  C290  1  0.98024000  0.37739000  0.43141000  1.0
  C  C291  1  0.62261000  0.01976000  0.06860000  1.0
  C  C292  1  0.92568000  0.73095000  0.42010000  1.0
  C  C293  1  0.26904000  0.07432000  0.07990000  1.0
  C  C294  1  0.07432000  0.26904000  0.57989000  1.0
  C  C295  1  0.73096000  0.92568000  0.92011000  1.0
  C  C296  1  0.51424000  0.26649000  0.68140000  1.0
  C  C297  1  0.73351000  0.48577000  0.81861000  1.0
  C  C298  1  0.48576000  0.73350000  0.31860000  1.0
  C  C299  1  0.26650000  0.51424000  0.18140000  1.0
  C  C300  1  0.03775000  0.58702000  0.68054000  1.0
  C  C301  1  0.41298000  0.96225000  0.81946000  1.0
  C  C302  1  0.96225000  0.41298000  0.31946000  1.0
  C  C303  1  0.58701000  0.03775000  0.18054000  1.0
  C  C304  1  0.85731000  0.60580000  0.68307000  1.0
  C  C305  1  0.39420000  0.14269000  0.81693000  1.0
  C  C306  1  0.14269000  0.39420000  0.31694000  1.0
  C  C307  1  0.60579000  0.85730000  0.18307000  1.0
  C  C308  1  0.36234000  0.80055000  0.47103000  1.0
  C  C309  1  0.19945000  0.63766000  0.02897000  1.0
  C  C310  1  0.63766000  0.19945000  0.52897000  1.0
  C  C311  1  0.80056000  0.36234000  0.97103000  1.0
  C  C312  1  0.72335000  0.57433000  0.55471000  1.0
  C  C313  1  0.42567000  0.27665000  0.94529000  1.0
  C  C314  1  0.27665000  0.42567000  0.44529000  1.0
  C  C315  1  0.57433000  0.72335000  0.05471000  1.0
  C  C316  1  0.28774000  0.00716000  0.33113000  1.0
  C  C317  1  0.99283000  0.71226000  0.16887000  1.0
  C  C318  1  0.71226000  0.99284000  0.66887000  1.0
  C  C319  1  0.00717000  0.28774000  0.83113000  1.0
  C  C320  1  0.20645000  0.02360000  0.34520000  1.0
  C  C321  1  0.97640000  0.79355000  0.15480000  1.0
  C  C322  1  0.79355000  0.97640000  0.65480000  1.0
  C  C323  1  0.02360000  0.20645000  0.84520000  1.0
  C  C324  1  0.28326000  0.91364000  0.31796000  1.0
  C  C325  1  0.08636000  0.71674000  0.18203000  1.0
  C  C326  1  0.71675000  0.08636000  0.68204000  1.0
  C  C327  1  0.91364000  0.28326000  0.81796000  1.0
  C  C328  1  0.03609000  0.03873000  0.35700000  1.0
  C  C329  1  0.96127000  0.96391000  0.14300000  1.0
  C  C330  1  0.96391000  0.96127000  0.64300000  1.0
  C  C331  1  0.03873000  0.03609000  0.85700000  1.0
  C  C332  1  0.91869000  0.11139000  0.34006000  1.0
  C  C333  1  0.88862000  0.08131000  0.15994000  1.0
  C  C334  1  0.08131000  0.88862000  0.65994000  1.0
  C  C335  1  0.11138000  0.91869000  0.84006000  1.0
  C  C336  1  0.18306000  0.09253000  0.32265000  1.0
  C  C337  1  0.90747000  0.81694000  0.17735000  1.0
  C  C338  1  0.81694000  0.90747000  0.67735000  1.0
  C  C339  1  0.09253000  0.18306000  0.82265000  1.0
  C  C340  1  0.09932000  0.09937000  0.32832000  1.0
  C  C341  1  0.90063000  0.90068000  0.17167000  1.0
  C  C342  1  0.90068000  0.90063000  0.67168000  1.0
  C  C343  1  0.09937000  0.09932000  0.82832000  1.0
  C  C344  1  0.82720000  0.10557000  0.33717000  1.0
  C  C345  1  0.89443000  0.17281000  0.16283000  1.0
  C  C346  1  0.17281000  0.89443000  0.66283000  1.0
  C  C347  1  0.10557000  0.82719000  0.83717000  1.0
  C  C348  1  0.35589000  0.89765000  0.29726000  1.0
  C  C349  1  0.10235000  0.64411000  0.20274000  1.0
  C  C350  1  0.64411000  0.10235000  0.70274000  1.0
  C  C351  1  0.89765000  0.35589000  0.79726000  1.0
  C  C352  1  0.37090000  0.08192000  0.32679000  1.0
  C  C353  1  0.91808000  0.62909000  0.17321000  1.0
  C  C354  1  0.62910000  0.91808000  0.67321000  1.0
  C  C355  1  0.08192000  0.37091000  0.82679000  1.0
  C  C356  1  0.14688000  0.96711000  0.37795000  1.0
  C  C357  1  0.03289000  0.85312000  0.12205000  1.0
  C  C358  1  0.85313000  0.03290000  0.62205000  1.0
  C  C359  1  0.96711000  0.14688000  0.87795000  1.0
  C  C360  1  0.06398000  0.97495000  0.38423000  1.0
  C  C361  1  0.02505000  0.93602000  0.11577000  1.0
  C  C362  1  0.93602000  0.02505000  0.61577000  1.0
  C  C363  1  0.97495000  0.06398000  0.88423000  1.0
  C  C364  1  0.44077000  0.05882000  0.30719000  1.0
  C  C365  1  0.94118000  0.55923000  0.19281000  1.0
  C  C366  1  0.55923000  0.94118000  0.69281000  1.0
  C  C367  1  0.05882000  0.44077000  0.80719000  1.0
  C  C368  1  0.94187000  0.03865000  0.35584000  1.0
  C  C369  1  0.96135000  0.05813000  0.14416000  1.0
  C  C370  1  0.05813000  0.96135000  0.64416000  1.0
  C  C371  1  0.03865000  0.94187000  0.85584000  1.0
  C  C372  1  0.77981000  0.96475000  0.36536000  1.0
  C  C373  1  0.03525000  0.22019000  0.13464000  1.0
  C  C374  1  0.22019000  0.03525000  0.63463000  1.0
  C  C375  1  0.96475000  0.77981000  0.86536000  1.0
  C  C376  1  0.86866000  0.96377000  0.36885000  1.0
  C  C377  1  0.03623000  0.13134000  0.13115000  1.0
  C  C378  1  0.13134000  0.03623000  0.63115000  1.0
  C  C379  1  0.96377000  0.86866000  0.86885000  1.0
  N  N380  1  0.43624000  0.60863000  0.62104000  1.0
  N  N381  1  0.39137000  0.56376000  0.87896000  1.0
  N  N382  1  0.56376000  0.39137000  0.37896000  1.0
  N  N383  1  0.60863000  0.43624000  0.12104000  1.0
  N  N384  1  0.69951000  0.58611000  0.61547000  1.0
  N  N385  1  0.41389000  0.30049000  0.88453000  1.0
  N  N386  1  0.30049000  0.41389000  0.38453000  1.0
  N  N387  1  0.58610000  0.69951000  0.11547000  1.0
  N  N388  1  0.43387000  0.96808000  0.29072000  1.0
  N  N389  1  0.03192000  0.56613000  0.20928000  1.0
  N  N390  1  0.56613000  0.03193000  0.70928000  1.0
  N  N391  1  0.96808000  0.43387000  0.79072000  1.0
  N  N392  1  0.75726000  0.03349000  0.34915000  1.0
  N  N393  1  0.96651000  0.24274000  0.15085000  1.0
  N  N394  1  0.24274000  0.96651000  0.65085000  1.0
  N  N395  1  0.03349000  0.75726000  0.84915000  1.0
  O  O396  1  0.60533000  0.60147000  0.24230000  1.0
  O  O397  1  0.39853000  0.39467000  0.25769000  1.0
  O  O398  1  0.39467000  0.39853000  0.75769000  1.0
  O  O399  1  0.60147000  0.60533000  0.74231000  1.0
  O  O400  1  0.73528000  0.65020000  0.20529000  1.0
  O  O401  1  0.34980000  0.26473000  0.29472000  1.0
  O  O402  1  0.26472000  0.34980000  0.79471000  1.0
  O  O403  1  0.65020000  0.73528000  0.70529000  1.0
  O  O404  1  0.47837000  0.45195000  0.56728000  1.0
  O  O405  1  0.54806000  0.52163000  0.93272000  1.0
  O  O406  1  0.52163000  0.54806000  0.43272000  1.0
  O  O407  1  0.45195000  0.47837000  0.06728000  1.0
  O  O408  1  0.42588000  0.32844000  0.46051000  1.0
  O  O409  1  0.67156000  0.57413000  0.03949000  1.0
  O  O410  1  0.57412000  0.67156000  0.53949000  1.0
  O  O411  1  0.32844000  0.42588000  0.96051000  1.0
  O  O412  1  0.37252000  0.03129000  0.52294000  1.0
  O  O413  1  0.96871000  0.62748000  0.97706000  1.0
  O  O414  1  0.62748000  0.96871000  0.47705000  1.0
  O  O415  1  0.03129000  0.37252000  0.02294000  1.0
  O  O416  1  0.01821000  0.73822000  0.44104000  1.0
  O  O417  1  0.26178000  0.98179000  0.05896000  1.0
  O  O418  1  0.98179000  0.26177000  0.55896000  1.0
  O  O419  1  0.73823000  0.01821000  0.94104000  1.0
