# generated using pymatgen
data_MgH6C11NO3
_symmetry_space_group_name_H-M   'P 1'
_cell_length_a   6.85814000
_cell_length_b   35.17800000
_cell_length_c   35.17670000
_cell_angle_alpha   119.59200000
_cell_angle_beta   93.73440000
_cell_angle_gamma   93.71620000
_symmetry_Int_Tables_number   1
_chemical_formula_structural   MgH6C11NO3
_chemical_formula_sum   'Mg6 H36 C66 N6 O18'
_cell_volume   7317.81720937
_cell_formula_units_Z   6
loop_
 _symmetry_equiv_pos_site_id
 _symmetry_equiv_pos_as_xyz
  1  'x, y, z'
loop_
 _atom_site_type_symbol
 _atom_site_label
 _atom_site_symmetry_multiplicity
 _atom_site_fract_x
 _atom_site_fract_y
 _atom_site_fract_z
 _atom_site_occupancy
  Mg  Mg0  1  0.20150000  0.63371000  0.30794000  1.0
  Mg  Mg1  1  0.56777000  0.67423000  0.36632000  1.0
  Mg  Mg2  1  0.89348000  0.69208000  0.32583000  1.0
  Mg  Mg3  1  0.98294000  0.36522000  0.69394000  1.0
  Mg  Mg4  1  0.61773000  0.32872000  0.63476000  1.0
  Mg  Mg5  1  0.28907000  0.30606000  0.67126000  1.0
  H  H6  1  0.86383000  0.62549000  0.44010000  1.0
  H  H7  1  0.23793000  0.81458000  0.37451000  1.0
  H  H8  1  0.42378000  0.55992000  0.18541000  1.0
  H  H9  1  0.07108000  0.59180000  0.47352000  1.0
  H  H10  1  0.47887000  0.88170000  0.40814000  1.0
  H  H11  1  0.59757000  0.52649000  0.11829000  1.0
  H  H12  1  0.20607000  0.52686000  0.45073000  1.0
  H  H13  1  0.67932000  0.92390000  0.47314000  1.0
  H  H14  1  0.75565000  0.54924000  0.07610000  1.0
  H  H15  1  0.74901000  0.56070000  0.49084000  1.0
  H  H16  1  0.18854000  0.93012000  0.43929000  1.0
  H  H17  1  0.25861000  0.50918000  0.06984000  1.0
  H  H18  1  0.94118000  0.52873000  0.52930000  1.0
  H  H19  1  0.41267000  0.00054000  0.47129000  1.0
  H  H20  1  0.41229000  0.47075000  0.99940000  1.0
  H  H21  1  0.42133000  0.44681000  0.51786000  1.0
  H  H22  1  0.97461000  0.07106000  0.55319000  1.0
  H  H23  1  0.90359000  0.48214000  0.92891000  1.0
  H  H24  1  0.22904000  0.47883000  0.47949000  1.0
  H  H25  1  0.75035000  0.00067000  0.52115000  1.0
  H  H26  1  0.74963000  0.52046000  0.99931000  1.0
  H  H27  1  0.96543000  0.48113000  0.55783000  1.0
  H  H28  1  0.48446000  0.07669000  0.51891000  1.0
  H  H29  1  0.40781000  0.44218000  0.92331000  1.0
  H  H30  1  0.64886000  0.41231000  0.61115000  1.0
  H  H31  1  0.23669000  0.19886000  0.58772000  1.0
  H  H32  1  0.03799000  0.38882000  0.80114000  1.0
  H  H33  1  0.31818000  0.38294000  0.56592000  1.0
  H  H34  1  0.93543000  0.18296000  0.61706000  1.0
  H  H35  1  0.75240000  0.43413000  0.81700000  1.0
  H  H36  1  0.10430000  0.41678000  0.53384000  1.0
  H  H37  1  0.68769000  0.11706000  0.58322000  1.0
  H  H38  1  0.57071000  0.46613000  0.88295000  1.0
  H  H39  1  0.53443000  0.59368000  0.39682000  1.0
  H  H40  1  0.94041000  0.80313000  0.40630000  1.0
  H  H41  1  0.13767000  0.60322000  0.19691000  1.0
  C  C42  1  0.27097000  0.61895000  0.38634000  1.0
  C  C43  1  0.65172000  0.76737000  0.38105000  1.0
  C  C44  1  0.88469000  0.61370000  0.23266000  1.0
  C  C45  1  0.07720000  0.62798000  0.39923000  1.0
  C  C46  1  0.44890000  0.77123000  0.37202000  1.0
  C  C47  1  0.67805000  0.60078000  0.22879000  1.0
  C  C48  1  0.01009000  0.61759000  0.43040000  1.0
  C  C49  1  0.39212000  0.81279000  0.38241000  1.0
  C  C50  1  0.57976000  0.56961000  0.18722000  1.0
  C  C51  1  0.12404000  0.59847000  0.44862000  1.0
  C  C52  1  0.52520000  0.85013000  0.40148000  1.0
  C  C53  1  0.67551000  0.55138000  0.14987000  1.0
  C  C54  1  0.31451000  0.58912000  0.43592000  1.0
  C  C55  1  0.72503000  0.84679000  0.41082000  1.0
  C  C56  1  0.87866000  0.56409000  0.15322000  1.0
  C  C57  1  0.36270000  0.54033000  0.46103000  1.0
  C  C58  1  0.82239000  0.92069000  0.45963000  1.0
  C  C59  1  0.90200000  0.53896000  0.07930000  1.0
  C  C60  1  0.47813000  0.52184000  0.48292000  1.0
  C  C61  1  0.95644000  0.96106000  0.47814000  1.0
  C  C62  1  0.99556000  0.51708000  0.03890000  1.0
  C  C63  1  0.67965000  0.53579000  0.49702000  1.0
  C  C64  1  0.14408000  0.96121000  0.46420000  1.0
  C  C65  1  0.18308000  0.50302000  0.03874000  1.0
  C  C66  1  0.78468000  0.51794000  0.51824000  1.0
  C  C67  1  0.26693000  0.00027000  0.48206000  1.0
  C  C68  1  0.26684000  0.48181000  0.99967000  1.0
  C  C69  1  0.69221000  0.48573000  0.52585000  1.0
  C  C70  1  0.20662000  0.04012000  0.51428000  1.0
  C  C71  1  0.16662000  0.47419000  0.95985000  1.0
  C  C72  1  0.49067000  0.47176000  0.51174000  1.0
  C  C73  1  0.01903000  0.03999000  0.52823000  1.0
  C  C74  1  0.97909000  0.48826000  0.95998000  1.0
  C  C75  1  0.38553000  0.48965000  0.49055000  1.0
  C  C76  1  0.89603000  0.00090000  0.51034000  1.0
  C  C77  1  0.89512000  0.50943000  0.99907000  1.0
  C  C78  1  0.80924000  0.46729000  0.54755000  1.0
  C  C79  1  0.34210000  0.08026000  0.53274000  1.0
  C  C80  1  0.26193000  0.45247000  0.91972000  1.0
  C  C81  1  0.86438000  0.41820000  0.57185000  1.0
  C  C82  1  0.44629000  0.15365000  0.58183000  1.0
  C  C83  1  0.29285000  0.42812000  0.84634000  1.0
  C  C84  1  0.79673000  0.40637000  0.60163000  1.0
  C  C85  1  0.39049000  0.19526000  0.59366000  1.0
  C  C86  1  0.19537000  0.39834000  0.80472000  1.0
  C  C87  1  0.91490000  0.38699000  0.62007000  1.0
  C  C88  1  0.52807000  0.23307000  0.61302000  1.0
  C  C89  1  0.29500000  0.37992000  0.76690000  1.0
  C  C90  1  0.10846000  0.37875000  0.60673000  1.0
  C  C91  1  0.72991000  0.22798000  0.62128000  1.0
  C  C92  1  0.50187000  0.39331000  0.77200000  1.0
  C  C93  1  0.17208000  0.39028000  0.57607000  1.0
  C  C94  1  0.78198000  0.18578000  0.60973000  1.0
  C  C95  1  0.59619000  0.42396000  0.81420000  1.0
  C  C96  1  0.05457000  0.40956000  0.55863000  1.0
  C  C97  1  0.64517000  0.14907000  0.59045000  1.0
  C  C98  1  0.49622000  0.44135000  0.85093000  1.0
  C  C99  1  0.24300000  0.35681000  0.62176000  1.0
  C  C100  1  0.88643000  0.26495000  0.64320000  1.0
  C  C101  1  0.62139000  0.37827000  0.73503000  1.0
  C  C102  1  0.38626000  0.60017000  0.40590000  1.0
  C  C103  1  0.78575000  0.80572000  0.39980000  1.0
  C  C104  1  0.98042000  0.59412000  0.19430000  1.0
  C  C105  1  0.94450000  0.64894000  0.38258000  1.0
  C  C106  1  0.29540000  0.73361000  0.35108000  1.0
  C  C107  1  0.56201000  0.61743000  0.26640000  1.0
  N  N108  1  0.43740000  0.57035000  0.45375000  1.0
  N  N109  1  0.86679000  0.88337000  0.42957000  1.0
  N  N110  1  0.98381000  0.54625000  0.11662000  1.0
  N  N111  1  0.73766000  0.43686000  0.55458000  1.0
  N  N112  1  0.30092000  0.11772000  0.56318000  1.0
  N  N113  1  0.18335000  0.44541000  0.88225000  1.0
  O  O114  1  0.77978000  0.65925000  0.39744000  1.0
  O  O115  1  0.12029000  0.73817000  0.34081000  1.0
  O  O116  1  0.38243000  0.60257000  0.26185000  1.0
  O  O117  1  0.99797000  0.65644000  0.35202000  1.0
  O  O118  1  0.34150000  0.69554000  0.34355000  1.0
  O  O119  1  0.64604000  0.64799000  0.30447000  1.0
  O  O120  1  0.34790000  0.62787000  0.35708000  1.0
  O  O121  1  0.71985000  0.72922000  0.37221000  1.0
  O  O122  1  0.99086000  0.64299000  0.27083000  1.0
  O  O123  1  0.40826000  0.34763000  0.60678000  1.0
  O  O124  1  0.06091000  0.25915000  0.65237000  1.0
  O  O125  1  0.80166000  0.39325000  0.74084000  1.0
  O  O126  1  0.19060000  0.34695000  0.65086000  1.0
  O  O127  1  0.84374000  0.30390000  0.65306000  1.0
  O  O128  1  0.53983000  0.34917000  0.69607000  1.0
  O  O129  1  0.83945000  0.37662000  0.64850000  1.0
  O  O130  1  0.46301000  0.27188000  0.62338000  1.0
  O  O131  1  0.19108000  0.35148000  0.72810000  1.0
