# generated using pymatgen
data_EuH19C24(N3O4)2
_symmetry_space_group_name_H-M   'P 1'
_cell_length_a   11.22110000
_cell_length_b   13.08570000
_cell_length_c   18.93700000
_cell_angle_alpha   89.99920000
_cell_angle_beta   88.24270000
_cell_angle_gamma   89.99540000
_symmetry_Int_Tables_number   1
_chemical_formula_structural   EuH19C24(N3O4)2
_chemical_formula_sum   'Eu4 H76 C96 N24 O32'
_cell_volume   2779.32458917
_cell_formula_units_Z   4
loop_
 _symmetry_equiv_pos_site_id
 _symmetry_equiv_pos_as_xyz
  1  'x, y, z'
loop_
 _atom_site_type_symbol
 _atom_site_label
 _atom_site_symmetry_multiplicity
 _atom_site_fract_x
 _atom_site_fract_y
 _atom_site_fract_z
 _atom_site_occupancy
  Eu  Eu0  1  0.64576000  0.09154000  0.99438000  1.0
  Eu  Eu1  1  0.85424000  0.59155000  0.50563000  1.0
  Eu  Eu2  1  0.35424000  0.90846000  0.00562000  1.0
  Eu  Eu3  1  0.14576000  0.40845000  0.49437000  1.0
  H  H4  1  0.89274000  0.07078000  0.01703000  1.0
  H  H5  1  0.60726000  0.57080000  0.48297000  1.0
  H  H6  1  0.10726000  0.92922000  0.98296000  1.0
  H  H7  1  0.39274000  0.42920000  0.51704000  1.0
  H  H8  1  0.85778000  0.97484000  0.97583000  1.0
  H  H9  1  0.64222000  0.47486000  0.52418000  1.0
  H  H10  1  0.14221000  0.02516000  0.02417000  1.0
  H  H11  1  0.35778000  0.52514000  0.47583000  1.0
  H  H12  1  0.73346000  0.18874000  0.86682000  1.0
  H  H13  1  0.76654000  0.68876000  0.63318000  1.0
  H  H14  1  0.26654000  0.81126000  0.13318000  1.0
  H  H15  1  0.23347000  0.31124000  0.36682000  1.0
  H  H16  1  0.66107000  0.27908000  0.90705000  1.0
  H  H17  1  0.83893000  0.77909000  0.59295000  1.0
  H  H18  1  0.33893000  0.72092000  0.09295000  1.0
  H  H19  1  0.16107000  0.22091000  0.40705000  1.0
  H  H20  1  0.99116000  0.27929000  0.36162000  1.0
  H  H21  1  0.50885000  0.77927000  0.13837000  1.0
  H  H22  1  0.00885000  0.72072000  0.63838000  1.0
  H  H23  1  0.49115000  0.22073000  0.86163000  1.0
  H  H24  1  0.98348000  0.91953000  0.21485000  1.0
  H  H25  1  0.51651000  0.41953000  0.28515000  1.0
  H  H26  1  0.01652000  0.08047000  0.78515000  1.0
  H  H27  1  0.48349000  0.58047000  0.71485000  1.0
  H  H28  1  0.17679000  0.09383000  0.49483000  1.0
  H  H29  1  0.32321000  0.59384000  0.00517000  1.0
  H  H30  1  0.82321000  0.90617000  0.50517000  1.0
  H  H31  1  0.67679000  0.40616000  0.99483000  1.0
  H  H32  1  0.88671000  0.14375000  0.20013000  1.0
  H  H33  1  0.61330000  0.64375000  0.29987000  1.0
  H  H34  1  0.11329000  0.85625000  0.79987000  1.0
  H  H35  1  0.38670000  0.35625000  0.70013000  1.0
  H  H36  1  0.90281000  0.41990000  0.32436000  1.0
  H  H37  1  0.59718000  0.91989000  0.17564000  1.0
  H  H38  1  0.09719000  0.58010000  0.67564000  1.0
  H  H39  1  0.40282000  0.08011000  0.82436000  1.0
  H  H40  1  0.76826000  0.50619000  0.24234000  1.0
  H  H41  1  0.73172000  0.00617000  0.25765000  1.0
  H  H42  1  0.23174000  0.49381000  0.75766000  1.0
  H  H43  1  0.26827000  0.99383000  0.74235000  1.0
  H  H44  1  0.69104000  0.41053000  0.13869000  1.0
  H  H45  1  0.80895000  0.91052000  0.36131000  1.0
  H  H46  1  0.30896000  0.58947000  0.86131000  1.0
  H  H47  1  0.19105000  0.08948000  0.63869000  1.0
  H  H48  1  0.01929000  0.75310000  0.37000000  1.0
  H  H49  1  0.48070000  0.25310000  0.13000000  1.0
  H  H50  1  0.98071000  0.24690000  0.63000000  1.0
  H  H51  1  0.51930000  0.74691000  0.87000000  1.0
  H  H52  1  0.15415000  0.50501000  0.24052000  1.0
  H  H53  1  0.34586000  0.00503000  0.25948000  1.0
  H  H54  1  0.84585000  0.49499000  0.75948000  1.0
  H  H55  1  0.65414000  0.99497000  0.74052000  1.0
  H  H56  1  0.14247000  0.61684000  0.13324000  1.0
  H  H57  1  0.35754000  0.11686000  0.36675000  1.0
  H  H58  1  0.85753000  0.38316000  0.86676000  1.0
  H  H59  1  0.64246000  0.88314000  0.63325000  1.0
  H  H60  1  0.07482000  0.79600000  0.14568000  1.0
  H  H61  1  0.42517000  0.29601000  0.35432000  1.0
  H  H62  1  0.92517000  0.20400000  0.85432000  1.0
  H  H63  1  0.57483000  0.70399000  0.64568000  1.0
  H  H64  1  0.07428000  0.83142000  0.47434000  1.0
  H  H65  1  0.42571000  0.33141000  0.02566000  1.0
  H  H66  1  0.92572000  0.16858000  0.52566000  1.0
  H  H67  1  0.57429000  0.66859000  0.97434000  1.0
  H  H68  1  0.34228000  0.71044000  0.60936000  1.0
  H  H69  1  0.15772000  0.21045000  0.89064000  1.0
  H  H70  1  0.65772000  0.28956000  0.39064000  1.0
  H  H71  1  0.84228000  0.78955000  0.10936000  1.0
  H  H72  1  0.42925000  0.88567000  0.62024000  1.0
  H  H73  1  0.07075000  0.38569000  0.87977000  1.0
  H  H74  1  0.57075000  0.11433000  0.37976000  1.0
  H  H75  1  0.92925000  0.61431000  0.12023000  1.0
  H  H76  1  0.34817000  0.02929000  0.55131000  1.0
  H  H77  1  0.15182000  0.52931000  0.94870000  1.0
  H  H78  1  0.65183000  0.97071000  0.44869000  1.0
  H  H79  1  0.84818000  0.47069000  0.05130000  1.0
  C  C80  1  0.74100000  0.21509000  0.10163000  1.0
  C  C81  1  0.75900000  0.71510000  0.39837000  1.0
  C  C82  1  0.25900000  0.78491000  0.89837000  1.0
  C  C83  1  0.24100000  0.28490000  0.60163000  1.0
  C  C84  1  0.78600000  0.27275000  0.16317000  1.0
  C  C85  1  0.71400000  0.77275000  0.33683000  1.0
  C  C86  1  0.21400000  0.72725000  0.83683000  1.0
  C  C87  1  0.28600000  0.22725000  0.66317000  1.0
  C  C88  1  0.86186000  0.22288000  0.20951000  1.0
  C  C89  1  0.63814000  0.72287000  0.29049000  1.0
  C  C90  1  0.13814000  0.77712000  0.79049000  1.0
  C  C91  1  0.36186000  0.27713000  0.70951000  1.0
  C  C92  1  0.90375000  0.27554000  0.26810000  1.0
  C  C93  1  0.59625000  0.77553000  0.23190000  1.0
  C  C94  1  0.09625000  0.72446000  0.73190000  1.0
  C  C95  1  0.40375000  0.22447000  0.76810000  1.0
  C  C96  1  0.87010000  0.37846000  0.27889000  1.0
  C  C97  1  0.62989000  0.87845000  0.22111000  1.0
  C  C98  1  0.12990000  0.62154000  0.72111000  1.0
  C  C99  1  0.37011000  0.12155000  0.77889000  1.0
  C  C100  1  0.79460000  0.42708000  0.23268000  1.0
  C  C101  1  0.70539000  0.92706000  0.26732000  1.0
  C  C102  1  0.20540000  0.57292000  0.76732000  1.0
  C  C103  1  0.29461000  0.07293000  0.73268000  1.0
  C  C104  1  0.75160000  0.37427000  0.17476000  1.0
  C  C105  1  0.74839000  0.87427000  0.32524000  1.0
  C  C106  1  0.24840000  0.62573000  0.82524000  1.0
  C  C107  1  0.25161000  0.12573000  0.67476000  1.0
  C  C108  1  0.01382000  0.13564000  0.33055000  1.0
  C  C109  1  0.48618000  0.63563000  0.16945000  1.0
  C  C110  1  0.98618000  0.86435000  0.66945000  1.0
  C  C111  1  0.51382000  0.36437000  0.83055000  1.0
  C  C112  1  0.03067000  0.96644000  0.30921000  1.0
  C  C113  1  0.46933000  0.46644000  0.19079000  1.0
  C  C114  1  0.96933000  0.03356000  0.69079000  1.0
  C  C115  1  0.53067000  0.53356000  0.80921000  1.0
  C  C116  1  0.10629000  0.03031000  0.40862000  1.0
  C  C117  1  0.39372000  0.53031000  0.09139000  1.0
  C  C118  1  0.89372000  0.96969000  0.59138000  1.0
  C  C119  1  0.60628000  0.46969000  0.90861000  1.0
  C  C120  1  0.04900000  0.78797000  0.25909000  1.0
  C  C121  1  0.45100000  0.28798000  0.24092000  1.0
  C  C122  1  0.95100000  0.21203000  0.74091000  1.0
  C  C123  1  0.54900000  0.71202000  0.75908000  1.0
  C  C124  1  0.04897000  0.72428000  0.31861000  1.0
  C  C125  1  0.45102000  0.22428000  0.18140000  1.0
  C  C126  1  0.95103000  0.27572000  0.68139000  1.0
  C  C127  1  0.54898000  0.77572000  0.81860000  1.0
  C  C128  1  0.08629000  0.62259000  0.31091000  1.0
  C  C129  1  0.41371000  0.12260000  0.18909000  1.0
  C  C130  1  0.91371000  0.37741000  0.68909000  1.0
  C  C131  1  0.58629000  0.87740000  0.81091000  1.0
  C  C132  1  0.12324000  0.58377000  0.24475000  1.0
  C  C133  1  0.37677000  0.08378000  0.25524000  1.0
  C  C134  1  0.87677000  0.41623000  0.75525000  1.0
  C  C135  1  0.62322000  0.91622000  0.74476000  1.0
  C  C136  1  0.11686000  0.64607000  0.18542000  1.0
  C  C137  1  0.38314000  0.14608000  0.31458000  1.0
  C  C138  1  0.88314000  0.35393000  0.81458000  1.0
  C  C139  1  0.61686000  0.85392000  0.68542000  1.0
  C  C140  1  0.07941000  0.74723000  0.19233000  1.0
  C  C141  1  0.42059000  0.24724000  0.30767000  1.0
  C  C142  1  0.92059000  0.25277000  0.80767000  1.0
  C  C143  1  0.57941000  0.75276000  0.69233000  1.0
  C  C144  1  0.08590000  0.55261000  0.37312000  1.0
  C  C145  1  0.41411000  0.05262000  0.12688000  1.0
  C  C146  1  0.91410000  0.44739000  0.62688000  1.0
  C  C147  1  0.58589000  0.94738000  0.87312000  1.0
  C  C148  1  0.20881000  0.93893000  0.50591000  1.0
  C  C149  1  0.29118000  0.43893000  0.99409000  1.0
  C  C150  1  0.79119000  0.06107000  0.49409000  1.0
  C  C151  1  0.70882000  0.56107000  0.00591000  1.0
  C  C152  1  0.15496000  0.84271000  0.50361000  1.0
  C  C153  1  0.34504000  0.34271000  0.99639000  1.0
  C  C154  1  0.84504000  0.15729000  0.49639000  1.0
  C  C155  1  0.65496000  0.65729000  0.00361000  1.0
  C  C156  1  0.20513000  0.76097000  0.53984000  1.0
  C  C157  1  0.29486000  0.26098000  0.96016000  1.0
  C  C158  1  0.79487000  0.23903000  0.46016000  1.0
  C  C159  1  0.70514000  0.73902000  0.03984000  1.0
  C  C160  1  0.30599000  0.77479000  0.58048000  1.0
  C  C161  1  0.19401000  0.27481000  0.91953000  1.0
  C  C162  1  0.69401000  0.22521000  0.41952000  1.0
  C  C163  1  0.80599000  0.72519000  0.08047000  1.0
  C  C164  1  0.35475000  0.87236000  0.58595000  1.0
  C  C165  1  0.14525000  0.37238000  0.91406000  1.0
  C  C166  1  0.64525000  0.12764000  0.41406000  1.0
  C  C167  1  0.85475000  0.62762000  0.08594000  1.0
  C  C168  1  0.30830000  0.95351000  0.54799000  1.0
  C  C169  1  0.19169000  0.45352000  0.95202000  1.0
  C  C170  1  0.69170000  0.04649000  0.45201000  1.0
  C  C171  1  0.80831000  0.54648000  0.04798000  1.0
  C  C172  1  0.14387000  0.65993000  0.53713000  1.0
  C  C173  1  0.35612000  0.15993000  0.96288000  1.0
  C  C174  1  0.85613000  0.34007000  0.46288000  1.0
  C  C175  1  0.64388000  0.84007000  0.03712000  1.0
  N  N176  1  0.97776000  0.23332000  0.31854000  1.0
  N  N177  1  0.52225000  0.73331000  0.18145000  1.0
  N  N178  1  0.02224000  0.76668000  0.68146000  1.0
  N  N179  1  0.47776000  0.26669000  0.81855000  1.0
  N  N180  1  0.98809000  0.05813000  0.28785000  1.0
  N  N181  1  0.51191000  0.55813000  0.21216000  1.0
  N  N182  1  0.01191000  0.94187000  0.71215000  1.0
  N  N183  1  0.48809000  0.44187000  0.78784000  1.0
  N  N184  1  0.08396000  0.94608000  0.37036000  1.0
  N  N185  1  0.41603000  0.44609000  0.12964000  1.0
  N  N186  1  0.91604000  0.05392000  0.62964000  1.0
  N  N187  1  0.58396000  0.55391000  0.87036000  1.0
  N  N188  1  0.07854000  0.12645000  0.38964000  1.0
  N  N189  1  0.42146000  0.62645000  0.11035000  1.0
  N  N190  1  0.92146000  0.87355000  0.61036000  1.0
  N  N191  1  0.57854000  0.37355000  0.88965000  1.0
  N  N192  1  0.01458000  0.89101000  0.26069000  1.0
  N  N193  1  0.48541000  0.39101000  0.23931000  1.0
  N  N194  1  0.98542000  0.10899000  0.73931000  1.0
  N  N195  1  0.51459000  0.60899000  0.76069000  1.0
  N  N196  1  0.16326000  0.02464000  0.47116000  1.0
  N  N197  1  0.33674000  0.52464000  0.02885000  1.0
  N  N198  1  0.83674000  0.97536000  0.52884000  1.0
  N  N199  1  0.66326000  0.47536000  0.97115000  1.0
  O  O200  1  0.77117000  0.12079000  0.09376000  1.0
  O  O201  1  0.72884000  0.62080000  0.40625000  1.0
  O  O202  1  0.22884000  0.87921000  0.90624000  1.0
  O  O203  1  0.27116000  0.37920000  0.59375000  1.0
  O  O204  1  0.67217000  0.25777000  0.05747000  1.0
  O  O205  1  0.82782000  0.75776000  0.44253000  1.0
  O  O206  1  0.32783000  0.74224000  0.94253000  1.0
  O  O207  1  0.17218000  0.24224000  0.55747000  1.0
  O  O208  1  0.00649000  0.56431000  0.42262000  1.0
  O  O209  1  0.49351000  0.06432000  0.07738000  1.0
  O  O210  1  0.99351000  0.43569000  0.57738000  1.0
  O  O211  1  0.50649000  0.93568000  0.92262000  1.0
  O  O212  1  0.16383000  0.48245000  0.37587000  1.0
  O  O213  1  0.33618000  0.98246000  0.12412000  1.0
  O  O214  1  0.83617000  0.51755000  0.62413000  1.0
  O  O215  1  0.66382000  0.01754000  0.87588000  1.0
  O  O216  1  0.03124000  0.65999000  0.54973000  1.0
  O  O217  1  0.46876000  0.15998000  0.95026000  1.0
  O  O218  1  0.96876000  0.34001000  0.45027000  1.0
  O  O219  1  0.53124000  0.84002000  0.04974000  1.0
  O  O220  1  0.20499000  0.58037000  0.52336000  1.0
  O  O221  1  0.29501000  0.08038000  0.97663000  1.0
  O  O222  1  0.79501000  0.41963000  0.47664000  1.0
  O  O223  1  0.70499000  0.91962000  0.02336000  1.0
  O  O224  1  0.87246000  0.04824000  0.96947000  1.0
  O  O225  1  0.62753000  0.54826000  0.53053000  1.0
  O  O226  1  0.12753000  0.95176000  0.03053000  1.0
  O  O227  1  0.37247000  0.45174000  0.46947000  1.0
  O  O228  1  0.71656000  0.21690000  0.91367000  1.0
  O  O229  1  0.78344000  0.71691000  0.58633000  1.0
  O  O230  1  0.28344000  0.78310000  0.08633000  1.0
  O  O231  1  0.21656000  0.28309000  0.41367000  1.0
