# generated using pymatgen
data_H16RhC22N(O3F)2
_symmetry_space_group_name_H-M   'P 1'
_cell_length_a   9.48932000
_cell_length_b   10.28620000
_cell_length_c   12.33970000
_cell_angle_alpha   77.01360000
_cell_angle_beta   82.43110000
_cell_angle_gamma   82.11270000
_symmetry_Int_Tables_number   1
_chemical_formula_structural   H16RhC22N(O3F)2
_chemical_formula_sum   'H32 Rh2 C44 N2 O12 F4'
_cell_volume   1156.18994888
_cell_formula_units_Z   2
loop_
 _symmetry_equiv_pos_site_id
 _symmetry_equiv_pos_as_xyz
  1  'x, y, z'
loop_
 _atom_site_type_symbol
 _atom_site_label
 _atom_site_symmetry_multiplicity
 _atom_site_fract_x
 _atom_site_fract_y
 _atom_site_fract_z
 _atom_site_occupancy
  H  H0  1  0.15401000  0.85283000  0.62110000  1.0
  H  H1  1  0.84598000  0.14712000  0.37891000  1.0
  H  H2  1  0.25589000  0.78309000  0.51000000  1.0
  H  H3  1  0.74411000  0.21686000  0.49002000  1.0
  H  H4  1  0.27672000  0.94967000  0.52347000  1.0
  H  H5  1  0.72325000  0.05029000  0.47654000  1.0
  H  H6  1  0.47360000  0.86183000  0.42927000  1.0
  H  H7  1  0.52638000  0.13816000  0.57073000  1.0
  H  H8  1  0.90702000  0.71922000  0.49866000  1.0
  H  H9  1  0.09297000  0.28079000  0.50134000  1.0
  H  H10  1  0.82087000  0.64339000  0.70194000  1.0
  H  H11  1  0.17913000  0.35661000  0.29805000  1.0
  H  H12  1  0.67320000  0.04474000  0.08282000  1.0
  H  H13  1  0.32682000  0.95525000  0.91717000  1.0
  H  H14  1  0.59335000  0.04688000  0.22195000  1.0
  H  H15  1  0.40666000  0.95311000  0.77804000  1.0
  H  H16  1  0.49789000  0.13128000  0.10385000  1.0
  H  H17  1  0.50213000  0.86871000  0.89613000  1.0
  H  H18  1  0.35153000  0.07325000  0.26849000  1.0
  H  H19  1  0.64848000  0.92676000  0.73148000  1.0
  H  H20  1  0.99665000  0.84005000  0.32332000  1.0
  H  H21  1  0.00336000  0.15997000  0.67667000  1.0
  H  H22  1  0.13548000  0.68782000  0.20383000  1.0
  H  H23  1  0.86452000  0.31219000  0.79619000  1.0
  H  H24  1  0.22886000  0.72725000  0.85089000  1.0
  H  H25  1  0.77117000  0.27279000  0.14911000  1.0
  H  H26  1  0.08583000  0.94865000  0.85100000  1.0
  H  H27  1  0.91420000  0.05139000  0.14904000  1.0
  H  H28  1  0.84180000  0.96150000  0.95287000  1.0
  H  H29  1  0.15821000  0.03852000  0.04713000  1.0
  H  H30  1  0.73014000  0.75240000  0.04077000  1.0
  H  H31  1  0.26985000  0.24762000  0.95919000  1.0
  Rh  Rh32  1  0.38161000  0.49070000  0.97659000  1.0
  Rh  Rh33  1  0.61839000  0.50930000  0.02342000  1.0
  C  C34  1  0.55789000  0.64661000  0.80001000  1.0
  C  C35  1  0.44210000  0.35337000  0.19999000  1.0
  C  C36  1  0.60021000  0.70675000  0.68094000  1.0
  C  C37  1  0.39978000  0.29324000  0.31905000  1.0
  C  C38  1  0.49974000  0.77114000  0.60441000  1.0
  C  C39  1  0.50025000  0.22884000  0.39561000  1.0
  C  C40  1  0.25678000  0.84813000  0.56950000  1.0
  C  C41  1  0.74320000  0.15182000  0.43051000  1.0
  C  C42  1  0.54705000  0.81326000  0.49073000  1.0
  C  C43  1  0.45293000  0.18672000  0.50928000  1.0
  C  C44  1  0.69224000  0.79182000  0.45667000  1.0
  C  C45  1  0.30774000  0.20817000  0.54332000  1.0
  C  C46  1  0.79417000  0.73221000  0.52905000  1.0
  C  C47  1  0.20582000  0.26779000  0.47096000  1.0
  C  C48  1  0.74560000  0.69064000  0.64139000  1.0
  C  C49  1  0.25440000  0.30936000  0.35861000  1.0
  C  C50  1  0.39525000  0.69390000  0.10366000  1.0
  C  C51  1  0.60475000  0.30609000  0.89635000  1.0
  C  C52  1  0.32318000  0.78999000  0.17237000  1.0
  C  C53  1  0.67682000  0.21002000  0.82764000  1.0
  C  C54  1  0.38663000  0.90013000  0.18899000  1.0
  C  C55  1  0.61337000  0.09987000  0.81100000  1.0
  C  C56  1  0.57228000  0.04410000  0.13706000  1.0
  C  C57  1  0.42773000  0.95589000  0.86293000  1.0
  C  C58  1  0.30958000  0.98513000  0.25608000  1.0
  C  C59  1  0.69042000  0.01489000  0.74390000  1.0
  C  C60  1  0.17251000  0.95908000  0.30316000  1.0
  C  C61  1  0.82751000  0.04093000  0.69683000  1.0
  C  C62  1  0.10585000  0.85384000  0.28742000  1.0
  C  C63  1  0.89414000  0.14618000  0.71259000  1.0
  C  C64  1  0.18337000  0.77061000  0.22073000  1.0
  C  C65  1  0.81664000  0.22939000  0.77927000  1.0
  C  C66  1  0.06382000  0.61279000  0.94925000  1.0
  C  C67  1  0.93619000  0.38723000  0.05074000  1.0
  C  C68  1  0.12101000  0.73417000  0.89332000  1.0
  C  C69  1  0.87901000  0.26586000  0.10670000  1.0
  C  C70  1  0.04123000  0.85609000  0.89379000  1.0
  C  C71  1  0.95878000  0.14395000  0.10624000  1.0
  C  C72  1  0.90093000  0.86334000  0.95029000  1.0
  C  C73  1  0.09908000  0.13669000  0.04971000  1.0
  C  C74  1  0.83869000  0.74836000  0.99913000  1.0
  C  C75  1  0.16131000  0.25167000  0.00084000  1.0
  C  C76  1  0.91668000  0.62008000  0.99762000  1.0
  C  C77  1  0.08333000  0.37995000  0.00236000  1.0
  N  N78  1  0.14716000  0.49308000  0.95659000  1.0
  N  N79  1  0.85285000  0.50694000  0.04339000  1.0
  O  O80  1  0.43206000  0.60971000  0.82519000  1.0
  O  O81  1  0.56792000  0.39028000  0.17482000  1.0
  O  O82  1  0.65310000  0.63156000  0.86809000  1.0
  O  O83  1  0.34690000  0.36842000  0.13191000  1.0
  O  O84  1  0.36140000  0.79272000  0.64611000  1.0
  O  O85  1  0.63859000  0.20726000  0.35390000  1.0
  O  O86  1  0.31049000  0.64378000  0.05536000  1.0
  O  O87  1  0.68951000  0.35621000  0.94465000  1.0
  O  O88  1  0.53112000  0.66478000  0.09899000  1.0
  O  O89  1  0.46888000  0.33521000  0.90101000  1.0
  O  O90  1  0.51755000  0.92149000  0.13477000  1.0
  O  O91  1  0.48246000  0.07850000  0.86521000  1.0
  F  F92  1  0.73642000  0.83420000  0.34563000  1.0
  F  F93  1  0.26355000  0.16577000  0.65437000  1.0
  F  F94  1  0.09839000  0.04356000  0.36734000  1.0
  F  F95  1  0.90163000  0.95647000  0.63264000  1.0
