# generated using pymatgen
data_SrH6C8SO8
_symmetry_space_group_name_H-M   'P 1'
_cell_length_a   6.89411000
_cell_length_b   12.86380000
_cell_length_c   12.97090000
_cell_angle_alpha   64.31300000
_cell_angle_beta   90.00010000
_cell_angle_gamma   90.00010000
_symmetry_Int_Tables_number   1
_chemical_formula_structural   SrH6C8SO8
_chemical_formula_sum   'Sr4 H24 C32 S4 O32'
_cell_volume   1036.63751902
_cell_formula_units_Z   4
loop_
 _symmetry_equiv_pos_site_id
 _symmetry_equiv_pos_as_xyz
  1  'x, y, z'
loop_
 _atom_site_type_symbol
 _atom_site_label
 _atom_site_symmetry_multiplicity
 _atom_site_fract_x
 _atom_site_fract_y
 _atom_site_fract_z
 _atom_site_occupancy
  Sr  Sr0  1  0.78031000  0.27098000  0.59131000  1.0
  Sr  Sr1  1  0.28031000  0.22903000  0.40869000  1.0
  Sr  Sr2  1  0.21969000  0.72903000  0.40869000  1.0
  Sr  Sr3  1  0.71969000  0.77098000  0.59131000  1.0
  H  H4  1  0.08927000  0.45218000  0.62634000  1.0
  H  H5  1  0.58927000  0.04782000  0.37366000  1.0
  H  H6  1  0.91072000  0.54782000  0.37366000  1.0
  H  H7  1  0.41072000  0.95218000  0.62634000  1.0
  H  H8  1  0.87233000  0.48516000  0.64457000  1.0
  H  H9  1  0.37233000  0.01484000  0.35543000  1.0
  H  H10  1  0.12767000  0.51484000  0.35543000  1.0
  H  H11  1  0.62767000  0.98516000  0.64457000  1.0
  H  H12  1  0.04087000  0.66242000  0.20508000  1.0
  H  H13  1  0.54087000  0.83759000  0.79492000  1.0
  H  H14  1  0.95913000  0.33758000  0.79492000  1.0
  H  H15  1  0.45913000  0.16242000  0.20508000  1.0
  H  H16  1  0.01214000  0.81962000  0.90382000  1.0
  H  H17  1  0.51214000  0.68038000  0.09618000  1.0
  H  H18  1  0.98786000  0.18038000  0.09618000  1.0
  H  H19  1  0.48786000  0.31962000  0.90382000  1.0
  H  H20  1  0.32085000  0.00967000  0.05517000  1.0
  H  H21  1  0.82085000  0.49033000  0.94483000  1.0
  H  H22  1  0.67914000  0.99033000  0.94483000  1.0
  H  H23  1  0.17914000  0.50967000  0.05517000  1.0
  H  H24  1  0.39647000  0.16448000  0.85991000  1.0
  H  H25  1  0.89647000  0.33552000  0.14009000  1.0
  H  H26  1  0.60353000  0.83552000  0.14009000  1.0
  H  H27  1  0.10353000  0.66448000  0.85991000  1.0
  C  C28  1  0.12931000  0.98418000  0.78687000  1.0
  C  C29  1  0.62931000  0.51582000  0.21313000  1.0
  C  C30  1  0.87069000  0.01582000  0.21313000  1.0
  C  C31  1  0.37069000  0.48418000  0.78687000  1.0
  C  C32  1  0.09559000  0.89488000  0.89493000  1.0
  C  C33  1  0.59559000  0.60511000  0.10507000  1.0
  C  C34  1  0.90441000  0.10511000  0.10508000  1.0
  C  C35  1  0.40441000  0.39489000  0.89493000  1.0
  C  C36  1  0.16757000  0.90409000  0.99162000  1.0
  C  C37  1  0.66757000  0.59591000  0.00837000  1.0
  C  C38  1  0.83243000  0.09591000  0.00838000  1.0
  C  C39  1  0.33243000  0.40409000  0.99162000  1.0
  C  C40  1  0.27085000  0.00281000  0.97879000  1.0
  C  C41  1  0.77085000  0.49719000  0.02121000  1.0
  C  C42  1  0.72915000  0.99719000  0.02121000  1.0
  C  C43  1  0.22915000  0.50281000  0.97879000  1.0
  C  C44  1  0.31074000  0.08934000  0.87063000  1.0
  C  C45  1  0.81074000  0.41066000  0.12937000  1.0
  C  C46  1  0.68926000  0.91066000  0.12937000  1.0
  C  C47  1  0.18926000  0.58934000  0.87063000  1.0
  C  C48  1  0.24070000  0.08094000  0.77348000  1.0
  C  C49  1  0.74069000  0.41906000  0.22652000  1.0
  C  C50  1  0.75930000  0.91906000  0.22652000  1.0
  C  C51  1  0.25931000  0.58094000  0.77348000  1.0
  C  C52  1  0.28470000  0.17481000  0.65657000  1.0
  C  C53  1  0.78470000  0.32519000  0.34343000  1.0
  C  C54  1  0.71530000  0.82519000  0.34343000  1.0
  C  C55  1  0.21530000  0.67481000  0.65657000  1.0
  C  C56  1  0.13648000  0.81435000  0.11001000  1.0
  C  C57  1  0.63648000  0.68564000  0.88998000  1.0
  C  C58  1  0.86352000  0.18564000  0.88999000  1.0
  C  C59  1  0.36352000  0.31436000  0.11001000  1.0
  S  S60  1  0.02447000  0.97872000  0.66333000  1.0
  S  S61  1  0.52447000  0.52128000  0.33667000  1.0
  S  S62  1  0.97553000  0.02128000  0.33667000  1.0
  S  S63  1  0.47553000  0.47872000  0.66333000  1.0
  O  O64  1  0.85619000  0.05757000  0.63168000  1.0
  O  O65  1  0.35619000  0.44244000  0.36832000  1.0
  O  O66  1  0.14381000  0.94244000  0.36832000  1.0
  O  O67  1  0.64381000  0.55756000  0.63168000  1.0
  O  O68  1  0.96049000  0.41962000  0.65782000  1.0
  O  O69  1  0.46049000  0.08038000  0.34218000  1.0
  O  O70  1  0.03951000  0.58038000  0.34218000  1.0
  O  O71  1  0.53951000  0.91962000  0.65782000  1.0
  O  O72  1  0.17817000  0.02036000  0.57489000  1.0
  O  O73  1  0.67817000  0.47964000  0.42511000  1.0
  O  O74  1  0.82183000  0.97964000  0.42511000  1.0
  O  O75  1  0.32183000  0.52036000  0.57489000  1.0
  O  O76  1  0.96799000  0.85911000  0.69623000  1.0
  O  O77  1  0.46799000  0.64089000  0.30378000  1.0
  O  O78  1  0.03201000  0.14089000  0.30377000  1.0
  O  O79  1  0.53201000  0.35911000  0.69623000  1.0
  O  O80  1  0.14974000  0.24299000  0.60171000  1.0
  O  O81  1  0.64975000  0.25701000  0.39829000  1.0
  O  O82  1  0.85025000  0.75701000  0.39829000  1.0
  O  O83  1  0.35026000  0.74299000  0.60171000  1.0
  O  O84  1  0.45350000  0.17660000  0.61663000  1.0
  O  O85  1  0.95350000  0.32340000  0.38337000  1.0
  O  O86  1  0.54650000  0.82340000  0.38337000  1.0
  O  O87  1  0.04650000  0.67660000  0.61663000  1.0
  O  O88  1  0.05316000  0.71714000  0.11976000  1.0
  O  O89  1  0.55316000  0.78285000  0.88024000  1.0
  O  O90  1  0.94684000  0.28286000  0.88024000  1.0
  O  O91  1  0.44684000  0.21714000  0.11976000  1.0
  O  O92  1  0.18739000  0.83102000  0.19324000  1.0
  O  O93  1  0.68739000  0.66898000  0.80676000  1.0
  O  O94  1  0.81261000  0.16898000  0.80676000  1.0
  O  O95  1  0.31261000  0.33102000  0.19324000  1.0
