# generated using pymatgen
data_CdH14C22SN3O4
_symmetry_space_group_name_H-M   'P 1'
_cell_length_a   7.72873000
_cell_length_b   9.85552000
_cell_length_c   12.62110000
_cell_angle_alpha   92.08330000
_cell_angle_beta   92.83820000
_cell_angle_gamma   99.29020000
_symmetry_Int_Tables_number   1
_chemical_formula_structural   CdH14C22SN3O4
_chemical_formula_sum   'Cd2 H28 C44 S2 N6 O8'
_cell_volume   946.62433630
_cell_formula_units_Z   2
loop_
 _symmetry_equiv_pos_site_id
 _symmetry_equiv_pos_as_xyz
  1  'x, y, z'
loop_
 _atom_site_type_symbol
 _atom_site_label
 _atom_site_symmetry_multiplicity
 _atom_site_fract_x
 _atom_site_fract_y
 _atom_site_fract_z
 _atom_site_occupancy
  Cd  Cd0  1  0.30769000  0.14780000  0.49019000  1.0
  Cd  Cd1  1  0.69231000  0.85221000  0.50981000  1.0
  H  H2  1  0.75693000  0.31555000  0.54553000  1.0
  H  H3  1  0.24307000  0.68445000  0.45447000  1.0
  H  H4  1  0.64151000  0.59520000  0.28375000  1.0
  H  H5  1  0.35849000  0.40480000  0.71624000  1.0
  H  H6  1  0.86163000  0.11149000  0.35490000  1.0
  H  H7  1  0.13837000  0.88852000  0.64510000  1.0
  H  H8  1  0.61792000  0.15805000  0.23334000  1.0
  H  H9  1  0.38208000  0.84195000  0.76666000  1.0
  H  H10  1  0.66193000  0.34386000  0.10570000  1.0
  H  H11  1  0.33807000  0.65614000  0.89430000  1.0
  H  H12  1  0.95005000  0.49773000  0.10021000  1.0
  H  H13  1  0.04995000  0.50227000  0.89979000  1.0
  H  H14  1  0.40102000  0.64501000  0.24121000  1.0
  H  H15  1  0.59898000  0.35499000  0.75879000  1.0
  H  H16  1  0.20786000  0.62513000  0.15984000  1.0
  H  H17  1  0.79214000  0.37487000  0.84016000  1.0
  H  H18  1  0.24136000  0.33881000  0.05353000  1.0
  H  H19  1  0.75864000  0.66119000  0.94647000  1.0
  H  H20  1  0.60418000  0.71812000  0.10522000  1.0
  H  H21  1  0.39582000  0.28188000  0.89477000  1.0
  H  H22  1  0.14555000  0.15951000  0.80327000  1.0
  H  H23  1  0.85445000  0.84049000  0.19674000  1.0
  H  H24  1  0.04747000  0.14232000  0.99011000  1.0
  H  H25  1  0.95252000  0.85768000  0.00989000  1.0
  H  H26  1  0.72920000  0.08833000  0.02019000  1.0
  H  H27  1  0.27080000  0.91167000  0.97981000  1.0
  H  H28  1  0.51054000  0.05425000  0.86611000  1.0
  H  H29  1  0.48945000  0.94575000  0.13389000  1.0
  C  C30  1  0.69899000  0.36936000  0.48294000  1.0
  C  C31  1  0.30102000  0.63063000  0.51705000  1.0
  C  C32  1  0.63354000  0.51620000  0.34138000  1.0
  C  C33  1  0.36646000  0.48380000  0.65862000  1.0
  C  C34  1  0.49476000  0.41725000  0.36565000  1.0
  C  C35  1  0.50524000  0.58275000  0.63435000  1.0
  C  C36  1  0.31638000  0.38349000  0.31949000  1.0
  C  C37  1  0.68362000  0.61651000  0.68051000  1.0
  C  C38  1  0.04709000  0.27498000  0.29266000  1.0
  C  C39  1  0.95291000  0.72502000  0.70735000  1.0
  C  C40  1  0.88366000  0.19052000  0.29674000  1.0
  C  C41  1  0.11634000  0.80948000  0.70326000  1.0
  C  C42  1  0.74808000  0.21824000  0.22828000  1.0
  C  C43  1  0.25192000  0.78176000  0.77172000  1.0
  C  C44  1  0.77240000  0.32583000  0.15713000  1.0
  C  C45  1  0.22760000  0.67417000  0.84287000  1.0
  C  C46  1  0.93305000  0.41226000  0.15318000  1.0
  C  C47  1  0.06695000  0.58775000  0.84682000  1.0
  C  C48  1  0.06814000  0.38522000  0.22279000  1.0
  C  C49  1  0.93186000  0.61478000  0.77721000  1.0
  C  C50  1  0.31627000  0.57169000  0.18556000  1.0
  C  C51  1  0.68373000  0.42831000  0.81444000  1.0
  C  C52  1  0.41196000  0.53284000  0.09036000  1.0
  C  C53  1  0.58805000  0.46716000  0.90964000  1.0
  C  C54  1  0.35475000  0.41004000  0.03031000  1.0
  C  C55  1  0.64525000  0.58996000  0.96969000  1.0
  C  C56  1  0.55824000  0.62221000  0.05906000  1.0
  C  C57  1  0.44176000  0.37779000  0.94094000  1.0
  C  C58  1  0.95500000  0.12444000  0.62146000  1.0
  C  C59  1  0.04500000  0.87556000  0.37854000  1.0
  C  C60  1  0.88548000  0.11609000  0.73127000  1.0
  C  C61  1  0.11453000  0.88390000  0.26873000  1.0
  C  C62  1  0.00682000  0.13674000  0.81927000  1.0
  C  C63  1  0.99318000  0.86325000  0.18073000  1.0
  C  C64  1  0.95196000  0.12730000  0.92250000  1.0
  C  C65  1  0.04805000  0.87270000  0.07750000  1.0
  C  C66  1  0.77273000  0.09551000  0.93943000  1.0
  C  C67  1  0.22727000  0.90448000  0.06057000  1.0
  C  C68  1  0.65070000  0.07621000  0.85300000  1.0
  C  C69  1  0.34930000  0.92379000  0.14700000  1.0
  C  C70  1  0.70483000  0.08703000  0.74863000  1.0
  C  C71  1  0.29517000  0.91297000  0.25137000  1.0
  C  C72  1  0.56154000  0.07446000  0.66133000  1.0
  C  C73  1  0.43847000  0.92554000  0.33867000  1.0
  S  S74  1  0.81387000  0.50542000  0.42188000  1.0
  S  S75  1  0.18613000  0.49458000  0.57812000  1.0
  N  N76  1  0.20376000  0.27667000  0.35117000  1.0
  N  N77  1  0.79624000  0.72334000  0.64883000  1.0
  N  N78  1  0.53511000  0.33638000  0.44739000  1.0
  N  N79  1  0.46489000  0.66362000  0.55261000  1.0
  N  N80  1  0.23901000  0.45308000  0.24249000  1.0
  N  N81  1  0.76099000  0.54692000  0.75751000  1.0
  O  O82  1  0.11219000  0.18734000  0.61621000  1.0
  O  O83  1  0.88781000  0.81266000  0.38379000  1.0
  O  O84  1  0.85641000  0.07126000  0.54235000  1.0
  O  O85  1  0.14359000  0.92875000  0.45765000  1.0
  O  O86  1  0.50430000  0.95862000  0.61557000  1.0
  O  O87  1  0.49571000  0.04138000  0.38444000  1.0
  O  O88  1  0.49783000  0.18371000  0.64449000  1.0
  O  O89  1  0.50218000  0.81628000  0.35551000  1.0
