# generated using pymatgen
data_CuH4C3N7
_symmetry_space_group_name_H-M   'P 1'
_cell_length_a   7.78982000
_cell_length_b   9.48084000
_cell_length_c   9.48077000
_cell_angle_alpha   67.95660000
_cell_angle_beta   80.28640000
_cell_angle_gamma   80.28670000
_symmetry_Int_Tables_number   1
_chemical_formula_structural   CuH4C3N7
_chemical_formula_sum   'Cu4 H16 C12 N28'
_cell_volume   635.43347629
_cell_formula_units_Z   4
loop_
 _symmetry_equiv_pos_site_id
 _symmetry_equiv_pos_as_xyz
  1  'x, y, z'
loop_
 _atom_site_type_symbol
 _atom_site_label
 _atom_site_symmetry_multiplicity
 _atom_site_fract_x
 _atom_site_fract_y
 _atom_site_fract_z
 _atom_site_occupancy
  Cu  Cu0  1  0.64082000  0.98267000  0.61495000  1.0
  Cu  Cu1  1  0.85918000  0.38506000  0.01733000  1.0
  Cu  Cu2  1  0.35918000  0.01733000  0.38507000  1.0
  Cu  Cu3  1  0.14082000  0.61494000  0.98267000  1.0
  H  H4  1  0.69698000  0.92761000  0.93113000  1.0
  H  H5  1  0.80303000  0.06889000  0.07239000  1.0
  H  H6  1  0.30301000  0.07240000  0.06888000  1.0
  H  H7  1  0.19696000  0.93113000  0.92761000  1.0
  H  H8  1  0.68465000  0.25587000  0.43941000  1.0
  H  H9  1  0.81535000  0.56060000  0.74411000  1.0
  H  H10  1  0.31535000  0.74411000  0.56060000  1.0
  H  H11  1  0.18466000  0.43941000  0.25587000  1.0
  H  H12  1  0.83978000  0.37975000  0.42498000  1.0
  H  H13  1  0.66022000  0.57501000  0.62024000  1.0
  H  H14  1  0.16022000  0.62024000  0.57501000  1.0
  H  H15  1  0.33980000  0.42499000  0.37975000  1.0
  H  H16  1  0.61449000  0.43568000  0.46138000  1.0
  H  H17  1  0.88551000  0.53861000  0.56431000  1.0
  H  H18  1  0.38551000  0.56431000  0.53861000  1.0
  H  H19  1  0.11450000  0.46138000  0.43568000  1.0
  C  C20  1  0.72886000  0.26227000  0.65409000  1.0
  C  C21  1  0.77113000  0.34592000  0.73772000  1.0
  C  C22  1  0.27115000  0.73773000  0.34591000  1.0
  C  C23  1  0.22887000  0.65408000  0.26227000  1.0
  C  C24  1  0.72341000  0.04639000  0.87480000  1.0
  C  C25  1  0.77658000  0.12522000  0.95361000  1.0
  C  C26  1  0.27657000  0.95361000  0.12521000  1.0
  C  C27  1  0.22341000  0.87479000  0.04640000  1.0
  C  C28  1  0.71562000  0.33650000  0.48661000  1.0
  C  C29  1  0.78437000  0.51339000  0.66349000  1.0
  C  C30  1  0.28438000  0.66348000  0.51339000  1.0
  C  C31  1  0.21564000  0.48661000  0.33650000  1.0
  N  N32  1  0.70146000  0.11439000  0.72536000  1.0
  N  N33  1  0.79854000  0.27464000  0.88562000  1.0
  N  N34  1  0.29854000  0.88561000  0.27465000  1.0
  N  N35  1  0.20146000  0.72538000  0.11438000  1.0
  N  N36  1  0.59694000  0.90627000  0.44578000  1.0
  N  N37  1  0.90306000  0.55423000  0.09372000  1.0
  N  N38  1  0.40305000  0.09372000  0.55423000  1.0
  N  N39  1  0.09694000  0.44579000  0.90627000  1.0
  N  N40  1  0.72467000  0.86563000  0.37109000  1.0
  N  N41  1  0.77533000  0.62891000  0.13438000  1.0
  N  N42  1  0.27532000  0.13438000  0.62891000  1.0
  N  N43  1  0.22467000  0.37109000  0.86563000  1.0
  N  N44  1  0.85183000  0.82518000  0.30682000  1.0
  N  N45  1  0.64817000  0.69317000  0.17484000  1.0
  N  N46  1  0.14816000  0.17484000  0.69317000  1.0
  N  N47  1  0.35183000  0.30682000  0.82518000  1.0
  N  N48  1  0.88368000  0.87890000  0.60258000  1.0
  N  N49  1  0.61632000  0.39741000  0.12110000  1.0
  N  N50  1  0.11632000  0.12110000  0.39742000  1.0
  N  N51  1  0.38368000  0.60259000  0.87890000  1.0
  N  N52  1  0.97236000  0.85276000  0.70238000  1.0
  N  N53  1  0.52764000  0.29761000  0.14725000  1.0
  N  N54  1  0.02764000  0.14725000  0.29762000  1.0
  N  N55  1  0.47236000  0.70238000  0.85276000  1.0
  N  N56  1  0.06462000  0.82752000  0.79736000  1.0
  N  N57  1  0.43539000  0.20263000  0.17248000  1.0
  N  N58  1  0.93538000  0.17248000  0.20263000  1.0
  N  N59  1  0.56462000  0.79735000  0.82753000  1.0
