# generated using pymatgen
data_SmPH15C7NO7
_symmetry_space_group_name_H-M   'P 1'
_cell_length_a   5.48393000
_cell_length_b   12.17020000
_cell_length_c   20.36420000
_cell_angle_alpha   89.99990000
_cell_angle_beta   91.16680000
_cell_angle_gamma   89.99970000
_symmetry_Int_Tables_number   1
_chemical_formula_structural   SmPH15C7NO7
_chemical_formula_sum   'Sm4 P4 H60 C28 N4 O28'
_cell_volume   1358.83558482
_cell_formula_units_Z   4
loop_
 _symmetry_equiv_pos_site_id
 _symmetry_equiv_pos_as_xyz
  1  'x, y, z'
loop_
 _atom_site_type_symbol
 _atom_site_label
 _atom_site_symmetry_multiplicity
 _atom_site_fract_x
 _atom_site_fract_y
 _atom_site_fract_z
 _atom_site_occupancy
  Sm  Sm0  1  0.36649000  0.14992000  0.97429000  1.0
  Sm  Sm1  1  0.63351000  0.64991000  0.52571000  1.0
  Sm  Sm2  1  0.63349000  0.85009000  0.02571000  1.0
  Sm  Sm3  1  0.36651000  0.35009000  0.47429000  1.0
  P  P4  1  0.12422000  0.02452000  0.08979000  1.0
  P  P5  1  0.87578000  0.52451000  0.41021000  1.0
  P  P6  1  0.87577000  0.97549000  0.91021000  1.0
  P  P7  1  0.12423000  0.47549000  0.58979000  1.0
  H  H8  1  0.79264000  0.18599000  0.06635000  1.0
  H  H9  1  0.20736000  0.68598000  0.43365000  1.0
  H  H10  1  0.20736000  0.81402000  0.93365000  1.0
  H  H11  1  0.79266000  0.31402000  0.56635000  1.0
  H  H12  1  0.56305000  0.19147000  0.11252000  1.0
  H  H13  1  0.43695000  0.69147000  0.38747000  1.0
  H  H14  1  0.43694000  0.80854000  0.88747000  1.0
  H  H15  1  0.56308000  0.30855000  0.61253000  1.0
  H  H16  1  0.19691000  0.38527000  0.94797000  1.0
  H  H17  1  0.80309000  0.88527000  0.55203000  1.0
  H  H18  1  0.80305000  0.61473000  0.05203000  1.0
  H  H19  1  0.19695000  0.11473000  0.44798000  1.0
  H  H20  1  0.95337000  0.31461000  0.95924000  1.0
  H  H21  1  0.04663000  0.81461000  0.54076000  1.0
  H  H22  1  0.04659000  0.68539000  0.04075000  1.0
  H  H23  1  0.95341000  0.18539000  0.45925000  1.0
  H  H24  1  0.28785000  0.95844000  0.19038000  1.0
  H  H25  1  0.71217000  0.45843000  0.30961000  1.0
  H  H26  1  0.71216000  0.04156000  0.80961000  1.0
  H  H27  1  0.28783000  0.54156000  0.69039000  1.0
  H  H28  1  0.39338000  0.09240000  0.17720000  1.0
  H  H29  1  0.60663000  0.59240000  0.32280000  1.0
  H  H30  1  0.60661000  0.90760000  0.82280000  1.0
  H  H31  1  0.39339000  0.40760000  0.67720000  1.0
  H  H32  1  0.23983000  0.06870000  0.30847000  1.0
  H  H33  1  0.76019000  0.56870000  0.19153000  1.0
  H  H34  1  0.76018000  0.93129000  0.69153000  1.0
  H  H35  1  0.23979000  0.43130000  0.80847000  1.0
  H  H36  1  0.07779000  0.94840000  0.28310000  1.0
  H  H37  1  0.92224000  0.44840000  0.21690000  1.0
  H  H38  1  0.92220000  0.05159000  0.71690000  1.0
  H  H39  1  0.07776000  0.55160000  0.78310000  1.0
  H  H40  1  0.88192000  0.03980000  0.37796000  1.0
  H  H41  1  0.11810000  0.53980000  0.12204000  1.0
  H  H42  1  0.11809000  0.96020000  0.62204000  1.0
  H  H43  1  0.88187000  0.46020000  0.87795000  1.0
  H  H44  1  0.68501000  0.03451000  0.30792000  1.0
  H  H45  1  0.31500000  0.53452000  0.19208000  1.0
  H  H46  1  0.31499000  0.96548000  0.69208000  1.0
  H  H47  1  0.68498000  0.46548000  0.80792000  1.0
  H  H48  1  0.00394000  0.23232000  0.34581000  1.0
  H  H49  1  0.99606000  0.73233000  0.15419000  1.0
  H  H50  1  0.99609000  0.76767000  0.65418000  1.0
  H  H51  1  0.00391000  0.26767000  0.84581000  1.0
  H  H52  1  0.76851000  0.32459000  0.25462000  1.0
  H  H53  1  0.23149000  0.82459000  0.24539000  1.0
  H  H54  1  0.23150000  0.67540000  0.74539000  1.0
  H  H55  1  0.76851000  0.17540000  0.75461000  1.0
  H  H56  1  0.62142000  0.19937000  0.23626000  1.0
  H  H57  1  0.37858000  0.69937000  0.26374000  1.0
  H  H58  1  0.37857000  0.80063000  0.76375000  1.0
  H  H59  1  0.62143000  0.30062000  0.73625000  1.0
  H  H60  1  0.98722000  0.22571000  0.16522000  1.0
  H  H61  1  0.01278000  0.72571000  0.33478000  1.0
  H  H62  1  0.01277000  0.77428000  0.83478000  1.0
  H  H63  1  0.98724000  0.27428000  0.66521000  1.0
  H  H64  1  0.17575000  0.24048000  0.23676000  1.0
  H  H65  1  0.82425000  0.74048000  0.26324000  1.0
  H  H66  1  0.82425000  0.75952000  0.76324000  1.0
  H  H67  1  0.17575000  0.25952000  0.73676000  1.0
  C  C68  1  0.22602000  0.04065000  0.17513000  1.0
  C  C69  1  0.77399000  0.54065000  0.32487000  1.0
  C  C70  1  0.77397000  0.95935000  0.82487000  1.0
  C  C71  1  0.22603000  0.45935000  0.67513000  1.0
  C  C72  1  0.06666000  0.03830000  0.28521000  1.0
  C  C73  1  0.93335000  0.53830000  0.21479000  1.0
  C  C74  1  0.93334000  0.96169000  0.71479000  1.0
  C  C75  1  0.06664000  0.46170000  0.78520000  1.0
  C  C76  1  0.85412000  0.07174000  0.32788000  1.0
  C  C77  1  0.14590000  0.57175000  0.17212000  1.0
  C  C78  1  0.14589000  0.92825000  0.67212000  1.0
  C  C79  1  0.85409000  0.42825000  0.82788000  1.0
  C  C80  1  0.82910000  0.19740000  0.32760000  1.0
  C  C81  1  0.17090000  0.69740000  0.17240000  1.0
  C  C82  1  0.17091000  0.80260000  0.67240000  1.0
  C  C83  1  0.82909000  0.30260000  0.82759000  1.0
  C  C84  1  0.79068000  0.23521000  0.25684000  1.0
  C  C85  1  0.20933000  0.73521000  0.24316000  1.0
  C  C86  1  0.20933000  0.76479000  0.74317000  1.0
  C  C87  1  0.79067000  0.26479000  0.75683000  1.0
  C  C88  1  0.00856000  0.19952000  0.21658000  1.0
  C  C89  1  0.99145000  0.69952000  0.28342000  1.0
  C  C90  1  0.99143000  0.80048000  0.78343000  1.0
  C  C91  1  0.00856000  0.30048000  0.71657000  1.0
  C  C92  1  0.64152000  0.23695000  0.37554000  1.0
  C  C93  1  0.35850000  0.73697000  0.12446000  1.0
  C  C94  1  0.35850000  0.76305000  0.62446000  1.0
  C  C95  1  0.64150000  0.26305000  0.87553000  1.0
  N  N96  1  0.03578000  0.07965000  0.21811000  1.0
  N  N97  1  0.96423000  0.57964000  0.28189000  1.0
  N  N98  1  0.96422000  0.92035000  0.78189000  1.0
  N  N99  1  0.03577000  0.42035000  0.71811000  1.0
  O  O100  1  0.34912000  0.98556000  0.05074000  1.0
  O  O101  1  0.65087000  0.48556000  0.44926000  1.0
  O  O102  1  0.65085000  0.01444000  0.94926000  1.0
  O  O103  1  0.34916000  0.51444000  0.55074000  1.0
  O  O104  1  0.06130000  0.13880000  0.05991000  1.0
  O  O105  1  0.93871000  0.63879000  0.44009000  1.0
  O  O106  1  0.93870000  0.86121000  0.94009000  1.0
  O  O107  1  0.06130000  0.36121000  0.55991000  1.0
  O  O108  1  0.91591000  0.94228000  0.08831000  1.0
  O  O109  1  0.08407000  0.44226000  0.41169000  1.0
  O  O110  1  0.08405000  0.05774000  0.91169000  1.0
  O  O111  1  0.91595000  0.55774000  0.58831000  1.0
  O  O112  1  0.68032000  0.21572000  0.43743000  1.0
  O  O113  1  0.31969000  0.71572000  0.06257000  1.0
  O  O114  1  0.31973000  0.78429000  0.56257000  1.0
  O  O115  1  0.68029000  0.28428000  0.93742000  1.0
  O  O116  1  0.45549000  0.29158000  0.35765000  1.0
  O  O117  1  0.54448000  0.79160000  0.14235000  1.0
  O  O118  1  0.54454000  0.70841000  0.64236000  1.0
  O  O119  1  0.45546000  0.20841000  0.85764000  1.0
  O  O120  1  0.61676000  0.21247000  0.06907000  1.0
  O  O121  1  0.38324000  0.71246000  0.43092000  1.0
  O  O122  1  0.38324000  0.78754000  0.93092000  1.0
  O  O123  1  0.61677000  0.28755000  0.56909000  1.0
  O  O124  1  0.13414000  0.32209000  0.97130000  1.0
  O  O125  1  0.86585000  0.82209000  0.52870000  1.0
  O  O126  1  0.86582000  0.67792000  0.02870000  1.0
  O  O127  1  0.13419000  0.17792000  0.47131000  1.0
