# generated using pymatgen
data_ZnH12C22N4(ClO3)2
_symmetry_space_group_name_H-M   'P 1'
_cell_length_a   7.30489000
_cell_length_b   9.07885000
_cell_length_c   15.29660000
_cell_angle_alpha   89.99970000
_cell_angle_beta   87.50630000
_cell_angle_gamma   89.99940000
_symmetry_Int_Tables_number   1
_chemical_formula_structural   ZnH12C22N4(ClO3)2
_chemical_formula_sum   'Zn2 H24 C44 N8 Cl4 O12'
_cell_volume   1013.50982908
_cell_formula_units_Z   2
loop_
 _symmetry_equiv_pos_site_id
 _symmetry_equiv_pos_as_xyz
  1  'x, y, z'
loop_
 _atom_site_type_symbol
 _atom_site_label
 _atom_site_symmetry_multiplicity
 _atom_site_fract_x
 _atom_site_fract_y
 _atom_site_fract_z
 _atom_site_occupancy
  Zn  Zn0  1  0.50000000  0.00000000  0.50000000  1.0
  Zn  Zn1  1  0.00000000  0.50000000  0.50000000  1.0
  H  H2  1  0.64561000  0.49562000  0.61318000  1.0
  H  H3  1  0.85440000  0.99561000  0.38682000  1.0
  H  H4  1  0.35441000  0.50438000  0.38683000  1.0
  H  H5  1  0.14561000  0.00438000  0.61318000  1.0
  H  H6  1  0.47020000  0.27239000  0.74514000  1.0
  H  H7  1  0.02979000  0.77238000  0.25486000  1.0
  H  H8  1  0.52980000  0.72762000  0.25486000  1.0
  H  H9  1  0.97021000  0.22762000  0.74514000  1.0
  H  H10  1  0.65295000  0.68176000  0.66961000  1.0
  H  H11  1  0.84705000  0.18174000  0.33038000  1.0
  H  H12  1  0.34706000  0.31825000  0.33039000  1.0
  H  H13  1  0.15295000  0.81825000  0.66962000  1.0
  H  H14  1  0.35900000  0.89173000  0.94195000  1.0
  H  H15  1  0.14099000  0.39172000  0.05806000  1.0
  H  H16  1  0.64098000  0.10828000  0.05805000  1.0
  H  H17  1  0.85900000  0.60828000  0.94195000  1.0
  H  H18  1  0.63582000  0.95085000  0.68761000  1.0
  H  H19  1  0.86418000  0.45084000  0.31239000  1.0
  H  H20  1  0.36418000  0.04915000  0.31239000  1.0
  H  H21  1  0.13582000  0.54916000  0.68761000  1.0
  H  H22  1  0.48623000  0.05941000  0.82415000  1.0
  H  H23  1  0.01377000  0.55939000  0.17585000  1.0
  H  H24  1  0.51376000  0.94061000  0.17584000  1.0
  H  H25  1  0.98623000  0.44061000  0.82416000  1.0
  C  C26  1  0.58356000  0.27043000  0.58469000  1.0
  C  C27  1  0.91644000  0.77042000  0.41530000  1.0
  C  C28  1  0.41645000  0.72957000  0.41531000  1.0
  C  C29  1  0.08357000  0.22957000  0.58470000  1.0
  C  C30  1  0.66255000  0.28503000  0.48973000  1.0
  C  C31  1  0.83746000  0.78501000  0.51027000  1.0
  C  C32  1  0.33746000  0.71498000  0.51027000  1.0
  C  C33  1  0.16255000  0.21498000  0.48973000  1.0
  C  C34  1  0.58786000  0.39526000  0.64131000  1.0
  C  C35  1  0.91213000  0.89525000  0.35868000  1.0
  C  C36  1  0.41215000  0.60475000  0.35870000  1.0
  C  C37  1  0.08788000  0.10474000  0.64131000  1.0
  C  C38  1  0.43100000  0.69675000  0.86884000  1.0
  C  C39  1  0.06900000  0.19674000  0.13116000  1.0
  C  C40  1  0.56899000  0.30326000  0.13116000  1.0
  C  C41  1  0.93100000  0.80326000  0.86884000  1.0
  C  C42  1  0.51772000  0.38261000  0.72599000  1.0
  C  C43  1  0.98227000  0.88260000  0.27400000  1.0
  C  C44  1  0.48228000  0.61739000  0.27402000  1.0
  C  C45  1  0.01773000  0.11740000  0.72600000  1.0
  C  C46  1  0.48721000  0.48698000  0.79255000  1.0
  C  C47  1  0.01278000  0.98696000  0.20744000  1.0
  C  C48  1  0.51279000  0.51303000  0.20746000  1.0
  C  C49  1  0.98722000  0.01303000  0.79255000  1.0
  C  C50  1  0.40101000  0.46299000  0.87674000  1.0
  C  C51  1  0.09899000  0.96298000  0.12325000  1.0
  C  C52  1  0.59899000  0.53702000  0.12326000  1.0
  C  C53  1  0.90100000  0.03702000  0.87675000  1.0
  C  C54  1  0.58472000  0.73095000  0.72695000  1.0
  C  C55  1  0.91527000  0.23094000  0.27304000  1.0
  C  C56  1  0.41527000  0.26906000  0.27304000  1.0
  C  C57  1  0.08473000  0.76906000  0.72696000  1.0
  C  C58  1  0.42231000  0.84913000  0.88145000  1.0
  C  C59  1  0.07769000  0.34911000  0.11855000  1.0
  C  C60  1  0.57769000  0.15088000  0.11855000  1.0
  C  C61  1  0.92230000  0.65088000  0.88145000  1.0
  C  C62  1  0.57680000  0.88090000  0.73915000  1.0
  C  C63  1  0.92318000  0.38088000  0.26085000  1.0
  C  C64  1  0.42318000  0.11911000  0.26085000  1.0
  C  C65  1  0.07682000  0.61911000  0.73916000  1.0
  C  C66  1  0.49300000  0.94047000  0.81575000  1.0
  C  C67  1  0.00699000  0.44046000  0.18425000  1.0
  C  C68  1  0.50699000  0.05954000  0.18425000  1.0
  C  C69  1  0.99300000  0.55954000  0.81575000  1.0
  N  N70  1  0.50855000  0.64086000  0.79006000  1.0
  N  N71  1  0.99145000  0.14085000  0.20993000  1.0
  N  N72  1  0.49144000  0.35914000  0.20994000  1.0
  N  N73  1  0.00855000  0.85914000  0.79007000  1.0
  N  N74  1  0.36824000  0.58582000  0.92212000  1.0
  N  N75  1  0.13176000  0.08581000  0.07788000  1.0
  N  N76  1  0.63175000  0.41420000  0.07789000  1.0
  N  N77  1  0.86823000  0.91419000  0.92212000  1.0
  Cl  Cl78  1  0.33423000  0.29500000  0.91626000  1.0
  Cl  Cl79  1  0.16576000  0.79499000  0.08373000  1.0
  Cl  Cl80  1  0.66577000  0.70501000  0.08374000  1.0
  Cl  Cl81  1  0.83423000  0.20502000  0.91626000  1.0
  O  O82  1  0.51589000  0.14718000  0.60720000  1.0
  O  O83  1  0.98412000  0.64717000  0.39280000  1.0
  O  O84  1  0.48411000  0.85282000  0.39281000  1.0
  O  O85  1  0.01590000  0.35282000  0.60720000  1.0
  O  O86  1  0.64021000  0.17325000  0.44073000  1.0
  O  O87  1  0.85979000  0.67326000  0.55926000  1.0
  O  O88  1  0.35980000  0.82674000  0.55927000  1.0
  O  O89  1  0.14022000  0.32673000  0.44073000  1.0
  O  O90  1  0.74216000  0.40227000  0.46584000  1.0
  O  O91  1  0.75784000  0.90229000  0.53416000  1.0
  O  O92  1  0.25785000  0.59772000  0.53416000  1.0
  O  O93  1  0.24216000  0.09770000  0.46584000  1.0
