# generated using pymatgen
data_Cu2H8C7N6
_symmetry_space_group_name_H-M   'P 1'
_cell_length_a   11.19880000
_cell_length_b   14.28004788
_cell_length_c   15.31648890
_cell_angle_alpha   65.92337117
_cell_angle_beta   68.57327871
_cell_angle_gamma   66.91699716
_symmetry_Int_Tables_number   1
_chemical_formula_structural   Cu2H8C7N6
_chemical_formula_sum   'Cu16 H64 C56 N48'
_cell_volume   1994.81885897
_cell_formula_units_Z   8
loop_
 _symmetry_equiv_pos_site_id
 _symmetry_equiv_pos_as_xyz
  1  'x, y, z'
loop_
 _atom_site_type_symbol
 _atom_site_label
 _atom_site_symmetry_multiplicity
 _atom_site_fract_x
 _atom_site_fract_y
 _atom_site_fract_z
 _atom_site_occupancy
  Cu  Cu0  1  0.32576000  0.74997000  0.25009000  1.0
  Cu  Cu1  1  0.67424000  0.25003000  0.74991000  1.0
  Cu  Cu2  1  0.12463000  0.96621000  0.54966000  1.0
  Cu  Cu3  1  0.64053000  0.53378000  0.95045000  1.0
  Cu  Cu4  1  0.87538000  0.03379000  0.45034000  1.0
  Cu  Cu5  1  0.35948000  0.46622000  0.04954000  1.0
  Cu  Cu6  1  0.08550000  0.70040000  0.67222000  1.0
  Cu  Cu7  1  0.45818000  0.79959000  0.82790000  1.0
  Cu  Cu8  1  0.91450000  0.29960000  0.32778000  1.0
  Cu  Cu9  1  0.54182000  0.20041000  0.17210000  1.0
  Cu  Cu10  1  0.21900000  0.37227000  0.49102000  1.0
  Cu  Cu11  1  0.08219000  0.12771000  0.00895000  1.0
  Cu  Cu12  1  0.78099000  0.62774000  0.50898000  1.0
  Cu  Cu13  1  0.91782000  0.87228000  0.99105000  1.0
  Cu  Cu14  1  0.11118000  0.24999000  0.75003000  1.0
  Cu  Cu15  1  0.88882000  0.75001000  0.24997000  1.0
  H  H16  1  0.26925000  0.03006000  0.33234000  1.0
  H  H17  1  0.63194000  0.47001000  0.16782000  1.0
  H  H18  1  0.73075000  0.96994000  0.66766000  1.0
  H  H19  1  0.36806000  0.52999000  0.83218000  1.0
  H  H20  1  0.23980000  0.00010000  0.24146000  1.0
  H  H21  1  0.48170000  0.49998000  0.25864000  1.0
  H  H22  1  0.76020000  0.99990000  0.75854000  1.0
  H  H23  1  0.51830000  0.50002000  0.74136000  1.0
  H  H24  1  0.39799000  0.93957000  0.27027000  1.0
  H  H25  1  0.60811000  0.56050000  0.22995000  1.0
  H  H26  1  0.60201000  0.06043000  0.72973000  1.0
  H  H27  1  0.39189000  0.43950000  0.77005000  1.0
  H  H28  1  0.26131000  0.57978000  0.42126000  1.0
  H  H29  1  0.26246000  0.92026000  0.07884000  1.0
  H  H30  1  0.73868000  0.42021000  0.57875000  1.0
  H  H31  1  0.73755000  0.07974000  0.92116000  1.0
  H  H32  1  0.08724000  0.63962000  0.44710000  1.0
  H  H33  1  0.17418000  0.86038000  0.05291000  1.0
  H  H34  1  0.91276000  0.36038000  0.55290000  1.0
  H  H35  1  0.82582000  0.13962000  0.94709000  1.0
  H  H36  1  0.13794000  0.35518000  0.87256000  1.0
  H  H37  1  0.36575000  0.14475000  0.62744000  1.0
  H  H38  1  0.86206000  0.64482000  0.12744000  1.0
  H  H39  1  0.63424000  0.85525000  0.37256000  1.0
  H  H40  1  0.00364000  0.47522000  0.86852000  1.0
  H  H41  1  0.34739000  0.02468000  0.63165000  1.0
  H  H42  1  0.99635000  0.52478000  0.13148000  1.0
  H  H43  1  0.65261000  0.97532000  0.36835000  1.0
  H  H44  1  0.16733000  0.47807000  0.85181000  1.0
  H  H45  1  0.49728000  0.02183000  0.64827000  1.0
  H  H46  1  0.83267000  0.52193000  0.14819000  1.0
  H  H47  1  0.50272000  0.97817000  0.35173000  1.0
  H  H48  1  0.17625000  0.28281000  0.35306000  1.0
  H  H49  1  0.81193000  0.21703000  0.14694000  1.0
  H  H50  1  0.82374000  0.71719000  0.64694000  1.0
  H  H51  1  0.18807000  0.78297000  0.85306000  1.0
  H  H52  1  0.12867000  0.16798000  0.37653000  1.0
  H  H53  1  0.67313000  0.33191000  0.12339000  1.0
  H  H54  1  0.87133000  0.83202000  0.62347000  1.0
  H  H55  1  0.32687000  0.66809000  0.87661000  1.0
  H  H56  1  0.29564000  0.15489000  0.37089000  1.0
  H  H57  1  0.82129000  0.34488000  0.12925000  1.0
  H  H58  1  0.70436000  0.84511000  0.62911000  1.0
  H  H59  1  0.17871000  0.65512000  0.87075000  1.0
  H  H60  1  0.08755000  0.02705000  0.80698000  1.0
  H  H61  1  0.92143000  0.47299000  0.69306000  1.0
  H  H62  1  0.91245000  0.97295000  0.19302000  1.0
  H  H63  1  0.07857000  0.52701000  0.30693000  1.0
  H  H64  1  0.92561000  0.09333000  0.79187000  1.0
  H  H65  1  0.81068000  0.40669000  0.70814000  1.0
  H  H66  1  0.07440000  0.90667000  0.20812000  1.0
  H  H67  1  0.18931000  0.59331000  0.29186000  1.0
  H  H68  1  0.88602000  0.66106000  0.86245000  1.0
  H  H69  1  0.40949000  0.83911000  0.63740000  1.0
  H  H70  1  0.11398000  0.33894000  0.13755000  1.0
  H  H71  1  0.59051000  0.16089000  0.36260000  1.0
  H  H72  1  0.77648000  0.74414000  0.93793000  1.0
  H  H73  1  0.45864000  0.75600000  0.56194000  1.0
  H  H74  1  0.22351000  0.25587000  0.06207000  1.0
  H  H75  1  0.54136000  0.24400000  0.43806000  1.0
  H  H76  1  0.93447000  0.66041000  0.96151000  1.0
  H  H77  1  0.55648000  0.83964000  0.53850000  1.0
  H  H78  1  0.06552000  0.33959000  0.03849000  1.0
  H  H79  1  0.44352000  0.16036000  0.46150000  1.0
  C  C80  1  0.28980000  0.96651000  0.30193000  1.0
  C  C81  1  0.55859000  0.53357000  0.19821000  1.0
  C  C82  1  0.71020000  0.03349000  0.69807000  1.0
  C  C83  1  0.44141000  0.46643000  0.80179000  1.0
  C  C84  1  0.24136000  0.87670000  0.38056000  1.0
  C  C85  1  0.49892000  0.62337000  0.11957000  1.0
  C  C86  1  0.75864000  0.12330000  0.61944000  1.0
  C  C87  1  0.50108000  0.37663000  0.88043000  1.0
  C  C88  1  0.19731000  0.72444000  0.45587000  1.0
  C  C89  1  0.37784000  0.77558000  0.04425000  1.0
  C  C90  1  0.80269000  0.27556000  0.54413000  1.0
  C  C91  1  0.62217000  0.22442000  0.95574000  1.0
  C  C92  1  0.17804000  0.62101000  0.47112000  1.0
  C  C93  1  0.27035000  0.87903000  0.02897000  1.0
  C  C94  1  0.82196000  0.37899000  0.52888000  1.0
  C  C95  1  0.72966000  0.12097000  0.97103000  1.0
  C  C96  1  0.16625000  0.54284000  0.57244000  1.0
  C  C97  1  0.28171000  0.95718000  0.92764000  1.0
  C  C98  1  0.83374000  0.45716000  0.42757000  1.0
  C  C99  1  0.71829000  0.04282000  0.07236000  1.0
  C  C100  1  0.13666000  0.46325000  0.72867000  1.0
  C  C101  1  0.32876000  0.03678000  0.77139000  1.0
  C  C102  1  0.86333000  0.53675000  0.27134000  1.0
  C  C103  1  0.67123000  0.96323000  0.22861000  1.0
  C  C104  1  0.11019000  0.44186000  0.83631000  1.0
  C  C105  1  0.38845000  0.05810000  0.66376000  1.0
  C  C106  1  0.88981000  0.55814000  0.16369000  1.0
  C  C107  1  0.61155000  0.94190000  0.33624000  1.0
  C  C108  1  0.18994000  0.19787000  0.39502000  1.0
  C  C109  1  0.78277000  0.30198000  0.10497000  1.0
  C  C110  1  0.81006000  0.80213000  0.60498000  1.0
  C  C111  1  0.21723000  0.69802000  0.89503000  1.0
  C  C112  1  0.14861000  0.18147000  0.50260000  1.0
  C  C113  1  0.83262000  0.31845000  0.99741000  1.0
  C  C114  1  0.85139000  0.81853000  0.49740000  1.0
  C  C115  1  0.16738000  0.68155000  0.00259000  1.0
  C  C116  1  0.07559000  0.11311000  0.65877000  1.0
  C  C117  1  0.84738000  0.38690000  0.84125000  1.0
  C  C118  1  0.92441000  0.88689000  0.34123000  1.0
  C  C119  1  0.15262000  0.61310000  0.15875000  1.0
  C  C120  1  0.02299000  0.04425000  0.75940000  1.0
  C  C121  1  0.82650000  0.45577000  0.74062000  1.0
  C  C122  1  0.97702000  0.95575000  0.24060000  1.0
  C  C123  1  0.17350000  0.54422000  0.25938000  1.0
  C  C124  1  0.00561000  0.94168000  0.76908000  1.0
  C  C125  1  0.71623000  0.55834000  0.73096000  1.0
  C  C126  1  0.99439000  0.05832000  0.23092000  1.0
  C  C127  1  0.28378000  0.44165000  0.26904000  1.0
  C  C128  1  0.94330000  0.79803000  0.83329000  1.0
  C  C129  1  0.57451000  0.70206000  0.66675000  1.0
  C  C130  1  0.05668000  0.20198000  0.16671000  1.0
  C  C131  1  0.42550000  0.29794000  0.33325000  1.0
  C  C132  1  0.88166000  0.71121000  0.90263000  1.0
  C  C133  1  0.49549000  0.78892000  0.59732000  1.0
  C  C134  1  0.11833000  0.28880000  0.09737000  1.0
  C  C135  1  0.50451000  0.21108000  0.40268000  1.0
  N  N136  1  0.25159000  0.78574000  0.36546000  1.0
  N  N137  1  0.40302000  0.71429000  0.13467000  1.0
  N  N138  1  0.74843000  0.21425000  0.63453000  1.0
  N  N139  1  0.59698000  0.28571000  0.86533000  1.0
  N  N140  1  0.18400000  0.87119000  0.47542000  1.0
  N  N141  1  0.53083000  0.62882000  0.02473000  1.0
  N  N142  1  0.81600000  0.12881000  0.52458000  1.0
  N  N143  1  0.46917000  0.37118000  0.97527000  1.0
  N  N144  1  0.15688000  0.77322000  0.52330000  1.0
  N  N145  1  0.45354000  0.72682000  0.97683000  1.0
  N  N146  1  0.84312000  0.22678000  0.47670000  1.0
  N  N147  1  0.54644000  0.27319000  0.02317000  1.0
  N  N148  1  0.13546000  0.56148000  0.65945000  1.0
  N  N149  1  0.35660000  0.93855000  0.84064000  1.0
  N  N150  1  0.86454000  0.43852000  0.34055000  1.0
  N  N151  1  0.64340000  0.06145000  0.15936000  1.0
  N  N152  1  0.18364000  0.43995000  0.58654000  1.0
  N  N153  1  0.21022000  0.06006000  0.91348000  1.0
  N  N154  1  0.81636000  0.56005000  0.41346000  1.0
  N  N155  1  0.78980000  0.93994000  0.08651000  1.0
  N  N156  1  0.16365000  0.38861000  0.68709000  1.0
  N  N157  1  0.23942000  0.11140000  0.81295000  1.0
  N  N158  1  0.83634000  0.61139000  0.31291000  1.0
  N  N159  1  0.76058000  0.88861000  0.18705000  1.0
  N  N160  1  0.09363000  0.20554000  0.64627000  1.0
  N  N161  1  0.94537000  0.29447000  0.85373000  1.0
  N  N162  1  0.90637000  0.79446000  0.35373000  1.0
  N  N163  1  0.05462000  0.70552000  0.14628000  1.0
  N  N164  1  0.14100000  0.24933000  0.54563000  1.0
  N  N165  1  0.93591000  0.25063000  0.95435000  1.0
  N  N166  1  0.85900000  0.75067000  0.45437000  1.0
  N  N167  1  0.06409000  0.74937000  0.04565000  1.0
  N  N168  1  0.10963000  0.09468000  0.57080000  1.0
  N  N169  1  0.77503000  0.40529000  0.92921000  1.0
  N  N170  1  0.89038000  0.90532000  0.42920000  1.0
  N  N171  1  0.22497000  0.59471000  0.07078000  1.0
  N  N172  1  0.93963000  0.88244000  0.85550000  1.0
  N  N173  1  0.67744000  0.61765000  0.64451000  1.0
  N  N174  1  0.06037000  0.11756000  0.14450000  1.0
  N  N175  1  0.32256000  0.38235000  0.35549000  1.0
  N  N176  1  0.01113000  0.80315000  0.73980000  1.0
  N  N177  1  0.55399000  0.69689000  0.76025000  1.0
  N  N178  1  0.98887000  0.19685000  0.26020000  1.0
  N  N179  1  0.44602000  0.30311000  0.23975000  1.0
  N  N180  1  0.04991000  0.89585000  0.69835000  1.0
  N  N181  1  0.64402000  0.60411000  0.80173000  1.0
  N  N182  1  0.95009000  0.10415000  0.30165000  1.0
  N  N183  1  0.35599000  0.39589000  0.19827000  1.0
