# generated using pymatgen
data_CdH18C21(N3O4)2
_symmetry_space_group_name_H-M   'P 1'
_cell_length_a   10.43810000
_cell_length_b   11.23440000
_cell_length_c   13.61420000
_cell_angle_alpha   108.76700000
_cell_angle_beta   105.93900000
_cell_angle_gamma   100.29400000
_symmetry_Int_Tables_number   1
_chemical_formula_structural   CdH18C21(N3O4)2
_chemical_formula_sum   'Cd2 H36 C42 N12 O16'
_cell_volume   1389.55590284
_cell_formula_units_Z   2
loop_
 _symmetry_equiv_pos_site_id
 _symmetry_equiv_pos_as_xyz
  1  'x, y, z'
loop_
 _atom_site_type_symbol
 _atom_site_label
 _atom_site_symmetry_multiplicity
 _atom_site_fract_x
 _atom_site_fract_y
 _atom_site_fract_z
 _atom_site_occupancy
  Cd  Cd0  1  0.11358000  0.28530000  0.00325000  1.0
  Cd  Cd1  1  0.88642000  0.71469000  0.99676000  1.0
  H  H2  1  0.52251000  0.62797000  0.70723000  1.0
  H  H3  1  0.47751000  0.37204000  0.29276000  1.0
  H  H4  1  0.25453000  0.22726000  0.18945000  1.0
  H  H5  1  0.74552000  0.77273000  0.81055000  1.0
  H  H6  1  0.10048000  0.14010000  0.15340000  1.0
  H  H7  1  0.89957000  0.85988000  0.84661000  1.0
  H  H8  1  0.23451000  0.37944000  0.89251000  1.0
  H  H9  1  0.76547000  0.62055000  0.10749000  1.0
  H  H10  1  0.15681000  0.49041000  0.91062000  1.0
  H  H11  1  0.84318000  0.50960000  0.08939000  1.0
  H  H12  1  0.17928000  0.94265000  0.23993000  1.0
  H  H13  1  0.82072000  0.05735000  0.76007000  1.0
  H  H14  1  0.17794000  0.95268000  0.36597000  1.0
  H  H15  1  0.82205000  0.04733000  0.63403000  1.0
  H  H16  1  0.68939000  0.32465000  0.50794000  1.0
  H  H17  1  0.31062000  0.67535000  0.49205000  1.0
  H  H18  1  0.70438000  0.54801000  0.63895000  1.0
  H  H19  1  0.29565000  0.45198000  0.36102000  1.0
  H  H20  1  0.29155000  0.42734000  0.60699000  1.0
  H  H21  1  0.70849000  0.57268000  0.39301000  1.0
  H  H22  1  0.25976000  0.19739000  0.47826000  1.0
  H  H23  1  0.74026000  0.80262000  0.52174000  1.0
  H  H24  1  0.15291000  0.74757000  0.28495000  1.0
  H  H25  1  0.84706000  0.25243000  0.71505000  1.0
  H  H26  1  0.05609000  0.51014000  0.17100000  1.0
  H  H27  1  0.94388000  0.48985000  0.82900000  1.0
  H  H28  1  0.41703000  0.48845000  0.10362000  1.0
  H  H29  1  0.58294000  0.51154000  0.89638000  1.0
  H  H30  1  0.53461000  0.72669000  0.22051000  1.0
  H  H31  1  0.46535000  0.27329000  0.77948000  1.0
  H  H32  1  0.60901000  0.30218000  0.00391000  1.0
  H  H33  1  0.39099000  0.69782000  0.99611000  1.0
  H  H34  1  0.28791000  0.93026000  0.82921000  1.0
  H  H35  1  0.71209000  0.06974000  0.17080000  1.0
  H  H36  1  0.71519000  0.94984000  0.86700000  1.0
  H  H37  1  0.28482000  0.05017000  0.13302000  1.0
  C  C38  1  0.59962000  0.34408000  0.52870000  1.0
  C  C39  1  0.40040000  0.65592000  0.47127000  1.0
  C  C40  1  0.60771000  0.46730000  0.60044000  1.0
  C  C41  1  0.39232000  0.53271000  0.39954000  1.0
  C  C42  1  0.37659000  0.39910000  0.58267000  1.0
  C  C43  1  0.62344000  0.60092000  0.41732000  1.0
  C  C44  1  0.35942000  0.27218000  0.51111000  1.0
  C  C45  1  0.64061000  0.72783000  0.48888000  1.0
  C  C46  1  0.47398000  0.24236000  0.48445000  1.0
  C  C47  1  0.52604000  0.75765000  0.51553000  1.0
  C  C48  1  0.47624000  0.11066000  0.42244000  1.0
  C  C49  1  0.52376000  0.88934000  0.57755000  1.0
  C  C50  1  0.42467000  0.89871000  0.32696000  1.0
  C  C51  1  0.57531000  0.10128000  0.67305000  1.0
  C  C52  1  0.35384000  0.75945000  0.26188000  1.0
  C  C53  1  0.64614000  0.24054000  0.73812000  1.0
  C  C54  1  0.21731000  0.69637000  0.24766000  1.0
  C  C55  1  0.78267000  0.30363000  0.75235000  1.0
  C  C56  1  0.16134000  0.56254000  0.18370000  1.0
  C  C57  1  0.83863000  0.43746000  0.81631000  1.0
  C  C58  1  0.36427000  0.54982000  0.14768000  1.0
  C  C59  1  0.63570000  0.45017000  0.85232000  1.0
  C  C60  1  0.42858000  0.68234000  0.21193000  1.0
  C  C61  1  0.57139000  0.31764000  0.78807000  1.0
  C  C62  1  0.67817000  0.13349000  0.93938000  1.0
  C  C63  1  0.32183000  0.86652000  0.06063000  1.0
  C  C64  1  0.57851000  0.19609000  0.95925000  1.0
  C  C65  1  0.42148000  0.80392000  0.04075000  1.0
  C  C66  1  0.43793000  0.12369000  0.91858000  1.0
  C  C67  1  0.56207000  0.87631000  0.08141000  1.0
  C  C68  1  0.39716000  0.98719000  0.86102000  1.0
  C  C69  1  0.60284000  0.01282000  0.13898000  1.0
  C  C70  1  0.49699000  0.92331000  0.84208000  1.0
  C  C71  1  0.50301000  0.07669000  0.15793000  1.0
  C  C72  1  0.63652000  0.99720000  0.88139000  1.0
  C  C73  1  0.36348000  0.00281000  0.11862000  1.0
  C  C74  1  0.82549000  0.21080000  0.96971000  1.0
  C  C75  1  0.17451000  0.78921000  0.03030000  1.0
  C  C76  1  0.33381000  0.19742000  0.93393000  1.0
  C  C77  1  0.66619000  0.80258000  0.06607000  1.0
  C  C78  1  0.45293000  0.77839000  0.77616000  1.0
  C  C79  1  0.54708000  0.22162000  0.22385000  1.0
  N  N80  1  0.49875000  0.49415000  0.62771000  1.0
  N  N81  1  0.50128000  0.50586000  0.37226000  1.0
  N  N82  1  0.59532000  0.07931000  0.43008000  1.0
  N  N83  1  0.40467000  0.92067000  0.56991000  1.0
  N  N84  1  0.56321000  0.94817000  0.36985000  1.0
  N  N85  1  0.43678000  0.05181000  0.63014000  1.0
  N  N86  1  0.36598000  0.99893000  0.35819000  1.0
  N  N87  1  0.63401000  0.00107000  0.64181000  1.0
  N  N88  1  0.22557000  0.99634000  0.32471000  1.0
  N  N89  1  0.77442000  0.00367000  0.67529000  1.0
  N  N90  1  0.23211000  0.49073000  0.13304000  1.0
  N  N91  1  0.76786000  0.50926000  0.86697000  1.0
  O  O92  1  0.87298000  0.33058000  0.03377000  1.0
  O  O93  1  0.12702000  0.66943000  0.96625000  1.0
  O  O94  1  0.89933000  0.14660000  0.92273000  1.0
  O  O95  1  0.10067000  0.85343000  0.07729000  1.0
  O  O96  1  0.55979000  0.73016000  0.76539000  1.0
  O  O97  1  0.44020000  0.26984000  0.23460000  1.0
  O  O98  1  0.33102000  0.70927000  0.73388000  1.0
  O  O99  1  0.66899000  0.29073000  0.26615000  1.0
  O  O100  1  0.21961000  0.13657000  0.93702000  1.0
  O  O101  1  0.78038000  0.86343000  0.06298000  1.0
  O  O102  1  0.36621000  0.31629000  0.94373000  1.0
  O  O103  1  0.63376000  0.68370000  0.05626000  1.0
  O  O104  1  0.15579000  0.22748000  0.16750000  1.0
  O  O105  1  0.84425000  0.77250000  0.83250000  1.0
  O  O106  1  0.14100000  0.39486000  0.87618000  1.0
  O  O107  1  0.85899000  0.60514000  0.12383000  1.0
