# generated using pymatgen
data_ZnH4CSN
_symmetry_space_group_name_H-M   'P 1'
_cell_length_a   6.16701000
_cell_length_b   6.29554000
_cell_length_c   17.08430000
_cell_angle_alpha   89.99990000
_cell_angle_beta   90.00060000
_cell_angle_gamma   89.99980000
_symmetry_Int_Tables_number   1
_chemical_formula_structural   ZnH4CSN
_chemical_formula_sum   'Zn8 H32 C8 S8 N8'
_cell_volume   663.29210694
_cell_formula_units_Z   8
loop_
 _symmetry_equiv_pos_site_id
 _symmetry_equiv_pos_as_xyz
  1  'x, y, z'
loop_
 _atom_site_type_symbol
 _atom_site_label
 _atom_site_symmetry_multiplicity
 _atom_site_fract_x
 _atom_site_fract_y
 _atom_site_fract_z
 _atom_site_occupancy
  Zn  Zn0  1  0.67835000  0.90258000  0.79607000  1.0
  Zn  Zn1  1  0.67835000  0.40258000  0.70393000  1.0
  Zn  Zn2  1  0.17835000  0.59742000  0.79607000  1.0
  Zn  Zn3  1  0.82166000  0.90258000  0.29607000  1.0
  Zn  Zn4  1  0.32165000  0.09742000  0.20393000  1.0
  Zn  Zn5  1  0.32165000  0.59742000  0.29606000  1.0
  Zn  Zn6  1  0.82166000  0.40257000  0.20393000  1.0
  Zn  Zn7  1  0.17835000  0.09742000  0.70393000  1.0
  H  H8  1  0.36292000  0.03389000  0.87718000  1.0
  H  H9  1  0.36290000  0.53389000  0.62282000  1.0
  H  H10  1  0.86291000  0.46612000  0.87718000  1.0
  H  H11  1  0.13711000  0.03388000  0.37718000  1.0
  H  H12  1  0.63711000  0.96611000  0.12282000  1.0
  H  H13  1  0.63711000  0.46611000  0.37718000  1.0
  H  H14  1  0.13710000  0.53388000  0.12282000  1.0
  H  H15  1  0.86291000  0.96611000  0.62282000  1.0
  H  H16  1  0.55240000  0.21766000  0.88844000  1.0
  H  H17  1  0.55240000  0.71766000  0.61156000  1.0
  H  H18  1  0.05241000  0.28235000  0.88844000  1.0
  H  H19  1  0.94760000  0.21767000  0.38844000  1.0
  H  H20  1  0.44760000  0.78235000  0.11157000  1.0
  H  H21  1  0.44760000  0.28234000  0.38844000  1.0
  H  H22  1  0.94760000  0.71765000  0.11156000  1.0
  H  H23  1  0.05240000  0.78236000  0.61156000  1.0
  H  H24  1  0.74474000  0.00013000  0.98209000  1.0
  H  H25  1  0.74475000  0.50014000  0.51791000  1.0
  H  H26  1  0.24476000  0.49989000  0.98208000  1.0
  H  H27  1  0.75522000  0.00013000  0.48208000  1.0
  H  H28  1  0.25523000  0.99986000  0.01792000  1.0
  H  H29  1  0.25524000  0.49986000  0.48208000  1.0
  H  H30  1  0.75524000  0.50012000  0.01791000  1.0
  H  H31  1  0.24474000  0.99989000  0.51792000  1.0
  H  H32  1  0.56475000  0.78889000  0.96095000  1.0
  H  H33  1  0.56475000  0.28891000  0.53906000  1.0
  H  H34  1  0.06473000  0.71111000  0.96094000  1.0
  H  H35  1  0.93526000  0.78890000  0.46094000  1.0
  H  H36  1  0.43524000  0.21109000  0.03906000  1.0
  H  H37  1  0.43524000  0.71110000  0.46094000  1.0
  H  H38  1  0.93527000  0.28889000  0.03906000  1.0
  H  H39  1  0.06473000  0.21110000  0.53906000  1.0
  C  C40  1  0.57521000  0.96271000  0.96731000  1.0
  C  C41  1  0.57521000  0.46271000  0.53269000  1.0
  C  C42  1  0.07521000  0.53731000  0.96730000  1.0
  C  C43  1  0.92480000  0.96271000  0.46731000  1.0
  C  C44  1  0.42480000  0.03731000  0.03270000  1.0
  C  C45  1  0.42479000  0.53730000  0.46731000  1.0
  C  C46  1  0.92479000  0.46270000  0.03269000  1.0
  C  C47  1  0.07521000  0.03731000  0.53270000  1.0
  S  S48  1  0.04830000  0.94209000  0.81762000  1.0
  S  S49  1  0.04830000  0.44209000  0.68238000  1.0
  S  S50  1  0.54830000  0.55792000  0.81761000  1.0
  S  S51  1  0.45171000  0.94208000  0.31762000  1.0
  S  S52  1  0.95170000  0.05791000  0.18238000  1.0
  S  S53  1  0.95171000  0.55791000  0.31762000  1.0
  S  S54  1  0.45171000  0.44208000  0.18238000  1.0
  S  S55  1  0.54830000  0.05792000  0.68239000  1.0
  N  N56  1  0.52502000  0.05629000  0.89067000  1.0
  N  N57  1  0.52504000  0.55631000  0.60934000  1.0
  N  N58  1  0.02505000  0.44370000  0.89066000  1.0
  N  N59  1  0.97495000  0.05630000  0.39065000  1.0
  N  N60  1  0.47493000  0.94367000  0.10935000  1.0
  N  N61  1  0.47495000  0.44369000  0.39065000  1.0
  N  N62  1  0.97496000  0.55629000  0.10934000  1.0
  N  N63  1  0.02503000  0.94369000  0.60933000  1.0
