# generated using pymatgen
data_AlH11C15NO6
_symmetry_space_group_name_H-M   'P 1'
_cell_length_a   6.63280000
_cell_length_b   15.38772066
_cell_length_c   16.91110000
_cell_angle_alpha   95.04883321
_cell_angle_beta   96.56580000
_cell_angle_gamma   101.71295077
_symmetry_Int_Tables_number   1
_chemical_formula_structural   AlH11C15NO6
_chemical_formula_sum   'Al2 H22 C30 N2 O12'
_cell_volume   1667.97349264
_cell_formula_units_Z   2
loop_
 _symmetry_equiv_pos_site_id
 _symmetry_equiv_pos_as_xyz
  1  'x, y, z'
loop_
 _atom_site_type_symbol
 _atom_site_label
 _atom_site_symmetry_multiplicity
 _atom_site_fract_x
 _atom_site_fract_y
 _atom_site_fract_z
 _atom_site_occupancy
  Al  Al0  1  0.99849000  0.49877000  0.50153000  1.0
  Al  Al1  1  0.49769000  0.49776000  0.50057000  1.0
  H  H2  1  0.18540000  0.42950000  0.40946000  1.0
  H  H3  1  0.81169000  0.60744000  0.54698000  1.0
  H  H4  1  0.64461000  0.55982000  0.74267000  1.0
  H  H5  1  0.71190000  0.55849000  0.89163000  1.0
  H  H6  1  0.06970000  0.43411000  0.88994000  1.0
  H  H7  1  0.93158000  0.56819000  0.11187000  1.0
  H  H8  1  0.29184000  0.43848000  0.10686000  1.0
  H  H9  1  0.35628000  0.43441000  0.25524000  1.0
  H  H10  1  0.69188000  0.76930000  0.53481000  1.0
  H  H11  1  0.30739000  0.23120000  0.47223000  1.0
  H  H12  1  0.94456000  0.22877000  0.54879000  1.0
  H  H13  1  0.85088000  0.06572000  0.54501000  1.0
  H  H14  1  0.05884000  0.77077000  0.44905000  1.0
  H  H15  1  0.15330000  0.93329000  0.45202000  1.0
  H  H16  1  0.83647000  0.39299000  0.77341000  1.0
  H  H17  1  0.94084000  0.36905000  0.68337000  1.0
  H  H18  1  0.86542000  0.47085000  0.70113000  1.0
  H  H19  1  0.14017000  0.52934000  0.29620000  1.0
  H  H20  1  0.05516000  0.62761000  0.32097000  1.0
  H  H21  1  0.15840000  0.61232000  0.22908000  1.0
  H  H22  1  0.91219000  0.89347000  0.55342000  1.0
  H  H23  1  0.08715000  0.10668000  0.45369000  1.0
  C  C24  1  0.68178000  0.33940000  0.50754000  1.0
  C  C25  1  0.70006000  0.49350000  0.35509000  1.0
  C  C26  1  0.31758000  0.65993000  0.49577000  1.0
  C  C27  1  0.29739000  0.50180000  0.64479000  1.0
  C  C28  1  0.32008000  0.49895000  0.73319000  1.0
  C  C29  1  0.51962000  0.53293000  0.77609000  1.0
  C  C30  1  0.55791000  0.53225000  0.85819000  1.0
  C  C31  1  0.39261000  0.49558000  0.89875000  1.0
  C  C32  1  0.19344000  0.46226000  0.85625000  1.0
  C  C33  1  0.15181000  0.46282000  0.77332000  1.0
  C  C34  1  0.80766000  0.53830000  0.14475000  1.0
  C  C35  1  0.61005000  0.50416000  0.10135000  1.0
  C  C36  1  0.44476000  0.46538000  0.14094000  1.0
  C  C37  1  0.48174000  0.46337000  0.22286000  1.0
  C  C38  1  0.67974000  0.49804000  0.26686000  1.0
  C  C39  1  0.84780000  0.53647000  0.22760000  1.0
  C  C40  1  0.36880000  0.75847000  0.49387000  1.0
  C  C41  1  0.63178000  0.24086000  0.50873000  1.0
  C  C42  1  0.57225000  0.80595000  0.51741000  1.0
  C  C43  1  0.62726000  0.89876000  0.52072000  1.0
  C  C44  1  0.42733000  0.19383000  0.48727000  1.0
  C  C45  1  0.37279000  0.10099000  0.48366000  1.0
  C  C46  1  0.78433000  0.19297000  0.52958000  1.0
  C  C47  1  0.72988000  0.10061000  0.52709000  1.0
  C  C48  1  0.21819000  0.80637000  0.47027000  1.0
  C  C49  1  0.27309000  0.89871000  0.47224000  1.0
  C  C50  1  0.47673000  0.95027000  0.49900000  1.0
  C  C51  1  0.52476000  0.04935000  0.50281000  1.0
  C  C52  1  0.93698000  0.42195000  0.73095000  1.0
  C  C53  1  0.06150000  0.57862000  0.27048000  1.0
  N  N54  1  0.41003000  0.48826000  0.98180000  1.0
  N  N55  1  0.59372000  0.51222000  0.01839000  1.0
  O  O56  1  0.87265000  0.37866000  0.51600000  1.0
  O  O57  1  0.53984000  0.49910000  0.38894000  1.0
  O  O58  1  0.47007000  0.62115000  0.50533000  1.0
  O  O59  1  0.12638000  0.51394000  0.60990000  1.0
  O  O60  1  0.12568000  0.62178000  0.48919000  1.0
  O  O61  1  0.45418000  0.49356000  0.61002000  1.0
  O  O62  1  0.52881000  0.37733000  0.49629000  1.0
  O  O63  1  0.87270000  0.48310000  0.39047000  1.0
  O  O64  1  0.21713000  0.45680000  0.46450000  1.0
  O  O65  1  0.77844000  0.54301000  0.53479000  1.0
  O  O66  1  0.83118000  0.93911000  0.54579000  1.0
  O  O67  1  0.16761000  0.06079000  0.46120000  1.0
