# generated using pymatgen
data_Zn3P2H28C10(NO2)4
_symmetry_space_group_name_H-M   'P 1'
_cell_length_a   4.92452000
_cell_length_b   12.75360000
_cell_length_c   19.70730000
_cell_angle_alpha   107.06000000
_cell_angle_beta   89.99110000
_cell_angle_gamma   101.13400000
_symmetry_Int_Tables_number   1
_chemical_formula_structural   Zn3P2H28C10(NO2)4
_chemical_formula_sum   'Zn6 P4 H56 C20 N8 O16'
_cell_volume   1158.88295191
_cell_formula_units_Z   2
loop_
 _symmetry_equiv_pos_site_id
 _symmetry_equiv_pos_as_xyz
  1  'x, y, z'
loop_
 _atom_site_type_symbol
 _atom_site_label
 _atom_site_symmetry_multiplicity
 _atom_site_fract_x
 _atom_site_fract_y
 _atom_site_fract_z
 _atom_site_occupancy
  Zn  Zn0  1  0.02977000  0.99994000  0.00004000  1.0
  Zn  Zn1  1  0.94445000  0.00003000  0.49999000  1.0
  Zn  Zn2  1  0.64173000  0.89287000  0.76320000  1.0
  Zn  Zn3  1  0.74877000  0.10715000  0.23686000  1.0
  Zn  Zn4  1  0.33489000  0.10489000  0.73785000  1.0
  Zn  Zn5  1  0.22986000  0.89498000  0.26223000  1.0
  P  P6  1  0.76316000  0.02843000  0.65178000  1.0
  P  P7  1  0.73452000  0.97153000  0.34826000  1.0
  P  P8  1  0.21409000  0.96902000  0.84897000  1.0
  P  P9  1  0.24492000  0.03082000  0.15108000  1.0
  H  H10  1  0.85423000  0.75776000  0.66830000  1.0
  H  H11  1  0.09714000  0.24226000  0.33161000  1.0
  H  H12  1  0.95691000  0.75222000  0.74669000  1.0
  H  H13  1  0.20460000  0.24773000  0.25314000  1.0
  H  H14  1  0.39828000  0.65166000  0.67039000  1.0
  H  H15  1  0.74744000  0.34851000  0.32984000  1.0
  H  H16  1  0.49142000  0.63927000  0.75334000  1.0
  H  H17  1  0.85183000  0.36077000  0.24678000  1.0
  H  H18  1  0.81355000  0.51604000  0.69897000  1.0
  H  H19  1  0.29774000  0.48396000  0.30076000  1.0
  H  H20  1  0.78314000  0.54566000  0.61752000  1.0
  H  H21  1  0.23878000  0.45448000  0.38228000  1.0
  H  H22  1  0.29808000  0.42698000  0.68368000  1.0
  H  H23  1  0.87171000  0.57312000  0.31633000  1.0
  H  H24  1  0.28022000  0.45796000  0.60283000  1.0
  H  H25  1  0.82312000  0.54207000  0.39716000  1.0
  H  H26  1  0.61355000  0.29507000  0.63470000  1.0
  H  H27  1  0.31858000  0.70530000  0.36529000  1.0
  H  H28  1  0.63319000  0.33521000  0.55578000  1.0
  H  H29  1  0.29883000  0.66504000  0.44415000  1.0
  H  H30  1  0.10194000  0.22450000  0.61027000  1.0
  H  H31  1  0.87719000  0.77553000  0.38994000  1.0
  H  H32  1  0.11633000  0.26448000  0.53159000  1.0
  H  H33  1  0.85237000  0.73551000  0.46861000  1.0
  H  H34  1  0.41362000  0.09658000  0.55764000  1.0
  H  H35  1  0.31724000  0.90348000  0.44246000  1.0
  H  H36  1  0.39478000  0.12642000  0.48285000  1.0
  H  H37  1  0.26832000  0.87374000  0.51728000  1.0
  H  H38  1  0.58201000  0.87947000  0.02275000  1.0
  H  H39  1  0.70255000  0.12038000  0.97727000  1.0
  H  H40  1  0.55952000  0.89865000  0.94477000  1.0
  H  H41  1  0.66107000  0.10138000  0.05531000  1.0
  H  H42  1  0.86062000  0.73901000  0.98073000  1.0
  H  H43  1  0.12140000  0.26091000  0.01908000  1.0
  H  H44  1  0.86957000  0.76703000  0.89807000  1.0
  H  H45  1  0.10312000  0.23303000  0.10178000  1.0
  H  H46  1  0.34366000  0.66534000  0.95925000  1.0
  H  H47  1  0.67788000  0.33449000  0.04083000  1.0
  H  H48  1  0.35682000  0.69526000  0.87694000  1.0
  H  H49  1  0.66229000  0.30476000  0.12320000  1.0
  H  H50  1  0.68703000  0.56489000  0.83531000  1.0
  H  H51  1  0.12282000  0.43527000  0.16446000  1.0
  H  H52  1  0.68377000  0.53721000  0.91759000  1.0
  H  H53  1  0.14615000  0.46284000  0.08213000  1.0
  H  H54  1  0.16949000  0.47976000  0.81482000  1.0
  H  H55  1  0.69029000  0.52016000  0.18530000  1.0
  H  H56  1  0.18218000  0.44728000  0.89583000  1.0
  H  H57  1  0.73402000  0.55258000  0.10424000  1.0
  H  H58  1  0.51350000  0.36180000  0.76579000  1.0
  H  H59  1  0.15288000  0.63810000  0.23382000  1.0
  H  H60  1  0.55878000  0.33708000  0.84789000  1.0
  H  H61  1  0.22081000  0.66309000  0.15170000  1.0
  H  H62  1  0.02803000  0.25114000  0.75738000  1.0
  H  H63  1  0.77702000  0.74849000  0.24288000  1.0
  H  H64  1  0.10035000  0.22963000  0.83306000  1.0
  H  H65  1  0.86957000  0.77040000  0.16724000  1.0
  C  C66  1  0.57291000  0.64297000  0.70191000  1.0
  C  C67  1  0.93030000  0.35713000  0.29815000  1.0
  C  C68  1  0.66719000  0.53445000  0.66371000  1.0
  C  C69  1  0.13347000  0.46565000  0.33617000  1.0
  C  C70  1  0.42057000  0.43651000  0.63813000  1.0
  C  C71  1  0.98479000  0.56360000  0.36185000  1.0
  C  C72  1  0.49662000  0.32471000  0.59877000  1.0
  C  C73  1  0.17236000  0.67547000  0.40123000  1.0
  C  C74  1  0.23685000  0.23603000  0.56737000  1.0
  C  C75  1  0.00099000  0.76402000  0.43275000  1.0
  C  C76  1  0.73722000  0.76157000  0.94249000  1.0
  C  C77  1  0.97582000  0.23841000  0.05743000  1.0
  C  C78  1  0.47727000  0.67079000  0.91491000  1.0
  C  C79  1  0.80666000  0.32917000  0.08509000  1.0
  C  C80  1  0.55368000  0.55750000  0.87944000  1.0
  C  C81  1  0.99628000  0.44252000  0.12040000  1.0
  C  C82  1  0.30760000  0.45991000  0.85137000  1.0
  C  C83  1  0.84760000  0.54002000  0.14860000  1.0
  C  C84  1  0.40485000  0.35205000  0.81308000  1.0
  C  C85  1  0.05280000  0.64794000  0.18673000  1.0
  N  N86  1  0.78400000  0.74632000  0.71496000  1.0
  N  N87  1  0.03786000  0.25370000  0.28499000  1.0
  N  N88  1  0.28908000  0.12551000  0.52765000  1.0
  N  N89  1  0.16365000  0.87460000  0.47246000  1.0
  N  N90  1  0.68543000  0.87414000  0.97696000  1.0
  N  N91  1  0.81138000  0.12580000  0.02306000  1.0
  N  N92  1  0.18883000  0.24963000  0.79035000  1.0
  N  N93  1  0.93891000  0.75025000  0.20979000  1.0
  O  O94  1  0.59176000  0.93242000  0.67665000  1.0
  O  O95  1  0.65896000  0.06748000  0.32336000  1.0
  O  O96  1  0.69899000  0.14313000  0.69828000  1.0
  O  O97  1  0.55570000  0.85679000  0.30179000  1.0
  O  O98  1  0.67140000  0.00804000  0.57269000  1.0
  O  O99  1  0.66312000  0.99197000  0.42736000  1.0
  O  O100  1  0.07786000  0.03098000  0.65601000  1.0
  O  O101  1  0.04670000  0.96906000  0.34403000  1.0
  O  O102  1  0.30520000  0.98858000  0.92793000  1.0
  O  O103  1  0.31652000  0.01115000  0.07210000  1.0
  O  O104  1  0.27638000  0.85406000  0.80248000  1.0
  O  O105  1  0.42227000  0.14580000  0.19752000  1.0
  O  O106  1  0.38857000  0.06465000  0.82424000  1.0
  O  O107  1  0.32360000  0.93521000  0.17584000  1.0
  O  O108  1  0.90031000  0.96829000  0.84489000  1.0
  O  O109  1  0.93191000  0.03167000  0.15518000  1.0
