# generated using pymatgen
data_Al4H52C75O26
_symmetry_space_group_name_H-M   'P 1'
_cell_length_a   6.62141000
_cell_length_b   20.76010000
_cell_length_c   23.56160000
_cell_angle_alpha   90.35200000
_cell_angle_beta   96.43910000
_cell_angle_gamma   92.38160000
_symmetry_Int_Tables_number   1
_chemical_formula_structural   Al4H52C75O26
_chemical_formula_sum   'Al4 H52 C75 O26'
_cell_volume   3215.40230285
_cell_formula_units_Z   1
loop_
 _symmetry_equiv_pos_site_id
 _symmetry_equiv_pos_as_xyz
  1  'x, y, z'
loop_
 _atom_site_type_symbol
 _atom_site_label
 _atom_site_symmetry_multiplicity
 _atom_site_fract_x
 _atom_site_fract_y
 _atom_site_fract_z
 _atom_site_occupancy
  Al  Al0  1  0.14473000  0.49738000  0.49592000  1.0
  Al  Al1  1  0.64593000  0.49702000  0.49820000  1.0
  Al  Al2  1  0.68092000  0.00174000  0.99988000  1.0
  Al  Al3  1  0.18123000  0.00061000  0.99774000  1.0
  H  H4  1  0.18245000  0.37261000  0.17051000  1.0
  H  H5  1  0.99313000  0.37918000  0.34251000  1.0
  H  H6  1  0.67307000  0.28867000  0.47036000  1.0
  H  H7  1  0.67873000  0.12543000  0.32573000  1.0
  H  H8  1  0.20361000  0.31512000  0.07969000  1.0
  H  H9  1  0.84773000  0.12166000  0.15055000  1.0
  H  H10  1  0.07625000  0.37619000  0.26648000  1.0
  H  H11  1  0.77883000  0.12220000  0.22908000  1.0
  H  H12  1  0.64932000  0.83198000  0.22787000  1.0
  H  H13  1  0.60847000  0.75027000  0.30311000  1.0
  H  H14  1  0.16342000  0.66475000  0.26666000  1.0
  H  H15  1  0.20410000  0.74630000  0.19129000  1.0
  H  H16  1  0.12171000  0.23103000  0.80038000  1.0
  H  H17  1  0.11920000  0.31423000  0.72528000  1.0
  H  H18  1  0.34584000  0.61739000  0.84545000  1.0
  H  H19  1  0.43736000  0.61247000  0.66414000  1.0
  H  H20  1  0.46618000  0.88038000  0.65137000  1.0
  H  H21  1  0.26515000  0.78556000  0.98107000  1.0
  H  H22  1  0.48453000  0.88339000  0.83897000  1.0
  H  H23  1  0.40733000  0.61387000  0.74536000  1.0
  H  H24  1  0.46056000  0.88273000  0.75480000  1.0
  H  H25  1  0.45122000  0.82078000  0.56118000  1.0
  H  H26  1  0.47510000  0.19916000  0.48328000  1.0
  H  H27  1  0.73931000  0.18854000  0.50367000  1.0
  H  H28  1  0.68615000  0.06918000  0.48583000  1.0
  H  H29  1  0.53141000  0.09659000  0.53744000  1.0
  H  H30  1  0.42135000  0.07923000  0.46620000  1.0
  H  H31  1  0.59534000  0.25201000  0.61119000  1.0
  H  H32  1  0.78787000  0.19590000  0.63160000  1.0
  H  H33  1  0.05714000  0.28423000  0.62153000  1.0
  H  H34  1  0.89820000  0.27108000  0.55655000  1.0
  H  H35  1  0.86306000  0.33884000  0.60037000  1.0
  H  H36  1  0.62908000  0.09183000  0.73500000  1.0
  H  H37  1  0.70575000  0.08947000  0.81014000  1.0
  H  H38  1  0.07103000  0.09493000  0.79342000  1.0
  H  H39  1  0.94222000  0.02870000  0.75489000  1.0
  H  H40  1  0.00216000  0.10090000  0.71832000  1.0
  H  H41  1  0.32891000  0.80150000  0.47159000  1.0
  H  H42  1  0.14765000  0.73494000  0.46887000  1.0
  H  H43  1  0.31432000  0.68538000  0.38911000  1.0
  H  H44  1  0.22887000  0.76365000  0.37038000  1.0
  H  H45  1  0.49262000  0.75251000  0.39189000  1.0
  H  H46  1  0.02142000  0.68567000  0.97289000  1.0
  H  H47  1  0.25735000  0.69184000  0.01800000  1.0
  H  H48  1  0.29260000  0.57343000  0.01368000  1.0
  H  H49  1  0.04884000  0.58918000  0.03462000  1.0
  H  H50  1  0.07177000  0.56451000  0.96321000  1.0
  H  H51  1  0.09460000  0.18040000  0.97396000  1.0
  H  H52  1  0.36852000  0.48496000  0.42129000  1.0
  H  H53  1  0.93188000  0.53756000  0.56274000  1.0
  H  H54  1  0.45272000  0.98868000  0.07280000  1.0
  H  H55  1  0.89308000  0.95737000  0.93529000  1.0
  C  C56  1  0.40419000  0.42501000  0.57624000  1.0
  C  C57  1  0.43636000  0.59622000  0.55177000  1.0
  C  C58  1  0.87852000  0.57078000  0.41720000  1.0
  C  C59  1  0.85360000  0.39962000  0.44202000  1.0
  C  C60  1  0.99617000  0.16286000  0.08344000  1.0
  C  C61  1  0.83501000  0.33847000  0.40822000  1.0
  C  C62  1  0.12974000  0.27258000  0.09670000  1.0
  C  C63  1  0.09841000  0.21782000  0.06233000  1.0
  C  C64  1  0.92796000  0.16464000  0.13689000  1.0
  C  C65  1  0.96506000  0.21920000  0.17327000  1.0
  C  C66  1  0.06772000  0.27447000  0.15199000  1.0
  C  C67  1  0.90520000  0.22093000  0.23053000  1.0
  C  C68  1  0.94477000  0.27796000  0.26430000  1.0
  C  C69  1  0.04521000  0.33228000  0.24098000  1.0
  C  C70  1  0.10475000  0.33067000  0.18727000  1.0
  C  C71  1  0.80871000  0.16636000  0.25433000  1.0
  C  C72  1  0.75213000  0.16772000  0.30849000  1.0
  C  C73  1  0.78455000  0.22446000  0.34292000  1.0
  C  C74  1  0.88220000  0.28032000  0.32126000  1.0
  C  C75  1  0.71891000  0.22694000  0.39870000  1.0
  C  C76  1  0.73413000  0.28418000  0.42963000  1.0
  C  C77  1  0.91310000  0.33625000  0.35622000  1.0
  C  C78  1  0.73815000  0.74958000  0.27845000  1.0
  C  C79  1  0.88333000  0.70208000  0.28984000  1.0
  C  C80  1  0.05144000  0.70145000  0.25783000  1.0
  C  C81  1  0.07434000  0.74699000  0.21598000  1.0
  C  C82  1  0.92962000  0.79466000  0.20478000  1.0
  C  C83  1  0.76110000  0.79518000  0.23662000  1.0
  C  C84  1  0.86611000  0.65631000  0.33344000  1.0
  C  C85  1  0.94910000  0.84108000  0.16186000  1.0
  C  C86  1  0.95682000  0.88124000  0.12459000  1.0
  C  C87  1  0.86315000  0.61701000  0.37154000  1.0
  C  C88  1  0.59738000  0.21048000  0.76002000  1.0
  C  C89  1  0.42572000  0.20188000  0.79086000  1.0
  C  C90  1  0.25380000  0.23940000  0.77734000  1.0
  C  C91  1  0.25264000  0.28587000  0.73563000  1.0
  C  C92  1  0.42410000  0.29618000  0.70570000  1.0
  C  C93  1  0.59613000  0.25824000  0.71780000  1.0
  C  C94  1  0.42315000  0.15771000  0.83607000  1.0
  C  C95  1  0.42276000  0.34269000  0.66221000  1.0
  C  C96  1  0.41713000  0.38124000  0.62335000  1.0
  C  C97  1  0.41306000  0.12040000  0.87549000  1.0
  C  C98  1  0.38027000  0.83906000  0.91223000  1.0
  C  C99  1  0.44542000  0.65858000  0.58425000  1.0
  C  C100  1  0.31950000  0.72384000  0.91020000  1.0
  C  C101  1  0.31322000  0.78233000  0.93851000  1.0
  C  C102  1  0.43433000  0.83826000  0.85720000  1.0
  C  C103  1  0.41888000  0.78019000  0.82506000  1.0
  C  C104  1  0.37271000  0.72154000  0.85304000  1.0
  C  C105  1  0.44154000  0.77838000  0.76467000  1.0
  C  C106  1  0.43502000  0.71822000  0.73543000  1.0
  C  C107  1  0.40821000  0.66052000  0.76677000  1.0
  C  C108  1  0.37429000  0.66197000  0.82302000  1.0
  C  C109  1  0.45745000  0.83633000  0.73284000  1.0
  C  C110  1  0.46019000  0.83529000  0.67487000  1.0
  C  C111  1  0.45264000  0.77595000  0.64380000  1.0
  C  C112  1  0.44601000  0.71684000  0.67446000  1.0
  C  C113  1  0.44964000  0.77504000  0.58368000  1.0
  C  C114  1  0.44571000  0.71725000  0.55392000  1.0
  C  C115  1  0.44334000  0.65876000  0.64278000  1.0
  C  C116  1  0.39047000  0.90164000  0.94394000  1.0
  C  C117  1  0.42204000  0.07512000  0.92137000  1.0
  C  C118  1  0.97363000  0.10020000  0.05153000  1.0
  C  C119  1  0.94545000  0.92767000  0.07920000  1.0
  C  C120  1  0.60331000  0.16855000  0.47699000  1.0
  C  C121  1  0.55765000  0.09917000  0.49225000  1.0
  C  C122  1  0.75236000  0.24746000  0.63141000  1.0
  C  C123  1  0.90123000  0.28788000  0.60098000  1.0
  C  C124  1  0.75019000  0.10665000  0.76914000  1.0
  C  C125  1  0.95377000  0.08159000  0.75819000  1.0
  C  C126  1  0.30360000  0.74986000  0.46063000  1.0
  C  C127  1  0.33700000  0.73705000  0.39919000  1.0
  C  C128  1  0.16973000  0.66353000  0.98307000  1.0
  C  C129  1  0.14467000  0.59349000  0.99955000  1.0
  C  C130  1  0.15747000  0.22033000  0.00324000  1.0
  O  O131  1  0.59858000  0.57830000  0.53357000  1.0
  O  O132  1  0.22676000  0.43312000  0.55098000  1.0
  O  O133  1  0.02128000  0.43249000  0.44405000  1.0
  O  O134  1  0.26521000  0.56519000  0.54618000  1.0
  O  O135  1  0.05908000  0.56203000  0.43987000  1.0
  O  O136  1  0.57033000  0.45202000  0.56417000  1.0
  O  O137  1  0.38263000  0.49059000  0.46233000  1.0
  O  O138  1  0.71457000  0.54306000  0.42981000  1.0
  O  O139  1  0.69924000  0.41528000  0.46589000  1.0
  O  O140  1  0.91120000  0.50634000  0.53163000  1.0
  O  O141  1  0.25666000  0.04663000  0.93234000  1.0
  O  O142  1  0.55886000  0.93442000  0.94766000  1.0
  O  O143  1  0.76563000  0.93787000  0.05655000  1.0
  O  O144  1  0.59898000  0.06647000  0.94670000  1.0
  O  O145  1  0.80505000  0.06822000  0.05027000  1.0
  O  O146  1  0.22958000  0.91825000  0.96433000  1.0
  O  O147  1  0.44401000  0.00632000  0.03465000  1.0
  O  O148  1  0.12959000  0.08197000  0.02982000  1.0
  O  O149  1  0.11113000  0.95403000  0.06637000  1.0
  O  O150  1  0.91510000  0.99105000  0.96435000  1.0
  O  O151  1  0.64142000  0.17020000  0.41807000  1.0
  O  O152  1  0.76555000  0.26949000  0.69038000  1.0
  O  O153  1  0.76982000  0.17673000  0.76995000  1.0
  O  O154  1  0.44467000  0.71180000  0.49580000  1.0
  O  O155  1  0.27504000  0.66529000  0.93291000  1.0
  O  O156  1  0.26469000  0.26410000  0.98629000  1.0
