# generated using pymatgen
data_CdH10C9N4O5
_symmetry_space_group_name_H-M   'P 1'
_cell_length_a   9.11957000
_cell_length_b   10.79970000
_cell_length_c   11.94950000
_cell_angle_alpha   84.27280000
_cell_angle_beta   89.99950000
_cell_angle_gamma   89.99980000
_symmetry_Int_Tables_number   1
_chemical_formula_structural   CdH10C9N4O5
_chemical_formula_sum   'Cd4 H40 C36 N16 O20'
_cell_volume   1171.01509473
_cell_formula_units_Z   4
loop_
 _symmetry_equiv_pos_site_id
 _symmetry_equiv_pos_as_xyz
  1  'x, y, z'
loop_
 _atom_site_type_symbol
 _atom_site_label
 _atom_site_symmetry_multiplicity
 _atom_site_fract_x
 _atom_site_fract_y
 _atom_site_fract_z
 _atom_site_occupancy
  Cd  Cd0  1  0.09255000  0.28940000  0.20118000  1.0
  Cd  Cd1  1  0.59254000  0.21060000  0.29883000  1.0
  Cd  Cd2  1  0.90745000  0.71060000  0.79883000  1.0
  Cd  Cd3  1  0.40745000  0.78940000  0.70117000  1.0
  H  H4  1  0.27349000  0.05722000  0.07011000  1.0
  H  H5  1  0.77349000  0.44279000  0.42989000  1.0
  H  H6  1  0.72651000  0.94279000  0.92989000  1.0
  H  H7  1  0.22651000  0.55722000  0.57011000  1.0
  H  H8  1  0.16267000  0.81413000  0.07314000  1.0
  H  H9  1  0.66267000  0.68587000  0.42686000  1.0
  H  H10  1  0.83733000  0.18588000  0.92686000  1.0
  H  H11  1  0.33733000  0.31413000  0.57314000  1.0
  H  H12  1  0.88383000  0.02956000  0.25998000  1.0
  H  H13  1  0.38382000  0.47045000  0.24002000  1.0
  H  H14  1  0.11618000  0.97044000  0.74002000  1.0
  H  H15  1  0.61617000  0.52955000  0.75998000  1.0
  H  H16  1  0.81393000  0.81603000  0.25487000  1.0
  H  H17  1  0.31393000  0.68397000  0.24513000  1.0
  H  H18  1  0.18607000  0.18397000  0.74513000  1.0
  H  H19  1  0.68607000  0.31603000  0.75487000  1.0
  H  H20  1  0.84451000  0.76556000  0.11777000  1.0
  H  H21  1  0.34451000  0.73444000  0.38224000  1.0
  H  H22  1  0.15549000  0.23444000  0.88223000  1.0
  H  H23  1  0.65549000  0.26556000  0.61776000  1.0
  H  H24  1  0.96174000  0.56961000  0.10084000  1.0
  H  H25  1  0.46174000  0.93039000  0.39916000  1.0
  H  H26  1  0.03826000  0.43039000  0.89916000  1.0
  H  H27  1  0.53826000  0.06961000  0.60084000  1.0
  H  H28  1  0.01703000  0.71777000  0.41394000  1.0
  H  H29  1  0.51702000  0.78224000  0.08606000  1.0
  H  H30  1  0.98297000  0.28223000  0.58607000  1.0
  H  H31  1  0.48298000  0.21777000  0.91394000  1.0
  H  H32  1  0.12166000  0.47246000  0.42852000  1.0
  H  H33  1  0.62166000  0.02755000  0.07148000  1.0
  H  H34  1  0.87834000  0.52754000  0.57148000  1.0
  H  H35  1  0.37834000  0.97245000  0.92852000  1.0
  H  H36  1  0.27457000  0.45200000  0.05021000  1.0
  H  H37  1  0.77457000  0.04800000  0.44979000  1.0
  H  H38  1  0.72543000  0.54800000  0.94979000  1.0
  H  H39  1  0.22543000  0.95200000  0.55021000  1.0
  H  H40  1  0.36525000  0.32855000  0.06725000  1.0
  H  H41  1  0.86524000  0.17145000  0.43276000  1.0
  H  H42  1  0.63475000  0.67145000  0.93275000  1.0
  H  H43  1  0.13476000  0.82855000  0.56725000  1.0
  C  C44  1  0.17502000  0.01569000  0.10805000  1.0
  C  C45  1  0.67502000  0.48431000  0.39195000  1.0
  C  C46  1  0.82498000  0.98431000  0.89195000  1.0
  C  C47  1  0.32498000  0.51569000  0.60805000  1.0
  C  C48  1  0.12392000  0.89580000  0.10984000  1.0
  C  C49  1  0.62392000  0.60420000  0.39016000  1.0
  C  C50  1  0.87608000  0.10420000  0.89016000  1.0
  C  C51  1  0.37608000  0.39580000  0.60984000  1.0
  C  C52  1  0.97473000  0.00720000  0.20739000  1.0
  C  C53  1  0.47473000  0.49280000  0.29261000  1.0
  C  C54  1  0.02526000  0.99280000  0.79261000  1.0
  C  C55  1  0.52527000  0.50720000  0.70739000  1.0
  C  C56  1  0.89679000  0.78772000  0.19616000  1.0
  C  C57  1  0.39679000  0.71229000  0.30384000  1.0
  C  C58  1  0.10322000  0.21229000  0.80384000  1.0
  C  C59  1  0.60321000  0.28771000  0.69616000  1.0
  C  C60  1  0.99043000  0.57340000  0.18837000  1.0
  C  C61  1  0.49043000  0.92660000  0.31163000  1.0
  C  C62  1  0.00957000  0.42660000  0.81163000  1.0
  C  C63  1  0.50957000  0.07340000  0.68837000  1.0
  C  C64  1  0.02246000  0.64976000  0.35303000  1.0
  C  C65  1  0.52245000  0.85024000  0.14698000  1.0
  C  C66  1  0.97754000  0.35024000  0.64698000  1.0
  C  C67  1  0.47754000  0.14976000  0.85302000  1.0
  C  C68  1  0.07422000  0.52986000  0.35831000  1.0
  C  C69  1  0.57422000  0.97014000  0.14169000  1.0
  C  C70  1  0.92578000  0.47014000  0.64169000  1.0
  C  C71  1  0.42579000  0.02986000  0.85831000  1.0
  C  C72  1  0.15103000  0.16637000  0.45653000  1.0
  C  C73  1  0.65103000  0.33363000  0.04347000  1.0
  C  C74  1  0.84897000  0.83363000  0.54347000  1.0
  C  C75  1  0.34897000  0.66637000  0.95653000  1.0
  C  C76  1  0.30390000  0.18375000  0.39745000  1.0
  C  C77  1  0.80390000  0.31625000  0.10255000  1.0
  C  C78  1  0.69610000  0.81625000  0.60256000  1.0
  C  C79  1  0.19610000  0.68375000  0.89745000  1.0
  N  N80  1  0.08043000  0.08399000  0.16808000  1.0
  N  N81  1  0.58043000  0.41601000  0.33192000  1.0
  N  N82  1  0.91957000  0.91601000  0.83192000  1.0
  N  N83  1  0.41957000  0.58399000  0.66808000  1.0
  N  N84  1  0.99699000  0.89211000  0.17379000  1.0
  N  N85  1  0.49699000  0.60789000  0.32621000  1.0
  N  N86  1  0.00301000  0.10789000  0.82621000  1.0
  N  N87  1  0.50301000  0.39211000  0.67379000  1.0
  N  N88  1  0.96974000  0.67571000  0.24421000  1.0
  N  N89  1  0.46973000  0.82429000  0.25579000  1.0
  N  N90  1  0.03027000  0.32429000  0.75579000  1.0
  N  N91  1  0.53026000  0.17571000  0.74421000  1.0
  N  N92  1  0.05386000  0.48388000  0.25542000  1.0
  N  N93  1  0.55386000  0.01612000  0.24459000  1.0
  N  N94  1  0.94614000  0.51612000  0.74458000  1.0
  N  N95  1  0.44614000  0.98388000  0.75542000  1.0
  O  O96  1  0.31000000  0.23877000  0.29793000  1.0
  O  O97  1  0.81000000  0.26123000  0.20207000  1.0
  O  O98  1  0.69000000  0.76122000  0.70208000  1.0
  O  O99  1  0.19000000  0.73877000  0.79792000  1.0
  O  O100  1  0.04273000  0.22060000  0.40442000  1.0
  O  O101  1  0.54273000  0.27939000  0.09558000  1.0
  O  O102  1  0.95727000  0.77940000  0.59559000  1.0
  O  O103  1  0.45727000  0.72060000  0.90442000  1.0
  O  O104  1  0.14652000  0.10457000  0.55140000  1.0
  O  O105  1  0.64652000  0.39542000  0.94860000  1.0
  O  O106  1  0.85348000  0.89542000  0.44860000  1.0
  O  O107  1  0.35348000  0.60458000  0.05140000  1.0
  O  O108  1  0.41631000  0.14494000  0.45166000  1.0
  O  O109  1  0.91631000  0.35505000  0.04834000  1.0
  O  O110  1  0.58369000  0.85505000  0.54834000  1.0
  O  O111  1  0.08369000  0.64495000  0.95166000  1.0
  O  O112  1  0.26272000  0.36010000  0.05467000  1.0
  O  O113  1  0.76272000  0.13990000  0.44533000  1.0
  O  O114  1  0.73728000  0.63990000  0.94533000  1.0
  O  O115  1  0.23729000  0.86009000  0.55467000  1.0
