# generated using pymatgen
data_MgH6C15NO5
_symmetry_space_group_name_H-M   'P 1'
_cell_length_a   6.84345000
_cell_length_b   39.59120000
_cell_length_c   39.59150000
_cell_angle_alpha   119.67200000
_cell_angle_beta   93.29970000
_cell_angle_gamma   93.29940000
_symmetry_Int_Tables_number   1
_chemical_formula_structural   MgH6C15NO5
_chemical_formula_sum   'Mg6 H36 C90 N6 O30'
_cell_volume   9259.00553632
_cell_formula_units_Z   6
loop_
 _symmetry_equiv_pos_site_id
 _symmetry_equiv_pos_as_xyz
  1  'x, y, z'
loop_
 _atom_site_type_symbol
 _atom_site_label
 _atom_site_symmetry_multiplicity
 _atom_site_fract_x
 _atom_site_fract_y
 _atom_site_fract_z
 _atom_site_occupancy
  Mg  Mg0  1  0.20422000  0.67017000  0.30867000  1.0
  Mg  Mg1  1  0.89555000  0.69139000  0.36152000  1.0
  Mg  Mg2  1  0.53413000  0.63854000  0.32989000  1.0
  Mg  Mg3  1  0.79578000  0.32983000  0.69133000  1.0
  Mg  Mg4  1  0.10445000  0.30861000  0.63848000  1.0
  Mg  Mg5  1  0.46587000  0.36146000  0.67011000  1.0
  H  H6  1  0.98806000  0.06455000  0.55382000  1.0
  H  H7  1  0.22469000  0.97254000  0.45282000  1.0
  H  H8  1  0.51224000  0.01775000  0.46191000  1.0
  H  H9  1  0.88244000  0.14829000  0.58400000  1.0
  H  H10  1  0.05258000  0.21446000  0.62427000  1.0
  H  H11  1  0.33835000  0.19834000  0.58371000  1.0
  H  H12  1  0.43429000  0.44619000  0.51074000  1.0
  H  H13  1  0.77203000  0.54714000  0.51971000  1.0
  H  H14  1  0.05036000  0.53807000  0.55588000  1.0
  H  H15  1  0.29843000  0.41599000  0.56433000  1.0
  H  H16  1  0.42826000  0.37572000  0.59023000  1.0
  H  H17  1  0.75442000  0.41626000  0.61460000  1.0
  H  H18  1  0.92357000  0.48925000  0.93543000  1.0
  H  H19  1  0.25224000  0.48028000  0.02741000  1.0
  H  H20  1  0.49454000  0.44415000  0.98221000  1.0
  H  H21  1  0.73409000  0.43568000  0.85163000  1.0
  H  H22  1  0.83802000  0.40977000  0.78544000  1.0
  H  H23  1  0.13989000  0.38538000  0.80164000  1.0
  H  H24  1  0.01194000  0.93545000  0.44618000  1.0
  H  H25  1  0.77531000  0.02746000  0.54718000  1.0
  H  H26  1  0.48777000  0.98225000  0.53809000  1.0
  H  H27  1  0.11756000  0.85171000  0.41600000  1.0
  H  H28  1  0.94742000  0.78554000  0.37573000  1.0
  H  H29  1  0.66165000  0.80166000  0.41629000  1.0
  H  H30  1  0.56571000  0.55381000  0.48925000  1.0
  H  H31  1  0.22796000  0.45286000  0.48029000  1.0
  H  H32  1  0.94964000  0.46193000  0.44413000  1.0
  H  H33  1  0.70157000  0.58401000  0.43567000  1.0
  H  H34  1  0.57174000  0.62428000  0.40977000  1.0
  H  H35  1  0.24557000  0.58374000  0.38540000  1.0
  H  H36  1  0.07643000  0.51075000  0.06457000  1.0
  H  H37  1  0.74776000  0.51973000  0.97259000  1.0
  H  H38  1  0.50546000  0.55585000  0.01779000  1.0
  H  H39  1  0.26592000  0.56432000  0.14837000  1.0
  H  H40  1  0.16198000  0.59023000  0.21456000  1.0
  H  H41  1  0.86011000  0.61462000  0.19836000  1.0
  C  C42  1  0.31310000  0.11974000  0.56787000  1.0
  C  C43  1  0.26195000  0.07795000  0.53795000  1.0
  C  C44  1  0.09979000  0.05318000  0.53354000  1.0
  C  C45  1  0.08441000  0.01401000  0.50271000  1.0
  C  C46  1  0.23422000  0.00237000  0.47715000  1.0
  C  C47  1  0.39792000  0.02764000  0.48184000  1.0
  C  C48  1  0.41078000  0.06564000  0.51294000  1.0
  C  C49  1  0.56483000  0.09887000  0.52640000  1.0
  C  C50  1  0.59702000  0.16877000  0.58127000  1.0
  C  C51  1  0.79957000  0.17350000  0.59261000  1.0
  C  C52  1  0.89568000  0.21067000  0.61533000  1.0
  C  C53  1  0.79537000  0.24448000  0.62834000  1.0
  C  C54  1  0.58915000  0.23931000  0.61631000  1.0
  C  C55  1  0.49466000  0.20139000  0.59265000  1.0
  C  C56  1  0.46766000  0.27218000  0.62748000  1.0
  C  C57  1  0.74520000  0.43214000  0.55191000  1.0
  C  C58  1  0.72410000  0.46203000  0.54000000  1.0
  C  C59  1  0.56634000  0.46644000  0.51964000  1.0
  C  C60  1  0.58174000  0.49727000  0.51129000  1.0
  C  C61  1  0.75719000  0.52281000  0.52521000  1.0
  C  C62  1  0.91617000  0.51813000  0.54582000  1.0
  C  C63  1  0.89793000  0.48703000  0.55270000  1.0
  C  C64  1  0.03848000  0.47359000  0.57249000  1.0
  C  C65  1  0.01576000  0.41872000  0.58753000  1.0
  C  C66  1  0.20693000  0.40738000  0.58091000  1.0
  C  C67  1  0.28023000  0.38464000  0.59536000  1.0
  C  C68  1  0.16684000  0.37159000  0.61610000  1.0
  C  C69  1  0.97262000  0.38362000  0.62296000  1.0
  C  C70  1  0.90184000  0.40732000  0.60873000  1.0
  C  C71  1  0.84009000  0.37246000  0.64469000  1.0
  C  C72  1  0.19338000  0.44809000  0.88021000  1.0
  C  C73  1  0.18416000  0.45999000  0.92202000  1.0
  C  C74  1  0.04675000  0.48036000  0.94679000  1.0
  C  C75  1  0.07049000  0.48871000  0.98597000  1.0
  C  C76  1  0.23202000  0.47480000  0.99760000  1.0
  C  C77  1  0.37043000  0.45421000  0.97232000  1.0
  C  C78  1  0.34534000  0.44730000  0.93432000  1.0
  C  C79  1  0.46605000  0.42750000  0.90108000  1.0
  C  C80  1  0.42826000  0.41244000  0.83116000  1.0
  C  C81  1  0.62604000  0.41908000  0.82643000  1.0
  C  C82  1  0.68489000  0.40464000  0.78925000  1.0
  C  C83  1  0.55073000  0.38385000  0.75546000  1.0
  C  C84  1  0.34966000  0.37700000  0.76063000  1.0
  C  C85  1  0.29318000  0.39124000  0.79857000  1.0
  C  C86  1  0.19539000  0.35528000  0.72776000  1.0
  C  C87  1  0.68690000  0.88026000  0.43213000  1.0
  C  C88  1  0.73805000  0.92205000  0.46205000  1.0
  C  C89  1  0.90021000  0.94682000  0.46646000  1.0
  C  C90  1  0.91559000  0.98599000  0.49729000  1.0
  C  C91  1  0.76579000  0.99763000  0.52285000  1.0
  C  C92  1  0.60208000  0.97236000  0.51816000  1.0
  C  C93  1  0.58922000  0.93436000  0.48706000  1.0
  C  C94  1  0.43517000  0.90113000  0.47360000  1.0
  C  C95  1  0.40298000  0.83123000  0.41873000  1.0
  C  C96  1  0.20043000  0.82650000  0.40739000  1.0
  C  C97  1  0.10432000  0.78933000  0.38467000  1.0
  C  C98  1  0.20463000  0.75552000  0.37166000  1.0
  C  C99  1  0.41085000  0.76069000  0.38369000  1.0
  C  C100  1  0.50534000  0.79861000  0.40735000  1.0
  C  C101  1  0.53234000  0.72782000  0.37252000  1.0
  C  C102  1  0.25479000  0.56786000  0.44809000  1.0
  C  C103  1  0.27589000  0.53797000  0.46000000  1.0
  C  C104  1  0.43366000  0.53356000  0.48036000  1.0
  C  C105  1  0.41826000  0.50273000  0.48871000  1.0
  C  C106  1  0.24281000  0.47719000  0.47479000  1.0
  C  C107  1  0.08382000  0.48187000  0.45419000  1.0
  C  C108  1  0.10207000  0.51297000  0.44730000  1.0
  C  C109  1  0.96152000  0.52641000  0.42751000  1.0
  C  C110  1  0.98423000  0.58128000  0.41246000  1.0
  C  C111  1  0.79307000  0.59262000  0.41909000  1.0
  C  C112  1  0.71977000  0.61536000  0.40464000  1.0
  C  C113  1  0.83316000  0.62841000  0.38390000  1.0
  C  C114  1  0.02738000  0.61638000  0.37704000  1.0
  C  C115  1  0.09815000  0.59268000  0.39127000  1.0
  C  C116  1  0.15991000  0.62754000  0.35531000  1.0
  C  C117  1  0.80662000  0.55191000  0.11979000  1.0
  C  C118  1  0.81584000  0.54001000  0.07798000  1.0
  C  C119  1  0.95325000  0.51964000  0.05321000  1.0
  C  C120  1  0.92951000  0.51129000  0.01402000  1.0
  C  C121  1  0.76798000  0.52520000  0.00240000  1.0
  C  C122  1  0.62957000  0.54580000  0.02768000  1.0
  C  C123  1  0.65466000  0.55270000  0.06568000  1.0
  C  C124  1  0.53395000  0.57250000  0.09892000  1.0
  C  C125  1  0.57174000  0.58756000  0.16884000  1.0
  C  C126  1  0.37396000  0.58092000  0.17357000  1.0
  C  C127  1  0.31511000  0.59536000  0.21075000  1.0
  C  C128  1  0.44927000  0.61615000  0.24454000  1.0
  C  C129  1  0.65034000  0.62300000  0.23937000  1.0
  C  C130  1  0.70682000  0.60876000  0.20143000  1.0
  C  C131  1  0.80462000  0.64472000  0.27224000  1.0
  N  N132  1  0.49527000  0.13081000  0.55908000  1.0
  N  N133  1  0.93621000  0.44092000  0.57176000  1.0
  N  N134  1  0.36447000  0.42822000  0.86913000  1.0
  N  N135  1  0.50473000  0.86919000  0.44092000  1.0
  N  N136  1  0.06380000  0.55908000  0.42824000  1.0
  N  N137  1  0.63553000  0.57178000  0.13087000  1.0
  O  O138  1  0.71177000  0.73348000  0.38610000  1.0
  O  O139  1  0.45223000  0.69291000  0.34803000  1.0
  O  O140  1  0.10269000  0.72055000  0.34872000  1.0
  O  O141  1  0.22147000  0.14081000  0.59504000  1.0
  O  O142  1  0.72158000  0.09955000  0.51329000  1.0
  O  O143  1  0.32577000  0.61396000  0.34738000  1.0
  O  O144  1  0.10418000  0.65201000  0.34489000  1.0
  O  O145  1  0.75409000  0.65135000  0.37186000  1.0
  O  O146  1  0.62633000  0.40499000  0.54585000  1.0
  O  O147  1  0.20828000  0.48671000  0.58630000  1.0
  O  O148  1  0.97841000  0.65261000  0.26657000  1.0
  O  O149  1  0.75937000  0.65516000  0.30715000  1.0
  O  O150  1  0.38233000  0.62823000  0.27953000  1.0
  O  O151  1  0.08059000  0.45418000  0.85915000  1.0
  O  O152  1  0.62211000  0.41370000  0.90039000  1.0
  O  O153  1  0.28823000  0.26652000  0.61390000  1.0
  O  O154  1  0.54778000  0.30709000  0.65197000  1.0
  O  O155  1  0.89731000  0.27945000  0.65128000  1.0
  O  O156  1  0.77854000  0.85919000  0.40496000  1.0
  O  O157  1  0.27842000  0.90045000  0.48671000  1.0
  O  O158  1  0.67423000  0.38604000  0.65262000  1.0
  O  O159  1  0.89582000  0.34799000  0.65511000  1.0
  O  O160  1  0.24591000  0.34865000  0.62814000  1.0
  O  O161  1  0.37368000  0.59501000  0.45415000  1.0
  O  O162  1  0.79172000  0.51329000  0.41370000  1.0
  O  O163  1  0.02160000  0.34739000  0.73343000  1.0
  O  O164  1  0.24064000  0.34484000  0.69285000  1.0
  O  O165  1  0.61767000  0.37177000  0.72047000  1.0
  O  O166  1  0.91941000  0.54582000  0.14085000  1.0
  O  O167  1  0.37789000  0.58630000  0.09961000  1.0
