# generated using pymatgen
data_ZnPH5C2N4O3
_symmetry_space_group_name_H-M   'P 1'
_cell_length_a   7.23780000
_cell_length_b   9.57839000
_cell_length_c   10.23860000
_cell_angle_alpha   110.27200000
_cell_angle_beta   90.00000000
_cell_angle_gamma   90.00000000
_symmetry_Int_Tables_number   1
_chemical_formula_structural   ZnPH5C2N4O3
_chemical_formula_sum   'Zn4 P4 H20 C8 N16 O12'
_cell_volume   665.83946447
_cell_formula_units_Z   4
loop_
 _symmetry_equiv_pos_site_id
 _symmetry_equiv_pos_as_xyz
  1  'x, y, z'
loop_
 _atom_site_type_symbol
 _atom_site_label
 _atom_site_symmetry_multiplicity
 _atom_site_fract_x
 _atom_site_fract_y
 _atom_site_fract_z
 _atom_site_occupancy
  Zn  Zn0  1  0.38226000  0.34104000  0.33800000  1.0
  Zn  Zn1  1  0.88226000  0.65896000  0.16200000  1.0
  Zn  Zn2  1  0.61774000  0.65897000  0.66200000  1.0
  Zn  Zn3  1  0.11774000  0.34104000  0.83800000  1.0
  P  P4  1  0.77829000  0.49238000  0.36907000  1.0
  P  P5  1  0.27829000  0.50762000  0.13094000  1.0
  P  P6  1  0.22171000  0.50762000  0.63093000  1.0
  P  P7  1  0.72171000  0.49238000  0.86906000  1.0
  H  H8  1  0.17533000  0.72330000  0.96340000  1.0
  H  H9  1  0.67533000  0.27671000  0.53660000  1.0
  H  H10  1  0.82467000  0.27671000  0.03660000  1.0
  H  H11  1  0.32467000  0.72329000  0.46340000  1.0
  H  H12  1  0.25429000  0.79569000  0.84724000  1.0
  H  H13  1  0.75429000  0.20431000  0.65276000  1.0
  H  H14  1  0.74571000  0.20431000  0.15276000  1.0
  H  H15  1  0.24571000  0.79569000  0.34724000  1.0
  H  H16  1  0.10732000  0.11725000  0.08236000  1.0
  H  H17  1  0.60732000  0.88275000  0.41764000  1.0
  H  H18  1  0.89268000  0.88275000  0.91764000  1.0
  H  H19  1  0.39268000  0.11725000  0.58236000  1.0
  H  H20  1  0.51970000  0.80010000  0.07651000  1.0
  H  H21  1  0.01970000  0.19989000  0.42349000  1.0
  H  H22  1  0.48030000  0.19990000  0.92349000  1.0
  H  H23  1  0.98029000  0.80011000  0.57651000  1.0
  H  H24  1  0.95763000  0.44333000  0.38473000  1.0
  H  H25  1  0.45763000  0.55667000  0.11527000  1.0
  H  H26  1  0.04237000  0.55666000  0.61527000  1.0
  H  H27  1  0.54237000  0.44333000  0.88473000  1.0
  C  C28  1  0.23187000  0.06768000  0.10756000  1.0
  C  C29  1  0.73187000  0.93233000  0.39244000  1.0
  C  C30  1  0.76813000  0.93232000  0.89244000  1.0
  C  C31  1  0.26813000  0.06768000  0.60756000  1.0
  C  C32  1  0.44258000  0.90408000  0.10765000  1.0
  C  C33  1  0.94258000  0.09591000  0.39235000  1.0
  C  C34  1  0.55742000  0.09592000  0.89235000  1.0
  C  C35  1  0.05742000  0.90409000  0.60765000  1.0
  N  N36  1  0.35719000  0.13300000  0.20355000  1.0
  N  N37  1  0.85719000  0.86700000  0.29645000  1.0
  N  N38  1  0.64281000  0.86700000  0.79645000  1.0
  N  N39  1  0.14281000  0.13300000  0.70355000  1.0
  N  N40  1  0.49085000  0.02984000  0.20476000  1.0
  N  N41  1  0.99084000  0.97016000  0.29524000  1.0
  N  N42  1  0.50916000  0.97016000  0.79524000  1.0
  N  N43  1  0.00915000  0.02984000  0.70476000  1.0
  N  N44  1  0.28242000  0.92383000  0.04457000  1.0
  N  N45  1  0.78242000  0.07617000  0.45542000  1.0
  N  N46  1  0.71758000  0.07617000  0.95542000  1.0
  N  N47  1  0.21758000  0.92383000  0.54458000  1.0
  N  N48  1  0.18229000  0.81855000  0.93874000  1.0
  N  N49  1  0.68229000  0.18145000  0.56126000  1.0
  N  N50  1  0.81771000  0.18145000  0.06126000  1.0
  N  N51  1  0.31771000  0.81855000  0.43874000  1.0
  O  O52  1  0.64988000  0.36593000  0.37523000  1.0
  O  O53  1  0.14988000  0.63407000  0.12477000  1.0
  O  O54  1  0.35012000  0.63407000  0.62477000  1.0
  O  O55  1  0.85012000  0.36593000  0.87523000  1.0
  O  O56  1  0.74751000  0.64157000  0.48845000  1.0
  O  O57  1  0.24751000  0.35843000  0.01155000  1.0
  O  O58  1  0.25249000  0.35842000  0.51155000  1.0
  O  O59  1  0.75249000  0.64157000  0.98845000  1.0
  O  O60  1  0.77015000  0.50885000  0.22515000  1.0
  O  O61  1  0.27015000  0.49114000  0.27485000  1.0
  O  O62  1  0.22985000  0.49115000  0.77485000  1.0
  O  O63  1  0.72985000  0.50885000  0.72516000  1.0
