# generated using pymatgen
data_KH5(C2O3)2
_symmetry_space_group_name_H-M   'P 1'
_cell_length_a   7.60336000
_cell_length_b   7.74251000
_cell_length_c   10.79560000
_cell_angle_alpha   90.00000000
_cell_angle_beta   90.00020000
_cell_angle_gamma   90.00000000
_symmetry_Int_Tables_number   1
_chemical_formula_structural   KH5(C2O3)2
_chemical_formula_sum   'K4 H20 C16 O24'
_cell_volume   635.52715700
_cell_formula_units_Z   4
loop_
 _symmetry_equiv_pos_site_id
 _symmetry_equiv_pos_as_xyz
  1  'x, y, z'
loop_
 _atom_site_type_symbol
 _atom_site_label
 _atom_site_symmetry_multiplicity
 _atom_site_fract_x
 _atom_site_fract_y
 _atom_site_fract_z
 _atom_site_occupancy
  K  K0  1  0.16113000  0.67183000  0.53017000  1.0
  K  K1  1  0.33887000  0.32817000  0.03017000  1.0
  K  K2  1  0.66113000  0.82817000  0.46984000  1.0
  K  K3  1  0.83887000  0.17183000  0.96984000  1.0
  H  H4  1  0.26187000  0.81846000  0.04965000  1.0
  H  H5  1  0.23813000  0.18154000  0.54965000  1.0
  H  H6  1  0.76187000  0.68154000  0.95035000  1.0
  H  H7  1  0.73813000  0.31846000  0.45035000  1.0
  H  H8  1  0.22129000  0.05230000  0.19574000  1.0
  H  H9  1  0.27870000  0.94770000  0.69574000  1.0
  H  H10  1  0.72130000  0.44770000  0.80426000  1.0
  H  H11  1  0.77870000  0.55230000  0.30426000  1.0
  H  H12  1  0.34801000  0.04201000  0.36374000  1.0
  H  H13  1  0.15199000  0.95799000  0.86374000  1.0
  H  H14  1  0.84801000  0.45799000  0.63626000  1.0
  H  H15  1  0.65199000  0.54201000  0.13626000  1.0
  H  H16  1  0.36719000  0.61102000  0.25621000  1.0
  H  H17  1  0.13281000  0.38898000  0.75621000  1.0
  H  H18  1  0.86719000  0.88898000  0.74379000  1.0
  H  H19  1  0.63281000  0.11102000  0.24379000  1.0
  H  H20  1  0.81935000  0.83630000  0.14101000  1.0
  H  H21  1  0.68065000  0.16369000  0.64101000  1.0
  H  H22  1  0.31935000  0.66369000  0.85899000  1.0
  H  H23  1  0.18065000  0.33631000  0.35899000  1.0
  C  C24  1  0.03463000  0.85942000  0.24067000  1.0
  C  C25  1  0.46538000  0.14058000  0.74067000  1.0
  C  C26  1  0.53463000  0.64058000  0.75934000  1.0
  C  C27  1  0.96538000  0.35942000  0.25933000  1.0
  C  C28  1  0.22505000  0.92036000  0.23306000  1.0
  C  C29  1  0.27495000  0.07964000  0.73306000  1.0
  C  C30  1  0.72505000  0.57964000  0.76694000  1.0
  C  C31  1  0.77495000  0.42036000  0.26694000  1.0
  C  C32  1  0.32529000  0.80467000  0.14065000  1.0
  C  C33  1  0.17470000  0.19533000  0.64065000  1.0
  C  C34  1  0.82530000  0.69533000  0.85935000  1.0
  C  C35  1  0.67470000  0.30467000  0.35935000  1.0
  C  C36  1  0.51436000  0.87234000  0.12774000  1.0
  C  C37  1  0.98564000  0.12766000  0.62774000  1.0
  C  C38  1  0.01437000  0.62766000  0.87226000  1.0
  C  C39  1  0.48563000  0.37234000  0.37225000  1.0
  O  O40  1  0.96895000  0.79410000  0.33398000  1.0
  O  O41  1  0.53105000  0.20590000  0.83398000  1.0
  O  O42  1  0.46895000  0.70590000  0.66602000  1.0
  O  O43  1  0.03105000  0.29410000  0.16602000  1.0
  O  O44  1  0.94961000  0.88289000  0.13480000  1.0
  O  O45  1  0.55039000  0.11711000  0.63480000  1.0
  O  O46  1  0.44961000  0.61712000  0.86520000  1.0
  O  O47  1  0.05039000  0.38289000  0.36520000  1.0
  O  O48  1  0.30874000  0.92032000  0.35119000  1.0
  O  O49  1  0.19126000  0.07968000  0.85120000  1.0
  O  O50  1  0.80875000  0.57968000  0.64881000  1.0
  O  O51  1  0.69125000  0.42032000  0.14880000  1.0
  O  O52  1  0.31416000  0.62781000  0.17293000  1.0
  O  O53  1  0.18584000  0.37219000  0.67293000  1.0
  O  O54  1  0.81416000  0.87219000  0.82707000  1.0
  O  O55  1  0.68584000  0.12781000  0.32707000  1.0
  O  O56  1  0.64046000  0.76364000  0.14157000  1.0
  O  O57  1  0.85954000  0.23636000  0.64157000  1.0
  O  O58  1  0.14046000  0.73636000  0.85843000  1.0
  O  O59  1  0.35954000  0.26364000  0.35843000  1.0
  O  O60  1  0.53597000  0.03136000  0.10713000  1.0
  O  O61  1  0.96403000  0.96864000  0.60713000  1.0
  O  O62  1  0.03597000  0.46863000  0.89287000  1.0
  O  O63  1  0.46403000  0.53136000  0.39287000  1.0
