# generated using pymatgen
data_Zr3H29C44N5(O8F)2
_symmetry_space_group_name_H-M   'P 1'
_cell_length_a   19.05702448
_cell_length_b   19.06410000
_cell_length_c   19.06382192
_cell_angle_alpha   60.01575288
_cell_angle_beta   60.01274149
_cell_angle_gamma   60.01297081
_symmetry_Int_Tables_number   1
_chemical_formula_structural   Zr3H29C44N5(O8F)2
_chemical_formula_sum   'Zr6 H58 C88 N10 O32 F4'
_cell_volume   4898.94356261
_cell_formula_units_Z   2
loop_
 _symmetry_equiv_pos_site_id
 _symmetry_equiv_pos_as_xyz
  1  'x, y, z'
loop_
 _atom_site_type_symbol
 _atom_site_label
 _atom_site_symmetry_multiplicity
 _atom_site_fract_x
 _atom_site_fract_y
 _atom_site_fract_z
 _atom_site_occupancy
  Zr  Zr0  1  0.59237000  0.09336000  0.90779000  1.0
  Zr  Zr1  1  0.40695000  0.90778000  0.09335000  1.0
  Zr  Zr2  1  0.59250000  0.90735000  0.09326000  1.0
  Zr  Zr3  1  0.40737000  0.09326000  0.90733000  1.0
  Zr  Zr4  1  0.59254000  0.90768000  0.90771000  1.0
  Zr  Zr5  1  0.40701000  0.09320000  0.09323000  1.0
  H  H6  1  0.71885000  0.92727000  0.92760000  1.0
  H  H7  1  0.42672000  0.92758000  0.92730000  1.0
  H  H8  1  0.42682000  0.92729000  0.21930000  1.0
  H  H9  1  0.42700000  0.21929000  0.92729000  1.0
  H  H10  1  0.14773000  0.92955000  0.29024000  1.0
  H  H11  1  0.78769000  0.13417000  0.64395000  1.0
  H  H12  1  0.85737000  0.86085000  0.72001000  1.0
  H  H13  1  0.99328000  0.85825000  0.59394000  1.0
  H  H14  1  0.21725000  0.06337000  0.35920000  1.0
  H  H15  1  0.09185000  0.05325000  0.49559000  1.0
  H  H16  1  0.43440000  0.64412000  0.13401000  1.0
  H  H17  1  0.63267000  0.29051000  0.92945000  1.0
  H  H18  1  0.36035000  0.35941000  0.06311000  1.0
  H  H19  1  0.35937000  0.49587000  0.05296000  1.0
  H  H20  1  0.56209000  0.72019000  0.86071000  1.0
  H  H21  1  0.55464000  0.59429000  0.85799000  1.0
  H  H22  1  0.43597000  0.13425000  0.28691000  1.0
  H  H23  1  0.63402000  0.93625000  0.64402000  1.0
  H  H24  1  0.35999000  0.06008000  0.72020000  1.0
  H  H25  1  0.35888000  0.05030000  0.59470000  1.0
  H  H26  1  0.56111000  0.86054000  0.35939000  1.0
  H  H27  1  0.55153000  0.85894000  0.49591000  1.0
  H  H28  1  0.78593000  0.64389000  0.93644000  1.0
  H  H29  1  0.14323000  0.28661000  0.13443000  1.0
  H  H30  1  0.21926000  0.35925000  0.86068000  1.0
  H  H31  1  0.09376000  0.49566000  0.85920000  1.0
  H  H32  1  0.86012000  0.71991000  0.06027000  1.0
  H  H33  1  0.99638000  0.59426000  0.05062000  1.0
  H  H34  1  0.17608000  0.88971000  0.11550000  1.0
  H  H35  1  0.17560000  0.11578000  0.89113000  1.0
  H  H36  1  0.81913000  0.11555000  0.88976000  1.0
  H  H37  1  0.81796000  0.89113000  0.11577000  1.0
  H  H38  1  0.63399000  0.64381000  0.28640000  1.0
  H  H39  1  0.43628000  0.28638000  0.64377000  1.0
  H  H40  1  0.56011000  0.36032000  0.72003000  1.0
  H  H41  1  0.55075000  0.49649000  0.59428000  1.0
  H  H42  1  0.35998000  0.72011000  0.36024000  1.0
  H  H43  1  0.35889000  0.59434000  0.49640000  1.0
  H  H44  1  0.94707000  0.93146000  0.46847000  1.0
  H  H45  1  0.00904000  0.91189000  0.37357000  1.0
  H  H46  1  0.97769000  0.15005000  0.45413000  1.0
  H  H47  1  0.88536000  0.20309000  0.51872000  1.0
  H  H48  1  0.41814000  0.45444000  0.14977000  1.0
  H  H49  1  0.39282000  0.51903000  0.20283000  1.0
  H  H50  1  0.65309000  0.46895000  0.93103000  1.0
  H  H51  1  0.70558000  0.37406000  0.91146000  1.0
  H  H52  1  0.41883000  0.15076000  0.47743000  1.0
  H  H53  1  0.39351000  0.20392000  0.38505000  1.0
  H  H54  1  0.65137000  0.91963000  0.45341000  1.0
  H  H55  1  0.70416000  0.89386000  0.51844000  1.0
  H  H56  1  0.97566000  0.45315000  0.91991000  1.0
  H  H57  1  0.88364000  0.51828000  0.89410000  1.0
  H  H58  1  0.95314000  0.47694000  0.15106000  1.0
  H  H59  1  0.01775000  0.38465000  0.20418000  1.0
  H  H60  1  0.65125000  0.45350000  0.47639000  1.0
  H  H61  1  0.70426000  0.51803000  0.38368000  1.0
  H  H62  1  0.41922000  0.47636000  0.45350000  1.0
  H  H63  1  0.39445000  0.38362000  0.51807000  1.0
  C  C64  1  0.73435000  0.00095000  0.76412000  1.0
  C  C65  1  0.50104000  0.76413000  0.00090000  1.0
  C  C66  1  0.26336000  0.00185000  0.23540000  1.0
  C  C67  1  0.49971000  0.23549000  0.00182000  1.0
  C  C68  1  0.73301000  0.00370000  0.00291000  1.0
  C  C69  1  0.50202000  0.23485000  0.76354000  1.0
  C  C70  1  0.26085000  0.00292000  0.00367000  1.0
  C  C71  1  0.50004000  0.76359000  0.23484000  1.0
  C  C72  1  0.73457000  0.76377000  0.00213000  1.0
  C  C73  1  0.50210000  0.00065000  0.23463000  1.0
  C  C74  1  0.26307000  0.23452000  0.00070000  1.0
  C  C75  1  0.49995000  0.00205000  0.76384000  1.0
  C  C76  1  0.18828000  0.99817000  0.31632000  1.0
  C  C77  1  0.81488000  0.99825000  0.68853000  1.0
  C  C78  1  0.13364000  0.95809000  0.33517000  1.0
  C  C79  1  0.06051000  0.95580000  0.40929000  1.0
  C  C80  1  0.83317000  0.07402000  0.63177000  1.0
  C  C81  1  0.90708000  0.07424000  0.55828000  1.0
  C  C82  1  0.87187000  0.91979000  0.67479000  1.0
  C  C83  1  0.94692000  0.91907000  0.60407000  1.0
  C  C84  1  0.17318000  0.03383000  0.37358000  1.0
  C  C85  1  0.10263000  0.02885000  0.44870000  1.0
  C  C86  1  0.04428000  0.99233000  0.46744000  1.0
  C  C87  1  0.96589000  0.99475000  0.54446000  1.0
  C  C88  1  0.49863000  0.68867000  0.99811000  1.0
  C  C89  1  0.49743000  0.31653000  0.99801000  1.0
  C  C90  1  0.46121000  0.63198000  0.07384000  1.0
  C  C91  1  0.46045000  0.55858000  0.07400000  1.0
  C  C92  1  0.57326000  0.33545000  0.95792000  1.0
  C  C93  1  0.57449000  0.40966000  0.95552000  1.0
  C  C94  1  0.41956000  0.37382000  0.03360000  1.0
  C  C95  1  0.41991000  0.44899000  0.02859000  1.0
  C  C96  1  0.53378000  0.67500000  0.91962000  1.0
  C  C97  1  0.53005000  0.60438000  0.91883000  1.0
  C  C98  1  0.49493000  0.54481000  0.99448000  1.0
  C  C99  1  0.49601000  0.46780000  0.99204000  1.0
  C  C100  1  0.49934000  0.99816000  0.31530000  1.0
  C  C101  1  0.49774000  0.99894000  0.68844000  1.0
  C  C102  1  0.46217000  0.07429000  0.33297000  1.0
  C  C103  1  0.46097000  0.07503000  0.40688000  1.0
  C  C104  1  0.57409000  0.96214000  0.63172000  1.0
  C  C105  1  0.57512000  0.96100000  0.55806000  1.0
  C  C106  1  0.41943000  0.03250000  0.67489000  1.0
  C  C107  1  0.41965000  0.02797000  0.60416000  1.0
  C  C108  1  0.53332000  0.91980000  0.37320000  1.0
  C  C109  1  0.52880000  0.91975000  0.44836000  1.0
  C  C110  1  0.49456000  0.99581000  0.46635000  1.0
  C  C111  1  0.49595000  0.99423000  0.54419000  1.0
  C  C112  1  0.81518000  0.68823000  0.99914000  1.0
  C  C113  1  0.18754000  0.31509000  0.99830000  1.0
  C  C114  1  0.83228000  0.63153000  0.96235000  1.0
  C  C115  1  0.90598000  0.55779000  0.96128000  1.0
  C  C116  1  0.13088000  0.33266000  0.07448000  1.0
  C  C117  1  0.05735000  0.40649000  0.07528000  1.0
  C  C118  1  0.17396000  0.37299000  0.91998000  1.0
  C  C119  1  0.10329000  0.44809000  0.91998000  1.0
  C  C120  1  0.87350000  0.67461000  0.03271000  1.0
  C  C121  1  0.94847000  0.60380000  0.02826000  1.0
  C  C122  1  0.96582000  0.54385000  0.99452000  1.0
  C  C123  1  0.04347000  0.46598000  0.99609000  1.0
  C  C124  1  0.14629000  0.93878000  0.06690000  1.0
  C  C125  1  0.07309000  0.93790000  0.06717000  1.0
  C  C126  1  0.03347000  0.87417000  0.13057000  1.0
  C  C127  1  0.14625000  0.06670000  0.93948000  1.0
  C  C128  1  0.07330000  0.06695000  0.93815000  1.0
  C  C129  1  0.03396000  0.13044000  0.87422000  1.0
  C  C130  1  0.84848000  0.06693000  0.93879000  1.0
  C  C131  1  0.92231000  0.06718000  0.93790000  1.0
  C  C132  1  0.96221000  0.13062000  0.87421000  1.0
  C  C133  1  0.84805000  0.93948000  0.06668000  1.0
  C  C134  1  0.92209000  0.93814000  0.06693000  1.0
  C  C135  1  0.96186000  0.87420000  0.13043000  1.0
  C  C136  1  0.18213000  0.00298000  0.00356000  1.0
  C  C137  1  0.03506000  0.00239000  0.00249000  1.0
  C  C138  1  0.81178000  0.00357000  0.00298000  1.0
  C  C139  1  0.96055000  0.00250000  0.00238000  1.0
  C  C140  1  0.49775000  0.68814000  0.31543000  1.0
  C  C141  1  0.49911000  0.31546000  0.68810000  1.0
  C  C142  1  0.57410000  0.63139000  0.33264000  1.0
  C  C143  1  0.57510000  0.55777000  0.40637000  1.0
  C  C144  1  0.46228000  0.33266000  0.63138000  1.0
  C  C145  1  0.46115000  0.40640000  0.55776000  1.0
  C  C146  1  0.53275000  0.37367000  0.67457000  1.0
  C  C147  1  0.52835000  0.44864000  0.60377000  1.0
  C  C148  1  0.41943000  0.67461000  0.37361000  1.0
  C  C149  1  0.41965000  0.60382000  0.44858000  1.0
  C  C150  1  0.49594000  0.54388000  0.46609000  1.0
  C  C151  1  0.49450000  0.46614000  0.54383000  1.0
  N  N152  1  0.00690000  0.91651000  0.42534000  1.0
  N  N153  1  0.91867000  0.15154000  0.49870000  1.0
  N  N154  1  0.43108000  0.49902000  0.15128000  1.0
  N  N155  1  0.65131000  0.42580000  0.91612000  1.0
  N  N156  1  0.43172000  0.15235000  0.41837000  1.0
  N  N157  1  0.65260000  0.93221000  0.49843000  1.0
  N  N158  1  0.91684000  0.49819000  0.93250000  1.0
  N  N159  1  0.99778000  0.41791000  0.15262000  1.0
  N  N160  1  0.65254000  0.49823000  0.41746000  1.0
  N  N161  1  0.43216000  0.41745000  0.49823000  1.0
  O  O162  1  0.70124000  0.06298000  0.79233000  1.0
  O  O163  1  0.44399000  0.79230000  0.06296000  1.0
  O  O164  1  0.29128000  0.94553000  0.20143000  1.0
  O  O165  1  0.56216000  0.20146000  0.94556000  1.0
  O  O166  1  0.70230000  0.94452000  0.06297000  1.0
  O  O167  1  0.44564000  0.20096000  0.79137000  1.0
  O  O168  1  0.29067000  0.06298000  0.94451000  1.0
  O  O169  1  0.56251000  0.79138000  0.20095000  1.0
  O  O170  1  0.70073000  0.79184000  0.94569000  1.0
  O  O171  1  0.44558000  0.06307000  0.20098000  1.0
  O  O172  1  0.29084000  0.20091000  0.06309000  1.0
  O  O173  1  0.56222000  0.94568000  0.79184000  1.0
  O  O174  1  0.56033000  0.93939000  0.20560000  1.0
  O  O175  1  0.29518000  0.20554000  0.93939000  1.0
  O  O176  1  0.43859000  0.06045000  0.79561000  1.0
  O  O177  1  0.70580000  0.79559000  0.06049000  1.0
  O  O178  1  0.70413000  0.06224000  0.94193000  1.0
  O  O179  1  0.43866000  0.79562000  0.20599000  1.0
  O  O180  1  0.29218000  0.94192000  0.06221000  1.0
  O  O181  1  0.56024000  0.20600000  0.79555000  1.0
  O  O182  1  0.43856000  0.20649000  0.06037000  1.0
  O  O183  1  0.70489000  0.94011000  0.79584000  1.0
  O  O184  1  0.55966000  0.79581000  0.94005000  1.0
  O  O185  1  0.29498000  0.06038000  0.20644000  1.0
  O  O186  1  0.44768000  0.15702000  0.94816000  1.0
  O  O187  1  0.44759000  0.94816000  0.15704000  1.0
  O  O188  1  0.44694000  0.94844000  0.94850000  1.0
  O  O189  1  0.65657000  0.94850000  0.94846000  1.0
  O  O190  1  0.53815000  0.88510000  0.03890000  1.0
  O  O191  1  0.53832000  0.03888000  0.88512000  1.0
  O  O192  1  0.38432000  0.03901000  0.03874000  1.0
  O  O193  1  0.53837000  0.03874000  0.03902000  1.0
  F  F194  1  0.92670000  0.81227000  0.19214000  1.0
  F  F195  1  0.06845000  0.81234000  0.19268000  1.0
  F  F196  1  0.92690000  0.19279000  0.81243000  1.0
  F  F197  1  0.06930000  0.19220000  0.81233000  1.0
