# generated using pymatgen
data_ZnH12C13N2O5
_symmetry_space_group_name_H-M   'P 1'
_cell_length_a   8.41823000
_cell_length_b   18.36810000
_cell_length_c   19.06710000
_cell_angle_alpha   74.90000000
_cell_angle_beta   89.99990000
_cell_angle_gamma   89.99990000
_symmetry_Int_Tables_number   1
_chemical_formula_structural   ZnH12C13N2O5
_chemical_formula_sum   'Zn8 H96 C104 N16 O40'
_cell_volume   2846.48981092
_cell_formula_units_Z   8
loop_
 _symmetry_equiv_pos_site_id
 _symmetry_equiv_pos_as_xyz
  1  'x, y, z'
loop_
 _atom_site_type_symbol
 _atom_site_label
 _atom_site_symmetry_multiplicity
 _atom_site_fract_x
 _atom_site_fract_y
 _atom_site_fract_z
 _atom_site_occupancy
  Zn  Zn0  1  0.70966000  0.44304000  0.35465000  1.0
  Zn  Zn1  1  0.20966000  0.55696000  0.14535000  1.0
  Zn  Zn2  1  0.29034000  0.55696000  0.64535000  1.0
  Zn  Zn3  1  0.79034000  0.44304000  0.85465000  1.0
  Zn  Zn4  1  0.91467000  0.05947000  0.65045000  1.0
  Zn  Zn5  1  0.41467000  0.94053000  0.84955000  1.0
  Zn  Zn6  1  0.08533000  0.94053000  0.34955000  1.0
  Zn  Zn7  1  0.58533000  0.05947000  0.15045000  1.0
  H  H8  1  0.56855000  0.66368000  0.47841000  1.0
  H  H9  1  0.06855000  0.33632000  0.02158000  1.0
  H  H10  1  0.43145000  0.33632000  0.52158000  1.0
  H  H11  1  0.93145000  0.66368000  0.97842000  1.0
  H  H12  1  0.91316000  0.54809000  0.63313000  1.0
  H  H13  1  0.41316000  0.45191000  0.86687000  1.0
  H  H14  1  0.08684000  0.45191000  0.36687000  1.0
  H  H15  1  0.58684000  0.54808000  0.13313000  1.0
  H  H16  1  0.46795000  0.61850000  0.38889000  1.0
  H  H17  1  0.96795000  0.38150000  0.11111000  1.0
  H  H18  1  0.53205000  0.38150000  0.61111000  1.0
  H  H19  1  0.03205000  0.61850000  0.88889000  1.0
  H  H20  1  0.48693000  0.58962000  0.25132000  1.0
  H  H21  1  0.98693000  0.41038000  0.24868000  1.0
  H  H22  1  0.51307000  0.41038000  0.74868000  1.0
  H  H23  1  0.01307000  0.58962000  0.75132000  1.0
  H  H24  1  0.32059000  0.55262000  0.30458000  1.0
  H  H25  1  0.82059000  0.44738000  0.19542000  1.0
  H  H26  1  0.67941000  0.44738000  0.69542000  1.0
  H  H27  1  0.17941000  0.55262000  0.80458000  1.0
  H  H28  1  0.69032000  0.72896000  0.56023000  1.0
  H  H29  1  0.19032000  0.27104000  0.93976000  1.0
  H  H30  1  0.30968000  0.27104000  0.43977000  1.0
  H  H31  1  0.80968000  0.72896000  0.06023000  1.0
  H  H32  1  0.66898000  0.66344000  0.64628000  1.0
  H  H33  1  0.16898000  0.33657000  0.85372000  1.0
  H  H34  1  0.33102000  0.33656000  0.35372000  1.0
  H  H35  1  0.83102000  0.66343000  0.14628000  1.0
  H  H36  1  0.86108000  0.69045000  0.61193000  1.0
  H  H37  1  0.36107000  0.30955000  0.88806000  1.0
  H  H38  1  0.13892000  0.30955000  0.38807000  1.0
  H  H39  1  0.63892000  0.69045000  0.11194000  1.0
  H  H40  1  0.00024000  0.42588000  0.63727000  1.0
  H  H41  1  0.50024000  0.57412000  0.86273000  1.0
  H  H42  1  0.99976000  0.57412000  0.36273000  1.0
  H  H43  1  0.49976000  0.42588000  0.13727000  1.0
  H  H44  1  0.05341000  0.29367000  0.65688000  1.0
  H  H45  1  0.55342000  0.70633000  0.84313000  1.0
  H  H46  1  0.94659000  0.70633000  0.34312000  1.0
  H  H47  1  0.44658000  0.29367000  0.15688000  1.0
  H  H48  1  0.14095000  0.29575000  0.57169000  1.0
  H  H49  1  0.64096000  0.70425000  0.92831000  1.0
  H  H50  1  0.85905000  0.70425000  0.42831000  1.0
  H  H51  1  0.35904000  0.29575000  0.07169000  1.0
  H  H52  1  0.79570000  0.84398000  0.51040000  1.0
  H  H53  1  0.29569000  0.15602000  0.98960000  1.0
  H  H54  1  0.20430000  0.15602000  0.48960000  1.0
  H  H55  1  0.70431000  0.84398000  0.01040000  1.0
  H  H56  1  0.54061000  0.02001000  0.36100000  1.0
  H  H57  1  0.04061000  0.97999000  0.13900000  1.0
  H  H58  1  0.45939000  0.97999000  0.63900000  1.0
  H  H59  1  0.95939000  0.02001000  0.86100000  1.0
  H  H60  1  0.93501000  0.85934000  0.60390000  1.0
  H  H61  1  0.43500000  0.14066000  0.89610000  1.0
  H  H62  1  0.06499000  0.14066000  0.39610000  1.0
  H  H63  1  0.56499000  0.85934000  0.10390000  1.0
  H  H64  1  0.11827000  0.86503000  0.68799000  1.0
  H  H65  1  0.61827000  0.13497000  0.81201000  1.0
  H  H66  1  0.88173000  0.13498000  0.31201000  1.0
  H  H67  1  0.38173000  0.86503000  0.18799000  1.0
  H  H68  1  0.96402000  0.87488000  0.74747000  1.0
  H  H69  1  0.46402000  0.12512000  0.75253000  1.0
  H  H70  1  0.03598000  0.12512000  0.25252000  1.0
  H  H71  1  0.53598000  0.87488000  0.24747000  1.0
  H  H72  1  0.61826000  0.81019000  0.42583000  1.0
  H  H73  1  0.11826000  0.18981000  0.07417000  1.0
  H  H74  1  0.38174000  0.18981000  0.57417000  1.0
  H  H75  1  0.88174000  0.81019000  0.92583000  1.0
  H  H76  1  0.47957000  0.87596000  0.37518000  1.0
  H  H77  1  0.97957000  0.12404000  0.12482000  1.0
  H  H78  1  0.52043000  0.12404000  0.62482000  1.0
  H  H79  1  0.02043000  0.87596000  0.87519000  1.0
  H  H80  1  0.67988000  0.87354000  0.34337000  1.0
  H  H81  1  0.17987000  0.12646000  0.15663000  1.0
  H  H82  1  0.32013000  0.12646000  0.65663000  1.0
  H  H83  1  0.82013000  0.87354000  0.84337000  1.0
  H  H84  1  0.57167000  0.14593000  0.36417000  1.0
  H  H85  1  0.07167000  0.85407000  0.13583000  1.0
  H  H86  1  0.42833000  0.85407000  0.63583000  1.0
  H  H87  1  0.92833000  0.14593000  0.86417000  1.0
  H  H88  1  0.64109000  0.29564000  0.44905000  1.0
  H  H89  1  0.14109000  0.70436000  0.05095000  1.0
  H  H90  1  0.35891000  0.70436000  0.55095000  1.0
  H  H91  1  0.85891000  0.29564000  0.94905000  1.0
  H  H92  1  0.57131000  0.27448000  0.36785000  1.0
  H  H93  1  0.07131000  0.72552000  0.13215000  1.0
  H  H94  1  0.42869000  0.72552000  0.63215000  1.0
  H  H95  1  0.92869000  0.27448000  0.86785000  1.0
  H  H96  1  0.86937000  0.36315000  0.52147000  1.0
  H  H97  1  0.36937000  0.63685000  0.97853000  1.0
  H  H98  1  0.13064000  0.63685000  0.47853000  1.0
  H  H99  1  0.63063000  0.36315000  0.02147000  1.0
  H  H100  1  0.71932000  0.16823000  0.49873000  1.0
  H  H101  1  0.21932000  0.83177000  0.00127000  1.0
  H  H102  1  0.28068000  0.83177000  0.50127000  1.0
  H  H103  1  0.78067000  0.16823000  0.99873000  1.0
  C  C104  1  0.74210000  0.49136000  0.49139000  1.0
  C  C105  1  0.24210000  0.50864000  0.00861000  1.0
  C  C106  1  0.25790000  0.50864000  0.50861000  1.0
  C  C107  1  0.75790000  0.49136000  0.99139000  1.0
  C  C108  1  0.64553000  0.55753000  0.46372000  1.0
  C  C109  1  0.14553000  0.44247000  0.03627000  1.0
  C  C110  1  0.35447000  0.44247000  0.53627000  1.0
  C  C111  1  0.85447000  0.55753000  0.96373000  1.0
  C  C112  1  0.64553000  0.61496000  0.50000000  1.0
  C  C113  1  0.14553000  0.38504000  0.00000000  1.0
  C  C114  1  0.35447000  0.38504000  0.50000000  1.0
  C  C115  1  0.85447000  0.61496000  0.00000000  1.0
  C  C116  1  0.74070000  0.61373000  0.56066000  1.0
  C  C117  1  0.24070000  0.38627000  0.93934000  1.0
  C  C118  1  0.25930000  0.38627000  0.43934000  1.0
  C  C119  1  0.75930000  0.61373000  0.06066000  1.0
  C  C120  1  0.83551000  0.55031000  0.58689000  1.0
  C  C121  1  0.33551000  0.44969000  0.91311000  1.0
  C  C122  1  0.16450000  0.44969000  0.41312000  1.0
  C  C123  1  0.66449000  0.55031000  0.08689000  1.0
  C  C124  1  0.83568000  0.48880000  0.55551000  1.0
  C  C125  1  0.33568000  0.51120000  0.94449000  1.0
  C  C126  1  0.16432000  0.51120000  0.44449000  1.0
  C  C127  1  0.66432000  0.48880000  0.05551000  1.0
  C  C128  1  0.54511000  0.56821000  0.40016000  1.0
  C  C129  1  0.04511000  0.43179000  0.09984000  1.0
  C  C130  1  0.45490000  0.43179000  0.59984000  1.0
  C  C131  1  0.95489000  0.56821000  0.90016000  1.0
  C  C132  1  0.44427000  0.53988000  0.29321000  1.0
  C  C133  1  0.94427000  0.46012000  0.20679000  1.0
  C  C134  1  0.55573000  0.46012000  0.70679000  1.0
  C  C135  1  0.05573000  0.53988000  0.79321000  1.0
  C  C136  1  0.44765000  0.47349000  0.25855000  1.0
  C  C137  1  0.94765000  0.52651000  0.24145000  1.0
  C  C138  1  0.55235000  0.52651000  0.74145000  1.0
  C  C139  1  0.05235000  0.47349000  0.75855000  1.0
  C  C140  1  0.74084000  0.67767000  0.59634000  1.0
  C  C141  1  0.24085000  0.32233000  0.90365000  1.0
  C  C142  1  0.25916000  0.32233000  0.40366000  1.0
  C  C143  1  0.75916000  0.67767000  0.09634000  1.0
  C  C144  1  0.93078000  0.42457000  0.58898000  1.0
  C  C145  1  0.43078000  0.57543000  0.91102000  1.0
  C  C146  1  0.06922000  0.57543000  0.41102000  1.0
  C  C147  1  0.56922000  0.42457000  0.08898000  1.0
  C  C148  1  0.02703000  0.29569000  0.60004000  1.0
  C  C149  1  0.52703000  0.70431000  0.89996000  1.0
  C  C150  1  0.97297000  0.70431000  0.39996000  1.0
  C  C151  1  0.47297000  0.29569000  0.10004000  1.0
  C  C152  1  0.93316000  0.22504000  0.59446000  1.0
  C  C153  1  0.43317000  0.77496000  0.90554000  1.0
  C  C154  1  0.06684000  0.77496000  0.40554000  1.0
  C  C155  1  0.56684000  0.22504000  0.09446000  1.0
  C  C156  1  0.75301000  0.02839000  0.51485000  1.0
  C  C157  1  0.25301000  0.97161000  0.98515000  1.0
  C  C158  1  0.24699000  0.97161000  0.48515000  1.0
  C  C159  1  0.74699000  0.02839000  0.01485000  1.0
  C  C160  1  0.80235000  0.95077000  0.53525000  1.0
  C  C161  1  0.30235000  0.04923000  0.96475000  1.0
  C  C162  1  0.19764000  0.04923000  0.46475000  1.0
  C  C163  1  0.69765000  0.95077000  0.03525000  1.0
  C  C164  1  0.75398000  0.90229000  0.49346000  1.0
  C  C165  1  0.25397000  0.09771000  0.00654000  1.0
  C  C166  1  0.24602000  0.09771000  0.50654000  1.0
  C  C167  1  0.74602000  0.90229000  0.99346000  1.0
  C  C168  1  0.65605000  0.92408000  0.43213000  1.0
  C  C169  1  0.15605000  0.07592000  0.06787000  1.0
  C  C170  1  0.34394000  0.07592000  0.56787000  1.0
  C  C171  1  0.84395000  0.92408000  0.93213000  1.0
  C  C172  1  0.61323000  0.99976000  0.40980000  1.0
  C  C173  1  0.11323000  0.00024000  0.09020000  1.0
  C  C174  1  0.38677000  0.00024000  0.59020000  1.0
  C  C175  1  0.88677000  0.99976000  0.90980000  1.0
  C  C176  1  0.66200000  0.05218000  0.44817000  1.0
  C  C177  1  0.16199000  0.94782000  0.05183000  1.0
  C  C178  1  0.33800000  0.94782000  0.55183000  1.0
  C  C179  1  0.83800000  0.05218000  0.94817000  1.0
  C  C180  1  0.90028000  0.91846000  0.59742000  1.0
  C  C181  1  0.40028000  0.08154000  0.90258000  1.0
  C  C182  1  0.09972000  0.08154000  0.40258000  1.0
  C  C183  1  0.59972000  0.91846000  0.09742000  1.0
  C  C184  1  0.04463000  0.90685000  0.70483000  1.0
  C  C185  1  0.54463000  0.09315000  0.79518000  1.0
  C  C186  1  0.95537000  0.09315000  0.29517000  1.0
  C  C187  1  0.45537000  0.90685000  0.20483000  1.0
  C  C188  1  0.14551000  0.95562000  0.74087000  1.0
  C  C189  1  0.64551000  0.04438000  0.75913000  1.0
  C  C190  1  0.85449000  0.04439000  0.25913000  1.0
  C  C191  1  0.35449000  0.95562000  0.24087000  1.0
  C  C192  1  0.60466000  0.86808000  0.39167000  1.0
  C  C193  1  0.10466000  0.13192000  0.10833000  1.0
  C  C194  1  0.39534000  0.13192000  0.60833000  1.0
  C  C195  1  0.89534000  0.86808000  0.89167000  1.0
  C  C196  1  0.62790000  0.12945000  0.41779000  1.0
  C  C197  1  0.12790000  0.87055000  0.08222000  1.0
  C  C198  1  0.37210000  0.87055000  0.58221000  1.0
  C  C199  1  0.87210000  0.12945000  0.91779000  1.0
  C  C200  1  0.66389000  0.26241000  0.41000000  1.0
  C  C201  1  0.16389000  0.73759000  0.09000000  1.0
  C  C202  1  0.33611000  0.73759000  0.59000000  1.0
  C  C203  1  0.83611000  0.26241000  0.91000000  1.0
  C  C204  1  0.82559000  0.28697000  0.37232000  1.0
  C  C205  1  0.32559000  0.71303000  0.12769000  1.0
  C  C206  1  0.17441000  0.71303000  0.62768000  1.0
  C  C207  1  0.67441000  0.28697000  0.87231000  1.0
  N  N208  1  0.54355000  0.52429000  0.35723000  1.0
  N  N209  1  0.04355000  0.47571000  0.14277000  1.0
  N  N210  1  0.45645000  0.47571000  0.64277000  1.0
  N  N211  1  0.95645000  0.52429000  0.85723000  1.0
  N  N212  1  0.93939000  0.36360000  0.56605000  1.0
  N  N213  1  0.43939000  0.63640000  0.93395000  1.0
  N  N214  1  0.06062000  0.63640000  0.43395000  1.0
  N  N215  1  0.56061000  0.36360000  0.06605000  1.0
  N  N216  1  0.95053000  0.95182000  0.64532000  1.0
  N  N217  1  0.45053000  0.04818000  0.85468000  1.0
  N  N218  1  0.04948000  0.04818000  0.35468000  1.0
  N  N219  1  0.54948000  0.95182000  0.14532000  1.0
  N  N220  1  0.66323000  0.18374000  0.44824000  1.0
  N  N221  1  0.16323000  0.81626000  0.05176000  1.0
  N  N222  1  0.33677000  0.81626000  0.55176000  1.0
  N  N223  1  0.83676000  0.18374000  0.94824000  1.0
  O  O224  1  0.74762000  0.43478000  0.46254000  1.0
  O  O225  1  0.24762000  0.56522000  0.03746000  1.0
  O  O226  1  0.25238000  0.56522000  0.53746000  1.0
  O  O227  1  0.75238000  0.43478000  0.96254000  1.0
  O  O228  1  0.54702000  0.42044000  0.28112000  1.0
  O  O229  1  0.04702000  0.57956000  0.21888000  1.0
  O  O230  1  0.45298000  0.57956000  0.71888000  1.0
  O  O231  1  0.95298000  0.42044000  0.78111000  1.0
  O  O232  1  0.35377000  0.47411000  0.20616000  1.0
  O  O233  1  0.85376000  0.52589000  0.29384000  1.0
  O  O234  1  0.64623000  0.52589000  0.79384000  1.0
  O  O235  1  0.14624000  0.47411000  0.70616000  1.0
  O  O236  1  0.00784000  0.16392000  0.62315000  1.0
  O  O237  1  0.50785000  0.83608000  0.87685000  1.0
  O  O238  1  0.99216000  0.83608000  0.37685000  1.0
  O  O239  1  0.49215000  0.16392000  0.12314000  1.0
  O  O240  1  0.80221000  0.23483000  0.56253000  1.0
  O  O241  1  0.30221000  0.76517000  0.93747000  1.0
  O  O242  1  0.19779000  0.76517000  0.43747000  1.0
  O  O243  1  0.69779000  0.23483000  0.06253000  1.0
  O  O244  1  0.78763000  0.07597000  0.55154000  1.0
  O  O245  1  0.28762000  0.92402000  0.94846000  1.0
  O  O246  1  0.21237000  0.92403000  0.44846000  1.0
  O  O247  1  0.71238000  0.07597000  0.05154000  1.0
  O  O248  1  0.11409000  0.02487000  0.72987000  1.0
  O  O249  1  0.61408000  0.97513000  0.77013000  1.0
  O  O250  1  0.88591000  0.97513000  0.27013000  1.0
  O  O251  1  0.38592000  0.02487000  0.22987000  1.0
  O  O252  1  0.25299000  0.91828000  0.78228000  1.0
  O  O253  1  0.75299000  0.08172000  0.71772000  1.0
  O  O254  1  0.74701000  0.08172000  0.21772000  1.0
  O  O255  1  0.24701000  0.91828000  0.28228000  1.0
  O  O256  1  0.85435000  0.35859000  0.35590000  1.0
  O  O257  1  0.35435000  0.64141000  0.14410000  1.0
  O  O258  1  0.14565000  0.64141000  0.64409000  1.0
  O  O259  1  0.64564000  0.35859000  0.85590000  1.0
  O  O260  1  0.91675000  0.23913000  0.35940000  1.0
  O  O261  1  0.41675000  0.76087000  0.14060000  1.0
  O  O262  1  0.08325000  0.76087000  0.64060000  1.0
  O  O263  1  0.58325000  0.23913000  0.85940000  1.0
