# generated using pymatgen
data_CuH4C4BrN2
_symmetry_space_group_name_H-M   'P 1'
_cell_length_a   3.87554000
_cell_length_b   6.40588000
_cell_length_c   11.70320000
_cell_angle_alpha   89.99850000
_cell_angle_beta   80.87100000
_cell_angle_gamma   89.99620000
_symmetry_Int_Tables_number   1
_chemical_formula_structural   CuH4C4BrN2
_chemical_formula_sum   'Cu2 H8 C8 Br2 N4'
_cell_volume   286.86633047
_cell_formula_units_Z   2
loop_
 _symmetry_equiv_pos_site_id
 _symmetry_equiv_pos_as_xyz
  1  'x, y, z'
loop_
 _atom_site_type_symbol
 _atom_site_label
 _atom_site_symmetry_multiplicity
 _atom_site_fract_x
 _atom_site_fract_y
 _atom_site_fract_z
 _atom_site_occupancy
  Cu  Cu0  1  0.99996000  0.73368000  0.75000000  1.0
  Cu  Cu1  1  0.00001000  0.26633000  0.24999000  1.0
  H  H2  1  0.76172000  0.64906000  0.52574000  1.0
  H  H3  1  0.23829000  0.64903000  0.97427000  1.0
  H  H4  1  0.23834000  0.35095000  0.47425000  1.0
  H  H5  1  0.76168000  0.35095000  0.02574000  1.0
  H  H6  1  0.24052000  0.15733000  0.65918000  1.0
  H  H7  1  0.75948000  0.15732000  0.84081000  1.0
  H  H8  1  0.75954000  0.84272000  0.34082000  1.0
  H  H9  1  0.24049000  0.84267000  0.15919000  1.0
  C  C10  1  0.87076000  0.80590000  0.51376000  1.0
  C  C11  1  0.12924000  0.80587000  0.98624000  1.0
  C  C12  1  0.12927000  0.19411000  0.48622000  1.0
  C  C13  1  0.87073000  0.19411000  0.01378000  1.0
  C  C14  1  0.13196000  0.08510000  0.58835000  1.0
  C  C15  1  0.86801000  0.08508000  0.91165000  1.0
  C  C16  1  0.86805000  0.91492000  0.41164000  1.0
  C  C17  1  0.13195000  0.91489000  0.08836000  1.0
  Br  Br18  1  0.50003000  0.48969000  0.74998000  1.0
  Br  Br19  1  0.49999000  0.51033000  0.25000000  1.0
  N  N20  1  0.00317000  0.88888000  0.60386000  1.0
  N  N21  1  0.99682000  0.88886000  0.89615000  1.0
  N  N22  1  0.99685000  0.11113000  0.39615000  1.0
  N  N23  1  0.00315000  0.11110000  0.10385000  1.0
