# generated using pymatgen
data_CoH12C16(NO2)2
_symmetry_space_group_name_H-M   'P 1'
_cell_length_a   8.07720000
_cell_length_b   10.46760000
_cell_length_c   10.93140000
_cell_angle_alpha   89.99990000
_cell_angle_beta   91.22480000
_cell_angle_gamma   89.99980000
_symmetry_Int_Tables_number   1
_chemical_formula_structural   CoH12C16(NO2)2
_chemical_formula_sum   'Co2 H24 C32 N4 O8'
_cell_volume   924.02666629
_cell_formula_units_Z   2
loop_
 _symmetry_equiv_pos_site_id
 _symmetry_equiv_pos_as_xyz
  1  'x, y, z'
loop_
 _atom_site_type_symbol
 _atom_site_label
 _atom_site_symmetry_multiplicity
 _atom_site_fract_x
 _atom_site_fract_y
 _atom_site_fract_z
 _atom_site_occupancy
  Co  Co0  1  0.00000000  0.50000000  0.00000000  1.0
  Co  Co1  1  0.50000000  0.00000000  0.50000000  1.0
  H  H2  1  0.29854000  0.38735000  0.91270000  1.0
  H  H3  1  0.20145000  0.88735000  0.58730000  1.0
  H  H4  1  0.70145000  0.61265000  0.08731000  1.0
  H  H5  1  0.79856000  0.11265000  0.41269000  1.0
  H  H6  1  0.55478000  0.46323000  0.81329000  1.0
  H  H7  1  0.94521000  0.96323000  0.68670000  1.0
  H  H8  1  0.44521000  0.53677000  0.18672000  1.0
  H  H9  1  0.05479000  0.03677000  0.31329000  1.0
  H  H10  1  0.33765000  0.83990000  0.79961000  1.0
  H  H11  1  0.16235000  0.33989000  0.70040000  1.0
  H  H12  1  0.66235000  0.16010000  0.20039000  1.0
  H  H13  1  0.83766000  0.66011000  0.29961000  1.0
  H  H14  1  0.09266000  0.74974000  0.90165000  1.0
  H  H15  1  0.40734000  0.24973000  0.59836000  1.0
  H  H16  1  0.90734000  0.25026000  0.09835000  1.0
  H  H17  1  0.59267000  0.75026000  0.40165000  1.0
  H  H18  1  0.74780000  0.84057000  0.62944000  1.0
  H  H19  1  0.75220000  0.34058000  0.87056000  1.0
  H  H20  1  0.25220000  0.15943000  0.37055000  1.0
  H  H21  1  0.24780000  0.65942000  0.12944000  1.0
  H  H22  1  0.89046000  0.71317000  0.74490000  1.0
  H  H23  1  0.60955000  0.21318000  0.75510000  1.0
  H  H24  1  0.10954000  0.28682000  0.25510000  1.0
  H  H25  1  0.39046000  0.78681000  0.24490000  1.0
  C  C26  1  0.31301000  0.48674000  0.88602000  1.0
  C  C27  1  0.18698000  0.98674000  0.61398000  1.0
  C  C28  1  0.68698000  0.51326000  0.11399000  1.0
  C  C29  1  0.81302000  0.01327000  0.38601000  1.0
  C  C30  1  0.45510000  0.53016000  0.83069000  1.0
  C  C31  1  0.04489000  0.03015000  0.66930000  1.0
  C  C32  1  0.54490000  0.46984000  0.16932000  1.0
  C  C33  1  0.95511000  0.96985000  0.33069000  1.0
  C  C34  1  0.33524000  0.73880000  0.82252000  1.0
  C  C35  1  0.16476000  0.23879000  0.67748000  1.0
  C  C36  1  0.66476000  0.26120000  0.17747000  1.0
  C  C37  1  0.83525000  0.76120000  0.32253000  1.0
  C  C38  1  0.19724000  0.68920000  0.87885000  1.0
  C  C39  1  0.30275000  0.18919000  0.62115000  1.0
  C  C40  1  0.80275000  0.31080000  0.12115000  1.0
  C  C41  1  0.69726000  0.81081000  0.37885000  1.0
  C  C42  1  0.47155000  0.65952000  0.79826000  1.0
  C  C43  1  0.02845000  0.15951000  0.70174000  1.0
  C  C44  1  0.52844000  0.34048000  0.20174000  1.0
  C  C45  1  0.97155000  0.84049000  0.29826000  1.0
  C  C46  1  0.62422000  0.70933000  0.74631000  1.0
  C  C47  1  0.87578000  0.20933000  0.75368000  1.0
  C  C48  1  0.37577000  0.29066000  0.25368000  1.0
  C  C49  1  0.12423000  0.79067000  0.24632000  1.0
  C  C50  1  0.62541000  0.80553000  0.65695000  1.0
  C  C51  1  0.87458000  0.30553000  0.84305000  1.0
  C  C52  1  0.37459000  0.19447000  0.34305000  1.0
  C  C53  1  0.12542000  0.69447000  0.15695000  1.0
  C  C54  1  0.78282000  0.66692000  0.78926000  1.0
  C  C55  1  0.71718000  0.16692000  0.71075000  1.0
  C  C56  1  0.21718000  0.33308000  0.21074000  1.0
  C  C57  1  0.28282000  0.83308000  0.28925000  1.0
  N  N58  1  0.18502000  0.56493000  0.91186000  1.0
  N  N59  1  0.31497000  0.06493000  0.58814000  1.0
  N  N60  1  0.81497000  0.43507000  0.08814000  1.0
  N  N61  1  0.68503000  0.93507000  0.41186000  1.0
  O  O62  1  0.49638000  0.85350000  0.60515000  1.0
  O  O63  1  0.00361000  0.35350000  0.89484000  1.0
  O  O64  1  0.50362000  0.14650000  0.39485000  1.0
  O  O65  1  0.99638000  0.64650000  0.10516000  1.0
  O  O66  1  0.80787000  0.58601000  0.87241000  1.0
  O  O67  1  0.69213000  0.08601000  0.62759000  1.0
  O  O68  1  0.19213000  0.41399000  0.12759000  1.0
  O  O69  1  0.30787000  0.91399000  0.37241000  1.0
