# generated using pymatgen
data_Al6H55C103Cl3O35
_symmetry_space_group_name_H-M   'P 1'
_cell_length_a   13.44090000
_cell_length_b   13.54570000
_cell_length_c   27.35900000
_cell_angle_alpha   90.06000000
_cell_angle_beta   90.74320000
_cell_angle_gamma   60.37800000
_symmetry_Int_Tables_number   1
_chemical_formula_structural   Al6H55C103Cl3O35
_chemical_formula_sum   'Al6 H55 C103 Cl3 O35'
_cell_volume   4329.69691496
_cell_formula_units_Z   1
loop_
 _symmetry_equiv_pos_site_id
 _symmetry_equiv_pos_as_xyz
  1  'x, y, z'
loop_
 _atom_site_type_symbol
 _atom_site_label
 _atom_site_symmetry_multiplicity
 _atom_site_fract_x
 _atom_site_fract_y
 _atom_site_fract_z
 _atom_site_occupancy
  Al  Al0  1  0.82424000  0.57997000  0.49500000  1.0
  Al  Al1  1  0.07521000  0.36216000  0.49643000  1.0
  Al  Al2  1  0.05760000  0.59029000  0.50001000  1.0
  Al  Al3  1  0.82867000  0.08275000  0.98252000  1.0
  Al  Al4  1  0.58880000  0.08608000  0.98320000  1.0
  Al  Al5  1  0.58280000  0.31003000  0.98068000  1.0
  H  H6  1  0.27924000  0.20134000  0.21571000  1.0
  H  H7  1  0.44044000  0.14858000  0.29387000  1.0
  H  H8  1  0.56440000  0.22314000  0.23533000  1.0
  H  H9  1  0.88412000  0.99661000  0.22857000  1.0
  H  H10  1  0.70149000  0.07100000  0.29623000  1.0
  H  H11  1  0.69298000  0.78312000  0.27736000  1.0
  H  H12  1  0.58624000  0.99765000  0.22969000  1.0
  H  H13  1  0.66994000  0.51711000  0.21650000  1.0
  H  H14  1  0.67396000  0.36274000  0.28774000  1.0
  H  H15  1  0.88588000  0.47702000  0.25231000  1.0
  H  H16  1  0.99943000  0.14219000  0.25517000  1.0
  H  H17  1  0.78185000  0.18395000  0.21919000  1.0
  H  H18  1  0.48592000  0.11130000  0.84726000  1.0
  H  H19  1  0.50425000  0.03338000  0.76313000  1.0
  H  H20  1  0.46177000  0.06275000  0.67528000  1.0
  H  H21  1  0.34226000  0.47096000  0.86767000  1.0
  H  H22  1  0.26010000  0.60467000  0.79586000  1.0
  H  H23  1  0.21787000  0.63334000  0.70753000  1.0
  H  H24  1  0.20537000  0.55702000  0.62616000  1.0
  H  H25  1  0.94267000  0.88260000  0.87052000  1.0
  H  H26  1  0.02271000  0.75052000  0.62950000  1.0
  H  H27  1  0.08611000  0.80234000  0.70734000  1.0
  H  H28  1  0.61907000  0.89189000  0.86275000  1.0
  H  H29  1  0.55395000  0.84193000  0.78462000  1.0
  H  H30  1  0.70263000  0.75285000  0.62208000  1.0
  H  H31  1  0.58781000  0.38791000  0.83521000  1.0
  H  H32  1  0.70826000  0.44480000  0.60016000  1.0
  H  H33  1  0.52110000  0.45200000  0.74948000  1.0
  H  H34  1  0.56515000  0.46923000  0.66353000  1.0
  H  H35  1  0.94778000  0.19495000  0.86883000  1.0
  H  H36  1  0.13530000  0.18924000  0.71922000  1.0
  H  H37  1  0.06778000  0.26039000  0.63505000  1.0
  H  H38  1  0.78798000  0.71998000  0.14607000  1.0
  H  H39  1  0.75541000  0.65748000  0.19705000  1.0
  H  H40  1  0.88072000  0.57303000  0.16141000  1.0
  H  H41  1  0.37085000  0.02897000  0.58410000  1.0
  H  H42  1  0.23095000  0.15333000  0.58080000  1.0
  H  H43  1  0.29809000  0.09625000  0.63919000  1.0
  H  H44  1  0.13917000  0.93324000  0.83359000  1.0
  H  H45  1  0.98698000  0.99824000  0.82816000  1.0
  H  H46  1  0.06974000  0.98369000  0.77491000  1.0
  H  H47  1  0.65029000  0.63908000  0.66759000  1.0
  H  H48  1  0.49742000  0.71049000  0.66061000  1.0
  H  H49  1  0.56259000  0.66371000  0.72010000  1.0
  H  H50  1  0.23615000  0.63567000  0.23501000  1.0
  H  H51  1  0.11360000  0.62926000  0.21209000  1.0
  H  H52  1  0.18724000  0.67815000  0.17323000  1.0
  H  H53  1  0.24346000  0.16685000  0.78928000  1.0
  H  H54  1  0.23941000  0.04088000  0.77191000  1.0
  H  H55  1  0.26924000  0.06041000  0.83438000  1.0
  H  H56  1  0.02091000  0.83656000  0.34307000  1.0
  H  H57  1  0.05060000  0.89564000  0.28986000  1.0
  H  H58  1  0.15346000  0.75654000  0.31176000  1.0
  H  H59  1  0.64115000  0.60709000  0.50989000  1.0
  H  H60  1  0.01740000  0.00615000  0.01185000  1.0
  C  C61  1  0.91958000  0.38321000  0.42467000  1.0
  C  C62  1  0.19715000  0.42381000  0.42894000  1.0
  C  C63  1  0.88292000  0.73262000  0.43704000  1.0
  C  C64  1  0.91628000  0.37734000  0.56346000  1.0
  C  C65  1  0.21461000  0.40884000  0.56200000  1.0
  C  C66  1  0.89179000  0.69768000  0.57169000  1.0
  C  C67  1  0.40315000  0.22550000  0.27134000  1.0
  C  C68  1  0.31387000  0.25449000  0.22886000  1.0
  C  C69  1  0.42425000  0.26809000  0.10193000  1.0
  C  C70  1  0.25567000  0.39926000  0.38307000  1.0
  C  C71  1  0.47170000  0.26725000  0.23985000  1.0
  C  C72  1  0.38237000  0.29609000  0.19612000  1.0
  C  C73  1  0.39819000  0.39024000  0.26037000  1.0
  C  C74  1  0.32973000  0.34856000  0.29310000  1.0
  C  C75  1  0.30880000  0.42049000  0.21650000  1.0
  C  C76  1  0.24024000  0.37756000  0.24907000  1.0
  C  C77  1  0.40695000  0.27624000  0.14577000  1.0
  C  C78  1  0.29432000  0.37650000  0.34196000  1.0
  C  C79  1  0.74025000  0.99057000  0.27646000  1.0
  C  C80  1  0.84193000  0.94937000  0.24012000  1.0
  C  C81  1  0.76374000  0.94151000  0.10804000  1.0
  C  C82  1  0.84586000  0.80282000  0.39398000  1.0
  C  C83  1  0.67650000  0.94947000  0.24059000  1.0
  C  C84  1  0.77743000  0.90969000  0.20315000  1.0
  C  C85  1  0.73531000  0.83018000  0.26576000  1.0
  C  C86  1  0.79932000  0.87061000  0.30273000  1.0
  C  C87  1  0.83914000  0.78655000  0.22985000  1.0
  C  C88  1  0.90272000  0.82873000  0.26489000  1.0
  C  C89  1  0.76846000  0.92767000  0.15222000  1.0
  C  C90  1  0.81807000  0.84184000  0.35278000  1.0
  C  C91  1  0.74463000  0.34841000  0.26419000  1.0
  C  C92  1  0.74307000  0.43410000  0.22560000  1.0
  C  C93  1  0.76313000  0.32587000  0.09389000  1.0
  C  C94  1  0.90532000  0.34641000  0.37707000  1.0
  C  C95  1  0.80579000  0.24845000  0.22746000  1.0
  C  C96  1  0.80301000  0.33464000  0.18755000  1.0
  C  C97  1  0.92557000  0.22523000  0.24673000  1.0
  C  C98  1  0.86507000  0.32574000  0.28441000  1.0
  C  C99  1  0.92392000  0.31118000  0.20828000  1.0
  C  C100  1  0.86231000  0.41221000  0.24462000  1.0
  C  C101  1  0.77769000  0.33353000  0.13748000  1.0
  C  C102  1  0.89104000  0.33074000  0.33430000  1.0
  C  C103  1  0.33419000  0.26773000  0.62925000  1.0
  C  C104  1  0.36829000  0.24800000  0.67917000  1.0
  C  C105  1  0.42149000  0.21270000  0.78118000  1.0
  C  C106  1  0.45612000  0.11928000  0.74835000  1.0
  C  C107  1  0.43195000  0.13562000  0.69942000  1.0
  C  C108  1  0.44283000  0.19671000  0.83166000  1.0
  C  C109  1  0.41351000  0.28955000  0.86243000  1.0
  C  C110  1  0.25193000  0.47144000  0.64145000  1.0
  C  C111  1  0.28339000  0.45533000  0.69100000  1.0
  C  C112  1  0.33890000  0.34265000  0.71059000  1.0
  C  C113  1  0.25863000  0.54812000  0.72312000  1.0
  C  C114  1  0.28249000  0.53208000  0.77207000  1.0
  C  C115  1  0.33577000  0.42010000  0.79311000  1.0
  C  C116  1  0.36532000  0.32532000  0.76152000  1.0
  C  C117  1  0.36176000  0.40019000  0.84325000  1.0
  C  C118  1  0.27250000  0.38025000  0.61083000  1.0
  C  C119  1  0.94596000  0.76306000  0.64795000  1.0
  C  C120  1  0.92963000  0.79305000  0.69744000  1.0
  C  C121  1  0.89942000  0.84209000  0.79938000  1.0
  C  C122  1  0.99946000  0.82839000  0.77453000  1.0
  C  C123  1  0.01160000  0.80822000  0.72545000  1.0
  C  C124  1  0.88060000  0.87150000  0.84876000  1.0
  C  C125  1  0.77838000  0.89242000  0.87050000  1.0
  C  C126  1  0.76471000  0.76381000  0.64389000  1.0
  C  C127  1  0.74558000  0.79321000  0.69330000  1.0
  C  C128  1  0.82987000  0.80518000  0.72106000  1.0
  C  C129  1  0.64426000  0.80968000  0.71796000  1.0
  C  C130  1  0.63103000  0.83123000  0.76697000  1.0
  C  C131  1  0.71433000  0.84402000  0.79530000  1.0
  C  C132  1  0.81491000  0.83018000  0.77174000  1.0
  C  C133  1  0.69730000  0.87606000  0.84456000  1.0
  C  C134  1  0.86592000  0.74550000  0.62192000  1.0
  C  C135  1  0.77619000  0.39812000  0.62707000  1.0
  C  C136  1  0.74970000  0.38416000  0.67507000  1.0
  C  C137  1  0.69911000  0.36272000  0.77420000  1.0
  C  C138  1  0.60963000  0.41800000  0.73815000  1.0
  C  C139  1  0.63396000  0.42757000  0.69067000  1.0
  C  C140  1  0.67604000  0.35187000  0.82320000  1.0
  C  C141  1  0.76581000  0.29081000  0.85644000  1.0
  C  C142  1  0.97985000  0.29377000  0.64689000  1.0
  C  C143  1  0.95718000  0.28045000  0.69561000  1.0
  C  C144  1  0.84064000  0.32668000  0.71001000  1.0
  C  C145  1  0.04736000  0.22278000  0.73102000  1.0
  C  C146  1  0.02306000  0.21098000  0.77851000  1.0
  C  C147  1  0.90609000  0.25695000  0.79426000  1.0
  C  C148  1  0.81559000  0.31561000  0.75935000  1.0
  C  C149  1  0.87997000  0.24308000  0.84215000  1.0
  C  C150  1  0.89029000  0.35334000  0.61323000  1.0
  C  C151  1  0.75158000  0.97651000  0.05780000  1.0
  C  C152  1  0.46211000  0.25331000  0.05228000  1.0
  C  C153  1  0.74453000  0.29544000  0.04570000  1.0
  C  C154  1  0.75130000  0.94704000  0.91932000  1.0
  C  C155  1  0.45095000  0.26642000  0.91452000  1.0
  C  C156  1  0.74235000  0.26693000  0.90680000  1.0
  C  C157  1  0.82480000  0.65784000  0.17615000  1.0
  C  C158  1  0.31287000  0.11062000  0.60103000  1.0
  C  C159  1  0.06843000  0.94384000  0.80980000  1.0
  C  C160  1  0.56849000  0.69859000  0.68463000  1.0
  C  C161  1  0.19692000  0.61939000  0.20277000  1.0
  C  C162  1  0.22037000  0.10340000  0.80124000  1.0
  C  C163  1  0.06197000  0.81717000  0.30718000  1.0
  Cl  Cl164  1  0.03733000  0.28525000  0.17043000  1.0
  Cl  Cl165  1  0.09458000  0.44810000  0.25844000  1.0
  Cl  Cl166  1  0.44909000  0.47808000  0.28187000  1.0
  O  O167  1  0.81885000  0.69529000  0.45133000  1.0
  O  O168  1  0.84656000  0.48296000  0.43658000  1.0
  O  O169  1  0.00746000  0.31247000  0.45062000  1.0
  O  O170  1  0.17756000  0.34687000  0.44557000  1.0
  O  O171  1  0.16580000  0.52037000  0.44849000  1.0
  O  O172  1  0.98082000  0.70956000  0.45593000  1.0
  O  O173  1  0.82547000  0.66681000  0.55276000  1.0
  O  O174  1  0.83752000  0.45947000  0.53965000  1.0
  O  O175  1  0.01974000  0.31524000  0.54829000  1.0
  O  O176  1  0.19412000  0.33616000  0.54116000  1.0
  O  O177  1  0.17962000  0.50932000  0.54509000  1.0
  O  O178  1  0.98373000  0.68670000  0.55197000  1.0
  O  O179  1  0.98718000  0.51035000  0.49722000  1.0
  O  O180  1  0.81942000  0.20045000  0.02976000  1.0
  O  O181  1  0.82338000  0.00265000  0.04184000  1.0
  O  O182  1  0.66558000  0.98210000  0.03385000  1.0
  O  O183  1  0.47462000  0.16480000  0.02968000  1.0
  O  O184  1  0.48554000  0.32684000  0.03511000  1.0
  O  O185  1  0.64988000  0.36575000  0.02351000  1.0
  O  O186  1  0.81697000  0.17467000  0.92619000  1.0
  O  O187  1  0.82158000  0.97220000  0.93856000  1.0
  O  O188  1  0.65291000  0.97214000  0.93741000  1.0
  O  O189  1  0.48027000  0.16813000  0.93187000  1.0
  O  O190  1  0.45905000  0.34403000  0.93837000  1.0
  O  O191  1  0.64717000  0.33977000  0.92627000  1.0
  O  O192  1  0.66502000  0.16073000  0.98259000  1.0
  O  O193  1  0.89606000  0.68324000  0.20752000  1.0
  O  O194  1  0.36910000  0.17760000  0.59831000  1.0
  O  O195  1  0.08542000  0.83150000  0.80135000  1.0
  O  O196  1  0.55740000  0.80921000  0.69060000  1.0
  O  O197  1  0.27132000  0.50687000  0.18379000  1.0
  O  O198  1  0.10266000  0.15612000  0.81447000  1.0
  O  O199  1  0.01647000  0.76261000  0.27614000  1.0
  O  O200  1  0.67431000  0.64479000  0.49188000  1.0
  O  O201  1  0.97878000  0.01135000  0.98112000  1.0
