# generated using pymatgen
data_HgH8C6(BrN)2
_symmetry_space_group_name_H-M   'P 1'
_cell_length_a   4.08346000
_cell_length_b   10.28000000
_cell_length_c   12.15690000
_cell_angle_alpha   106.78900000
_cell_angle_beta   94.45110000
_cell_angle_gamma   99.06930000
_symmetry_Int_Tables_number   1
_chemical_formula_structural   HgH8C6(BrN)2
_chemical_formula_sum   'Hg2 H16 C12 Br4 N4'
_cell_volume   478.35159008
_cell_formula_units_Z   2
loop_
 _symmetry_equiv_pos_site_id
 _symmetry_equiv_pos_as_xyz
  1  'x, y, z'
loop_
 _atom_site_type_symbol
 _atom_site_label
 _atom_site_symmetry_multiplicity
 _atom_site_fract_x
 _atom_site_fract_y
 _atom_site_fract_z
 _atom_site_occupancy
  Hg  Hg0  1  0.74017000  0.84719000  0.07653000  1.0
  Hg  Hg1  1  0.25982000  0.15281000  0.92347000  1.0
  H  H2  1  0.41445000  0.57462000  0.15699000  1.0
  H  H3  1  0.58555000  0.42538000  0.84301000  1.0
  H  H4  1  0.57369000  0.35333000  0.30229000  1.0
  H  H5  1  0.42632000  0.64667000  0.69770000  1.0
  H  H6  1  0.20676000  0.39567000  0.24600000  1.0
  H  H7  1  0.79325000  0.60432000  0.75400000  1.0
  H  H8  1  0.30694000  0.43071000  0.39976000  1.0
  H  H9  1  0.69306000  0.56929000  0.60024000  1.0
  H  H10  1  0.12989000  0.91541000  0.34618000  1.0
  H  H11  1  0.87011000  0.08460000  0.65383000  1.0
  H  H12  1  0.08473000  0.84345000  0.62088000  1.0
  H  H13  1  0.91527000  0.15655000  0.37912000  1.0
  H  H14  1  0.34194000  0.93944000  0.54848000  1.0
  H  H15  1  0.65805000  0.06056000  0.45152000  1.0
  H  H16  1  0.42144000  0.77689000  0.55739000  1.0
  H  H17  1  0.57856000  0.22311000  0.44261000  1.0
  C  C18  1  0.58398000  0.62692000  0.23709000  1.0
  C  C19  1  0.41602000  0.37308000  0.76291000  1.0
  C  C20  1  0.60710000  0.56873000  0.32822000  1.0
  C  C21  1  0.39290000  0.43127000  0.67178000  1.0
  C  C22  1  0.40914000  0.43012000  0.31864000  1.0
  C  C23  1  0.59087000  0.56988000  0.68136000  1.0
  C  C24  1  0.97869000  0.81647000  0.34295000  1.0
  C  C25  1  0.02131000  0.18353000  0.65706000  1.0
  C  C26  1  0.99956000  0.76093000  0.43515000  1.0
  C  C27  1  0.00045000  0.23907000  0.56485000  1.0
  C  C28  1  0.22439000  0.83505000  0.54618000  1.0
  C  C29  1  0.77561000  0.16495000  0.45382000  1.0
  Br  Br30  1  0.22539000  0.66942000  0.96512000  1.0
  Br  Br31  1  0.77460000  0.33058000  0.03488000  1.0
  Br  Br32  1  0.22458000  0.05066000  0.16616000  1.0
  Br  Br33  1  0.77542000  0.94934000  0.83384000  1.0
  N  N34  1  0.76985000  0.74931000  0.24543000  1.0
  N  N35  1  0.23016000  0.25070000  0.75457000  1.0
  N  N36  1  0.81373000  0.63725000  0.42646000  1.0
  N  N37  1  0.18627000  0.36275000  0.57353000  1.0
