# generated using pymatgen
data_FeH14PtC20(N5O)2
_symmetry_space_group_name_H-M   'P 1'
_cell_length_a   6.96100000
_cell_length_b   7.25006000
_cell_length_c   21.70640000
_cell_angle_alpha   99.57010000
_cell_angle_beta   89.99900000
_cell_angle_gamma   89.99980000
_symmetry_Int_Tables_number   1
_chemical_formula_structural   FeH14PtC20(N5O)2
_chemical_formula_sum   'Fe2 H28 Pt2 C40 N20 O4'
_cell_volume   1080.22563102
_cell_formula_units_Z   2
loop_
 _symmetry_equiv_pos_site_id
 _symmetry_equiv_pos_as_xyz
  1  'x, y, z'
loop_
 _atom_site_type_symbol
 _atom_site_label
 _atom_site_symmetry_multiplicity
 _atom_site_fract_x
 _atom_site_fract_y
 _atom_site_fract_z
 _atom_site_occupancy
  Fe  Fe0  1  0.99997000  0.50003000  0.50000000  1.0
  Fe  Fe1  1  0.50002000  0.50000000  0.00000000  1.0
  H  H2  1  0.01952000  0.28678000  0.61805000  1.0
  H  H3  1  0.51951000  0.71323000  0.88195000  1.0
  H  H4  1  0.98045000  0.71324000  0.38195000  1.0
  H  H5  1  0.48050000  0.28677000  0.11805000  1.0
  H  H6  1  0.03546000  0.73575000  0.79966000  1.0
  H  H7  1  0.53546000  0.26423000  0.70034000  1.0
  H  H8  1  0.96455000  0.26422000  0.20034000  1.0
  H  H9  1  0.46453000  0.73577000  0.29966000  1.0
  H  H10  1  0.90279000  0.17360000  0.70789000  1.0
  H  H11  1  0.40277000  0.82638000  0.79211000  1.0
  H  H12  1  0.09720000  0.82638000  0.29211000  1.0
  H  H13  1  0.59726000  0.17363000  0.20789000  1.0
  H  H14  1  0.91346000  0.82580000  0.72154000  1.0
  H  H15  1  0.41350000  0.17418000  0.77847000  1.0
  H  H16  1  0.08653000  0.17419000  0.27847000  1.0
  H  H17  1  0.58651000  0.82582000  0.22153000  1.0
  H  H18  1  0.95783000  0.29699000  0.90843000  1.0
  H  H19  1  0.45782000  0.70298000  0.59157000  1.0
  H  H20  1  0.04217000  0.70297000  0.09157000  1.0
  H  H21  1  0.54220000  0.29701000  0.40842000  1.0
  H  H22  1  0.02507000  0.62829000  0.90242000  1.0
  H  H23  1  0.52507000  0.37169000  0.59758000  1.0
  H  H24  1  0.97495000  0.37168000  0.09758000  1.0
  H  H25  1  0.47494000  0.62830000  0.40242000  1.0
  H  H26  1  0.87853000  0.01668000  0.85418000  1.0
  H  H27  1  0.37850000  0.98330000  0.64583000  1.0
  H  H28  1  0.12146000  0.98330000  0.14582000  1.0
  H  H29  1  0.62151000  0.01670000  0.35417000  1.0
  Pt  Pt30  1  0.49997000  0.00003000  0.50001000  1.0
  Pt  Pt31  1  0.00001000  0.99999000  0.00000000  1.0
  C  C32  1  0.69487000  0.80003000  0.49608000  1.0
  C  C33  1  0.19490000  0.19999000  0.00392000  1.0
  C  C34  1  0.30508000  0.20003000  0.50393000  1.0
  C  C35  1  0.80511000  0.79999000  0.99607000  1.0
  C  C36  1  0.99364000  0.43543000  0.63057000  1.0
  C  C37  1  0.49364000  0.56459000  0.86943000  1.0
  C  C38  1  0.00633000  0.56460000  0.36943000  1.0
  C  C39  1  0.50636000  0.43541000  0.13057000  1.0
  C  C40  1  0.96923000  0.46248000  0.74771000  1.0
  C  C41  1  0.46923000  0.53750000  0.75229000  1.0
  C  C42  1  0.03077000  0.53749000  0.25228000  1.0
  C  C43  1  0.53080000  0.46250000  0.24771000  1.0
  C  C44  1  0.29671000  0.80960000  0.49949000  1.0
  C  C45  1  0.79674000  0.19043000  0.00051000  1.0
  C  C46  1  0.70323000  0.19049000  0.50052000  1.0
  C  C47  1  0.20329000  0.80955000  0.99948000  1.0
  C  C48  1  0.00316000  0.59068000  0.80223000  1.0
  C  C49  1  0.50316000  0.40930000  0.69777000  1.0
  C  C50  1  0.99685000  0.40930000  0.19777000  1.0
  C  C51  1  0.49685000  0.59069000  0.30223000  1.0
  C  C52  1  0.93246000  0.27415000  0.74997000  1.0
  C  C53  1  0.43244000  0.72582000  0.75003000  1.0
  C  C54  1  0.06753000  0.72582000  0.25003000  1.0
  C  C55  1  0.56758000  0.27418000  0.24997000  1.0
  C  C56  1  0.92825000  0.21712000  0.80851000  1.0
  C  C57  1  0.42823000  0.78284000  0.69149000  1.0
  C  C58  1  0.07175000  0.78285000  0.19149000  1.0
  C  C59  1  0.57179000  0.21714000  0.30851000  1.0
  C  C60  1  0.94241000  0.71422000  0.68283000  1.0
  C  C61  1  0.44244000  0.28578000  0.81718000  1.0
  C  C62  1  0.05758000  0.28580000  0.31718000  1.0
  C  C63  1  0.55758000  0.71422000  0.18282000  1.0
  C  C64  1  0.96153000  0.34374000  0.86333000  1.0
  C  C65  1  0.46152000  0.65624000  0.63667000  1.0
  C  C66  1  0.03847000  0.65623000  0.13667000  1.0
  C  C67  1  0.53851000  0.34375000  0.36332000  1.0
  C  C68  1  0.99857000  0.52990000  0.85972000  1.0
  C  C69  1  0.49856000  0.47007000  0.64028000  1.0
  C  C70  1  0.00144000  0.47006000  0.14028000  1.0
  C  C71  1  0.50144000  0.52992000  0.35972000  1.0
  N  N72  1  0.18406000  0.68994000  0.50006000  1.0
  N  N73  1  0.68406000  0.31008000  0.99994000  1.0
  N  N74  1  0.81589000  0.31012000  0.49994000  1.0
  N  N75  1  0.31595000  0.68991000  0.00006000  1.0
  N  N76  1  0.96877000  0.53064000  0.68990000  1.0
  N  N77  1  0.46878000  0.46935000  0.81010000  1.0
  N  N78  1  0.03122000  0.46936000  0.31010000  1.0
  N  N79  1  0.53123000  0.53065000  0.18990000  1.0
  N  N80  1  0.80672000  0.67905000  0.49504000  1.0
  N  N81  1  0.30676000  0.32099000  0.00496000  1.0
  N  N82  1  0.19323000  0.32101000  0.50496000  1.0
  N  N83  1  0.69326000  0.67900000  0.99504000  1.0
  N  N84  1  0.98384000  0.55571000  0.59095000  1.0
  N  N85  1  0.48386000  0.44431000  0.90905000  1.0
  N  N86  1  0.01613000  0.44433000  0.40905000  1.0
  N  N87  1  0.51615000  0.55569000  0.09095000  1.0
  N  N88  1  0.95193000  0.73255000  0.62373000  1.0
  N  N89  1  0.45198000  0.26746000  0.87627000  1.0
  N  N90  1  0.04803000  0.26748000  0.37628000  1.0
  N  N91  1  0.54804000  0.73255000  0.12373000  1.0
  O  O92  1  0.88773000  0.03259000  0.81038000  1.0
  O  O93  1  0.38771000  0.96737000  0.68962000  1.0
  O  O94  1  0.11226000  0.96738000  0.18961000  1.0
  O  O95  1  0.61232000  0.03261000  0.31038000  1.0
