# generated using pymatgen
data_Cu5H15C15S3N3Cl5
_symmetry_space_group_name_H-M   'P 1'
_cell_length_a   5.23076000
_cell_length_b   10.45390000
_cell_length_c   11.69700000
_cell_angle_alpha   113.52200000
_cell_angle_beta   97.47690000
_cell_angle_gamma   102.10400000
_symmetry_Int_Tables_number   1
_chemical_formula_structural   Cu5H15C15S3N3Cl5
_chemical_formula_sum   'Cu5 H15 C15 S3 N3 Cl5'
_cell_volume   556.88162346
_cell_formula_units_Z   1
loop_
 _symmetry_equiv_pos_site_id
 _symmetry_equiv_pos_as_xyz
  1  'x, y, z'
loop_
 _atom_site_type_symbol
 _atom_site_label
 _atom_site_symmetry_multiplicity
 _atom_site_fract_x
 _atom_site_fract_y
 _atom_site_fract_z
 _atom_site_occupancy
  Cu  Cu0  1  0.78232000  0.56288000  0.99983000  1.0
  Cu  Cu1  1  0.27028000  0.46568000  0.18214000  1.0
  Cu  Cu2  1  0.08785000  0.28346000  0.81783000  1.0
  Cu  Cu3  1  0.58903000  0.79953000  0.12553000  1.0
  Cu  Cu4  1  0.46342000  0.67384000  0.87389000  1.0
  H  H5  1  0.46505000  0.86238000  0.61308000  1.0
  H  H6  1  0.85247000  0.24926000  0.38714000  1.0
  H  H7  1  0.04518000  0.99348000  0.00004000  1.0
  H  H8  1  0.16219000  0.81626000  0.24470000  1.0
  H  H9  1  0.91662000  0.57166000  0.75487000  1.0
  H  H10  1  0.53990000  0.91641000  0.44325000  1.0
  H  H11  1  0.09628000  0.47326000  0.55656000  1.0
  H  H12  1  0.05705000  0.72950000  0.62258000  1.0
  H  H13  1  0.43572000  0.10655000  0.37793000  1.0
  H  H14  1  0.66388000  0.61398000  0.43026000  1.0
  H  H15  1  0.23411000  0.18350000  0.56998000  1.0
  H  H16  1  0.74613000  0.33879000  0.20817000  1.0
  H  H17  1  0.53928000  0.13076000  0.79220000  1.0
  H  H18  1  0.31503000  0.16690000  0.19860000  1.0
  H  H19  1  0.11774000  0.96814000  0.80152000  1.0
  C  C20  1  0.88427000  0.70465000  0.32093000  1.0
  C  C21  1  0.56303000  0.38366000  0.67895000  1.0
  C  C22  1  0.13316000  0.79314000  0.32571000  1.0
  C  C23  1  0.80683000  0.46750000  0.67401000  1.0
  C  C24  1  0.34076000  0.84953000  0.43306000  1.0
  C  C25  1  0.90753000  0.41652000  0.56682000  1.0
  C  C26  1  0.06682000  0.74269000  0.53548000  1.0
  C  C27  1  0.53213000  0.20698000  0.46484000  1.0
  C  C28  1  0.85297000  0.68171000  0.42979000  1.0
  C  C29  1  0.42357000  0.25170000  0.57036000  1.0
  C  C30  1  0.67452000  0.24947000  0.00015000  1.0
  C  C31  1  0.61060000  0.25999000  0.11632000  1.0
  C  C32  1  0.49502000  0.14372000  0.88396000  1.0
  C  C33  1  0.37948000  0.16509000  0.11356000  1.0
  C  C34  1  0.26663000  0.05155000  0.88663000  1.0
  S  S35  1  0.62284000  0.62550000  0.18256000  1.0
  S  S36  1  0.43984000  0.44291000  0.81723000  1.0
  S  S37  1  0.96218000  0.37164000  0.00003000  1.0
  N  N38  1  0.30489000  0.82290000  0.53479000  1.0
  N  N39  1  0.77057000  0.28801000  0.46537000  1.0
  N  N40  1  0.21519000  0.06358000  0.00008000  1.0
  Cl  Cl41  1  0.15856000  0.73878000  0.99967000  1.0
  Cl  Cl42  1  0.24213000  0.42571000  0.35288000  1.0
  Cl  Cl43  1  0.88931000  0.07286000  0.64719000  1.0
  Cl  Cl44  1  0.85429000  0.02312000  0.21779000  1.0
  Cl  Cl45  1  0.63745000  0.80521000  0.78172000  1.0
