# generated using pymatgen
data_Ni3H28C38(N5O7)2
_symmetry_space_group_name_H-M   'P 1'
_cell_length_a   10.09480000
_cell_length_b   14.61539717
_cell_length_c   19.88122519
_cell_angle_alpha   79.57074484
_cell_angle_beta   75.30508075
_cell_angle_gamma   69.81934745
_symmetry_Int_Tables_number   1
_chemical_formula_structural   Ni3H28C38(N5O7)2
_chemical_formula_sum   'Ni6 H56 C76 N20 O28'
_cell_volume   2648.97290495
_cell_formula_units_Z   2
loop_
 _symmetry_equiv_pos_site_id
 _symmetry_equiv_pos_as_xyz
  1  'x, y, z'
loop_
 _atom_site_type_symbol
 _atom_site_label
 _atom_site_symmetry_multiplicity
 _atom_site_fract_x
 _atom_site_fract_y
 _atom_site_fract_z
 _atom_site_occupancy
  Ni  Ni0  1  0.00001000  0.99999000  0.50000000  1.0
  Ni  Ni1  1  0.50000000  0.50000000  0.00000000  1.0
  Ni  Ni2  1  0.46456000  0.78574000  0.59268000  1.0
  Ni  Ni3  1  0.84289000  0.71447000  0.90743000  1.0
  Ni  Ni4  1  0.53545000  0.21426000  0.40731000  1.0
  Ni  Ni5  1  0.15709000  0.28554000  0.09257000  1.0
  H  H6  1  0.30229000  0.97464000  0.42193000  1.0
  H  H7  1  0.69926000  0.52462000  0.07823000  1.0
  H  H8  1  0.69770000  0.02535000  0.57808000  1.0
  H  H9  1  0.30073000  0.47540000  0.92176000  1.0
  H  H10  1  0.96539000  0.89695000  0.39416000  1.0
  H  H11  1  0.25693000  0.60356000  0.10567000  1.0
  H  H12  1  0.03462000  0.10304000  0.60584000  1.0
  H  H13  1  0.74305000  0.39645000  0.89433000  1.0
  H  H14  1  0.45218000  0.92653000  0.30449000  1.0
  H  H15  1  0.68385000  0.57244000  0.19576000  1.0
  H  H16  1  0.54781000  0.07347000  0.69551000  1.0
  H  H17  1  0.31614000  0.42758000  0.80423000  1.0
  H  H18  1  0.09762000  0.85086000  0.27168000  1.0
  H  H19  1  0.22082000  0.64952000  0.22819000  1.0
  H  H20  1  0.90237000  0.14913000  0.72833000  1.0
  H  H21  1  0.77918000  0.35048000  0.77181000  1.0
  H  H22  1  0.05672000  0.85849000  0.75012000  1.0
  H  H23  1  0.66511000  0.64162000  0.75004000  1.0
  H  H24  1  0.94328000  0.14153000  0.24988000  1.0
  H  H25  1  0.33488000  0.35839000  0.24996000  1.0
  H  H26  1  0.42258000  0.97935000  0.55201000  1.0
  H  H27  1  0.95392000  0.52085000  0.94798000  1.0
  H  H28  1  0.57743000  0.02065000  0.44799000  1.0
  H  H29  1  0.04607000  0.47916000  0.05202000  1.0
  H  H30  1  0.30924000  0.93809000  0.53521000  1.0
  H  H31  1  0.78256000  0.56200000  0.96481000  1.0
  H  H32  1  0.69076000  0.06192000  0.46479000  1.0
  H  H33  1  0.21743000  0.43801000  0.03519000  1.0
  H  H34  1  0.63003000  0.84200000  0.76758000  1.0
  H  H35  1  0.23925000  0.65854000  0.73255000  1.0
  H  H36  1  0.36997000  0.15800000  0.23242000  1.0
  H  H37  1  0.76074000  0.34147000  0.26745000  1.0
  H  H38  1  0.51638000  0.78206000  0.97190000  1.0
  H  H39  1  0.27040000  0.71815000  0.52803000  1.0
  H  H40  1  0.48361000  0.21795000  0.02810000  1.0
  H  H41  1  0.72960000  0.28185000  0.47197000  1.0
  H  H42  1  0.89456000  0.77182000  0.02563000  1.0
  H  H43  1  0.69223000  0.72800000  0.47471000  1.0
  H  H44  1  0.10543000  0.22819000  0.97437000  1.0
  H  H45  1  0.30778000  0.27200000  0.52528000  1.0
  H  H46  1  0.70369000  0.89305000  0.86023000  1.0
  H  H47  1  0.45655000  0.60719000  0.63993000  1.0
  H  H48  1  0.29630000  0.10696000  0.13977000  1.0
  H  H49  1  0.54344000  0.39282000  0.36007000  1.0
  H  H50  1  0.87408000  0.88710000  0.85571000  1.0
  H  H51  1  0.61650000  0.61310000  0.64445000  1.0
  H  H52  1  0.12592000  0.11290000  0.14429000  1.0
  H  H53  1  0.38350000  0.38690000  0.35555000  1.0
  H  H54  1  0.36928000  0.82912000  0.08709000  1.0
  H  H55  1  0.28595000  0.67079000  0.41287000  1.0
  H  H56  1  0.63070000  0.17089000  0.91291000  1.0
  H  H57  1  0.71405000  0.32921000  0.58713000  1.0
  H  H58  1  0.75749000  0.82284000  0.14544000  1.0
  H  H59  1  0.72642000  0.67653000  0.35497000  1.0
  H  H60  1  0.24250000  0.17716000  0.85456000  1.0
  H  H61  1  0.27359000  0.32346000  0.64503000  1.0
  C  C62  1  0.14558000  0.85080000  0.61338000  1.0
  C  C63  1  0.60976000  0.64926000  0.88673000  1.0
  C  C64  1  0.85443000  0.14919000  0.38662000  1.0
  C  C65  1  0.39023000  0.35075000  0.11327000  1.0
  C  C66  1  0.94166000  0.82143000  0.54568000  1.0
  C  C67  1  0.30879000  0.67875000  0.95450000  1.0
  C  C68  1  0.05836000  0.17856000  0.45432000  1.0
  C  C69  1  0.69118000  0.32126000  0.04551000  1.0
  C  C70  1  0.26299000  0.94481000  0.38741000  1.0
  C  C71  1  0.59567000  0.55466000  0.11271000  1.0
  C  C72  1  0.73701000  0.05519000  0.61259000  1.0
  C  C73  1  0.40431000  0.44536000  0.88729000  1.0
  C  C74  1  0.07222000  0.90325000  0.37070000  1.0
  C  C75  1  0.34664000  0.59690000  0.12924000  1.0
  C  C76  1  0.92779000  0.09674000  0.62930000  1.0
  C  C77  1  0.65334000  0.40311000  0.87076000  1.0
  C  C78  1  0.00428000  0.84219000  0.65554000  1.0
  C  C79  1  0.50188000  0.65797000  0.84461000  1.0
  C  C80  1  0.99573000  0.15781000  0.34446000  1.0
  C  C81  1  0.49810000  0.34203000  0.15540000  1.0
  C  C82  1  0.90382000  0.82859000  0.62385000  1.0
  C  C83  1  0.35615000  0.67167000  0.87631000  1.0
  C  C84  1  0.09621000  0.17139000  0.37615000  1.0
  C  C85  1  0.64385000  0.32834000  0.12369000  1.0
  C  C86  1  0.34506000  0.91875000  0.32238000  1.0
  C  C87  1  0.58679000  0.58057000  0.17778000  1.0
  C  C88  1  0.65494000  0.08125000  0.67762000  1.0
  C  C89  1  0.41320000  0.41945000  0.82221000  1.0
  C  C90  1  0.14591000  0.87724000  0.30428000  1.0
  C  C91  1  0.32802000  0.62282000  0.19568000  1.0
  C  C92  1  0.85409000  0.12276000  0.69572000  1.0
  C  C93  1  0.67196000  0.37719000  0.80433000  1.0
  C  C94  1  0.97428000  0.85062000  0.72718000  1.0
  C  C95  1  0.55189000  0.64956000  0.77296000  1.0
  C  C96  1  0.02571000  0.14939000  0.27282000  1.0
  C  C97  1  0.44812000  0.35044000  0.22704000  1.0
  C  C98  1  0.76868000  0.82877000  0.66590000  1.0
  C  C99  1  0.26315000  0.67164000  0.83424000  1.0
  C  C100  1  0.23134000  0.17121000  0.33409000  1.0
  C  C101  1  0.73685000  0.32837000  0.16576000  1.0
  C  C102  1  0.28460000  0.88546000  0.27912000  1.0
  C  C103  1  0.44984000  0.61415000  0.22097000  1.0
  C  C104  1  0.71540000  0.11454000  0.72088000  1.0
  C  C105  1  0.55015000  0.38586000  0.77903000  1.0
  C  C106  1  0.65414000  0.81803000  0.63631000  1.0
  C  C107  1  0.10829000  0.68238000  0.86382000  1.0
  C  C108  1  0.34588000  0.18196000  0.36369000  1.0
  C  C109  1  0.89169000  0.31763000  0.13618000  1.0
  C  C110  1  0.83961000  0.85082000  0.76813000  1.0
  C  C111  1  0.45823000  0.64948000  0.73202000  1.0
  C  C112  1  0.16040000  0.14918000  0.23187000  1.0
  C  C113  1  0.54177000  0.35052000  0.26799000  1.0
  C  C114  1  0.73632000  0.84139000  0.73692000  1.0
  C  C115  1  0.31434000  0.65904000  0.76321000  1.0
  C  C116  1  0.26371000  0.15860000  0.26307000  1.0
  C  C117  1  0.68568000  0.34096000  0.23678000  1.0
  C  C118  1  0.56754000  0.79198000  0.01097000  1.0
  C  C119  1  0.37064000  0.70805000  0.48907000  1.0
  C  C120  1  0.43245000  0.20803000  0.98903000  1.0
  C  C121  1  0.62936000  0.29195000  0.51093000  1.0
  C  C122  1  0.77812000  0.78641000  0.04187000  1.0
  C  C123  1  0.60666000  0.71340000  0.45839000  1.0
  C  C124  1  0.22188000  0.21359000  0.95813000  1.0
  C  C125  1  0.39335000  0.28660000  0.54161000  1.0
  C  C126  1  0.48452000  0.81882000  0.07571000  1.0
  C  C127  1  0.37944000  0.68102000  0.42435000  1.0
  C  C128  1  0.51547000  0.18119000  0.92429000  1.0
  C  C129  1  0.62057000  0.31898000  0.57564000  1.0
  C  C130  1  0.70249000  0.81407000  0.10760000  1.0
  C  C131  1  0.62464000  0.68550000  0.39269000  1.0
  C  C132  1  0.29751000  0.18593000  0.89240000  1.0
  C  C133  1  0.37535000  0.31450000  0.60731000  1.0
  C  C134  1  0.55324000  0.82990000  0.12555000  1.0
  C  C135  1  0.50922000  0.66969000  0.37463000  1.0
  C  C136  1  0.44676000  0.17010000  0.87445000  1.0
  C  C137  1  0.49078000  0.33031000  0.62537000  1.0
  N  N138  1  0.12859000  0.93828000  0.41114000  1.0
  N  N139  1  0.47842000  0.56158000  0.08888000  1.0
  N  N140  1  0.87140000  0.06172000  0.58886000  1.0
  N  N141  1  0.52157000  0.43843000  0.91112000  1.0
  N  N142  1  0.71197000  0.77531000  0.99408000  1.0
  N  N143  1  0.48144000  0.72474000  0.50605000  1.0
  N  N144  1  0.28802000  0.22470000  0.00592000  1.0
  N  N145  1  0.51857000  0.27526000  0.49395000  1.0
  N  N146  1  0.80945000  0.85683000  0.84138000  1.0
  N  N147  1  0.50732000  0.64341000  0.65877000  1.0
  N  N148  1  0.19054000  0.14318000  0.15862000  1.0
  N  N149  1  0.49268000  0.35659000  0.34123000  1.0
  N  N150  1  0.35252000  0.86044000  0.21060000  1.0
  N  N151  1  0.42425000  0.63917000  0.28949000  1.0
  N  N152  1  0.64748000  0.13956000  0.78940000  1.0
  N  N153  1  0.57574000  0.36083000  0.71051000  1.0
  N  N154  1  0.48466000  0.85545000  0.19398000  1.0
  N  N155  1  0.53480000  0.64400000  0.30622000  1.0
  N  N156  1  0.51534000  0.14455000  0.80602000  1.0
  N  N157  1  0.46520000  0.35600000  0.69377000  1.0
  O  O158  1  0.15216000  0.90788000  0.55644000  1.0
  O  O159  1  0.61659000  0.59207000  0.94363000  1.0
  O  O160  1  0.84785000  0.09211000  0.44356000  1.0
  O  O161  1  0.38342000  0.40793000  0.05637000  1.0
  O  O162  1  0.88522000  0.90270000  0.50933000  1.0
  O  O163  1  0.29732000  0.59745000  0.99082000  1.0
  O  O164  1  0.11480000  0.09728000  0.49067000  1.0
  O  O165  1  0.70266000  0.40256000  0.00918000  1.0
  O  O166  1  0.25628000  0.79994000  0.63803000  1.0
  O  O167  1  0.69422000  0.70017000  0.86210000  1.0
  O  O168  1  0.74373000  0.20006000  0.36198000  1.0
  O  O169  1  0.30577000  0.29984000  0.13790000  1.0
  O  O170  1  0.02640000  0.74410000  0.52246000  1.0
  O  O171  1  0.29296000  0.75609000  0.97776000  1.0
  O  O172  1  0.97363000  0.25589000  0.47754000  1.0
  O  O173  1  0.70704000  0.24391000  0.02224000  1.0
  O  O174  1  0.41464000  0.92882000  0.52869000  1.0
  O  O175  1  0.87217000  0.57130000  0.97135000  1.0
  O  O176  1  0.58537000  0.07118000  0.47131000  1.0
  O  O177  1  0.12783000  0.42870000  0.02865000  1.0
  O  O178  1  0.52138000  0.85436000  0.66545000  1.0
  O  O179  1  0.04102000  0.64601000  0.83466000  1.0
  O  O180  1  0.47863000  0.14563000  0.33455000  1.0
  O  O181  1  0.95898000  0.35399000  0.16533000  1.0
  O  O182  1  0.68864000  0.77001000  0.58308000  1.0
  O  O183  1  0.04156000  0.73037000  0.91705000  1.0
  O  O184  1  0.31137000  0.22998000  0.41691000  1.0
  O  O185  1  0.95841000  0.26964000  0.08295000  1.0
