# generated using pymatgen
data_ZnH12C14S2(NO2)2
_symmetry_space_group_name_H-M   'P 1'
_cell_length_a   8.38805000
_cell_length_b   8.53207317
_cell_length_c   13.52256309
_cell_angle_alpha   75.26175757
_cell_angle_beta   71.94994876
_cell_angle_gamma   60.57626781
_symmetry_Int_Tables_number   1
_chemical_formula_structural   ZnH12C14S2(NO2)2
_chemical_formula_sum   'Zn2 H24 C28 S4 N4 O8'
_cell_volume   795.33336044
_cell_formula_units_Z   2
loop_
 _symmetry_equiv_pos_site_id
 _symmetry_equiv_pos_as_xyz
  1  'x, y, z'
loop_
 _atom_site_type_symbol
 _atom_site_label
 _atom_site_symmetry_multiplicity
 _atom_site_fract_x
 _atom_site_fract_y
 _atom_site_fract_z
 _atom_site_occupancy
  Zn  Zn0  1  0.93633000  0.74991000  0.24998000  1.0
  Zn  Zn1  1  0.06367000  0.25009000  0.75002000  1.0
  H  H2  1  0.00449000  0.23259000  0.29723000  1.0
  H  H3  1  0.46560000  0.73245000  0.79706000  1.0
  H  H4  1  0.99551000  0.76741000  0.70277000  1.0
  H  H5  1  0.53440000  0.26755000  0.20294000  1.0
  H  H6  1  0.91746000  0.18261000  0.43298000  1.0
  H  H7  1  0.46677000  0.68264000  0.93286000  1.0
  H  H8  1  0.08254000  0.81739000  0.56702000  1.0
  H  H9  1  0.53323000  0.31736000  0.06714000  1.0
  H  H10  1  0.72084000  0.07186000  0.52017000  1.0
  H  H11  1  0.68666000  0.57218000  0.02006000  1.0
  H  H12  1  0.27917000  0.92814000  0.47983000  1.0
  H  H13  1  0.31334000  0.42782000  0.97994000  1.0
  H  H14  1  0.47570000  0.04836000  0.67194000  1.0
  H  H15  1  0.80364000  0.54852000  0.17187000  1.0
  H  H16  1  0.52431000  0.95164000  0.32806000  1.0
  H  H17  1  0.19635000  0.45149000  0.82813000  1.0
  H  H18  1  0.05767000  0.51991000  0.55815000  1.0
  H  H19  1  0.86488000  0.01960000  0.05805000  1.0
  H  H20  1  0.94233000  0.48009000  0.44185000  1.0
  H  H21  1  0.13512000  0.98040000  0.94195000  1.0
  H  H22  1  0.28022000  0.56347000  0.39811000  1.0
  H  H23  1  0.75870000  0.06340000  0.89794000  1.0
  H  H24  1  0.71978000  0.43653000  0.60189000  1.0
  H  H25  1  0.24130000  0.93660000  0.10206000  1.0
  C  C26  1  0.95433000  0.99786000  0.33368000  1.0
  C  C27  1  0.71400000  0.49795000  0.83365000  1.0
  C  C28  1  0.04567000  0.00214000  0.66632000  1.0
  C  C29  1  0.28599000  0.50205000  0.16636000  1.0
  C  C30  1  0.90447000  0.18678000  0.35387000  1.0
  C  C31  1  0.55468000  0.68684000  0.85376000  1.0
  C  C32  1  0.09554000  0.81322000  0.64612000  1.0
  C  C33  1  0.44532000  0.31316000  0.14624000  1.0
  C  C34  1  0.52262000  0.31960000  0.44370000  1.0
  C  C35  1  0.71394000  0.81982000  0.94358000  1.0
  C  C36  1  0.47738000  0.68040000  0.55630000  1.0
  C  C37  1  0.28606000  0.18018000  0.05642000  1.0
  C  C38  1  0.57579000  0.17350000  0.52324000  1.0
  C  C39  1  0.72707000  0.67379000  0.02315000  1.0
  C  C40  1  0.42421000  0.82650000  0.47676000  1.0
  C  C41  1  0.27293000  0.32621000  0.97685000  1.0
  C  C42  1  0.43860000  0.16016000  0.60916000  1.0
  C  C43  1  0.79179000  0.66033000  0.10909000  1.0
  C  C44  1  0.56140000  0.83984000  0.39084000  1.0
  C  C45  1  0.20820000  0.33967000  0.89091000  1.0
  C  C46  1  0.20534000  0.42183000  0.54491000  1.0
  C  C47  1  0.82829000  0.92169000  0.04477000  1.0
  C  C48  1  0.79467000  0.57817000  0.45509000  1.0
  C  C49  1  0.17170000  0.07831000  0.95523000  1.0
  C  C50  1  0.33138000  0.44518000  0.45554000  1.0
  C  C51  1  0.76825000  0.94516000  0.95537000  1.0
  C  C52  1  0.66863000  0.55482000  0.54446000  1.0
  C  C53  1  0.23176000  0.05484000  0.04462000  1.0
  S  S54  1  0.67702000  0.35977000  0.33281000  1.0
  S  S55  1  0.63009000  0.86000000  0.83271000  1.0
  S  S56  1  0.32298000  0.64023000  0.66719000  1.0
  S  S57  1  0.36991000  0.14000000  0.16729000  1.0
  N  N58  1  0.25621000  0.28140000  0.62132000  1.0
  N  N59  1  0.84114000  0.78136000  0.12123000  1.0
  N  N60  1  0.74379000  0.71860000  0.37868000  1.0
  N  N61  1  0.15886000  0.21864000  0.87877000  1.0
  O  O62  1  0.90765000  0.99242000  0.25222000  1.0
  O  O63  1  0.84770000  0.49258000  0.75231000  1.0
  O  O64  1  0.09236000  0.00758000  0.74777000  1.0
  O  O65  1  0.15231000  0.50741000  0.24769000  1.0
  O  O66  1  0.03613000  0.86314000  0.39436000  1.0
  O  O67  1  0.70619000  0.36318000  0.89423000  1.0
  O  O68  1  0.96387000  0.13686000  0.60564000  1.0
  O  O69  1  0.29381000  0.63682000  0.10577000  1.0
