# generated using pymatgen
data_Ag2H30C22N9O4
_symmetry_space_group_name_H-M   'P 1'
_cell_length_a   7.58205000
_cell_length_b   11.49370000
_cell_length_c   15.14840000
_cell_angle_alpha   74.41270000
_cell_angle_beta   82.56650000
_cell_angle_gamma   88.03760000
_symmetry_Int_Tables_number   1
_chemical_formula_structural   Ag2H30C22N9O4
_chemical_formula_sum   'Ag4 H60 C44 N18 O8'
_cell_volume   1260.88155675
_cell_formula_units_Z   2
loop_
 _symmetry_equiv_pos_site_id
 _symmetry_equiv_pos_as_xyz
  1  'x, y, z'
loop_
 _atom_site_type_symbol
 _atom_site_label
 _atom_site_symmetry_multiplicity
 _atom_site_fract_x
 _atom_site_fract_y
 _atom_site_fract_z
 _atom_site_occupancy
  Ag  Ag0  1  0.91168000  0.63835000  0.53130000  1.0
  Ag  Ag1  1  0.08830000  0.36165000  0.46870000  1.0
  Ag  Ag2  1  0.29997000  0.18295000  0.87736000  1.0
  Ag  Ag3  1  0.70004000  0.81706000  0.12264000  1.0
  H  H4  1  0.65236000  0.07602000  0.48007000  1.0
  H  H5  1  0.34765000  0.92399000  0.51993000  1.0
  H  H6  1  0.76383000  0.81032000  0.39732000  1.0
  H  H7  1  0.23617000  0.18968000  0.60268000  1.0
  H  H8  1  0.61652000  0.93682000  0.39037000  1.0
  H  H9  1  0.38347000  0.06318000  0.60963000  1.0
  H  H10  1  0.56196000  0.79546000  0.47163000  1.0
  H  H11  1  0.43805000  0.20454000  0.52837000  1.0
  H  H12  1  0.88682000  0.17852000  0.64827000  1.0
  H  H13  1  0.11318000  0.82148000  0.35174000  1.0
  H  H14  1  0.65678000  0.14541000  0.67122000  1.0
  H  H15  1  0.34323000  0.85459000  0.32878000  1.0
  H  H16  1  0.74839000  0.22384000  0.55785000  1.0
  H  H17  1  0.25162000  0.77616000  0.44215000  1.0
  H  H18  1  0.72400000  0.82803000  0.82681000  1.0
  H  H19  1  0.27598000  0.17196000  0.17319000  1.0
  H  H20  1  0.61048000  0.04267000  0.95484000  1.0
  H  H21  1  0.38952000  0.95733000  0.04516000  1.0
  H  H22  1  0.68685000  0.12798000  0.84187000  1.0
  H  H23  1  0.31315000  0.87201000  0.15813000  1.0
  H  H24  1  0.79534000  0.98802000  0.89183000  1.0
  H  H25  1  0.20466000  0.01198000  0.10817000  1.0
  H  H26  1  0.44275000  0.69627000  0.69262000  1.0
  H  H27  1  0.55722000  0.30372000  0.30738000  1.0
  H  H28  1  0.45957000  0.62184000  0.80997000  1.0
  H  H29  1  0.54042000  0.37816000  0.19004000  1.0
  H  H30  1  0.65171000  0.68734000  0.73760000  1.0
  H  H31  1  0.34826000  0.31266000  0.26241000  1.0
  H  H32  1  0.85296000  0.33441000  0.11965000  1.0
  H  H33  1  0.14705000  0.66559000  0.88035000  1.0
  H  H34  1  0.91605000  0.21616000  0.92025000  1.0
  H  H35  1  0.08396000  0.78385000  0.07975000  1.0
  H  H36  1  0.77601000  0.20725000  0.02578000  1.0
  H  H37  1  0.22399000  0.79276000  0.97422000  1.0
  H  H38  1  0.95232000  0.10119000  0.02092000  1.0
  H  H39  1  0.04769000  0.89881000  0.97908000  1.0
  H  H40  1  0.14008000  0.57746000  0.14762000  1.0
  H  H41  1  0.85994000  0.42254000  0.85238000  1.0
  H  H42  1  0.11180000  0.44056000  0.23471000  1.0
  H  H43  1  0.88822000  0.55944000  0.76529000  1.0
  H  H44  1  0.92555000  0.50676000  0.18173000  1.0
  H  H45  1  0.07447000  0.49324000  0.81827000  1.0
  H  H46  1  0.41170000  0.37621000  0.53846000  1.0
  H  H47  1  0.58830000  0.62380000  0.46154000  1.0
  H  H48  1  0.69802000  0.40606000  0.60552000  1.0
  H  H49  1  0.30197000  0.59395000  0.39447000  1.0
  H  H50  1  0.59078000  0.52728000  0.64043000  1.0
  H  H51  1  0.40920000  0.47272000  0.35956000  1.0
  H  H52  1  0.13516000  0.80370000  0.70955000  1.0
  H  H53  1  0.86484000  0.19630000  0.29045000  1.0
  H  H54  1  0.11743000  0.70446000  0.64170000  1.0
  H  H55  1  0.88256000  0.29554000  0.35830000  1.0
  H  H56  1  0.56545000  0.44657000  0.94932000  1.0
  H  H57  1  0.43456000  0.55342000  0.05068000  1.0
  H  H58  1  0.51351000  0.34661000  0.88606000  1.0
  H  H59  1  0.48649000  0.65339000  0.11394000  1.0
  H  H60  1  0.09205000  0.10284000  0.78688000  1.0
  H  H61  1  0.90796000  0.89716000  0.21312000  1.0
  H  H62  1  0.03497000  0.99172000  0.73533000  1.0
  H  H63  1  0.96503000  0.00829000  0.26467000  1.0
  C  C64  1  0.94256000  0.84659000  0.62473000  1.0
  C  C65  1  0.05743000  0.15341000  0.37527000  1.0
  C  C66  1  0.80730000  0.03440000  0.59562000  1.0
  C  C67  1  0.19270000  0.96560000  0.40438000  1.0
  C  C68  1  0.73029000  0.00871000  0.52379000  1.0
  C  C69  1  0.26972000  0.99130000  0.47621000  1.0
  C  C70  1  0.75778000  0.89493000  0.50867000  1.0
  C  C71  1  0.24222000  0.10508000  0.49132000  1.0
  C  C72  1  0.67152000  0.85843000  0.43730000  1.0
  C  C73  1  0.32848000  0.14158000  0.56270000  1.0
  C  C74  1  0.77426000  0.15216000  0.61914000  1.0
  C  C75  1  0.22574000  0.84784000  0.38086000  1.0
  C  C76  1  0.26877000  0.96630000  0.79462000  1.0
  C  C77  1  0.73123000  0.03370000  0.20538000  1.0
  C  C78  1  0.54311000  0.97044000  0.84673000  1.0
  C  C79  1  0.45688000  0.02956000  0.15327000  1.0
  C  C80  1  0.59212000  0.86662000  0.81894000  1.0
  C  C81  1  0.40787000  0.13337000  0.18106000  1.0
  C  C82  1  0.46868000  0.81427000  0.77992000  1.0
  C  C83  1  0.53130000  0.18572000  0.22008000  1.0
  C  C84  1  0.66746000  0.03485000  0.88612000  1.0
  C  C85  1  0.33254000  0.96514000  0.11388000  1.0
  C  C86  1  0.50803000  0.69963000  0.75244000  1.0
  C  C87  1  0.49194000  0.30036000  0.24757000  1.0
  C  C88  1  0.31938000  0.36633000  0.99019000  1.0
  C  C89  1  0.68062000  0.63367000  0.00981000  1.0
  C  C90  1  0.11168000  0.42037000  0.09873000  1.0
  C  C91  1  0.88833000  0.57963000  0.90127000  1.0
  C  C92  1  0.98696000  0.34306000  0.08310000  1.0
  C  C93  1  0.01305000  0.65694000  0.91690000  1.0
  C  C94  1  0.03834000  0.27798000  0.01869000  1.0
  C  C95  1  0.96166000  0.72203000  0.98130000  1.0
  C  C96  1  0.91280000  0.19621000  0.99557000  1.0
  C  C97  1  0.08720000  0.80380000  0.00442000  1.0
  C  C98  1  0.06878000  0.49123000  0.16844000  1.0
  C  C99  1  0.93124000  0.50877000  0.83156000  1.0
  C  C100  1  0.28159000  0.53161000  0.56795000  1.0
  C  C101  1  0.71840000  0.46839000  0.43205000  1.0
  C  C102  1  0.45079000  0.46324000  0.54691000  1.0
  C  C103  1  0.54920000  0.53676000  0.45309000  1.0
  C  C104  1  0.56638000  0.44103000  0.62519000  1.0
  C  C105  1  0.43361000  0.55897000  0.37480000  1.0
  C  C106  1  0.48631000  0.35331000  0.71513000  1.0
  C  C107  1  0.51371000  0.64669000  0.28487000  1.0
  N  N108  1  0.86177000  0.81258000  0.55974000  1.0
  N  N109  1  0.13822000  0.18742000  0.44027000  1.0
  N  N110  1  0.05683000  0.76998000  0.67105000  1.0
  N  N111  1  0.94316000  0.23002000  0.32895000  1.0
  N  N112  1  0.91203000  0.95383000  0.64572000  1.0
  N  N113  1  0.08796000  0.04617000  0.35428000  1.0
  N  N114  1  0.20517000  0.28723000  0.97350000  1.0
  N  N115  1  0.79484000  0.71277000  0.02649000  1.0
  N  N116  1  0.48368000  0.37876000  0.94413000  1.0
  N  N117  1  0.51632000  0.62124000  0.05586000  1.0
  N  N118  1  0.27524000  0.43242000  0.05174000  1.0
  N  N119  1  0.72477000  0.56758000  0.94826000  1.0
  N  N120  1  0.37933000  0.01903000  0.83641000  1.0
  N  N121  1  0.62068000  0.98097000  0.16359000  1.0
  N  N122  1  0.10715000  0.01672000  0.78133000  1.0
  N  N123  1  0.89286000  0.98328000  0.21867000  1.0
  N  N124  1  0.30845000  0.86515000  0.76699000  1.0
  N  N125  1  0.69155000  0.13485000  0.23301000  1.0
  O  O126  1  0.13320000  0.49342000  0.55295000  1.0
  O  O127  1  0.86678000  0.50657000  0.44705000  1.0
  O  O128  1  0.29502000  0.62674000  0.59294000  1.0
  O  O129  1  0.70498000  0.37326000  0.40705000  1.0
  O  O130  1  0.58719000  0.31942000  0.77886000  1.0
  O  O131  1  0.41282000  0.68057000  0.22114000  1.0
  O  O132  1  0.32652000  0.31923000  0.72127000  1.0
  O  O133  1  0.67349000  0.68078000  0.27873000  1.0
