# generated using pymatgen
data_CdH28C30(N3O2)2
_symmetry_space_group_name_H-M   'P 1'
_cell_length_a   9.85864000
_cell_length_b   12.15440000
_cell_length_c   12.15440000
_cell_angle_alpha   105.20300000
_cell_angle_beta   98.46890000
_cell_angle_gamma   98.46860000
_symmetry_Int_Tables_number   1
_chemical_formula_structural   CdH28C30(N3O2)2
_chemical_formula_sum   'Cd2 H56 C60 N12 O8'
_cell_volume   1363.49843662
_cell_formula_units_Z   2
loop_
 _symmetry_equiv_pos_site_id
 _symmetry_equiv_pos_as_xyz
  1  'x, y, z'
loop_
 _atom_site_type_symbol
 _atom_site_label
 _atom_site_symmetry_multiplicity
 _atom_site_fract_x
 _atom_site_fract_y
 _atom_site_fract_z
 _atom_site_occupancy
  Cd  Cd0  1  0.75000000  0.37327000  0.62672000  1.0
  Cd  Cd1  1  0.25000000  0.62673000  0.37328000  1.0
  H  H2  1  0.96115000  0.64531000  0.78859000  1.0
  H  H3  1  0.53885000  0.21141000  0.35468000  1.0
  H  H4  1  0.03885000  0.35469000  0.21141000  1.0
  H  H5  1  0.46115000  0.78859000  0.64531000  1.0
  H  H6  1  0.54147000  0.58356000  0.61740000  1.0
  H  H7  1  0.95854000  0.38260000  0.41643000  1.0
  H  H8  1  0.45853000  0.41644000  0.38260000  1.0
  H  H9  1  0.04147000  0.61740000  0.58357000  1.0
  H  H10  1  0.93344000  0.91151000  0.76642000  1.0
  H  H11  1  0.56656000  0.23358000  0.08849000  1.0
  H  H12  1  0.06656000  0.08849000  0.23358000  1.0
  H  H13  1  0.43344000  0.76642000  0.91151000  1.0
  H  H14  1  0.99359000  0.85974000  0.88347000  1.0
  H  H15  1  0.50641000  0.11653000  0.14026000  1.0
  H  H16  1  0.00641000  0.14026000  0.11653000  1.0
  H  H17  1  0.49359000  0.88348000  0.85974000  1.0
  H  H18  1  0.85525000  0.83641000  0.13517000  1.0
  H  H19  1  0.64475000  0.86483000  0.16359000  1.0
  H  H20  1  0.14475000  0.16359000  0.86483000  1.0
  H  H21  1  0.35525000  0.13517000  0.83641000  1.0
  H  H22  1  0.92183000  0.79535000  0.00677000  1.0
  H  H23  1  0.57817000  0.99323000  0.20465000  1.0
  H  H24  1  0.07817000  0.20465000  0.99323000  1.0
  H  H25  1  0.42183000  0.00677000  0.79535000  1.0
  H  H26  1  0.74525000  0.74297000  0.00740000  1.0
  H  H27  1  0.75475000  0.99260000  0.25703000  1.0
  H  H28  1  0.25475000  0.25703000  0.99260000  1.0
  H  H29  1  0.24525000  0.00740000  0.74297000  1.0
  H  H30  1  0.90052000  0.13377000  0.77636000  1.0
  H  H31  1  0.59948000  0.22364000  0.86623000  1.0
  H  H32  1  0.09948000  0.86623000  0.22364000  1.0
  H  H33  1  0.40052000  0.77637000  0.13377000  1.0
  H  H34  1  0.71800000  0.10752000  0.72968000  1.0
  H  H35  1  0.78200000  0.27032000  0.89247000  1.0
  H  H36  1  0.28201000  0.89248000  0.27032000  1.0
  H  H37  1  0.21800000  0.72968000  0.10752000  1.0
  H  H38  1  0.80710000  0.99156000  0.69801000  1.0
  H  H39  1  0.69290000  0.30199000  0.00844000  1.0
  H  H40  1  0.19290000  0.00844000  0.30199000  1.0
  H  H41  1  0.30710000  0.69801000  0.99156000  1.0
  H  H42  1  0.26738000  0.46041000  0.68610000  1.0
  H  H43  1  0.23261000  0.31390000  0.53959000  1.0
  H  H44  1  0.73262000  0.53959000  0.31390000  1.0
  H  H45  1  0.76739000  0.68610000  0.46041000  1.0
  H  H46  1  0.50083000  0.49390000  0.80335000  1.0
  H  H47  1  0.99917000  0.19665000  0.50610000  1.0
  H  H48  1  0.49917000  0.50610000  0.19666000  1.0
  H  H49  1  0.00083000  0.80335000  0.49390000  1.0
  H  H50  1  0.31538000  0.48467000  0.10361000  1.0
  H  H51  1  0.18462000  0.89639000  0.51533000  1.0
  H  H52  1  0.68462000  0.51533000  0.89640000  1.0
  H  H53  1  0.81538000  0.10361000  0.48467000  1.0
  H  H54  1  0.08342000  0.44430000  0.98194000  1.0
  H  H55  1  0.41659000  0.01806000  0.55569000  1.0
  H  H56  1  0.91659000  0.55569000  0.01806000  1.0
  H  H57  1  0.58341000  0.98194000  0.44430000  1.0
  C  C58  1  0.85642000  0.65445000  0.75488000  1.0
  C  C59  1  0.64358000  0.24513000  0.34554000  1.0
  C  C60  1  0.14358000  0.34554000  0.24512000  1.0
  C  C61  1  0.35642000  0.75487000  0.65445000  1.0
  C  C62  1  0.64381000  0.62718000  0.66925000  1.0
  C  C63  1  0.85619000  0.33075000  0.37282000  1.0
  C  C64  1  0.35618000  0.37282000  0.33075000  1.0
  C  C65  1  0.14381000  0.66925000  0.62718000  1.0
  C  C66  1  0.89926000  0.87314000  0.83221000  1.0
  C  C67  1  0.60074000  0.16779000  0.12686000  1.0
  C  C68  1  0.10074000  0.12686000  0.16778000  1.0
  C  C69  1  0.39926000  0.83221000  0.87314000  1.0
  C  C70  1  0.82059000  0.94960000  0.90744000  1.0
  C  C71  1  0.67941000  0.09256000  0.05040000  1.0
  C  C72  1  0.17941000  0.05040000  0.09256000  1.0
  C  C73  1  0.32059000  0.90744000  0.94960000  1.0
  C  C74  1  0.78836000  0.92312000  0.00797000  1.0
  C  C75  1  0.71164000  0.99203000  0.07688000  1.0
  C  C76  1  0.21164000  0.07688000  0.99203000  1.0
  C  C77  1  0.28836000  0.00797000  0.92312000  1.0
  C  C78  1  0.83018000  0.82007000  0.04067000  1.0
  C  C79  1  0.66983000  0.95933000  0.17993000  1.0
  C  C80  1  0.16982000  0.17993000  0.95933000  1.0
  C  C81  1  0.33017000  0.04067000  0.82007000  1.0
  C  C82  1  0.78163000  0.04638000  0.87730000  1.0
  C  C83  1  0.71836000  0.12270000  0.95362000  1.0
  C  C84  1  0.21836000  0.95362000  0.12270000  1.0
  C  C85  1  0.28163000  0.87730000  0.04638000  1.0
  C  C86  1  0.80348000  0.07057000  0.76516000  1.0
  C  C87  1  0.69652000  0.23484000  0.92942000  1.0
  C  C88  1  0.19652000  0.92942000  0.23484000  1.0
  C  C89  1  0.30348000  0.76516000  0.07057000  1.0
  C  C90  1  0.01774000  0.41789000  0.74926000  1.0
  C  C91  1  0.48226000  0.25074000  0.58211000  1.0
  C  C92  1  0.98226000  0.58211000  0.25074000  1.0
  C  C93  1  0.51774000  0.74926000  0.41789000  1.0
  C  C94  1  0.15923000  0.44659000  0.82477000  1.0
  C  C95  1  0.34076000  0.17523000  0.55341000  1.0
  C  C96  1  0.84077000  0.55341000  0.17524000  1.0
  C  C97  1  0.65924000  0.82477000  0.44659000  1.0
  C  C98  1  0.27909000  0.46432000  0.77749000  1.0
  C  C99  1  0.22091000  0.22251000  0.53568000  1.0
  C  C100  1  0.72091000  0.53568000  0.22252000  1.0
  C  C101  1  0.77909000  0.77748000  0.46432000  1.0
  C  C102  1  0.41143000  0.48450000  0.84533000  1.0
  C  C103  1  0.08857000  0.15467000  0.51550000  1.0
  C  C104  1  0.58857000  0.51550000  0.15468000  1.0
  C  C105  1  0.91143000  0.84533000  0.48450000  1.0
  C  C106  1  0.42950000  0.49026000  0.96412000  1.0
  C  C107  1  0.07050000  0.03588000  0.50974000  1.0
  C  C108  1  0.57050000  0.50974000  0.03589000  1.0
  C  C109  1  0.92950000  0.96412000  0.49026000  1.0
  C  C110  1  0.30808000  0.47732000  0.01163000  1.0
  C  C111  1  0.19192000  0.98837000  0.52268000  1.0
  C  C112  1  0.69193000  0.52269000  0.98837000  1.0
  C  C113  1  0.80807000  0.01163000  0.47732000  1.0
  C  C114  1  0.17551000  0.45503000  0.94326000  1.0
  C  C115  1  0.32448000  0.05674000  0.54497000  1.0
  C  C116  1  0.82449000  0.54497000  0.05675000  1.0
  C  C117  1  0.67551000  0.94326000  0.45503000  1.0
  N  N118  1  0.74978000  0.57006000  0.69002000  1.0
  N  N119  1  0.75022000  0.30998000  0.42994000  1.0
  N  N120  1  0.25022000  0.42994000  0.30998000  1.0
  N  N121  1  0.24978000  0.69002000  0.57006000  1.0
  N  N122  1  0.67947000  0.74149000  0.71752000  1.0
  N  N123  1  0.82053000  0.28248000  0.25852000  1.0
  N  N124  1  0.32053000  0.25851000  0.28249000  1.0
  N  N125  1  0.17947000  0.71752000  0.74148000  1.0
  N  N126  1  0.81510000  0.75693000  0.77133000  1.0
  N  N127  1  0.68490000  0.22868000  0.24307000  1.0
  N  N128  1  0.18490000  0.24307000  0.22867000  1.0
  N  N129  1  0.31510000  0.77132000  0.75693000  1.0
  O  O130  1  0.00641000  0.41973000  0.64392000  1.0
  O  O131  1  0.49359000  0.35608000  0.58027000  1.0
  O  O132  1  0.99359000  0.58027000  0.35608000  1.0
  O  O133  1  0.50641000  0.64392000  0.41973000  1.0
  O  O134  1  0.91087000  0.39241000  0.79356000  1.0
  O  O135  1  0.58912000  0.20644000  0.60759000  1.0
  O  O136  1  0.08912000  0.60759000  0.20644000  1.0
  O  O137  1  0.41088000  0.79356000  0.39241000  1.0
