# generated using pymatgen
data_ZnH12C20NO4
_symmetry_space_group_name_H-M   'P 1'
_cell_length_a   20.07550000
_cell_length_b   20.24730000
_cell_length_c   20.24730000
_cell_angle_alpha   66.78400000
_cell_angle_beta   61.63610000
_cell_angle_gamma   61.63580000
_symmetry_Int_Tables_number   1
_chemical_formula_structural   ZnH12C20NO4
_chemical_formula_sum   'Zn8 H96 C160 N8 O32'
_cell_volume   6219.82504632
_cell_formula_units_Z   8
loop_
 _symmetry_equiv_pos_site_id
 _symmetry_equiv_pos_as_xyz
  1  'x, y, z'
loop_
 _atom_site_type_symbol
 _atom_site_label
 _atom_site_symmetry_multiplicity
 _atom_site_fract_x
 _atom_site_fract_y
 _atom_site_fract_z
 _atom_site_occupancy
  Zn  Zn0  1  0.57910000  0.07400000  0.54463000  1.0
  Zn  Zn1  1  0.92090000  0.45537000  0.92600000  1.0
  Zn  Zn2  1  0.42090000  0.92600000  0.45538000  1.0
  Zn  Zn3  1  0.07910000  0.54463000  0.07400000  1.0
  Zn  Zn4  1  0.48203000  0.14226000  0.67476000  1.0
  Zn  Zn5  1  0.01797000  0.32524000  0.85775000  1.0
  Zn  Zn6  1  0.51797000  0.85774000  0.32524000  1.0
  Zn  Zn7  1  0.98202000  0.67476000  0.14225000  1.0
  H  H8  1  0.31519000  0.24983000  0.71908000  1.0
  H  H9  1  0.18481000  0.28093000  0.75016000  1.0
  H  H10  1  0.68482000  0.75017000  0.28092000  1.0
  H  H11  1  0.81518000  0.71908000  0.24983000  1.0
  H  H12  1  0.32225000  0.01475000  0.80068000  1.0
  H  H13  1  0.17775000  0.19933000  0.98525000  1.0
  H  H14  1  0.67775000  0.98524000  0.19933000  1.0
  H  H15  1  0.82226000  0.80067000  0.01474000  1.0
  H  H16  1  0.19216000  0.44370000  0.83535000  1.0
  H  H17  1  0.30784000  0.16466000  0.55630000  1.0
  H  H18  1  0.80784000  0.55630000  0.16466000  1.0
  H  H19  1  0.69216000  0.83534000  0.44370000  1.0
  H  H20  1  0.21819000  0.39354000  0.08147000  1.0
  H  H21  1  0.28181000  0.91853000  0.60647000  1.0
  H  H22  1  0.78182000  0.60647000  0.91853000  1.0
  H  H23  1  0.71819000  0.08147000  0.39353000  1.0
  H  H24  1  0.74566000  0.19856000  0.41384000  1.0
  H  H25  1  0.75434000  0.58616000  0.80144000  1.0
  H  H26  1  0.25434000  0.80144000  0.58616000  1.0
  H  H27  1  0.24565000  0.41384000  0.19856000  1.0
  H  H28  1  0.12574000  0.82388000  0.99816000  1.0
  H  H29  1  0.37426000  0.00184000  0.17611000  1.0
  H  H30  1  0.87425000  0.17612000  0.00184000  1.0
  H  H31  1  0.62574000  0.99816000  0.82388000  1.0
  H  H32  1  0.93398000  0.39835000  0.21757000  1.0
  H  H33  1  0.56600000  0.78243000  0.60166000  1.0
  H  H34  1  0.06601000  0.60165000  0.78243000  1.0
  H  H35  1  0.43399000  0.21757000  0.39835000  1.0
  H  H36  1  0.63936000  0.41856000  0.53567000  1.0
  H  H37  1  0.86064000  0.46432000  0.58145000  1.0
  H  H38  1  0.36064000  0.58145000  0.46433000  1.0
  H  H39  1  0.13937000  0.53568000  0.41855000  1.0
  H  H40  1  0.47662000  0.90293000  0.61029000  1.0
  H  H41  1  0.02340000  0.38972000  0.09706000  1.0
  H  H42  1  0.52338000  0.09706000  0.38971000  1.0
  H  H43  1  0.97662000  0.61028000  0.90293000  1.0
  H  H44  1  0.57801000  0.31622000  0.59851000  1.0
  H  H45  1  0.92199000  0.40149000  0.68379000  1.0
  H  H46  1  0.42199000  0.68379000  0.40149000  1.0
  H  H47  1  0.07800000  0.59851000  0.31622000  1.0
  H  H48  1  0.24789000  0.90208000  0.93309000  1.0
  H  H49  1  0.25211000  0.06692000  0.09791000  1.0
  H  H50  1  0.75211000  0.09791000  0.06692000  1.0
  H  H51  1  0.74789000  0.93308000  0.90209000  1.0
  H  H52  1  0.17875000  0.95935000  0.88445000  1.0
  H  H53  1  0.32126000  0.11555000  0.04065000  1.0
  H  H54  1  0.82125000  0.04065000  0.11555000  1.0
  H  H55  1  0.67875000  0.88445000  0.95935000  1.0
  H  H56  1  0.31084000  0.29533000  0.00086000  1.0
  H  H57  1  0.18916000  0.99914000  0.70467000  1.0
  H  H58  1  0.68917000  0.70467000  0.99913000  1.0
  H  H59  1  0.81083000  0.00087000  0.29533000  1.0
  H  H60  1  0.22059000  0.33718000  0.81100000  1.0
  H  H61  1  0.27941000  0.18901000  0.66281000  1.0
  H  H62  1  0.77942000  0.66282000  0.18900000  1.0
  H  H63  1  0.72058000  0.81101000  0.33718000  1.0
  H  H64  1  0.71917000  0.51033000  0.44553000  1.0
  H  H65  1  0.78082000  0.55447000  0.48968000  1.0
  H  H66  1  0.28083000  0.48967000  0.55447000  1.0
  H  H67  1  0.21918000  0.44552000  0.51033000  1.0
  H  H68  1  0.32754000  0.71330000  0.76605000  1.0
  H  H69  1  0.17246000  0.23395000  0.28669000  1.0
  H  H70  1  0.67246000  0.28669000  0.23396000  1.0
  H  H71  1  0.82753000  0.76604000  0.71331000  1.0
  H  H72  1  0.81417000  0.57745000  0.34217000  1.0
  H  H73  1  0.68582000  0.65782000  0.42256000  1.0
  H  H74  1  0.18584000  0.42255000  0.65782000  1.0
  H  H75  1  0.31417000  0.34217000  0.57745000  1.0
  H  H76  1  0.41389000  0.80304000  0.67336000  1.0
  H  H77  1  0.08612000  0.32664000  0.19695000  1.0
  H  H78  1  0.58611000  0.19695000  0.32664000  1.0
  H  H79  1  0.91388000  0.67336000  0.80305000  1.0
  H  H80  1  0.23108000  0.64907000  0.87201000  1.0
  H  H81  1  0.26892000  0.12798000  0.35093000  1.0
  H  H82  1  0.76891000  0.35093000  0.12798000  1.0
  H  H83  1  0.73107000  0.87202000  0.64908000  1.0
  H  H84  1  0.49703000  0.16628000  0.80447000  1.0
  H  H85  1  0.00297000  0.19553000  0.83372000  1.0
  H  H86  1  0.50298000  0.83373000  0.19552000  1.0
  H  H87  1  0.99702000  0.80448000  0.16627000  1.0
  H  H88  1  0.10145000  0.53224000  0.92605000  1.0
  H  H89  1  0.39855000  0.07395000  0.46776000  1.0
  H  H90  1  0.89855000  0.46775000  0.07396000  1.0
  H  H91  1  0.60145000  0.92604000  0.53224000  1.0
  H  H92  1  0.41442000  0.25513000  0.89571000  1.0
  H  H93  1  0.08558000  0.10430000  0.74487000  1.0
  H  H94  1  0.58559000  0.74488000  0.10429000  1.0
  H  H95  1  0.91441000  0.89571000  0.25512000  1.0
  H  H96  1  0.81476000  0.31545000  0.27940000  1.0
  H  H97  1  0.68524000  0.72060000  0.68455000  1.0
  H  H98  1  0.18525000  0.68455000  0.72060000  1.0
  H  H99  1  0.31476000  0.27940000  0.31545000  1.0
  H  H100  1  0.88402000  0.26221000  0.32808000  1.0
  H  H101  1  0.61598000  0.67192000  0.73779000  1.0
  H  H102  1  0.11597000  0.73779000  0.67193000  1.0
  H  H103  1  0.38402000  0.32808000  0.26221000  1.0
  C  C104  1  0.33302000  0.25221000  0.76090000  1.0
  C  C105  1  0.16698000  0.23911000  0.74779000  1.0
  C  C106  1  0.66699000  0.74779000  0.23910000  1.0
  C  C107  1  0.83301000  0.76090000  0.25220000  1.0
  C  C108  1  0.93491000  0.53315000  0.21396000  1.0
  C  C109  1  0.56508000  0.78603000  0.46686000  1.0
  C  C110  1  0.06509000  0.46686000  0.78603000  1.0
  C  C111  1  0.43492000  0.21396000  0.53314000  1.0
  C  C112  1  0.25911000  0.36078000  0.91080000  1.0
  C  C113  1  0.24089000  0.08920000  0.63922000  1.0
  C  C114  1  0.74090000  0.63923000  0.08920000  1.0
  C  C115  1  0.75910000  0.91080000  0.36077000  1.0
  C  C116  1  0.31033000  0.30511000  0.86049000  1.0
  C  C117  1  0.18967000  0.13951000  0.69488000  1.0
  C  C118  1  0.68968000  0.69489000  0.13950000  1.0
  C  C119  1  0.81032000  0.86049000  0.30511000  1.0
  C  C120  1  0.61800000  0.19419000  0.54680000  1.0
  C  C121  1  0.88200000  0.45321000  0.80581000  1.0
  C  C122  1  0.38199000  0.80581000  0.45321000  1.0
  C  C123  1  0.11799000  0.54679000  0.19420000  1.0
  C  C124  1  0.11765000  0.69285000  0.00381000  1.0
  C  C125  1  0.38236000  0.99619000  0.30715000  1.0
  C  C126  1  0.88235000  0.30715000  0.99619000  1.0
  C  C127  1  0.61765000  0.00381000  0.69286000  1.0
  C  C128  1  0.40391000  0.96332000  0.70258000  1.0
  C  C129  1  0.09609000  0.29742000  0.03667000  1.0
  C  C130  1  0.59609000  0.03667000  0.29742000  1.0
  C  C131  1  0.90392000  0.70258000  0.96332000  1.0
  C  C132  1  0.44480000  0.02111000  0.66524000  1.0
  C  C133  1  0.05520000  0.33477000  0.97889000  1.0
  C  C134  1  0.55520000  0.97888000  0.33476000  1.0
  C  C135  1  0.94480000  0.66524000  0.02111000  1.0
  C  C136  1  0.65843000  0.25243000  0.50952000  1.0
  C  C137  1  0.84157000  0.49048000  0.74757000  1.0
  C  C138  1  0.34156000  0.74757000  0.49048000  1.0
  C  C139  1  0.15843000  0.50952000  0.25243000  1.0
  C  C140  1  0.34054000  0.96827000  0.77423000  1.0
  C  C141  1  0.15946000  0.22578000  0.03172000  1.0
  C  C142  1  0.65946000  0.03172000  0.22577000  1.0
  C  C143  1  0.84055000  0.77423000  0.96827000  1.0
  C  C144  1  0.30341000  0.91421000  0.80886000  1.0
  C  C145  1  0.19660000  0.19114000  0.08578000  1.0
  C  C146  1  0.69660000  0.08578000  0.19114000  1.0
  C  C147  1  0.80341000  0.80886000  0.91421000  1.0
  C  C148  1  0.87881000  0.49182000  0.27451000  1.0
  C  C149  1  0.62118000  0.72548000  0.50819000  1.0
  C  C150  1  0.12119000  0.50818000  0.72548000  1.0
  C  C151  1  0.37882000  0.27452000  0.49182000  1.0
  C  C152  1  0.19977000  0.42913000  0.88977000  1.0
  C  C153  1  0.30023000  0.11023000  0.57087000  1.0
  C  C154  1  0.80024000  0.57086000  0.11023000  1.0
  C  C155  1  0.69977000  0.88977000  0.42913000  1.0
  C  C156  1  0.75804000  0.30344000  0.40374000  1.0
  C  C157  1  0.74197000  0.59626000  0.69656000  1.0
  C  C158  1  0.24196000  0.69656000  0.59626000  1.0
  C  C159  1  0.25804000  0.40374000  0.30344000  1.0
  C  C160  1  0.21489000  0.40137000  0.02653000  1.0
  C  C161  1  0.28511000  0.97347000  0.59863000  1.0
  C  C162  1  0.78512000  0.59863000  0.97347000  1.0
  C  C163  1  0.71489000  0.02653000  0.40137000  1.0
  C  C164  1  0.77321000  0.41661000  0.38825000  1.0
  C  C165  1  0.72678000  0.61175000  0.58339000  1.0
  C  C166  1  0.22679000  0.58339000  0.61175000  1.0
  C  C167  1  0.27322000  0.38825000  0.41661000  1.0
  C  C168  1  0.72379000  0.24696000  0.43914000  1.0
  C  C169  1  0.77621000  0.56086000  0.75304000  1.0
  C  C170  1  0.27620000  0.75304000  0.56086000  1.0
  C  C171  1  0.22379000  0.43914000  0.24697000  1.0
  C  C172  1  0.22375000  0.83667000  0.88911000  1.0
  C  C173  1  0.27626000  0.11089000  0.16333000  1.0
  C  C174  1  0.77625000  0.16333000  0.11089000  1.0
  C  C175  1  0.72375000  0.88911000  0.83667000  1.0
  C  C176  1  0.17343000  0.73315000  0.94026000  1.0
  C  C177  1  0.32657000  0.05973000  0.26684000  1.0
  C  C178  1  0.82656000  0.26685000  0.05973000  1.0
  C  C179  1  0.67343000  0.94027000  0.73316000  1.0
  C  C180  1  0.17008000  0.80117000  0.94696000  1.0
  C  C181  1  0.32993000  0.05304000  0.19883000  1.0
  C  C182  1  0.82992000  0.19883000  0.05304000  1.0
  C  C183  1  0.67008000  0.94696000  0.80117000  1.0
  C  C184  1  0.83321000  0.38522000  0.32346000  1.0
  C  C185  1  0.66679000  0.67653000  0.61478000  1.0
  C  C186  1  0.16679000  0.61477000  0.67653000  1.0
  C  C187  1  0.33321000  0.32346000  0.38522000  1.0
  C  C188  1  0.88647000  0.42203000  0.26730000  1.0
  C  C189  1  0.61352000  0.73269000  0.57797000  1.0
  C  C190  1  0.11353000  0.57796000  0.73269000  1.0
  C  C191  1  0.38648000  0.26730000  0.42203000  1.0
  C  C192  1  0.72727000  0.36572000  0.43821000  1.0
  C  C193  1  0.77273000  0.56179000  0.63428000  1.0
  C  C194  1  0.27273000  0.63428000  0.56179000  1.0
  C  C195  1  0.22727000  0.43821000  0.36572000  1.0
  C  C196  1  0.32998000  0.85360000  0.77358000  1.0
  C  C197  1  0.17003000  0.22643000  0.14639000  1.0
  C  C198  1  0.67003000  0.14639000  0.22643000  1.0
  C  C199  1  0.82997000  0.77357000  0.85360000  1.0
  C  C200  1  0.66283000  0.37082000  0.50878000  1.0
  C  C201  1  0.83717000  0.49122000  0.62918000  1.0
  C  C202  1  0.33716000  0.62919000  0.49122000  1.0
  C  C203  1  0.16283000  0.50878000  0.37082000  1.0
  C  C204  1  0.42918000  0.90405000  0.66699000  1.0
  C  C205  1  0.07084000  0.33302000  0.09594000  1.0
  C  C206  1  0.57083000  0.09594000  0.33301000  1.0
  C  C207  1  0.92917000  0.66699000  0.90406000  1.0
  C  C208  1  0.62879000  0.31398000  0.54396000  1.0
  C  C209  1  0.87121000  0.45604000  0.68603000  1.0
  C  C210  1  0.37120000  0.68603000  0.45604000  1.0
  C  C211  1  0.12879000  0.54396000  0.31398000  1.0
  C  C212  1  0.23403000  0.90786000  0.88408000  1.0
  C  C213  1  0.26597000  0.11592000  0.09213000  1.0
  C  C214  1  0.76597000  0.09213000  0.11592000  1.0
  C  C215  1  0.73404000  0.88408000  0.90786000  1.0
  C  C216  1  0.26688000  0.34781000  0.98058000  1.0
  C  C217  1  0.23312000  0.01943000  0.65219000  1.0
  C  C218  1  0.73313000  0.65219000  0.01942000  1.0
  C  C219  1  0.76687000  0.98057000  0.34781000  1.0
  C  C220  1  0.28194000  0.30185000  0.81088000  1.0
  C  C221  1  0.21805000  0.18913000  0.69815000  1.0
  C  C222  1  0.71806000  0.69815000  0.18912000  1.0
  C  C223  1  0.78194000  0.81089000  0.30185000  1.0
  C  C224  1  0.76557000  0.48595000  0.39575000  1.0
  C  C225  1  0.73443000  0.60424000  0.51405000  1.0
  C  C226  1  0.23444000  0.51404000  0.60425000  1.0
  C  C227  1  0.26557000  0.39575000  0.48595000  1.0
  C  C228  1  0.28356000  0.73801000  0.81625000  1.0
  C  C229  1  0.21644000  0.18375000  0.26199000  1.0
  C  C230  1  0.71644000  0.26199000  0.18375000  1.0
  C  C231  1  0.78356000  0.81625000  0.73801000  1.0
  C  C232  1  0.28082000  0.80535000  0.82353000  1.0
  C  C233  1  0.21919000  0.17647000  0.19464000  1.0
  C  C234  1  0.71918000  0.19464000  0.17647000  1.0
  C  C235  1  0.78082000  0.82353000  0.80535000  1.0
  C  C236  1  0.81814000  0.52339000  0.33836000  1.0
  C  C237  1  0.68185000  0.66163000  0.47662000  1.0
  C  C238  1  0.18186000  0.47661000  0.66163000  1.0
  C  C239  1  0.31814000  0.33836000  0.52339000  1.0
  C  C240  1  0.39329000  0.84846000  0.70224000  1.0
  C  C241  1  0.10673000  0.29776000  0.15153000  1.0
  C  C242  1  0.60672000  0.15153000  0.29776000  1.0
  C  C243  1  0.89328000  0.70224000  0.84846000  1.0
  C  C244  1  0.22996000  0.70221000  0.87498000  1.0
  C  C245  1  0.27004000  0.12502000  0.29779000  1.0
  C  C246  1  0.77003000  0.29779000  0.12502000  1.0
  C  C247  1  0.72996000  0.87498000  0.70221000  1.0
  C  C248  1  0.43561000  0.20585000  0.80801000  1.0
  C  C249  1  0.06439000  0.19199000  0.79415000  1.0
  C  C250  1  0.56440000  0.79415000  0.19199000  1.0
  C  C251  1  0.93560000  0.80801000  0.20585000  1.0
  C  C252  1  0.14970000  0.47947000  0.93905000  1.0
  C  C253  1  0.35030000  0.06095000  0.52053000  1.0
  C  C254  1  0.85030000  0.52053000  0.06095000  1.0
  C  C255  1  0.64970000  0.93905000  0.47947000  1.0
  C  C256  1  0.38876000  0.25487000  0.85898000  1.0
  C  C257  1  0.11124000  0.14102000  0.74513000  1.0
  C  C258  1  0.61125000  0.74513000  0.14101000  1.0
  C  C259  1  0.88875000  0.85899000  0.25487000  1.0
  C  C260  1  0.82722000  0.31165000  0.32855000  1.0
  C  C261  1  0.67278000  0.67145000  0.68836000  1.0
  C  C262  1  0.17278000  0.68835000  0.67145000  1.0
  C  C263  1  0.32722000  0.32855000  0.31165000  1.0
  N  N264  1  0.15676000  0.46564000  0.00651000  1.0
  N  N265  1  0.34323000  0.99348000  0.53436000  1.0
  N  N266  1  0.84324000  0.53436000  0.99349000  1.0
  N  N267  1  0.65677000  0.00651000  0.46564000  1.0
  N  N268  1  0.40853000  0.20516000  0.75901000  1.0
  N  N269  1  0.09146000  0.24099000  0.79484000  1.0
  N  N270  1  0.59147000  0.79484000  0.24098000  1.0
  N  N271  1  0.90853000  0.75902000  0.20516000  1.0
  O  O272  1  0.49312000  0.02226000  0.59567000  1.0
  O  O273  1  0.00688000  0.40433000  0.97774000  1.0
  O  O274  1  0.50688000  0.97773000  0.40433000  1.0
  O  O275  1  0.99312000  0.59566000  0.02227000  1.0
  O  O276  1  0.06508000  0.72539000  0.05999000  1.0
  O  O277  1  0.43493000  0.94000000  0.27461000  1.0
  O  O278  1  0.93493000  0.27460000  0.94001000  1.0
  O  O279  1  0.56506000  0.06000000  0.72540000  1.0
  O  O280  1  0.55744000  0.20390000  0.60927000  1.0
  O  O281  1  0.94255000  0.39073000  0.79611000  1.0
  O  O282  1  0.44256000  0.79610000  0.39074000  1.0
  O  O283  1  0.05743000  0.60926000  0.20391000  1.0
  O  O284  1  0.00052000  0.49462000  0.16870000  1.0
  O  O285  1  0.49947000  0.83129000  0.50538000  1.0
  O  O286  1  0.99949000  0.50537000  0.83130000  1.0
  O  O287  1  0.50052000  0.16870000  0.49463000  1.0
  O  O288  1  0.64590000  0.14011000  0.51287000  1.0
  O  O289  1  0.85410000  0.48714000  0.85989000  1.0
  O  O290  1  0.35409000  0.85990000  0.48714000  1.0
  O  O291  1  0.14591000  0.51287000  0.14010000  1.0
  O  O292  1  0.91198000  0.60426000  0.21204000  1.0
  O  O293  1  0.58801000  0.78795000  0.39575000  1.0
  O  O294  1  0.08801000  0.39575000  0.78795000  1.0
  O  O295  1  0.41200000  0.21206000  0.60425000  1.0
  O  O296  1  0.12702000  0.62879000  0.99705000  1.0
  O  O297  1  0.37298000  0.00294000  0.37122000  1.0
  O  O298  1  0.87298000  0.37121000  0.00294000  1.0
  O  O299  1  0.62702000  0.99706000  0.62879000  1.0
  O  O300  1  0.42815000  0.06476000  0.70653000  1.0
  O  O301  1  0.07184000  0.29347000  0.93525000  1.0
  O  O302  1  0.57184000  0.93525000  0.29346000  1.0
  O  O303  1  0.92816000  0.70654000  0.06474000  1.0
