# generated using pymatgen
data_CdH19C23(NO2)3
_symmetry_space_group_name_H-M   'P 1'
_cell_length_a   10.02780000
_cell_length_b   10.36330000
_cell_length_c   13.64800000
_cell_angle_alpha   100.96500000
_cell_angle_beta   92.78530000
_cell_angle_gamma   113.17300000
_symmetry_Int_Tables_number   1
_chemical_formula_structural   CdH19C23(NO2)3
_chemical_formula_sum   'Cd2 H38 C46 N6 O12'
_cell_volume   1268.05277246
_cell_formula_units_Z   2
loop_
 _symmetry_equiv_pos_site_id
 _symmetry_equiv_pos_as_xyz
  1  'x, y, z'
loop_
 _atom_site_type_symbol
 _atom_site_label
 _atom_site_symmetry_multiplicity
 _atom_site_fract_x
 _atom_site_fract_y
 _atom_site_fract_z
 _atom_site_occupancy
  Cd  Cd0  1  0.55538000  0.65282000  0.91533000  1.0
  Cd  Cd1  1  0.44463000  0.34718000  0.08467000  1.0
  H  H2  1  0.48582000  0.89220000  0.08919000  1.0
  H  H3  1  0.51418000  0.10780000  0.91082000  1.0
  H  H4  1  0.33915000  0.07973000  0.34736000  1.0
  H  H5  1  0.66085000  0.92027000  0.65264000  1.0
  H  H6  1  0.39015000  0.68157000  0.33650000  1.0
  H  H7  1  0.60985000  0.31843000  0.66350000  1.0
  H  H8  1  0.02438000  0.98676000  0.58186000  1.0
  H  H9  1  0.97562000  0.01324000  0.41814000  1.0
  H  H10  1  0.93519000  0.94183000  0.74217000  1.0
  H  H11  1  0.06481000  0.05817000  0.25783000  1.0
  H  H12  1  0.26500000  0.78505000  0.80000000  1.0
  H  H13  1  0.73500000  0.21494000  0.20000000  1.0
  H  H14  1  0.34850000  0.82221000  0.63800000  1.0
  H  H15  1  0.65150000  0.17779000  0.36200000  1.0
  H  H16  1  0.81145000  0.75075000  0.80641000  1.0
  H  H17  1  0.18855000  0.24925000  0.19359000  1.0
  H  H18  1  0.84066000  0.77277000  0.11225000  1.0
  H  H19  1  0.15934000  0.22723000  0.88775000  1.0
  H  H20  1  0.11684000  0.86891000  0.12939000  1.0
  H  H21  1  0.88316000  0.13109000  0.87060000  1.0
  H  H22  1  0.24167000  0.91223000  0.97721000  1.0
  H  H23  1  0.75833000  0.08777000  0.02279000  1.0
  H  H24  1  0.32848000  0.79497000  0.48118000  1.0
  H  H25  1  0.67152000  0.20503000  0.51882000  1.0
  H  H26  1  0.15215000  0.39963000  0.68983000  1.0
  H  H27  1  0.84785000  0.60037000  0.31017000  1.0
  H  H28  1  0.97221000  0.27339000  0.70010000  1.0
  H  H29  1  0.02779000  0.72661000  0.29990000  1.0
  H  H30  1  0.99481000  0.43396000  0.65967000  1.0
  H  H31  1  0.00519000  0.56604000  0.34033000  1.0
  H  H32  1  0.19041000  0.58795000  0.94702000  1.0
  H  H33  1  0.80959000  0.41205000  0.05298000  1.0
  H  H34  1  0.96000000  0.53767000  0.92905000  1.0
  H  H35  1  0.04000000  0.46233000  0.07095000  1.0
  H  H36  1  0.87032000  0.50503000  0.80554000  1.0
  H  H37  1  0.12968000  0.49497000  0.19446000  1.0
  H  H38  1  0.85543000  0.35658000  0.85809000  1.0
  H  H39  1  0.14458000  0.64342000  0.14192000  1.0
  C  C40  1  0.42615000  0.12339000  0.17066000  1.0
  C  C41  1  0.57385000  0.87661000  0.82934000  1.0
  C  C42  1  0.46743000  0.65003000  0.15161000  1.0
  C  C43  1  0.53257000  0.34997000  0.84839000  1.0
  C  C44  1  0.44055000  0.77483000  0.20817000  1.0
  C  C45  1  0.55945000  0.22517000  0.79183000  1.0
  C  C46  1  0.45018000  0.88825000  0.16319000  1.0
  C  C47  1  0.54982000  0.11175000  0.83681000  1.0
  C  C48  1  0.41313000  0.99707000  0.21450000  1.0
  C  C49  1  0.58687000  0.00293000  0.78550000  1.0
  C  C50  1  0.36750000  0.99387000  0.30965000  1.0
  C  C51  1  0.63250000  0.00613000  0.69035000  1.0
  C  C52  1  0.36006000  0.88114000  0.35533000  1.0
  C  C53  1  0.63995000  0.11886000  0.64467000  1.0
  C  C54  1  0.39716000  0.77200000  0.30388000  1.0
  C  C55  1  0.60284000  0.22799000  0.69611000  1.0
  C  C56  1  0.23805000  0.94292000  0.50033000  1.0
  C  C57  1  0.76195000  0.05708000  0.49967000  1.0
  C  C58  1  0.19167000  0.90741000  0.59778000  1.0
  C  C59  1  0.80833000  0.09259000  0.40221000  1.0
  C  C60  1  0.07648000  0.94216000  0.62960000  1.0
  C  C61  1  0.92352000  0.05784000  0.37040000  1.0
  C  C62  1  0.02678000  0.91672000  0.71991000  1.0
  C  C63  1  0.97322000  0.08328000  0.28009000  1.0
  C  C64  1  0.09396000  0.86054000  0.78311000  1.0
  C  C65  1  0.90604000  0.13945000  0.21689000  1.0
  C  C66  1  0.21023000  0.82725000  0.75184000  1.0
  C  C67  1  0.78976000  0.17275000  0.24815000  1.0
  C  C68  1  0.25674000  0.84791000  0.65911000  1.0
  C  C69  1  0.74326000  0.15209000  0.34089000  1.0
  C  C70  1  0.03607000  0.83532000  0.87823000  1.0
  C  C71  1  0.96393000  0.16468000  0.12177000  1.0
  C  C72  1  0.88372000  0.77931000  0.87673000  1.0
  C  C73  1  0.11628000  0.22069000  0.12327000  1.0
  C  C74  1  0.89992000  0.78959000  0.04757000  1.0
  C  C75  1  0.10008000  0.21041000  0.95243000  1.0
  C  C76  1  0.05236000  0.84275000  0.05608000  1.0
  C  C77  1  0.94764000  0.15725000  0.94392000  1.0
  C  C78  1  0.12214000  0.86612000  0.97085000  1.0
  C  C79  1  0.87786000  0.13388000  0.02915000  1.0
  C  C80  1  0.04423000  0.38823000  0.70965000  1.0
  C  C81  1  0.95577000  0.61177000  0.29036000  1.0
  C  C82  1  0.19277000  0.53086000  0.87038000  1.0
  C  C83  1  0.80723000  0.46914000  0.12963000  1.0
  C  C84  1  0.92981000  0.46601000  0.85374000  1.0
  C  C85  1  0.07019000  0.53399000  0.14626000  1.0
  N  N86  1  0.31494000  0.87190000  0.45080000  1.0
  N  N87  1  0.68506000  0.12810000  0.54920000  1.0
  N  N88  1  0.81718000  0.75735000  0.95848000  1.0
  N  N89  1  0.18283000  0.24265000  0.04152000  1.0
  N  N90  1  0.06098000  0.46523000  0.81356000  1.0
  N  N91  1  0.93902000  0.53477000  0.18644000  1.0
  O  O92  1  0.39869000  0.22321000  0.22297000  1.0
  O  O93  1  0.60131000  0.77679000  0.77703000  1.0
  O  O94  1  0.46509000  0.12605000  0.08278000  1.0
  O  O95  1  0.53491000  0.87395000  0.91722000  1.0
  O  O96  1  0.54801000  0.66907000  0.08201000  1.0
  O  O97  1  0.45199000  0.33093000  0.91799000  1.0
  O  O98  1  0.40496000  0.53090000  0.17761000  1.0
  O  O99  1  0.59504000  0.46910000  0.82239000  1.0
  O  O100  1  0.20542000  0.03058000  0.46592000  1.0
  O  O101  1  0.79458000  0.96942000  0.53408000  1.0
  O  O102  1  0.30810000  0.52963000  0.84075000  1.0
  O  O103  1  0.69190000  0.47037000  0.15925000  1.0
