# generated using pymatgen
data_ErPH3CO6
_symmetry_space_group_name_H-M   'P 1'
_cell_length_a   6.43476000
_cell_length_b   6.84898000
_cell_length_c   8.12075000
_cell_angle_alpha   114.29100000
_cell_angle_beta   101.82500000
_cell_angle_gamma   90.18330000
_symmetry_Int_Tables_number   1
_chemical_formula_structural   ErPH3CO6
_chemical_formula_sum   'Er2 P2 H6 C2 O12'
_cell_volume   317.74669884
_cell_formula_units_Z   2
loop_
 _symmetry_equiv_pos_site_id
 _symmetry_equiv_pos_as_xyz
  1  'x, y, z'
loop_
 _atom_site_type_symbol
 _atom_site_label
 _atom_site_symmetry_multiplicity
 _atom_site_fract_x
 _atom_site_fract_y
 _atom_site_fract_z
 _atom_site_occupancy
  Er  Er0  1  0.11394000  0.21831000  0.93552000  1.0
  Er  Er1  1  0.88605000  0.78166000  0.06444000  1.0
  P  P2  1  0.66805000  0.25241000  0.00849000  1.0
  P  P3  1  0.33194000  0.74757000  0.99149000  1.0
  H  H4  1  0.65968000  0.33848000  0.19692000  1.0
  H  H5  1  0.34028000  0.66147000  0.80307000  1.0
  H  H6  1  0.13377000  0.28734000  0.30656000  1.0
  H  H7  1  0.86623000  0.71265000  0.69344000  1.0
  H  H8  1  0.13947000  0.51743000  0.30764000  1.0
  H  H9  1  0.86057000  0.48255000  0.69235000  1.0
  C  C10  1  0.99342000  0.11142000  0.49894000  1.0
  C  C11  1  0.00657000  0.88868000  0.50109000  1.0
  O  O12  1  0.80308000  0.05738000  0.96917000  1.0
  O  O13  1  0.19692000  0.94260000  0.03082000  1.0
  O  O14  1  0.44070000  0.19807000  0.89307000  1.0
  O  O15  1  0.55930000  0.80191000  0.10690000  1.0
  O  O16  1  0.80452000  0.41609000  0.97770000  1.0
  O  O17  1  0.19548000  0.58390000  0.02231000  1.0
  O  O18  1  0.01042000  0.26948000  0.65478000  1.0
  O  O19  1  0.98960000  0.73060000  0.34527000  1.0
  O  O20  1  0.03287000  0.88387000  0.65789000  1.0
  O  O21  1  0.96710000  0.11612000  0.34209000  1.0
  O  O22  1  0.19918000  0.37669000  0.25724000  1.0
  O  O23  1  0.80086000  0.62329000  0.74277000  1.0
