# generated using pymatgen
data_HgH4C4(NCl)2
_symmetry_space_group_name_H-M   'P 1'
_cell_length_a   7.20549000
_cell_length_b   7.33193000
_cell_length_c   8.30744281
_cell_angle_alpha   116.17221822
_cell_angle_beta   115.69170693
_cell_angle_gamma   90.01490000
_symmetry_Int_Tables_number   1
_chemical_formula_structural   HgH4C4(NCl)2
_chemical_formula_sum   'Hg2 H8 C8 N4 Cl4'
_cell_volume   344.85459406
_cell_formula_units_Z   2
loop_
 _symmetry_equiv_pos_site_id
 _symmetry_equiv_pos_as_xyz
  1  'x, y, z'
loop_
 _atom_site_type_symbol
 _atom_site_label
 _atom_site_symmetry_multiplicity
 _atom_site_fract_x
 _atom_site_fract_y
 _atom_site_fract_z
 _atom_site_occupancy
  Hg  Hg0  1  0.50000000  0.99999000  1.00000000  1.0
  Hg  Hg1  1  0.00000000  0.00000000  0.00000000  1.0
  H  H2  1  0.83253000  0.24625000  0.49235000  1.0
  H  H3  1  0.84045000  0.75393000  0.50777000  1.0
  H  H4  1  0.15955000  0.24607000  0.49224000  1.0
  H  H5  1  0.16746000  0.75374000  0.50764000  1.0
  H  H6  1  0.84536000  0.41903000  0.83789000  1.0
  H  H7  1  0.50791000  0.58119000  0.16227000  1.0
  H  H8  1  0.49210000  0.41881000  0.83773000  1.0
  H  H9  1  0.15465000  0.58098000  0.16211000  1.0
  C  C10  1  0.68952000  0.25367000  0.50737000  1.0
  C  C11  1  0.68251000  0.74663000  0.49279000  1.0
  C  C12  1  0.31750000  0.25338000  0.50722000  1.0
  C  C13  1  0.31048000  0.74634000  0.49263000  1.0
  C  C14  1  0.69443000  0.34855000  0.69710000  1.0
  C  C15  1  0.49776000  0.65154000  0.30304000  1.0
  C  C16  1  0.50224000  0.34846000  0.69696000  1.0
  C  C17  1  0.30557000  0.65145000  0.30290000  1.0
  N  N18  1  0.50730000  0.16571000  0.33142000  1.0
  N  N19  1  0.67619000  0.83430000  0.66868000  1.0
  N  N20  1  0.32381000  0.16570000  0.33132000  1.0
  N  N21  1  0.49269000  0.83429000  0.66858000  1.0
  Cl  Cl22  1  0.17637000  0.16977000  0.85266000  1.0
  Cl  Cl23  1  0.82365000  0.31710000  0.14727000  1.0
  Cl  Cl24  1  0.17634000  0.68290000  0.85273000  1.0
  Cl  Cl25  1  0.82363000  0.83022000  0.14734000  1.0
