# generated using pymatgen
data_Ca2H12C14N2O11
_symmetry_space_group_name_H-M   'P 1'
_cell_length_a   8.36769000
_cell_length_b   8.36771000
_cell_length_c   13.55740000
_cell_angle_alpha   88.16640000
_cell_angle_beta   88.16670000
_cell_angle_gamma   71.95730000
_symmetry_Int_Tables_number   1
_chemical_formula_structural   Ca2H12C14N2O11
_chemical_formula_sum   'Ca4 H24 C28 N4 O22'
_cell_volume   901.88247259
_cell_formula_units_Z   2
loop_
 _symmetry_equiv_pos_site_id
 _symmetry_equiv_pos_as_xyz
  1  'x, y, z'
loop_
 _atom_site_type_symbol
 _atom_site_label
 _atom_site_symmetry_multiplicity
 _atom_site_fract_x
 _atom_site_fract_y
 _atom_site_fract_z
 _atom_site_occupancy
  Ca  Ca0  1  0.95731000  0.93947000  0.87043000  1.0
  Ca  Ca1  1  0.06053000  0.04269000  0.62957000  1.0
  Ca  Ca2  1  0.04269000  0.06053000  0.12957000  1.0
  Ca  Ca3  1  0.93947000  0.95731000  0.37043000  1.0
  H  H4  1  0.66940000  0.99769000  0.00336000  1.0
  H  H5  1  0.00231000  0.33060000  0.49664000  1.0
  H  H6  1  0.33061000  0.00231000  0.99664000  1.0
  H  H7  1  0.99769000  0.66939000  0.50336000  1.0
  H  H8  1  0.60251000  0.91340000  0.91588000  1.0
  H  H9  1  0.08660000  0.39749000  0.58412000  1.0
  H  H10  1  0.39749000  0.08660000  0.08412000  1.0
  H  H11  1  0.91340000  0.60251000  0.41588000  1.0
  H  H12  1  0.81604000  0.26455000  0.79356000  1.0
  H  H13  1  0.73545000  0.18397000  0.70644000  1.0
  H  H14  1  0.18397000  0.73545000  0.20644000  1.0
  H  H15  1  0.26455000  0.81603000  0.29356000  1.0
  H  H16  1  0.40369000  0.35483000  0.01414000  1.0
  H  H17  1  0.64518000  0.59631000  0.48585000  1.0
  H  H18  1  0.59631000  0.64517000  0.98585000  1.0
  H  H19  1  0.35483000  0.40369000  0.51415000  1.0
  H  H20  1  0.48126000  0.20574000  0.85344000  1.0
  H  H21  1  0.79426000  0.51874000  0.64656000  1.0
  H  H22  1  0.51874000  0.79426000  0.14656000  1.0
  H  H23  1  0.20574000  0.48126000  0.35344000  1.0
  H  H24  1  0.33074000  0.34029000  0.70077000  1.0
  H  H25  1  0.65971000  0.66925000  0.79923000  1.0
  H  H26  1  0.66925000  0.65971000  0.29923000  1.0
  H  H27  1  0.34029000  0.33075000  0.20077000  1.0
  C  C28  1  0.21659000  0.56517000  0.94726000  1.0
  C  C29  1  0.43483000  0.78341000  0.55274000  1.0
  C  C30  1  0.78341000  0.43483000  0.05274000  1.0
  C  C31  1  0.56517000  0.21659000  0.44726000  1.0
  C  C32  1  0.34030000  0.40821000  0.94634000  1.0
  C  C33  1  0.59179000  0.65970000  0.55366000  1.0
  C  C34  1  0.65970000  0.59179000  0.05366000  1.0
  C  C35  1  0.40821000  0.34030000  0.44634000  1.0
  C  C36  1  0.38196000  0.32593000  0.85691000  1.0
  C  C37  1  0.67408000  0.61803000  0.64309000  1.0
  C  C38  1  0.61803000  0.67408000  0.14309000  1.0
  C  C39  1  0.32592000  0.38197000  0.35691000  1.0
  C  C40  1  0.29735000  0.40005000  0.77192000  1.0
  C  C41  1  0.59995000  0.70264000  0.72808000  1.0
  C  C42  1  0.70265000  0.59995000  0.22808000  1.0
  C  C43  1  0.40005000  0.29735000  0.27192000  1.0
  C  C44  1  0.17513000  0.55712000  0.77949000  1.0
  C  C45  1  0.44289000  0.82487000  0.72051000  1.0
  C  C46  1  0.82487000  0.44288000  0.22052000  1.0
  C  C47  1  0.55711000  0.17513000  0.27949000  1.0
  C  C48  1  0.16917000  0.66833000  0.03947000  1.0
  C  C49  1  0.33167000  0.83083000  0.46053000  1.0
  C  C50  1  0.83083000  0.33167000  0.96053000  1.0
  C  C51  1  0.66833000  0.16917000  0.53947000  1.0
  C  C52  1  0.08472000  0.65483000  0.69129000  1.0
  C  C53  1  0.34517000  0.91528000  0.80871000  1.0
  C  C54  1  0.91528000  0.34517000  0.30871000  1.0
  C  C55  1  0.65483000  0.08472000  0.19129000  1.0
  N  N56  1  0.13747000  0.63804000  0.86529000  1.0
  N  N57  1  0.36196000  0.86253000  0.63471000  1.0
  N  N58  1  0.86253000  0.36196000  0.13471000  1.0
  N  N59  1  0.63804000  0.13747000  0.36529000  1.0
  O  O60  1  0.70142000  0.94317000  0.93820000  1.0
  O  O61  1  0.05684000  0.29858000  0.56180000  1.0
  O  O62  1  0.29858000  0.05683000  0.06180000  1.0
  O  O63  1  0.94317000  0.70142000  0.43820000  1.0
  O  O64  1  0.83666000  0.16334000  0.75000000  1.0
  O  O65  1  0.16334000  0.83666000  0.25000000  1.0
  O  O66  1  0.08356000  0.82384000  0.02609000  1.0
  O  O67  1  0.17617000  0.91644000  0.47391000  1.0
  O  O68  1  0.91644000  0.17616000  0.97391000  1.0
  O  O69  1  0.82384000  0.08356000  0.52609000  1.0
  O  O70  1  0.21761000  0.59753000  0.12132000  1.0
  O  O71  1  0.40246000  0.78239000  0.37868000  1.0
  O  O72  1  0.78239000  0.40247000  0.87868000  1.0
  O  O73  1  0.59754000  0.21761000  0.62132000  1.0
  O  O74  1  0.99515000  0.80671000  0.70566000  1.0
  O  O75  1  0.19329000  0.00484000  0.79434000  1.0
  O  O76  1  0.00484000  0.19330000  0.29434000  1.0
  O  O77  1  0.80671000  0.99516000  0.20566000  1.0
  O  O78  1  0.10618000  0.58440000  0.60838000  1.0
  O  O79  1  0.41560000  0.89382000  0.89162000  1.0
  O  O80  1  0.89382000  0.41560000  0.39162000  1.0
  O  O81  1  0.58440000  0.10618000  0.10838000  1.0
