# generated using pymatgen
data_PrH16C25N2O7
_symmetry_space_group_name_H-M   'P 1'
_cell_length_a   7.40394000
_cell_length_b   11.46530000
_cell_length_c   16.55800000
_cell_angle_alpha   99.31340000
_cell_angle_beta   90.76890000
_cell_angle_gamma   91.65830000
_symmetry_Int_Tables_number   1
_chemical_formula_structural   PrH16C25N2O7
_chemical_formula_sum   'Pr2 H32 C50 N4 O14'
_cell_volume   1386.23906413
_cell_formula_units_Z   2
loop_
 _symmetry_equiv_pos_site_id
 _symmetry_equiv_pos_as_xyz
  1  'x, y, z'
loop_
 _atom_site_type_symbol
 _atom_site_label
 _atom_site_symmetry_multiplicity
 _atom_site_fract_x
 _atom_site_fract_y
 _atom_site_fract_z
 _atom_site_occupancy
  Pr  Pr0  1  0.75975000  0.57466000  0.00729000  1.0
  Pr  Pr1  1  0.24025000  0.42535000  0.99271000  1.0
  H  H2  1  0.31391000  0.39778000  0.40480000  1.0
  H  H3  1  0.06312000  0.36370000  0.51604000  1.0
  H  H4  1  0.93020000  0.01365000  0.69174000  1.0
  H  H5  1  0.10400000  0.81832000  0.71324000  1.0
  H  H6  1  0.40989000  0.07300000  0.48917000  1.0
  H  H7  1  0.78824000  0.21373000  0.52224000  1.0
  H  H8  1  0.55521000  0.33123000  0.60288000  1.0
  H  H9  1  0.60016000  0.39451000  0.75315000  1.0
  H  H10  1  0.11383000  0.22852000  0.74136000  1.0
  H  H11  1  0.81584000  0.39187000  0.42144000  1.0
  H  H12  1  0.90592000  0.54787000  0.33924000  1.0
  H  H13  1  0.75926000  0.55083000  0.20427000  1.0
  H  H14  1  0.42407000  0.24824000  0.23454000  1.0
  H  H15  1  0.19419000  0.74697000  0.93425000  1.0
  H  H16  1  0.51333000  0.79487000  0.07055000  1.0
  H  H17  1  0.42200000  0.68008000  0.09832000  1.0
  H  H18  1  0.68609000  0.60222000  0.59521000  1.0
  H  H19  1  0.93688000  0.63630000  0.48397000  1.0
  H  H20  1  0.06980000  0.98635000  0.30826000  1.0
  H  H21  1  0.89599000  0.18168000  0.28675000  1.0
  H  H22  1  0.59011000  0.92700000  0.51083000  1.0
  H  H23  1  0.21177000  0.78627000  0.47776000  1.0
  H  H24  1  0.44479000  0.66877000  0.39712000  1.0
  H  H25  1  0.39984000  0.60549000  0.24685000  1.0
  H  H26  1  0.88617000  0.77148000  0.25864000  1.0
  H  H27  1  0.18416000  0.60813000  0.57856000  1.0
  H  H28  1  0.09408000  0.45213000  0.66076000  1.0
  H  H29  1  0.24073000  0.44917000  0.79573000  1.0
  H  H30  1  0.57593000  0.75176000  0.76546000  1.0
  H  H31  1  0.80582000  0.25303000  0.06575000  1.0
  H  H32  1  0.48667000  0.20513000  0.92945000  1.0
  H  H33  1  0.57800000  0.31992000  0.90168000  1.0
  C  C34  1  0.41606000  0.22453000  0.42814000  1.0
  C  C35  1  0.29866000  0.32308000  0.43713000  1.0
  C  C36  1  0.17063000  0.30556000  0.49366000  1.0
  C  C37  1  0.20418000  0.19538000  0.52066000  1.0
  C  C38  1  0.11366000  0.14478000  0.58115000  1.0
  C  C39  1  0.16229000  0.03832000  0.60715000  1.0
  C  C40  1  0.05572000  0.98204000  0.66444000  1.0
  C  C41  1  0.14329000  0.88281000  0.67495000  1.0
  C  C42  1  0.30293000  0.87907000  0.62388000  1.0
  C  C43  1  0.57231000  0.21230000  0.38093000  1.0
  C  C44  1  0.96758000  0.21270000  0.62599000  1.0
  C  C45  1  0.80954000  0.24355000  0.58760000  1.0
  C  C46  1  0.67792000  0.30845000  0.63324000  1.0
  C  C47  1  0.70181000  0.34340000  0.71750000  1.0
  C  C48  1  0.85963000  0.31427000  0.75642000  1.0
  C  C49  1  0.99075000  0.24914000  0.71050000  1.0
  C  C50  1  0.89763000  0.35766000  0.84532000  1.0
  C  C51  1  0.61592000  0.30908000  0.33326000  1.0
  C  C52  1  0.75036000  0.39490000  0.36245000  1.0
  C  C53  1  0.80105000  0.48172000  0.31643000  1.0
  C  C54  1  0.71843000  0.48382000  0.24056000  1.0
  C  C55  1  0.58196000  0.39976000  0.21146000  1.0
  C  C56  1  0.53013000  0.31318000  0.25824000  1.0
  C  C57  1  0.48671000  0.40111000  0.13190000  1.0
  C  C58  1  0.07303000  0.70419000  0.95719000  1.0
  C  C59  1  0.58394000  0.77548000  0.57186000  1.0
  C  C60  1  0.70134000  0.67692000  0.56288000  1.0
  C  C61  1  0.82937000  0.69444000  0.50634000  1.0
  C  C62  1  0.79582000  0.80462000  0.47934000  1.0
  C  C63  1  0.88634000  0.85522000  0.41885000  1.0
  C  C64  1  0.83771000  0.96168000  0.39285000  1.0
  C  C65  1  0.94427000  0.01796000  0.33556000  1.0
  C  C66  1  0.85670000  0.11719000  0.32505000  1.0
  C  C67  1  0.69706000  0.12093000  0.37612000  1.0
  C  C68  1  0.42769000  0.78770000  0.61907000  1.0
  C  C69  1  0.03242000  0.78730000  0.37401000  1.0
  C  C70  1  0.19046000  0.75645000  0.41240000  1.0
  C  C71  1  0.32208000  0.69156000  0.36676000  1.0
  C  C72  1  0.29819000  0.65660000  0.28251000  1.0
  C  C73  1  0.14037000  0.68572000  0.24358000  1.0
  C  C74  1  0.00925000  0.75086000  0.28950000  1.0
  C  C75  1  0.10237000  0.64234000  0.15468000  1.0
  C  C76  1  0.38408000  0.69092000  0.66674000  1.0
  C  C77  1  0.24963000  0.60510000  0.63755000  1.0
  C  C78  1  0.19894000  0.51828000  0.68357000  1.0
  C  C79  1  0.28157000  0.51618000  0.75945000  1.0
  C  C80  1  0.41803000  0.60024000  0.78854000  1.0
  C  C81  1  0.46987000  0.68682000  0.74176000  1.0
  C  C82  1  0.51329000  0.59888000  0.86810000  1.0
  C  C83  1  0.92698000  0.29581000  0.04281000  1.0
  N  N84  1  0.35173000  0.14901000  0.47860000  1.0
  N  N85  1  0.31089000  0.97385000  0.58274000  1.0
  N  N86  1  0.64827000  0.85099000  0.52140000  1.0
  N  N87  1  0.68911000  0.02615000  0.41726000  1.0
  O  O88  1  0.76695000  0.39915000  0.89080000  1.0
  O  O89  1  0.05886000  0.35327000  0.87067000  1.0
  O  O90  1  0.54878000  0.46681000  0.08125000  1.0
  O  O91  1  0.34255000  0.33947000  0.11481000  1.0
  O  O92  1  0.94813000  0.76537000  0.98924000  1.0
  O  O93  1  0.06814000  0.58965000  0.94800000  1.0
  O  O94  1  0.53818000  0.71640000  0.08190000  1.0
  O  O95  1  0.23305000  0.60085000  0.10920000  1.0
  O  O96  1  0.94114000  0.64673000  0.12933000  1.0
  O  O97  1  0.45122000  0.53319000  0.91875000  1.0
  O  O98  1  0.65745000  0.66052000  0.88519000  1.0
  O  O99  1  0.05188000  0.23462000  0.01076000  1.0
  O  O100  1  0.93186000  0.41034000  0.05199000  1.0
  O  O101  1  0.46181000  0.28360000  0.91810000  1.0
