# generated using pymatgen
data_FeH24C34(SN3)2
_symmetry_space_group_name_H-M   'P 1'
_cell_length_a   7.75310000
_cell_length_b   8.94630000
_cell_length_c   11.26040000
_cell_angle_alpha   98.21540000
_cell_angle_beta   105.63400000
_cell_angle_gamma   105.05500000
_symmetry_Int_Tables_number   1
_chemical_formula_structural   FeH24C34(SN3)2
_chemical_formula_sum   'Fe1 H24 C34 S2 N6'
_cell_volume   707.03749793
_cell_formula_units_Z   1
loop_
 _symmetry_equiv_pos_site_id
 _symmetry_equiv_pos_as_xyz
  1  'x, y, z'
loop_
 _atom_site_type_symbol
 _atom_site_label
 _atom_site_symmetry_multiplicity
 _atom_site_fract_x
 _atom_site_fract_y
 _atom_site_fract_z
 _atom_site_occupancy
  Fe  Fe0  1  0.00144000  0.49993000  0.99958000  1.0
  H  H1  1  0.83204000  0.20057000  0.47474000  1.0
  H  H2  1  0.16797000  0.79952000  0.52524000  1.0
  H  H3  1  0.54886000  0.26348000  0.38731000  1.0
  H  H4  1  0.45109000  0.73656000  0.61290000  1.0
  H  H5  1  0.48105000  0.25779000  0.58709000  1.0
  H  H6  1  0.51886000  0.74220000  0.41310000  1.0
  H  H7  1  0.63344000  0.27061000  0.01927000  1.0
  H  H8  1  0.36579000  0.72959000  0.98054000  1.0
  H  H9  1  0.78690000  0.03178000  0.62568000  1.0
  H  H10  1  0.21309000  0.96829000  0.37430000  1.0
  H  H11  1  0.05012000  0.41110000  0.43978000  1.0
  H  H12  1  0.94959000  0.58898000  0.55982000  1.0
  H  H13  1  0.71998000  0.76622000  0.31158000  1.0
  H  H14  1  0.28015000  0.23379000  0.68898000  1.0
  H  H15  1  0.07102000  0.01755000  0.17949000  1.0
  H  H16  1  0.92875000  0.98216000  0.82053000  1.0
  H  H17  1  0.07288000  0.18633000  0.02355000  1.0
  H  H18  1  0.92777000  0.81326000  0.97648000  1.0
  H  H19  1  0.06967000  0.56864000  0.27703000  1.0
  H  H20  1  0.93067000  0.43131000  0.72251000  1.0
  H  H21  1  0.86488000  0.76035000  0.14243000  1.0
  H  H22  1  0.13444000  0.23970000  0.85757000  1.0
  H  H23  1  0.48334000  0.25333000  0.18609000  1.0
  H  H24  1  0.51658000  0.74661000  0.81426000  1.0
  C  C25  1  0.90842000  0.11432000  0.48713000  1.0
  C  C26  1  0.09159000  0.88579000  0.51285000  1.0
  C  C27  1  0.52741000  0.36796000  0.43631000  1.0
  C  C28  1  0.47251000  0.63206000  0.56393000  1.0
  C  C29  1  0.02471000  0.09623000  0.41299000  1.0
  C  C30  1  0.97528000  0.90386000  0.58698000  1.0
  C  C31  1  0.48734000  0.36405000  0.54908000  1.0
  C  C32  1  0.51257000  0.63595000  0.45115000  1.0
  C  C33  1  0.29266000  0.80861000  0.17391000  1.0
  C  C34  1  0.70806000  0.19149000  0.82611000  1.0
  C  C35  1  0.54117000  0.50358000  0.38510000  1.0
  C  C36  1  0.45873000  0.49641000  0.61514000  1.0
  C  C37  1  0.64831000  0.37790000  0.08567000  1.0
  C  C38  1  0.35086000  0.62223000  0.91427000  1.0
  C  C39  1  0.04729000  0.19595000  0.32182000  1.0
  C  C40  1  0.95265000  0.80404000  0.67806000  1.0
  C  C41  1  0.59600000  0.50861000  0.26995000  1.0
  C  C42  1  0.40382000  0.49139000  0.73026000  1.0
  C  C43  1  0.88364000  0.01983000  0.57277000  1.0
  C  C44  1  0.11636000  0.98026000  0.42721000  1.0
  C  C45  1  0.05154000  0.35516000  0.34776000  1.0
  C  C46  1  0.94838000  0.64485000  0.65191000  1.0
  C  C47  1  0.69549000  0.65266000  0.24943000  1.0
  C  C48  1  0.30433000  0.34743000  0.75092000  1.0
  C  C49  1  0.06490000  0.13778000  0.20450000  1.0
  C  C50  1  0.93506000  0.86199000  0.79544000  1.0
  C  C51  1  0.06919000  0.23234000  0.11725000  1.0
  C  C52  1  0.93130000  0.76738000  0.88269000  1.0
  C  C53  1  0.06356000  0.44441000  0.25788000  1.0
  C  C54  1  0.93678000  0.55553000  0.74174000  1.0
  C  C55  1  0.77547000  0.65059000  0.15308000  1.0
  C  C56  1  0.22379000  0.34951000  0.84699000  1.0
  C  C57  1  0.56510000  0.36975000  0.18027000  1.0
  C  C58  1  0.43456000  0.63021000  0.81994000  1.0
  S  S59  1  0.47243000  0.96188000  0.25569000  1.0
  S  S60  1  0.52770000  0.03843000  0.74473000  1.0
  N  N61  1  0.06272000  0.38297000  0.14051000  1.0
  N  N62  1  0.93831000  0.61690000  0.85929000  1.0
  N  N63  1  0.76006000  0.51537000  0.07518000  1.0
  N  N64  1  0.23829000  0.48484000  0.92458000  1.0
  N  N65  1  0.16257000  0.69504000  0.11312000  1.0
  N  N66  1  0.83865000  0.30484000  0.88657000  1.0
