# generated using pymatgen
data_CuH8C6N5O
_symmetry_space_group_name_H-M   'P 1'
_cell_length_a   6.77013000
_cell_length_b   7.67024000
_cell_length_c   7.74974000
_cell_angle_alpha   89.74130000
_cell_angle_beta   86.45690000
_cell_angle_gamma   88.89710000
_symmetry_Int_Tables_number   1
_chemical_formula_structural   CuH8C6N5O
_chemical_formula_sum   'Cu2 H16 C12 N10 O2'
_cell_volume   401.58668861
_cell_formula_units_Z   2
loop_
 _symmetry_equiv_pos_site_id
 _symmetry_equiv_pos_as_xyz
  1  'x, y, z'
loop_
 _atom_site_type_symbol
 _atom_site_label
 _atom_site_symmetry_multiplicity
 _atom_site_fract_x
 _atom_site_fract_y
 _atom_site_fract_z
 _atom_site_occupancy
  Cu  Cu0  1  0.14976000  0.01529000  0.17802000  1.0
  Cu  Cu1  1  0.85023000  0.98469000  0.82203000  1.0
  H  H2  1  0.87479000  0.22038000  0.15317000  1.0
  H  H3  1  0.12523000  0.77963000  0.84681000  1.0
  H  H4  1  0.87426000  0.16371000  0.35984000  1.0
  H  H5  1  0.12571000  0.83634000  0.64015000  1.0
  H  H6  1  0.51425000  0.40716000  0.10682000  1.0
  H  H7  1  0.48578000  0.59279000  0.89318000  1.0
  H  H8  1  0.44070000  0.34324000  0.32034000  1.0
  H  H9  1  0.55931000  0.65672000  0.67966000  1.0
  H  H10  1  0.22921000  0.58333000  0.20448000  1.0
  H  H11  1  0.77082000  0.41666000  0.79551000  1.0
  H  H12  1  0.15379000  0.44279000  0.04287000  1.0
  H  H13  1  0.84624000  0.55720000  0.95712000  1.0
  H  H14  1  0.09400000  0.37099000  0.43200000  1.0
  H  H15  1  0.90600000  0.62902000  0.56800000  1.0
  H  H16  1  0.91441000  0.47738000  0.30986000  1.0
  H  H17  1  0.08560000  0.52264000  0.69011000  1.0
  C  C18  1  0.52124000  0.09058000  0.02955000  1.0
  C  C19  1  0.47873000  0.90936000  0.97046000  1.0
  C  C20  1  0.39619000  0.34312000  0.18594000  1.0
  C  C21  1  0.60383000  0.65684000  0.81405000  1.0
  C  C22  1  0.20200000  0.44614000  0.17597000  1.0
  C  C23  1  0.79804000  0.55385000  0.82401000  1.0
  C  C24  1  0.03846000  0.38200000  0.30219000  1.0
  C  C25  1  0.96156000  0.61800000  0.69779000  1.0
  C  C26  1  0.78052000  0.80876000  0.27526000  1.0
  C  C27  1  0.21947000  0.19126000  0.72478000  1.0
  C  C28  1  0.45948000  0.81405000  0.39386000  1.0
  C  C29  1  0.54052000  0.18601000  0.60613000  1.0
  N  N30  1  0.37921000  0.16381000  0.12839000  1.0
  N  N31  1  0.62075000  0.83617000  0.87164000  1.0
  N  N32  1  0.93196000  0.85505000  0.20797000  1.0
  N  N33  1  0.06803000  0.14497000  0.79206000  1.0
  N  N34  1  0.96314000  0.21029000  0.25678000  1.0
  N  N35  1  0.03685000  0.78972000  0.74321000  1.0
  N  N36  1  0.62370000  0.73594000  0.34124000  1.0
  N  N37  1  0.37629000  0.26408000  0.65881000  1.0
  N  N38  1  0.30273000  0.87218000  0.44201000  1.0
  N  N39  1  0.69726000  0.12794000  0.55793000  1.0
  O  O40  1  0.68825000  0.15676000  0.97932000  1.0
  O  O41  1  0.31171000  0.84318000  0.02067000  1.0
