# generated using pymatgen
data_CuH12C10NO4
_symmetry_space_group_name_H-M   'P 1'
_cell_length_a   8.77364000
_cell_length_b   13.01430000
_cell_length_c   14.09483692
_cell_angle_alpha   117.47370169
_cell_angle_beta   92.80972939
_cell_angle_gamma   90.00500000
_symmetry_Int_Tables_number   1
_chemical_formula_structural   CuH12C10NO4
_chemical_formula_sum   'Cu4 H48 C40 N4 O16'
_cell_volume   1425.70063059
_cell_formula_units_Z   4
loop_
 _symmetry_equiv_pos_site_id
 _symmetry_equiv_pos_as_xyz
  1  'x, y, z'
loop_
 _atom_site_type_symbol
 _atom_site_label
 _atom_site_symmetry_multiplicity
 _atom_site_fract_x
 _atom_site_fract_y
 _atom_site_fract_z
 _atom_site_occupancy
  Cu  Cu0  1  0.07894000  0.00888000  0.58320000  1.0
  Cu  Cu1  1  0.42107000  0.42560000  0.41683000  1.0
  Cu  Cu2  1  0.92105000  0.99111000  0.41680000  1.0
  Cu  Cu3  1  0.57895000  0.57440000  0.58316000  1.0
  H  H4  1  0.50935000  0.03892000  0.61097000  1.0
  H  H5  1  0.99064000  0.42783000  0.38921000  1.0
  H  H6  1  0.49065000  0.96108000  0.38903000  1.0
  H  H7  1  0.00937000  0.57217000  0.61079000  1.0
  H  H8  1  0.61990000  0.08640000  0.73614000  1.0
  H  H9  1  0.88006000  0.35027000  0.26406000  1.0
  H  H10  1  0.38010000  0.91360000  0.26386000  1.0
  H  H11  1  0.11997000  0.64973000  0.73594000  1.0
  H  H12  1  0.58776000  0.93700000  0.64896000  1.0
  H  H13  1  0.91247000  0.28782000  0.35109000  1.0
  H  H14  1  0.41223000  0.06301000  0.35105000  1.0
  H  H15  1  0.08755000  0.71218000  0.64891000  1.0
  H  H16  1  0.94850000  0.60385000  0.29378000  1.0
  H  H17  1  0.55171000  0.31013000  0.70657000  1.0
  H  H18  1  0.05150000  0.39616000  0.70622000  1.0
  H  H19  1  0.44830000  0.68988000  0.29343000  1.0
  H  H20  1  0.87167000  0.63017000  0.41766000  1.0
  H  H21  1  0.62843000  0.21291000  0.58257000  1.0
  H  H22  1  0.12833000  0.36983000  0.58234000  1.0
  H  H23  1  0.37157000  0.78709000  0.41743000  1.0
  H  H24  1  0.07169000  0.61595000  0.40477000  1.0
  H  H25  1  0.42848000  0.21135000  0.59559000  1.0
  H  H26  1  0.92831000  0.38405000  0.59522000  1.0
  H  H27  1  0.57152000  0.78865000  0.40441000  1.0
  H  H28  1  0.21062000  0.19066000  0.80842000  1.0
  H  H29  1  0.28919000  0.38255000  0.19174000  1.0
  H  H30  1  0.78937000  0.80934000  0.19158000  1.0
  H  H31  1  0.71081000  0.61745000  0.80826000  1.0
  H  H32  1  0.39698000  0.20027000  0.95381000  1.0
  H  H33  1  0.10274000  0.24705000  0.04630000  1.0
  H  H34  1  0.60301000  0.79973000  0.04619000  1.0
  H  H35  1  0.89726000  0.75294000  0.95370000  1.0
  H  H36  1  0.43385000  0.82842000  0.77132000  1.0
  H  H37  1  0.06634000  0.05689000  0.22824000  1.0
  H  H38  1  0.56614000  0.17158000  0.22868000  1.0
  H  H39  1  0.93366000  0.94310000  0.77176000  1.0
  H  H40  1  0.25037000  0.83642000  0.63532000  1.0
  H  H41  1  0.24984000  0.20069000  0.36436000  1.0
  H  H42  1  0.74963000  0.16359000  0.36469000  1.0
  H  H43  1  0.75015000  0.79932000  0.63565000  1.0
  H  H44  1  0.63089000  0.95280000  0.92387000  1.0
  H  H45  1  0.86911000  0.02923000  0.07617000  1.0
  H  H46  1  0.36910000  0.04719000  0.07613000  1.0
  H  H47  1  0.13088000  0.97077000  0.92384000  1.0
  H  H48  1  0.59679000  0.10154000  0.00640000  1.0
  H  H49  1  0.90329000  0.09501000  0.99324000  1.0
  H  H50  1  0.40320000  0.89846000  0.99360000  1.0
  H  H51  1  0.09670000  0.90499000  0.00676000  1.0
  C  C52  1  0.75303000  0.01643000  0.59705000  1.0
  C  C53  1  0.74702000  0.41907000  0.40315000  1.0
  C  C54  1  0.24697000  0.98357000  0.40295000  1.0
  C  C55  1  0.25299000  0.58094000  0.59685000  1.0
  C  C56  1  0.60768000  0.02162000  0.65174000  1.0
  C  C57  1  0.89238000  0.36970000  0.34843000  1.0
  C  C58  1  0.39232000  0.97838000  0.34826000  1.0
  C  C59  1  0.10764000  0.63030000  0.65157000  1.0
  C  C60  1  0.98202000  0.77775000  0.42206000  1.0
  C  C61  1  0.51771000  0.35605000  0.57840000  1.0
  C  C62  1  0.01797000  0.22225000  0.57794000  1.0
  C  C63  1  0.48230000  0.64395000  0.42159000  1.0
  C  C64  1  0.96909000  0.64827000  0.38093000  1.0
  C  C65  1  0.53098000  0.26762000  0.61944000  1.0
  C  C66  1  0.03090000  0.35172000  0.61906000  1.0
  C  C67  1  0.46902000  0.73239000  0.38057000  1.0
  C  C68  1  0.26234000  0.11271000  0.80485000  1.0
  C  C69  1  0.23753000  0.30807000  0.19518000  1.0
  C  C70  1  0.73765000  0.88729000  0.19515000  1.0
  C  C71  1  0.76247000  0.69193000  0.80482000  1.0
  C  C72  1  0.36602000  0.11730000  0.88485000  1.0
  C  C73  1  0.13381000  0.23277000  0.11514000  1.0
  C  C74  1  0.63397000  0.88270000  0.11516000  1.0
  C  C75  1  0.86619000  0.76722000  0.88485000  1.0
  C  C76  1  0.43122000  0.01508000  0.87561000  1.0
  C  C77  1  0.06879000  0.13960000  0.12421000  1.0
  C  C78  1  0.56877000  0.98493000  0.12440000  1.0
  C  C79  1  0.93121000  0.86040000  0.87579000  1.0
  C  C80  1  0.38750000  0.91156000  0.78486000  1.0
  C  C81  1  0.11266000  0.12663000  0.21486000  1.0
  C  C82  1  0.61249000  0.08843000  0.21514000  1.0
  C  C83  1  0.88734000  0.87337000  0.78514000  1.0
  C  C84  1  0.28408000  0.91478000  0.70829000  1.0
  C  C85  1  0.21606000  0.20631000  0.29148000  1.0
  C  C86  1  0.71591000  0.08523000  0.29172000  1.0
  C  C87  1  0.78394000  0.79369000  0.70852000  1.0
  C  C88  1  0.54096000  0.01559000  0.96089000  1.0
  C  C89  1  0.95908000  0.05477000  0.03898000  1.0
  C  C90  1  0.45903000  0.98442000  0.03912000  1.0
  C  C91  1  0.04092000  0.94522000  0.96102000  1.0
  N  N92  1  0.22153000  0.01312000  0.71762000  1.0
  N  N93  1  0.27852000  0.29544000  0.28229000  1.0
  N  N94  1  0.77846000  0.98688000  0.28238000  1.0
  N  N95  1  0.72148000  0.70455000  0.71771000  1.0
  O  O96  1  0.87834000  0.02287000  0.64964000  1.0
  O  O97  1  0.62173000  0.37278000  0.35063000  1.0
  O  O98  1  0.12166000  0.97713000  0.35037000  1.0
  O  O99  1  0.37829000  0.62721000  0.64938000  1.0
  O  O100  1  0.73926000  0.00393000  0.50178000  1.0
  O  O101  1  0.76075000  0.50191000  0.49835000  1.0
  O  O102  1  0.26074000  0.99606000  0.49822000  1.0
  O  O103  1  0.23927000  0.49810000  0.50164000  1.0
  O  O104  1  0.05575000  0.83541000  0.51200000  1.0
  O  O105  1  0.44388000  0.32374000  0.48848000  1.0
  O  O106  1  0.94424000  0.16460000  0.48800000  1.0
  O  O107  1  0.55612000  0.67626000  0.51152000  1.0
  O  O108  1  0.91596000  0.81960000  0.36541000  1.0
  O  O109  1  0.58361000  0.45457000  0.63501000  1.0
  O  O110  1  0.08403000  0.18041000  0.63459000  1.0
  O  O111  1  0.41641000  0.54543000  0.36498000  1.0
