# generated using pymatgen
data_H19Rh2C17N7O8
_symmetry_space_group_name_H-M   'P 1'
_cell_length_a   8.23205000
_cell_length_b   13.76990000
_cell_length_c   13.76990000
_cell_angle_alpha   109.44300000
_cell_angle_beta   103.76700000
_cell_angle_gamma   103.76800000
_symmetry_Int_Tables_number   1
_chemical_formula_structural   H19Rh2C17N7O8
_chemical_formula_sum   'H38 Rh4 C34 N14 O16'
_cell_volume   1341.10619558
_cell_formula_units_Z   2
loop_
 _symmetry_equiv_pos_site_id
 _symmetry_equiv_pos_as_xyz
  1  'x, y, z'
loop_
 _atom_site_type_symbol
 _atom_site_label
 _atom_site_symmetry_multiplicity
 _atom_site_fract_x
 _atom_site_fract_y
 _atom_site_fract_z
 _atom_site_occupancy
  H  H0  1  0.03145000  0.74398000  0.03929000  1.0
  H  H1  1  0.53145000  0.03929000  0.74398000  1.0
  H  H2  1  0.96856000  0.25602000  0.96072000  1.0
  H  H3  1  0.46855000  0.96070000  0.25602000  1.0
  H  H4  1  0.07226000  0.61601000  0.00487000  1.0
  H  H5  1  0.57227000  0.00487000  0.61600000  1.0
  H  H6  1  0.92774000  0.38399000  0.99514000  1.0
  H  H7  1  0.42774000  0.99513000  0.38400000  1.0
  H  H8  1  0.11186000  0.69851000  0.14288000  1.0
  H  H9  1  0.61187000  0.14288000  0.69850000  1.0
  H  H10  1  0.88813000  0.30149000  0.85713000  1.0
  H  H11  1  0.38814000  0.85712000  0.30150000  1.0
  H  H12  1  0.44651000  0.72662000  0.32011000  1.0
  H  H13  1  0.94652000  0.32010000  0.72662000  1.0
  H  H14  1  0.55349000  0.27338000  0.67989000  1.0
  H  H15  1  0.05347000  0.67989000  0.27339000  1.0
  H  H16  1  0.62550000  0.68711000  0.37513000  1.0
  H  H17  1  0.12551000  0.37513000  0.68711000  1.0
  H  H18  1  0.37449000  0.31289000  0.62487000  1.0
  H  H19  1  0.87448000  0.62487000  0.31290000  1.0
  H  H20  1  0.40269000  0.59550000  0.32667000  1.0
  H  H21  1  0.90270000  0.32667000  0.59551000  1.0
  H  H22  1  0.59731000  0.40449000  0.67333000  1.0
  H  H23  1  0.09729000  0.67332000  0.40450000  1.0
  H  H24  1  0.33800000  0.79852000  0.05568000  1.0
  H  H25  1  0.83802000  0.05569000  0.79853000  1.0
  H  H26  1  0.66198000  0.20147000  0.94431000  1.0
  H  H27  1  0.16201000  0.94432000  0.20148000  1.0
  H  H28  1  0.38529000  0.63367000  0.75260000  1.0
  H  H29  1  0.88529000  0.75260000  0.63367000  1.0
  H  H30  1  0.61473000  0.36633000  0.24740000  1.0
  H  H31  1  0.11471000  0.24741000  0.36633000  1.0
  H  H32  1  0.29327000  0.95465000  0.79490000  1.0
  H  H33  1  0.79325000  0.79491000  0.95464000  1.0
  H  H34  1  0.70673000  0.04536000  0.20509000  1.0
  H  H35  1  0.20673000  0.20510000  0.04535000  1.0
  H  H36  1  0.24999000  0.13635000  0.86365000  1.0
  H  H37  1  0.74999000  0.86365000  0.13635000  1.0
  Rh  Rh38  1  0.45271000  0.56648000  0.97244000  1.0
  Rh  Rh39  1  0.95272000  0.97244000  0.56648000  1.0
  Rh  Rh40  1  0.54729000  0.43352000  0.02756000  1.0
  Rh  Rh41  1  0.04729000  0.02756000  0.43353000  1.0
  C  C42  1  0.50314000  0.60496000  0.19968000  1.0
  C  C43  1  0.00314000  0.19968000  0.60496000  1.0
  C  C44  1  0.49686000  0.39504000  0.80032000  1.0
  C  C45  1  0.99685000  0.80032000  0.39504000  1.0
  C  C46  1  0.83494000  0.61251000  0.04325000  1.0
  C  C47  1  0.33495000  0.04325000  0.61250000  1.0
  C  C48  1  0.16505000  0.38750000  0.95674000  1.0
  C  C49  1  0.66505000  0.95674000  0.38750000  1.0
  C  C50  1  0.02377000  0.67222000  0.05833000  1.0
  C  C51  1  0.52377000  0.05833000  0.67222000  1.0
  C  C52  1  0.97624000  0.32778000  0.94167000  1.0
  C  C53  1  0.47624000  0.94166000  0.32778000  1.0
  C  C54  1  0.49337000  0.65747000  0.31209000  1.0
  C  C55  1  0.99338000  0.31209000  0.65747000  1.0
  C  C56  1  0.50662000  0.34252000  0.68791000  1.0
  C  C57  1  0.00661000  0.68790000  0.34253000  1.0
  C  C58  1  0.33861000  0.77350000  0.97261000  1.0
  C  C59  1  0.83863000  0.97261000  0.77350000  1.0
  C  C60  1  0.66138000  0.22650000  0.02738000  1.0
  C  C61  1  0.16138000  0.02739000  0.22650000  1.0
  C  C62  1  0.36233000  0.69310000  0.81782000  1.0
  C  C63  1  0.86233000  0.81783000  0.69310000  1.0
  C  C64  1  0.63768000  0.30691000  0.18218000  1.0
  C  C65  1  0.13768000  0.18218000  0.30691000  1.0
  C  C66  1  0.27660000  0.93037000  0.94039000  1.0
  C  C67  1  0.77661000  0.94039000  0.93037000  1.0
  C  C68  1  0.72339000  0.06963000  0.05960000  1.0
  C  C69  1  0.22339000  0.05961000  0.06963000  1.0
  C  C70  1  0.27605000  0.98748000  0.87368000  1.0
  C  C71  1  0.77604000  0.87369000  0.98748000  1.0
  C  C72  1  0.72394000  0.01252000  0.12631000  1.0
  C  C73  1  0.22395000  0.12632000  0.01252000  1.0
  C  C74  1  0.24999000  0.08787000  0.91213000  1.0
  C  C75  1  0.75000000  0.91213000  0.08786000  1.0
  N  N76  1  0.37129000  0.68601000  0.91591000  1.0
  N  N77  1  0.87130000  0.91591000  0.68600000  1.0
  N  N78  1  0.62871000  0.31399000  0.08408000  1.0
  N  N79  1  0.12871000  0.08409000  0.31399000  1.0
  N  N80  1  0.31014000  0.83035000  0.91027000  1.0
  N  N81  1  0.81015000  0.91028000  0.83035000  1.0
  N  N82  1  0.68986000  0.16965000  0.08972000  1.0
  N  N83  1  0.18986000  0.08973000  0.16965000  1.0
  N  N84  1  0.32586000  0.77979000  0.81088000  1.0
  N  N85  1  0.82587000  0.81088000  0.77979000  1.0
  N  N86  1  0.67415000  0.22021000  0.18911000  1.0
  N  N87  1  0.17414000  0.18912000  0.22021000  1.0
  N  N88  1  0.25000000  0.96378000  0.03622000  1.0
  N  N89  1  0.75001000  0.03622000  0.96378000  1.0
  O  O90  1  0.71652000  0.65188000  0.01153000  1.0
  O  O91  1  0.21653000  0.01153000  0.65187000  1.0
  O  O92  1  0.28348000  0.34813000  0.98847000  1.0
  O  O93  1  0.78348000  0.98847000  0.34813000  1.0
  O  O94  1  0.80629000  0.52600000  0.06186000  1.0
  O  O95  1  0.30629000  0.06186000  0.52600000  1.0
  O  O96  1  0.19371000  0.47400000  0.93814000  1.0
  O  O97  1  0.69371000  0.93814000  0.47400000  1.0
  O  O98  1  0.46210000  0.64669000  0.13096000  1.0
  O  O99  1  0.96210000  0.13096000  0.64669000  1.0
  O  O100  1  0.53790000  0.35331000  0.86904000  1.0
  O  O101  1  0.03789000  0.86903000  0.35331000  1.0
  O  O102  1  0.55207000  0.52079000  0.18169000  1.0
  O  O103  1  0.05209000  0.18169000  0.52080000  1.0
  O  O104  1  0.44791000  0.47920000  0.81831000  1.0
  O  O105  1  0.94792000  0.81831000  0.47921000  1.0
