# generated using pymatgen
data_CuH20C20S(NO)4
_symmetry_space_group_name_H-M   'P 1'
_cell_length_a   9.85932000
_cell_length_b   9.85952000
_cell_length_c   14.04570000
_cell_angle_alpha   96.65400000
_cell_angle_beta   96.65350000
_cell_angle_gamma   116.76000000
_symmetry_Int_Tables_number   1
_chemical_formula_structural   CuH20C20S(NO)4
_chemical_formula_sum   'Cu2 H40 C40 S2 N8 O8'
_cell_volume   1188.98184575
_cell_formula_units_Z   2
loop_
 _symmetry_equiv_pos_site_id
 _symmetry_equiv_pos_as_xyz
  1  'x, y, z'
loop_
 _atom_site_type_symbol
 _atom_site_label
 _atom_site_symmetry_multiplicity
 _atom_site_fract_x
 _atom_site_fract_y
 _atom_site_fract_z
 _atom_site_occupancy
  Cu  Cu0  1  0.92533000  0.07467000  0.75001000  1.0
  Cu  Cu1  1  0.07467000  0.92533000  0.24999000  1.0
  H  H2  1  0.05867000  0.58900000  0.87779000  1.0
  H  H3  1  0.41100000  0.94132000  0.62221000  1.0
  H  H4  1  0.94135000  0.41104000  0.12220000  1.0
  H  H5  1  0.58893000  0.05865000  0.37779000  1.0
  H  H6  1  0.05607000  0.56697000  0.75074000  1.0
  H  H7  1  0.43301000  0.94391000  0.74925000  1.0
  H  H8  1  0.94395000  0.43305000  0.24925000  1.0
  H  H9  1  0.56693000  0.05607000  0.25075000  1.0
  H  H10  1  0.33439000  0.63981000  0.91055000  1.0
  H  H11  1  0.36018000  0.66559000  0.58943000  1.0
  H  H12  1  0.66562000  0.36022000  0.08945000  1.0
  H  H13  1  0.63982000  0.33440000  0.41056000  1.0
  H  H14  1  0.31258000  0.78100000  0.85234000  1.0
  H  H15  1  0.21898000  0.68741000  0.64764000  1.0
  H  H16  1  0.68744000  0.21900000  0.14764000  1.0
  H  H17  1  0.78100000  0.31255000  0.35236000  1.0
  H  H18  1  0.70830000  0.76907000  0.84382000  1.0
  H  H19  1  0.23095000  0.29172000  0.65619000  1.0
  H  H20  1  0.29173000  0.23096000  0.15618000  1.0
  H  H21  1  0.76904000  0.70828000  0.34382000  1.0
  H  H22  1  0.15662000  0.79469000  0.07432000  1.0
  H  H23  1  0.20531000  0.84340000  0.42568000  1.0
  H  H24  1  0.84335000  0.20529000  0.92568000  1.0
  H  H25  1  0.79471000  0.15662000  0.57433000  1.0
  H  H26  1  0.42192000  0.99621000  0.07204000  1.0
  H  H27  1  0.00379000  0.57810000  0.42797000  1.0
  H  H28  1  0.57807000  0.00373000  0.92796000  1.0
  H  H29  1  0.99623000  0.42191000  0.57203000  1.0
  H  H30  1  0.47092000  0.17055000  0.95209000  1.0
  H  H31  1  0.82945000  0.52911000  0.54792000  1.0
  H  H32  1  0.52912000  0.82942000  0.04792000  1.0
  H  H33  1  0.17057000  0.47089000  0.45206000  1.0
  H  H34  1  0.25339000  0.15319000  0.83277000  1.0
  H  H35  1  0.84681000  0.74665000  0.66724000  1.0
  H  H36  1  0.74667000  0.84681000  0.16724000  1.0
  H  H37  1  0.15318000  0.25333000  0.33275000  1.0
  H  H38  1  0.84569000  0.69985000  0.98664000  1.0
  H  H39  1  0.30017000  0.15433000  0.51335000  1.0
  H  H40  1  0.15431000  0.30017000  0.01335000  1.0
  H  H41  1  0.69982000  0.84567000  0.48667000  1.0
  C  C42  1  0.06899000  0.38548000  0.81783000  1.0
  C  C43  1  0.61451000  0.93099000  0.68216000  1.0
  C  C44  1  0.93101000  0.61454000  0.18218000  1.0
  C  C45  1  0.38545000  0.06902000  0.31783000  1.0
  C  C46  1  0.10949000  0.55425000  0.81988000  1.0
  C  C47  1  0.44573000  0.89049000  0.68011000  1.0
  C  C48  1  0.89051000  0.44576000  0.18011000  1.0
  C  C49  1  0.55423000  0.10951000  0.31989000  1.0
  C  C50  1  0.28419000  0.65841000  0.84246000  1.0
  C  C51  1  0.34158000  0.71579000  0.65752000  1.0
  C  C52  1  0.71581000  0.34160000  0.15753000  1.0
  C  C53  1  0.65841000  0.28420000  0.34247000  1.0
  C  C54  1  0.83249000  0.81722000  0.86825000  1.0
  C  C55  1  0.18280000  0.16753000  0.63176000  1.0
  C  C56  1  0.16752000  0.18281000  0.13176000  1.0
  C  C57  1  0.81720000  0.83247000  0.36825000  1.0
  C  C58  1  0.05694000  0.86055000  0.95313000  1.0
  C  C59  1  0.13945000  0.94309000  0.54688000  1.0
  C  C60  1  0.94308000  0.13944000  0.04686000  1.0
  C  C61  1  0.86056000  0.05691000  0.45314000  1.0
  C  C62  1  0.17762000  0.86886000  0.02037000  1.0
  C  C63  1  0.13113000  0.82240000  0.47964000  1.0
  C  C64  1  0.82238000  0.13110000  0.97963000  1.0
  C  C65  1  0.86888000  0.17761000  0.52036000  1.0
  C  C66  1  0.32571000  0.98260000  0.01842000  1.0
  C  C67  1  0.01740000  0.67431000  0.48160000  1.0
  C  C68  1  0.67428000  0.01740000  0.98160000  1.0
  C  C69  1  0.98259000  0.32570000  0.51839000  1.0
  C  C70  1  0.35294000  0.08246000  0.95063000  1.0
  C  C71  1  0.91754000  0.64709000  0.54939000  1.0
  C  C72  1  0.64709000  0.91749000  0.04935000  1.0
  C  C73  1  0.08248000  0.35290000  0.45062000  1.0
  C  C74  1  0.23286000  0.07293000  0.88282000  1.0
  C  C75  1  0.92707000  0.76717000  0.61719000  1.0
  C  C76  1  0.76717000  0.92706000  0.11718000  1.0
  C  C77  1  0.07292000  0.23282000  0.38281000  1.0
  C  C78  1  0.08271000  0.96030000  0.88484000  1.0
  C  C79  1  0.03972000  0.91732000  0.61517000  1.0
  C  C80  1  0.91731000  0.03971000  0.11516000  1.0
  C  C81  1  0.96028000  0.08268000  0.38483000  1.0
  S  S82  1  0.38245000  0.61753000  0.74999000  1.0
  S  S83  1  0.61756000  0.38248000  0.25001000  1.0
  N  N84  1  0.93925000  0.92945000  0.83295000  1.0
  N  N85  1  0.07057000  0.06077000  0.66707000  1.0
  N  N86  1  0.06076000  0.07054000  0.16704000  1.0
  N  N87  1  0.92942000  0.93922000  0.33294000  1.0
  N  N88  1  0.89786000  0.77095000  0.93942000  1.0
  N  N89  1  0.22907000  0.10217000  0.56059000  1.0
  N  N90  1  0.10215000  0.22906000  0.06057000  1.0
  N  N91  1  0.77093000  0.89784000  0.43943000  1.0
  O  O92  1  0.97317000  0.28962000  0.74118000  1.0
  O  O93  1  0.71037000  0.02682000  0.75881000  1.0
  O  O94  1  0.02682000  0.71038000  0.25882000  1.0
  O  O95  1  0.28962000  0.97321000  0.24119000  1.0
  O  O96  1  0.12752000  0.34738000  0.88761000  1.0
  O  O97  1  0.65263000  0.87248000  0.61239000  1.0
  O  O98  1  0.87249000  0.65265000  0.11241000  1.0
  O  O99  1  0.34733000  0.12754000  0.38759000  1.0
