# generated using pymatgen
data_Zn4H30C62O15
_symmetry_space_group_name_H-M   'P 1'
_cell_length_a   17.58750000
_cell_length_b   17.99250000
_cell_length_c   18.03940000
_cell_angle_alpha   63.53510000
_cell_angle_beta   86.86250000
_cell_angle_gamma   68.24910000
_symmetry_Int_Tables_number   1
_chemical_formula_structural   Zn4H30C62O15
_chemical_formula_sum   'Zn4 H30 C62 O15'
_cell_volume   4704.37696006
_cell_formula_units_Z   1
loop_
 _symmetry_equiv_pos_site_id
 _symmetry_equiv_pos_as_xyz
  1  'x, y, z'
loop_
 _atom_site_type_symbol
 _atom_site_label
 _atom_site_symmetry_multiplicity
 _atom_site_fract_x
 _atom_site_fract_y
 _atom_site_fract_z
 _atom_site_occupancy
  Zn  Zn0  1  0.43184000  0.43667000  0.57261000  1.0
  Zn  Zn1  1  0.58203000  0.42319000  0.46430000  1.0
  Zn  Zn2  1  0.54127000  0.54104000  0.56783000  1.0
  Zn  Zn3  1  0.43179000  0.60901000  0.39779000  1.0
  H  H4  1  0.95030000  0.62762000  0.25853000  1.0
  H  H5  1  0.43569000  0.42759000  0.15026000  1.0
  H  H6  1  0.55576000  0.58201000  0.85052000  1.0
  H  H7  1  0.80645000  0.50796000  0.45179000  1.0
  H  H8  1  0.62813000  0.67509000  0.03380000  1.0
  H  H9  1  0.37376000  0.15034000  0.29890000  1.0
  H  H10  1  0.48592000  0.21283000  0.46442000  1.0
  H  H11  1  0.60733000  0.12174000  0.70701000  1.0
  H  H12  1  0.61239000  0.85461000  0.70869000  1.0
  H  H13  1  0.35128000  0.04116000  0.26652000  1.0
  H  H14  1  0.37292000  0.88230000  0.30529000  1.0
  H  H15  1  0.96003000  0.26077000  0.72789000  1.0
  H  H16  1  0.51796000  0.78939000  0.53493000  1.0
  H  H17  1  0.43262000  0.18592000  0.39224000  1.0
  H  H18  1  0.55851000  0.81823000  0.61277000  1.0
  H  H19  1  0.80750000  0.31095000  0.69937000  1.0
  H  H20  1  0.62989000  0.96364000  0.74380000  1.0
  H  H21  1  0.09232000  0.26551000  0.67773000  1.0
  H  H22  1  0.06129000  0.68544000  0.23540000  1.0
  H  H23  1  0.19886000  0.67157000  0.28390000  1.0
  H  H24  1  0.20295000  0.45965000  0.52248000  1.0
  H  H25  1  0.85862000  0.46542000  0.36244000  1.0
  H  H26  1  0.37778000  0.36437000  0.08407000  1.0
  H  H27  1  0.22523000  0.33366000  0.52319000  1.0
  H  H28  1  0.48802000  0.47242000  0.20501000  1.0
  H  H29  1  0.60496000  0.65273000  0.17818000  1.0
  H  H30  1  0.60963000  0.64934000  0.91531000  1.0
  H  H31  1  0.35528000  0.34282000  0.96364000  1.0
  H  H32  1  0.37464000  0.37015000  0.81682000  1.0
  H  H33  1  0.51279000  0.52787000  0.79938000  1.0
  C  C34  1  0.53135000  0.54478000  0.28662000  1.0
  C  C35  1  0.10125000  0.36894000  0.56307000  1.0
  C  C36  1  0.05782000  0.32524000  0.62017000  1.0
  C  C37  1  0.45823000  0.46724000  0.71369000  1.0
  C  C38  1  0.97112000  0.35422000  0.60459000  1.0
  C  C39  1  0.92884000  0.42426000  0.52373000  1.0
  C  C40  1  0.92639000  0.31392000  0.66684000  1.0
  C  C41  1  0.84204000  0.34147000  0.65124000  1.0
  C  C42  1  0.84241000  0.45139000  0.51011000  1.0
  C  C43  1  0.44524000  0.45128000  0.80089000  1.0
  C  C44  1  0.54389000  0.56134000  0.19878000  1.0
  C  C45  1  0.16918000  0.62717000  0.32402000  1.0
  C  C46  1  0.38969000  0.38364000  0.92747000  1.0
  C  C47  1  0.40009000  0.39849000  0.84650000  1.0
  C  C48  1  0.47848000  0.48813000  0.83726000  1.0
  C  C49  1  0.53387000  0.27024000  0.56009000  1.0
  C  C50  1  0.46862000  0.47442000  0.91986000  1.0
  C  C51  1  0.42326000  0.42051000  0.96579000  1.0
  C  C52  1  0.50243000  0.51260000  0.95896000  1.0
  C  C53  1  0.49099000  0.49513000  0.04281000  1.0
  C  C54  1  0.44551000  0.44073000  0.08626000  1.0
  C  C55  1  0.41282000  0.40512000  0.04950000  1.0
  C  C56  1  0.17224000  0.50464000  0.45873000  1.0
  C  C57  1  0.54649000  0.56837000  0.91471000  1.0
  C  C58  1  0.57682000  0.60624000  0.95069000  1.0
  C  C59  1  0.56606000  0.59116000  0.03433000  1.0
  C  C60  1  0.52407000  0.53393000  0.08176000  1.0
  C  C61  1  0.46151000  0.73285000  0.44580000  1.0
  C  C62  1  0.59553000  0.63239000  0.07071000  1.0
  C  C63  1  0.58305000  0.61995000  0.15086000  1.0
  C  C64  1  0.51651000  0.51827000  0.16532000  1.0
  C  C65  1  0.44731000  0.82777000  0.42299000  1.0
  C  C66  1  0.54540000  0.17553000  0.58265000  1.0
  C  C67  1  0.09711000  0.50695000  0.43208000  1.0
  C  C68  1  0.38756000  0.98592000  0.32563000  1.0
  C  C69  1  0.39929000  0.89852000  0.34653000  1.0
  C  C70  1  0.48146000  0.84634000  0.47710000  1.0
  C  C71  1  0.46951000  0.93526000  0.45798000  1.0
  C  C72  1  0.42199000  0.00629000  0.37992000  1.0
  C  C73  1  0.70926000  0.43841000  0.55206000  1.0
  C  C74  1  0.50328000  0.95657000  0.51405000  1.0
  C  C75  1  0.49059000  0.04742000  0.49000000  1.0
  C  C76  1  0.44345000  0.11593000  0.41112000  1.0
  C  C77  1  0.41021000  0.09647000  0.35849000  1.0
  C  C78  1  0.05612000  0.57539000  0.35023000  1.0
  C  C79  1  0.54847000  0.88803000  0.59374000  1.0
  C  C80  1  0.57880000  0.90800000  0.64766000  1.0
  C  C81  1  0.56728000  0.99816000  0.62615000  1.0
  C  C82  1  0.52412000  0.06883000  0.54612000  1.0
  C  C83  1  0.59736000  0.01856000  0.68296000  1.0
  C  C84  1  0.58547000  0.10592000  0.66261000  1.0
  C  C85  1  0.29046000  0.55277000  0.43624000  1.0
  C  C86  1  0.51605000  0.15725000  0.52561000  1.0
  C  C87  1  0.20859000  0.56206000  0.40575000  1.0
  C  C88  1  0.80015000  0.41007000  0.57164000  1.0
  C  C89  1  0.05842000  0.44716000  0.48539000  1.0
  C  C90  1  0.09371000  0.63410000  0.29750000  1.0
  C  C91  1  0.86708000  0.53049000  0.33479000  1.0
  C  C92  1  0.19286000  0.32120000  0.57978000  1.0
  C  C93  1  0.97499000  0.46652000  0.46150000  1.0
  C  C94  1  0.93895000  0.52949000  0.37586000  1.0
  C  C95  1  0.97882000  0.58185000  0.32317000  1.0
  O  O96  1  0.49666000  0.50222000  0.50063000  1.0
  O  O97  1  0.68798000  0.42340000  0.49526000  1.0
  O  O98  1  0.32349000  0.60409000  0.38442000  1.0
  O  O99  1  0.66247000  0.47407000  0.59352000  1.0
  O  O100  1  0.32063000  0.49325000  0.51130000  1.0
  O  O101  1  0.82259000  0.59478000  0.27151000  1.0
  O  O102  1  0.23151000  0.26671000  0.64931000  1.0
  O  O103  1  0.47890000  0.30984000  0.59369000  1.0
  O  O104  1  0.41966000  0.72066000  0.39956000  1.0
  O  O105  1  0.56598000  0.46362000  0.34342000  1.0
  O  O106  1  0.50185000  0.51310000  0.67685000  1.0
  O  O107  1  0.48686000  0.61240000  0.29779000  1.0
  O  O108  1  0.42493000  0.43365000  0.68218000  1.0
  O  O109  1  0.58045000  0.30225000  0.50993000  1.0
  O  O110  1  0.51434000  0.67087000  0.50967000  1.0
