# generated using pymatgen
data_CuH3C8N3O4
_symmetry_space_group_name_H-M   'P 1'
_cell_length_a   10.18310000
_cell_length_b   19.33027349
_cell_length_c   19.33020000
_cell_angle_alpha   60.00637725
_cell_angle_beta   89.98530000
_cell_angle_gamma   89.98399993
_symmetry_Int_Tables_number   1
_chemical_formula_structural   CuH3C8N3O4
_chemical_formula_sum   'Cu12 H36 C96 N36 O48'
_cell_volume   3295.43591403
_cell_formula_units_Z   12
loop_
 _symmetry_equiv_pos_site_id
 _symmetry_equiv_pos_as_xyz
  1  'x, y, z'
loop_
 _atom_site_type_symbol
 _atom_site_label
 _atom_site_symmetry_multiplicity
 _atom_site_fract_x
 _atom_site_fract_y
 _atom_site_fract_z
 _atom_site_occupancy
  Cu  Cu0  1  0.35923000  0.96490000  0.54404000  1.0
  Cu  Cu1  1  0.35925000  0.49109000  0.96493000  1.0
  Cu  Cu2  1  0.36020000  0.54422000  0.49116000  1.0
  Cu  Cu3  1  0.14080000  0.45599000  0.03513000  1.0
  Cu  Cu4  1  0.14075000  0.03502000  0.50898000  1.0
  Cu  Cu5  1  0.13972000  0.50881000  0.45575000  1.0
  Cu  Cu6  1  0.64083000  0.03512000  0.45598000  1.0
  Cu  Cu7  1  0.64075000  0.50890000  0.03510000  1.0
  Cu  Cu8  1  0.64084000  0.45600000  0.50886000  1.0
  Cu  Cu9  1  0.85919000  0.54398000  0.96487000  1.0
  Cu  Cu10  1  0.85930000  0.96494000  0.49105000  1.0
  Cu  Cu11  1  0.85915000  0.49115000  0.54403000  1.0
  H  H12  1  0.26112000  0.75907000  0.49700000  1.0
  H  H13  1  0.26093000  0.74383000  0.75930000  1.0
  H  H14  1  0.26143000  0.49695000  0.74385000  1.0
  H  H15  1  0.23898000  0.50300000  0.24092000  1.0
  H  H16  1  0.23890000  0.24071000  0.25616000  1.0
  H  H17  1  0.23867000  0.25615000  0.50303000  1.0
  H  H18  1  0.73907000  0.24075000  0.50318000  1.0
  H  H19  1  0.73912000  0.25610000  0.24073000  1.0
  H  H20  1  0.73875000  0.50324000  0.25600000  1.0
  H  H21  1  0.76085000  0.49680000  0.75927000  1.0
  H  H22  1  0.76101000  0.75928000  0.74387000  1.0
  H  H23  1  0.76122000  0.74402000  0.49677000  1.0
  H  H24  1  0.99004000  0.95362000  0.36707000  1.0
  H  H25  1  0.98967000  0.67922000  0.95381000  1.0
  H  H26  1  0.99024000  0.36740000  0.67884000  1.0
  H  H27  1  0.51008000  0.63299000  0.04638000  1.0
  H  H28  1  0.51020000  0.04621000  0.32082000  1.0
  H  H29  1  0.50981000  0.32116000  0.63260000  1.0
  H  H30  1  0.01023000  0.04622000  0.63302000  1.0
  H  H31  1  0.01034000  0.32077000  0.04618000  1.0
  H  H32  1  0.01008000  0.63283000  0.32086000  1.0
  H  H33  1  0.48974000  0.36691000  0.95383000  1.0
  H  H34  1  0.48975000  0.95379000  0.67921000  1.0
  H  H35  1  0.48989000  0.67913000  0.36720000  1.0
  H  H36  1  0.97493000  0.74625000  0.33912000  1.0
  H  H37  1  0.97448000  0.91448000  0.74636000  1.0
  H  H38  1  0.97481000  0.33921000  0.91428000  1.0
  H  H39  1  0.52507000  0.66092000  0.25375000  1.0
  H  H40  1  0.52541000  0.25364000  0.08554000  1.0
  H  H41  1  0.52529000  0.08574000  0.66078000  1.0
  H  H42  1  0.02558000  0.25368000  0.66083000  1.0
  H  H43  1  0.02554000  0.08547000  0.25357000  1.0
  H  H44  1  0.02544000  0.66079000  0.08551000  1.0
  H  H45  1  0.47436000  0.33916000  0.74633000  1.0
  H  H46  1  0.47458000  0.74641000  0.91452000  1.0
  H  H47  1  0.47456000  0.91451000  0.33916000  1.0
  C  C48  1  0.97287000  0.85540000  0.34567000  1.0
  C  C49  1  0.97244000  0.79881000  0.85559000  1.0
  C  C50  1  0.97311000  0.34579000  0.79854000  1.0
  C  C51  1  0.52714000  0.65435000  0.14462000  1.0
  C  C52  1  0.52745000  0.14442000  0.20122000  1.0
  C  C53  1  0.52699000  0.20147000  0.65420000  1.0
  C  C54  1  0.02752000  0.14444000  0.65439000  1.0
  C  C55  1  0.02757000  0.20116000  0.14439000  1.0
  C  C56  1  0.02741000  0.65426000  0.20123000  1.0
  C  C57  1  0.47245000  0.34557000  0.85558000  1.0
  C  C58  1  0.47251000  0.85559000  0.79880000  1.0
  C  C59  1  0.47256000  0.79877000  0.34573000  1.0
  C  C60  1  0.02764000  0.89506000  0.38245000  1.0
  C  C61  1  0.02729000  0.72238000  0.89526000  1.0
  C  C62  1  0.02787000  0.38269000  0.72206000  1.0
  C  C63  1  0.47243000  0.61758000  0.10494000  1.0
  C  C64  1  0.47257000  0.10476000  0.27764000  1.0
  C  C65  1  0.47218000  0.27794000  0.61730000  1.0
  C  C66  1  0.97266000  0.10478000  0.61764000  1.0
  C  C67  1  0.97273000  0.27759000  0.10474000  1.0
  C  C68  1  0.97249000  0.61751000  0.27764000  1.0
  C  C69  1  0.52732000  0.38229000  0.89528000  1.0
  C  C70  1  0.52735000  0.89525000  0.72238000  1.0
  C  C71  1  0.52747000  0.72235000  0.38252000  1.0
  C  C72  1  0.12813000  0.86000000  0.43826000  1.0
  C  C73  1  0.12784000  0.70162000  0.86022000  1.0
  C  C74  1  0.12830000  0.43847000  0.70142000  1.0
  C  C75  1  0.37201000  0.56177000  0.13999000  1.0
  C  C76  1  0.37199000  0.13979000  0.29839000  1.0
  C  C77  1  0.37174000  0.29857000  0.56154000  1.0
  C  C78  1  0.87213000  0.13981000  0.56187000  1.0
  C  C79  1  0.87219000  0.29833000  0.13978000  1.0
  C  C80  1  0.87184000  0.56183000  0.29830000  1.0
  C  C81  1  0.62782000  0.43808000  0.86022000  1.0
  C  C82  1  0.62791000  0.86020000  0.70164000  1.0
  C  C83  1  0.62811000  0.70169000  0.43820000  1.0
  C  C84  1  0.17971000  0.78591000  0.45549000  1.0
  C  C85  1  0.17940000  0.75845000  0.78614000  1.0
  C  C86  1  0.17981000  0.45563000  0.75830000  1.0
  C  C87  1  0.32039000  0.54450000  0.21408000  1.0
  C  C88  1  0.32044000  0.21387000  0.24154000  1.0
  C  C89  1  0.32028000  0.24170000  0.54435000  1.0
  C  C90  1  0.82058000  0.21390000  0.54463000  1.0
  C  C91  1  0.82064000  0.24150000  0.21387000  1.0
  C  C92  1  0.82030000  0.54464000  0.24144000  1.0
  C  C93  1  0.67935000  0.45535000  0.78612000  1.0
  C  C94  1  0.67947000  0.78612000  0.75848000  1.0
  C  C95  1  0.67967000  0.75858000  0.45536000  1.0
  C  C96  1  0.12306000  0.74565000  0.41939000  1.0
  C  C97  1  0.12265000  0.83477000  0.74588000  1.0
  C  C98  1  0.12292000  0.41952000  0.83460000  1.0
  C  C99  1  0.37700000  0.58061000  0.25433000  1.0
  C  C100  1  0.37721000  0.25413000  0.16523000  1.0
  C  C101  1  0.37721000  0.16540000  0.58046000  1.0
  C  C102  1  0.87737000  0.25417000  0.58068000  1.0
  C  C103  1  0.87739000  0.16518000  0.25412000  1.0
  C  C104  1  0.87716000  0.58067000  0.16515000  1.0
  C  C105  1  0.62257000  0.41932000  0.74585000  1.0
  C  C106  1  0.62273000  0.74588000  0.83480000  1.0
  C  C107  1  0.62281000  0.83488000  0.41930000  1.0
  C  C108  1  0.01800000  0.77924000  0.36556000  1.0
  C  C109  1  0.01748000  0.85502000  0.77943000  1.0
  C  C110  1  0.01794000  0.36566000  0.85484000  1.0
  C  C111  1  0.48203000  0.63447000  0.22077000  1.0
  C  C112  1  0.48240000  0.22059000  0.14499000  1.0
  C  C113  1  0.48218000  0.14517000  0.63432000  1.0
  C  C114  1  0.98251000  0.22062000  0.63445000  1.0
  C  C115  1  0.98253000  0.14493000  0.22055000  1.0
  C  C116  1  0.98237000  0.63438000  0.14496000  1.0
  C  C117  1  0.51744000  0.36554000  0.77939000  1.0
  C  C118  1  0.51758000  0.77943000  0.85505000  1.0
  C  C119  1  0.51762000  0.85506000  0.36557000  1.0
  C  C120  1  0.17699000  0.90528000  0.47702000  1.0
  C  C121  1  0.17677000  0.61759000  0.90548000  1.0
  C  C122  1  0.17780000  0.47714000  0.61731000  1.0
  C  C123  1  0.32313000  0.52301000  0.09468000  1.0
  C  C124  1  0.32308000  0.09454000  0.38243000  1.0
  C  C125  1  0.32218000  0.38265000  0.52287000  1.0
  C  C126  1  0.82324000  0.09458000  0.52306000  1.0
  C  C127  1  0.82326000  0.38237000  0.09455000  1.0
  C  C128  1  0.82278000  0.52307000  0.38231000  1.0
  C  C129  1  0.67671000  0.47689000  0.90546000  1.0
  C  C130  1  0.67684000  0.90544000  0.61759000  1.0
  C  C131  1  0.67719000  0.61770000  0.47696000  1.0
  C  C132  1  0.17612000  0.66581000  0.43794000  1.0
  C  C133  1  0.17585000  0.89603000  0.66631000  1.0
  C  C134  1  0.17602000  0.43776000  0.89595000  1.0
  C  C135  1  0.32386000  0.56204000  0.33418000  1.0
  C  C136  1  0.32405000  0.33371000  0.10397000  1.0
  C  C137  1  0.32407000  0.10404000  0.56225000  1.0
  C  C138  1  0.82422000  0.33379000  0.56230000  1.0
  C  C139  1  0.82425000  0.10394000  0.33372000  1.0
  C  C140  1  0.82401000  0.56234000  0.10390000  1.0
  C  C141  1  0.67576000  0.43768000  0.66624000  1.0
  C  C142  1  0.67585000  0.66626000  0.89606000  1.0
  C  C143  1  0.67593000  0.89612000  0.43765000  1.0
  N  N144  1  0.87407000  0.89893000  0.28981000  1.0
  N  N145  1  0.87360000  0.81114000  0.89914000  1.0
  N  N146  1  0.87422000  0.28999000  0.81075000  1.0
  N  N147  1  0.62592000  0.71026000  0.10107000  1.0
  N  N148  1  0.62631000  0.10087000  0.18891000  1.0
  N  N149  1  0.62583000  0.18925000  0.71003000  1.0
  N  N150  1  0.12639000  0.10089000  0.71022000  1.0
  N  N151  1  0.12643000  0.18885000  0.10083000  1.0
  N  N152  1  0.12629000  0.71005000  0.18900000  1.0
  N  N153  1  0.37361000  0.28972000  0.89913000  1.0
  N  N154  1  0.37363000  0.89915000  0.81111000  1.0
  N  N155  1  0.37368000  0.81100000  0.28993000  1.0
  N  N156  1  0.79942000  0.86817000  0.26264000  1.0
  N  N157  1  0.79911000  0.86917000  0.86841000  1.0
  N  N158  1  0.79971000  0.26272000  0.86877000  1.0
  N  N159  1  0.70062000  0.73741000  0.13184000  1.0
  N  N160  1  0.70079000  0.13162000  0.13087000  1.0
  N  N161  1  0.70036000  0.13122000  0.73730000  1.0
  N  N162  1  0.20092000  0.13163000  0.73748000  1.0
  N  N163  1  0.20099000  0.13085000  0.13157000  1.0
  N  N164  1  0.20074000  0.73743000  0.13095000  1.0
  N  N165  1  0.29909000  0.26247000  0.86839000  1.0
  N  N166  1  0.29910000  0.86841000  0.86911000  1.0
  N  N167  1  0.29923000  0.86904000  0.26255000  1.0
  N  N168  1  0.71964000  0.85056000  0.23237000  1.0
  N  N169  1  0.71951000  0.91719000  0.85076000  1.0
  N  N170  1  0.72009000  0.23234000  0.91680000  1.0
  N  N171  1  0.78043000  0.76769000  0.14943000  1.0
  N  N172  1  0.78036000  0.14926000  0.08286000  1.0
  N  N173  1  0.77997000  0.08322000  0.76765000  1.0
  N  N174  1  0.28055000  0.14925000  0.76783000  1.0
  N  N175  1  0.28064000  0.08287000  0.14921000  1.0
  N  N176  1  0.28032000  0.76785000  0.08294000  1.0
  N  N177  1  0.21944000  0.23213000  0.85076000  1.0
  N  N178  1  0.21944000  0.85076000  0.91710000  1.0
  N  N179  1  0.21964000  0.91705000  0.23212000  1.0
  O  O180  1  0.29868000  0.90265000  0.49261000  1.0
  O  O181  1  0.29848000  0.60465000  0.90283000  1.0
  O  O182  1  0.29966000  0.49176000  0.60511000  1.0
  O  O183  1  0.20143000  0.50740000  0.09737000  1.0
  O  O184  1  0.20137000  0.09712000  0.39540000  1.0
  O  O185  1  0.20027000  0.39485000  0.50822000  1.0
  O  O186  1  0.70154000  0.09725000  0.50745000  1.0
  O  O187  1  0.70157000  0.39531000  0.09725000  1.0
  O  O188  1  0.70110000  0.50735000  0.39521000  1.0
  O  O189  1  0.79839000  0.49252000  0.90276000  1.0
  O  O190  1  0.79854000  0.90277000  0.60465000  1.0
  O  O191  1  0.79884000  0.60481000  0.49270000  1.0
  O  O192  1  0.09037000  0.94610000  0.49002000  1.0
  O  O193  1  0.09024000  0.56376000  0.94633000  1.0
  O  O194  1  0.09102000  0.49037000  0.56360000  1.0
  O  O195  1  0.40971000  0.51007000  0.05381000  1.0
  O  O196  1  0.40966000  0.05375000  0.43625000  1.0
  O  O197  1  0.40891000  0.43639000  0.50962000  1.0
  O  O198  1  0.90980000  0.05375000  0.51005000  1.0
  O  O199  1  0.90979000  0.43620000  0.05368000  1.0
  O  O200  1  0.90918000  0.51021000  0.43615000  1.0
  O  O201  1  0.59016000  0.48989000  0.94631000  1.0
  O  O202  1  0.59028000  0.94628000  0.56379000  1.0
  O  O203  1  0.59078000  0.56386000  0.48981000  1.0
  O  O204  1  0.28519000  0.64447000  0.47530000  1.0
  O  O205  1  0.28573000  0.88073000  0.64491000  1.0
  O  O206  1  0.28588000  0.47447000  0.88069000  1.0
  O  O207  1  0.21474000  0.52468000  0.35549000  1.0
  O  O208  1  0.21416000  0.35511000  0.11927000  1.0
  O  O209  1  0.21422000  0.11930000  0.52555000  1.0
  O  O210  1  0.71435000  0.35513000  0.52562000  1.0
  O  O211  1  0.71440000  0.11926000  0.35513000  1.0
  O  O212  1  0.71416000  0.52562000  0.11923000  1.0
  O  O213  1  0.78564000  0.47436000  0.64491000  1.0
  O  O214  1  0.78570000  0.64484000  0.88073000  1.0
  O  O215  1  0.78577000  0.88080000  0.47434000  1.0
  O  O216  1  0.10825000  0.62554000  0.41506000  1.0
  O  O217  1  0.10793000  0.95911000  0.62553000  1.0
  O  O218  1  0.10808000  0.41542000  0.95904000  1.0
  O  O219  1  0.39166000  0.58491000  0.37446000  1.0
  O  O220  1  0.39196000  0.37447000  0.04090000  1.0
  O  O221  1  0.39201000  0.04094000  0.58461000  1.0
  O  O222  1  0.89211000  0.37460000  0.58455000  1.0
  O  O223  1  0.89221000  0.04086000  0.37449000  1.0
  O  O224  1  0.89190000  0.58465000  0.04081000  1.0
  O  O225  1  0.60791000  0.41542000  0.62542000  1.0
  O  O226  1  0.60794000  0.62551000  0.95914000  1.0
  O  O227  1  0.60796000  0.95918000  0.41538000  1.0
