# generated using pymatgen
data_H10PbC12(N2Cl)2
_symmetry_space_group_name_H-M   'P 1'
_cell_length_a   4.10148000
_cell_length_b   8.83983000
_cell_length_c   11.03590000
_cell_angle_alpha   110.93200000
_cell_angle_beta   95.23400000
_cell_angle_gamma   90.09680000
_symmetry_Int_Tables_number   1
_chemical_formula_structural   H10PbC12(N2Cl)2
_chemical_formula_sum   'H10 Pb1 C12 N4 Cl2'
_cell_volume   371.90476733
_cell_formula_units_Z   1
loop_
 _symmetry_equiv_pos_site_id
 _symmetry_equiv_pos_as_xyz
  1  'x, y, z'
loop_
 _atom_site_type_symbol
 _atom_site_label
 _atom_site_symmetry_multiplicity
 _atom_site_fract_x
 _atom_site_fract_y
 _atom_site_fract_z
 _atom_site_occupancy
  H  H0  1  0.74816000  0.34188000  0.96089000  1.0
  H  H1  1  0.25176000  0.65818000  0.03911000  1.0
  H  H2  1  0.65388000  0.52979000  0.83631000  1.0
  H  H3  1  0.34625000  0.47018000  0.16362000  1.0
  H  H4  1  0.01095000  0.15781000  0.55458000  1.0
  H  H5  1  0.98919000  0.84214000  0.44536000  1.0
  H  H6  1  0.13552000  0.98354000  0.69015000  1.0
  H  H7  1  0.86419000  0.01654000  0.30994000  1.0
  H  H8  1  0.40395000  0.58239000  0.64756000  1.0
  H  H9  1  0.59604000  0.41760000  0.35240000  1.0
  Pb  Pb10  1  0.49995000  0.00006000  0.00007000  1.0
  C  C11  1  0.58650000  0.30603000  0.87012000  1.0
  C  C12  1  0.41343000  0.69401000  0.12988000  1.0
  C  C13  1  0.53349000  0.40977000  0.80136000  1.0
  C  C14  1  0.46657000  0.59022000  0.19859000  1.0
  C  C15  1  0.32126000  0.35825000  0.68602000  1.0
  C  C16  1  0.67883000  0.64171000  0.31393000  1.0
  C  C17  1  0.17722000  0.20128000  0.64360000  1.0
  C  C18  1  0.82281000  0.79870000  0.35636000  1.0
  C  C19  1  0.24559000  0.10538000  0.71812000  1.0
  C  C20  1  0.75426000  0.89467000  0.28192000  1.0
  C  C21  1  0.25337000  0.46998000  0.61724000  1.0
  C  C22  1  0.74674000  0.52998000  0.38269000  1.0
  N  N23  1  0.44502000  0.15690000  0.83015000  1.0
  N  N24  1  0.55477000  0.84317000  0.16990000  1.0
  N  N25  1  0.01509000  0.43878000  0.52553000  1.0
  N  N26  1  0.98516000  0.56112000  0.47434000  1.0
  Cl  Cl27  1  0.96656000  0.78510000  0.85117000  1.0
  Cl  Cl28  1  0.03349000  0.21486000  0.14911000  1.0
