# generated using pymatgen
data_Zn2Ge4H10C3(NO5)2
_symmetry_space_group_name_H-M   'P 1'
_cell_length_a   9.83906000
_cell_length_b   10.18100000
_cell_length_c   13.48470000
_cell_angle_alpha   90.00000000
_cell_angle_beta   96.97270000
_cell_angle_gamma   90.00000000
_symmetry_Int_Tables_number   1
_chemical_formula_structural   Zn2Ge4H10C3(NO5)2
_chemical_formula_sum   'Zn8 Ge16 H40 C12 N8 O40'
_cell_volume   1340.79197839
_cell_formula_units_Z   4
loop_
 _symmetry_equiv_pos_site_id
 _symmetry_equiv_pos_as_xyz
  1  'x, y, z'
loop_
 _atom_site_type_symbol
 _atom_site_label
 _atom_site_symmetry_multiplicity
 _atom_site_fract_x
 _atom_site_fract_y
 _atom_site_fract_z
 _atom_site_occupancy
  Zn  Zn0  1  0.05651000  0.39960000  0.76907000  1.0
  Zn  Zn1  1  0.44349000  0.89960000  0.23093000  1.0
  Zn  Zn2  1  0.94349000  0.60040000  0.23093000  1.0
  Zn  Zn3  1  0.55651000  0.10040000  0.76907000  1.0
  Zn  Zn4  1  0.86006000  0.15023000  0.73710000  1.0
  Zn  Zn5  1  0.63994000  0.65023000  0.26290000  1.0
  Zn  Zn6  1  0.13994000  0.84977000  0.26290000  1.0
  Zn  Zn7  1  0.36006000  0.34977000  0.73710000  1.0
  Ge  Ge8  1  0.81884000  0.39248000  0.56543000  1.0
  Ge  Ge9  1  0.68116000  0.89248000  0.43457000  1.0
  Ge  Ge10  1  0.18116000  0.60752000  0.43457000  1.0
  Ge  Ge11  1  0.31884000  0.10752000  0.56543000  1.0
  Ge  Ge12  1  0.11804000  0.34141000  0.52917000  1.0
  Ge  Ge13  1  0.38196000  0.84141000  0.47083000  1.0
  Ge  Ge14  1  0.88196000  0.65859000  0.47083000  1.0
  Ge  Ge15  1  0.61804000  0.15859000  0.52917000  1.0
  Ge  Ge16  1  0.28979000  0.42416000  0.97298000  1.0
  Ge  Ge17  1  0.21021000  0.92417000  0.02702000  1.0
  Ge  Ge18  1  0.71021000  0.57583000  0.02702000  1.0
  Ge  Ge19  1  0.78979000  0.07583000  0.97298000  1.0
  Ge  Ge20  1  0.08386000  0.19505000  0.95535000  1.0
  Ge  Ge21  1  0.41614000  0.69505000  0.04465000  1.0
  Ge  Ge22  1  0.91614000  0.80495000  0.04465000  1.0
  Ge  Ge23  1  0.58386000  0.30495000  0.95535000  1.0
  H  H24  1  0.88448000  0.57630000  0.74595000  1.0
  H  H25  1  0.61551000  0.07631000  0.25405000  1.0
  H  H26  1  0.11551000  0.42370000  0.25405000  1.0
  H  H27  1  0.38449000  0.92370000  0.74595000  1.0
  H  H28  1  0.94112000  0.59092000  0.86453000  1.0
  H  H29  1  0.55888000  0.09092000  0.13547000  1.0
  H  H30  1  0.05888000  0.40908000  0.13547000  1.0
  H  H31  1  0.44112000  0.90908000  0.86453000  1.0
  H  H32  1  0.91114000  0.98185000  0.59994000  1.0
  H  H33  1  0.58886000  0.48185000  0.40005000  1.0
  H  H34  1  0.08886000  0.01815000  0.40005000  1.0
  H  H35  1  0.41114000  0.51815000  0.59994000  1.0
  H  H36  1  0.03553000  0.08762000  0.61956000  1.0
  H  H37  1  0.46447000  0.58762000  0.38044000  1.0
  H  H38  1  0.96447000  0.91238000  0.38044000  1.0
  H  H39  1  0.53553000  0.41238000  0.61956000  1.0
  H  H40  1  0.11205000  0.66322000  0.70763000  1.0
  H  H41  1  0.38794000  0.16322000  0.29237000  1.0
  H  H42  1  0.88794000  0.33679000  0.29237000  1.0
  H  H43  1  0.61205000  0.83678000  0.70763000  1.0
  H  H44  1  0.13369000  0.70947000  0.83557000  1.0
  H  H45  1  0.36631000  0.20947000  0.16443000  1.0
  H  H46  1  0.86631000  0.29054000  0.16443000  1.0
  H  H47  1  0.63369000  0.79053000  0.83557000  1.0
  H  H48  1  0.89375000  0.78845000  0.67960000  1.0
  H  H49  1  0.60625000  0.28845000  0.32040000  1.0
  H  H50  1  0.10625000  0.21155000  0.32040000  1.0
  H  H51  1  0.39375000  0.71155000  0.67960000  1.0
  H  H52  1  0.91618000  0.84432000  0.80498000  1.0
  H  H53  1  0.58382000  0.34432000  0.19502000  1.0
  H  H54  1  0.08382000  0.15568000  0.19502000  1.0
  H  H55  1  0.41618000  0.65568000  0.80498000  1.0
  H  H56  1  0.13145000  0.88596000  0.66201000  1.0
  H  H57  1  0.36855000  0.38596000  0.33799000  1.0
  H  H58  1  0.86855000  0.11404000  0.33799000  1.0
  H  H59  1  0.63145000  0.61404000  0.66201000  1.0
  H  H60  1  0.11902000  0.97141000  0.77597000  1.0
  H  H61  1  0.38097000  0.47141000  0.22403000  1.0
  H  H62  1  0.88098000  0.02859000  0.22403000  1.0
  H  H63  1  0.61902000  0.52859000  0.77597000  1.0
  C  C64  1  0.05733000  0.69150000  0.77072000  1.0
  C  C65  1  0.44267000  0.19150000  0.22928000  1.0
  C  C66  1  0.94267000  0.30850000  0.22928000  1.0
  C  C67  1  0.55733000  0.80850000  0.77072000  1.0
  C  C68  1  0.97126000  0.81341000  0.74282000  1.0
  C  C69  1  0.52873000  0.31341000  0.25718000  1.0
  C  C70  1  0.02874000  0.18659000  0.25718000  1.0
  C  C71  1  0.47126000  0.68659000  0.74282000  1.0
  C  C72  1  0.05936000  0.92501000  0.71104000  1.0
  C  C73  1  0.44063000  0.42501000  0.28896000  1.0
  C  C74  1  0.94064000  0.07499000  0.28896000  1.0
  C  C75  1  0.55936000  0.57499000  0.71104000  1.0
  N  N76  1  0.97264000  0.57789000  0.79505000  1.0
  N  N77  1  0.52736000  0.07790000  0.20495000  1.0
  N  N78  1  0.02736000  0.42211000  0.20495000  1.0
  N  N79  1  0.47264000  0.92211000  0.79505000  1.0
  N  N80  1  0.97333000  0.02819000  0.65596000  1.0
  N  N81  1  0.52667000  0.52819000  0.34404000  1.0
  N  N82  1  0.02667000  0.97181000  0.34404000  1.0
  N  N83  1  0.47333000  0.47181000  0.65596000  1.0
  O  O84  1  0.86279000  0.33986000  0.68668000  1.0
  O  O85  1  0.63721000  0.83986000  0.31332000  1.0
  O  O86  1  0.13721000  0.66014000  0.31332000  1.0
  O  O87  1  0.36279000  0.16014000  0.68668000  1.0
  O  O88  1  0.65794000  0.32853000  0.50996000  1.0
  O  O89  1  0.84206000  0.82853000  0.49004000  1.0
  O  O90  1  0.34206000  0.67147000  0.49004000  1.0
  O  O91  1  0.15794000  0.17147000  0.50996000  1.0
  O  O92  1  0.79640000  0.56692000  0.55825000  1.0
  O  O93  1  0.70360000  0.06692000  0.44175000  1.0
  O  O94  1  0.20360000  0.43308000  0.44175000  1.0
  O  O95  1  0.29640000  0.93308000  0.55825000  1.0
  O  O96  1  0.94081000  0.34832000  0.48328000  1.0
  O  O97  1  0.55919000  0.84832000  0.51672000  1.0
  O  O98  1  0.05919000  0.65168000  0.51672000  1.0
  O  O99  1  0.44082000  0.15168000  0.48328000  1.0
  O  O100  1  0.16547000  0.39091000  0.65124000  1.0
  O  O101  1  0.33453000  0.89091000  0.34876000  1.0
  O  O102  1  0.83453000  0.60909000  0.34876000  1.0
  O  O103  1  0.66547000  0.10909000  0.65124000  1.0
  O  O104  1  0.25907000  0.42706000  0.84337000  1.0
  O  O105  1  0.24094000  0.92706000  0.15663000  1.0
  O  O106  1  0.74094000  0.57294000  0.15663000  1.0
  O  O107  1  0.75906000  0.07294000  0.84337000  1.0
  O  O108  1  0.27953000  0.57870000  0.03218000  1.0
  O  O109  1  0.22047000  0.07870000  0.96782000  1.0
  O  O110  1  0.72047000  0.42130000  0.96782000  1.0
  O  O111  1  0.77953000  0.92130000  0.03218000  1.0
  O  O112  1  0.45057000  0.35650000  0.02454000  1.0
  O  O113  1  0.04943000  0.85650000  0.97546000  1.0
  O  O114  1  0.54943000  0.64349000  0.97546000  1.0
  O  O115  1  0.95057000  0.14349000  0.02454000  1.0
  O  O116  1  0.15396000  0.33704000  0.02169000  1.0
  O  O117  1  0.34604000  0.83703000  0.97831000  1.0
  O  O118  1  0.84604000  0.66296000  0.97831000  1.0
  O  O119  1  0.65396000  0.16296000  0.02169000  1.0
  O  O120  1  0.02768000  0.22560000  0.83081000  1.0
  O  O121  1  0.47233000  0.72560000  0.16919000  1.0
  O  O122  1  0.97233000  0.77440000  0.16919000  1.0
  O  O123  1  0.52768000  0.27440000  0.83081000  1.0
