# generated using pymatgen
data_MnH14C20N2O5
_symmetry_space_group_name_H-M   'P 1'
_cell_length_a   7.66574000
_cell_length_b   10.33590000
_cell_length_c   10.34960000
_cell_angle_alpha   85.82760000
_cell_angle_beta   88.29000000
_cell_angle_gamma   88.52110000
_symmetry_Int_Tables_number   1
_chemical_formula_structural   MnH14C20N2O5
_chemical_formula_sum   'Mn2 H28 C40 N4 O10'
_cell_volume   817.25543753
_cell_formula_units_Z   2
loop_
 _symmetry_equiv_pos_site_id
 _symmetry_equiv_pos_as_xyz
  1  'x, y, z'
loop_
 _atom_site_type_symbol
 _atom_site_label
 _atom_site_symmetry_multiplicity
 _atom_site_fract_x
 _atom_site_fract_y
 _atom_site_fract_z
 _atom_site_occupancy
  Mn  Mn0  1  0.50000000  0.00000000  0.00000000  1.0
  Mn  Mn1  1  0.00000000  0.00000000  0.00000000  1.0
  H  H2  1  0.75324000  0.92447000  0.18674000  1.0
  H  H3  1  0.74685000  0.81459000  0.07886000  1.0
  H  H4  1  0.24676000  0.07554000  0.81326000  1.0
  H  H5  1  0.25315000  0.18541000  0.92114000  1.0
  H  H6  1  0.11532000  0.56769000  0.13454000  1.0
  H  H7  1  0.38316000  0.86396000  0.42826000  1.0
  H  H8  1  0.88467000  0.43231000  0.86546000  1.0
  H  H9  1  0.61683000  0.13604000  0.57174000  1.0
  H  H10  1  0.11683000  0.32928000  0.10414000  1.0
  H  H11  1  0.38261000  0.89104000  0.66700000  1.0
  H  H12  1  0.88316000  0.67073000  0.89586000  1.0
  H  H13  1  0.61739000  0.10896000  0.33300000  1.0
  H  H14  1  0.44105000  0.25769000  0.74045000  1.0
  H  H15  1  0.06243000  0.25509000  0.74457000  1.0
  H  H16  1  0.55894000  0.74231000  0.25955000  1.0
  H  H17  1  0.93757000  0.74492000  0.25542000  1.0
  H  H18  1  0.60919000  0.39191000  0.57369000  1.0
  H  H19  1  0.89497000  0.42332000  0.61349000  1.0
  H  H20  1  0.39080000  0.60809000  0.42631000  1.0
  H  H21  1  0.10504000  0.57668000  0.38650000  1.0
  H  H22  1  0.63941000  0.62890000  0.59505000  1.0
  H  H23  1  0.86518000  0.40579000  0.37602000  1.0
  H  H24  1  0.36059000  0.37110000  0.40495000  1.0
  H  H25  1  0.13483000  0.59421000  0.62397000  1.0
  H  H26  1  0.49341000  0.73332000  0.77928000  1.0
  H  H27  1  0.01013000  0.22302000  0.26864000  1.0
  H  H28  1  0.50660000  0.26668000  0.22072000  1.0
  H  H29  1  0.98988000  0.77698000  0.73135000  1.0
  C  C30  1  0.27000000  0.75621000  0.98291000  1.0
  C  C31  1  0.23172000  0.01971000  0.24241000  1.0
  C  C32  1  0.73000000  0.24379000  0.01710000  1.0
  C  C33  1  0.76828000  0.98029000  0.75759000  1.0
  C  C34  1  0.27865000  0.61212000  0.96613000  1.0
  C  C35  1  0.22215000  0.03377000  0.38675000  1.0
  C  C36  1  0.72135000  0.38788000  0.03387000  1.0
  C  C37  1  0.77785000  0.96623000  0.61325000  1.0
  C  C38  1  0.18912000  0.52921000  0.05382000  1.0
  C  C39  1  0.31063000  0.94448000  0.46815000  1.0
  C  C40  1  0.81088000  0.47079000  0.94618000  1.0
  C  C41  1  0.68937000  0.05552000  0.53185000  1.0
  C  C42  1  0.18887000  0.39538000  0.03655000  1.0
  C  C43  1  0.31115000  0.95983000  0.60216000  1.0
  C  C44  1  0.81112000  0.60462000  0.96345000  1.0
  C  C45  1  0.68884000  0.04017000  0.39783000  1.0
  C  C46  1  0.36125000  0.42065000  0.84968000  1.0
  C  C47  1  0.14067000  0.14752000  0.57997000  1.0
  C  C48  1  0.63874000  0.57935000  0.15032000  1.0
  C  C49  1  0.85933000  0.85248000  0.42002000  1.0
  C  C50  1  0.44884000  0.36236000  0.74539000  1.0
  C  C51  1  0.05430000  0.25126000  0.63997000  1.0
  C  C52  1  0.55115000  0.63763000  0.25461000  1.0
  C  C53  1  0.94571000  0.74874000  0.36003000  1.0
  C  C54  1  0.54407000  0.43704000  0.65447000  1.0
  C  C55  1  0.95974000  0.34335000  0.56688000  1.0
  C  C56  1  0.45593000  0.56296000  0.34553000  1.0
  C  C57  1  0.04027000  0.65665000  0.43312000  1.0
  C  C58  1  0.55942000  0.57175000  0.66581000  1.0
  C  C59  1  0.94435000  0.33401000  0.43208000  1.0
  C  C60  1  0.44058000  0.42824000  0.33419000  1.0
  C  C61  1  0.05566000  0.66599000  0.56792000  1.0
  C  C62  1  0.47688000  0.63078000  0.76699000  1.0
  C  C63  1  0.02614000  0.23361000  0.37134000  1.0
  C  C64  1  0.52312000  0.36922000  0.23301000  1.0
  C  C65  1  0.97387000  0.76639000  0.62866000  1.0
  C  C66  1  0.37343000  0.55783000  0.86095000  1.0
  C  C67  1  0.12846000  0.13832000  0.44274000  1.0
  C  C68  1  0.62657000  0.44217000  0.13905000  1.0
  C  C69  1  0.87155000  0.86168000  0.55726000  1.0
  N  N70  1  0.26776000  0.34272000  0.93716000  1.0
  N  N71  1  0.23326000  0.05866000  0.65645000  1.0
  N  N72  1  0.73223000  0.65728000  0.06284000  1.0
  N  N73  1  0.76674000  0.94134000  0.34355000  1.0
  O  O74  1  0.12193000  0.80372000  0.01424000  1.0
  O  O75  1  0.38003000  0.98835000  0.19525000  1.0
  O  O76  1  0.87807000  0.19628000  0.98578000  1.0
  O  O77  1  0.61997000  0.01165000  0.80475000  1.0
  O  O78  1  0.41184000  0.81632000  0.96367000  1.0
  O  O79  1  0.09121000  0.04129000  0.18168000  1.0
  O  O80  1  0.58817000  0.18368000  0.03633000  1.0
  O  O81  1  0.90879000  0.95871000  0.81832000  1.0
  O  O82  1  0.75067000  0.91297000  0.08876000  1.0
  O  O83  1  0.24933000  0.08703000  0.91123000  1.0
