# generated using pymatgen
data_CuH14C15(N3O)2
_symmetry_space_group_name_H-M   'P 1'
_cell_length_a   8.90787000
_cell_length_b   9.89657000
_cell_length_c   11.32350000
_cell_angle_alpha   74.30420000
_cell_angle_beta   72.24100000
_cell_angle_gamma   66.53240000
_symmetry_Int_Tables_number   1
_chemical_formula_structural   CuH14C15(N3O)2
_chemical_formula_sum   'Cu2 H28 C30 N12 O4'
_cell_volume   859.25651730
_cell_formula_units_Z   2
loop_
 _symmetry_equiv_pos_site_id
 _symmetry_equiv_pos_as_xyz
  1  'x, y, z'
loop_
 _atom_site_type_symbol
 _atom_site_label
 _atom_site_symmetry_multiplicity
 _atom_site_fract_x
 _atom_site_fract_y
 _atom_site_fract_z
 _atom_site_occupancy
  Cu  Cu0  1  0.00000000  0.00000000  0.00000000  1.0
  Cu  Cu1  1  0.00000000  0.00000000  0.50000000  1.0
  H  H2  1  0.66271000  0.97944000  0.10150000  1.0
  H  H3  1  0.33729000  0.02055000  0.89850000  1.0
  H  H4  1  0.37152000  0.15039000  0.18759000  1.0
  H  H5  1  0.62848000  0.84961000  0.81241000  1.0
  H  H6  1  0.58160000  0.49791000  0.10959000  1.0
  H  H7  1  0.41840000  0.50209000  0.89041000  1.0
  H  H8  1  0.86282000  0.31273000  0.03195000  1.0
  H  H9  1  0.13718000  0.68727000  0.96805000  1.0
  H  H10  1  0.19534000  0.43864000  0.15291000  1.0
  H  H11  1  0.80466000  0.56136000  0.84709000  1.0
  H  H12  1  0.28039000  0.55917000  0.17895000  1.0
  H  H13  1  0.71961000  0.44083000  0.82105000  1.0
  H  H14  1  0.07070000  0.47796000  0.36051000  1.0
  H  H15  1  0.92930000  0.52205000  0.63949000  1.0
  H  H16  1  0.21067000  0.29276000  0.37213000  1.0
  H  H17  1  0.78933000  0.70724000  0.62787000  1.0
  H  H18  1  0.28073000  0.56284000  0.39859000  1.0
  H  H19  1  0.71927000  0.43716000  0.60141000  1.0
  H  H20  1  0.19402000  0.44601000  0.52537000  1.0
  H  H21  1  0.80598000  0.55399000  0.47462000  1.0
  H  H22  1  0.36682000  0.16158000  0.56202000  1.0
  H  H23  1  0.63318000  0.83842000  0.43798000  1.0
  H  H24  1  0.65679000  0.99062000  0.58700000  1.0
  H  H25  1  0.34322000  0.00938000  0.41300000  1.0
  H  H26  1  0.86600000  0.30865000  0.37103000  1.0
  H  H27  1  0.13400000  0.69136000  0.62896000  1.0
  H  H28  1  0.58507000  0.49475000  0.34108000  1.0
  H  H29  1  0.41493000  0.50525000  0.65891000  1.0
  C  C30  1  0.89448000  0.91465000  0.79650000  1.0
  C  C31  1  0.10553000  0.08536000  0.20350000  1.0
  C  C32  1  0.96024000  0.04213000  0.75028000  1.0
  C  C33  1  0.03976000  0.95787000  0.24972000  1.0
  C  C34  1  0.63758000  0.09495000  0.10733000  1.0
  C  C35  1  0.36242000  0.90505000  0.89268000  1.0
  C  C36  1  0.47812000  0.18969000  0.15426000  1.0
  C  C37  1  0.52188000  0.81031000  0.84574000  1.0
  C  C38  1  0.45285000  0.33831000  0.15677000  1.0
  C  C39  1  0.54714000  0.66169000  0.84323000  1.0
  C  C40  1  0.59332000  0.38356000  0.11122000  1.0
  C  C41  1  0.40668000  0.61644000  0.88878000  1.0
  C  C42  1  0.74983000  0.28276000  0.06640000  1.0
  C  C43  1  0.25017000  0.71724000  0.93360000  1.0
  C  C44  1  0.28018000  0.44385000  0.20351000  1.0
  C  C45  1  0.71981000  0.55615000  0.79649000  1.0
  C  C46  1  0.20469000  0.40961000  0.34492000  1.0
  C  C47  1  0.79531000  0.59040000  0.65509000  1.0
  C  C48  1  0.27956000  0.44803000  0.43184000  1.0
  C  C49  1  0.72045000  0.55197000  0.56816000  1.0
  C  C50  1  0.45150000  0.34268000  0.44716000  1.0
  C  C51  1  0.54850000  0.65733000  0.55284000  1.0
  C  C52  1  0.47436000  0.19825000  0.51745000  1.0
  C  C53  1  0.52564000  0.80175000  0.48255000  1.0
  C  C54  1  0.63389000  0.10280000  0.53182000  1.0
  C  C55  1  0.36611000  0.89720000  0.46819000  1.0
  C  C56  1  0.75116000  0.28220000  0.41219000  1.0
  C  C57  1  0.24884000  0.71780000  0.58780000  1.0
  C  C58  1  0.59470000  0.38342000  0.39510000  1.0
  C  C59  1  0.40530000  0.61658000  0.60490000  1.0
  N  N60  1  0.99848000  0.10629000  0.82161000  1.0
  N  N61  1  0.00152000  0.89371000  0.17839000  1.0
  N  N62  1  0.06258000  0.20960000  0.74387000  1.0
  N  N63  1  0.93742000  0.79041000  0.25613000  1.0
  N  N64  1  0.06314000  0.20842000  0.62714000  1.0
  N  N65  1  0.93686000  0.79159000  0.37287000  1.0
  N  N66  1  0.99969000  0.10431000  0.62976000  1.0
  N  N67  1  0.00031000  0.89570000  0.37024000  1.0
  N  N68  1  0.77100000  0.14106000  0.06428000  1.0
  N  N69  1  0.22900000  0.85894000  0.93572000  1.0
  N  N70  1  0.77013000  0.14408000  0.47959000  1.0
  N  N71  1  0.22987000  0.85592000  0.52041000  1.0
  O  O72  1  0.87121000  0.86662000  0.91350000  1.0
  O  O73  1  0.12880000  0.13338000  0.08650000  1.0
  O  O74  1  0.87183000  0.86839000  0.71111000  1.0
  O  O75  1  0.12817000  0.13161000  0.28889000  1.0
