# generated using pymatgen
data_CaH12(C3O5)2
_symmetry_space_group_name_H-M   'P 1'
_cell_length_a   6.71867000
_cell_length_b   11.43020000
_cell_length_c   14.80270000
_cell_angle_alpha   90.00030000
_cell_angle_beta   89.99990000
_cell_angle_gamma   89.99990000
_symmetry_Int_Tables_number   1
_chemical_formula_structural   CaH12(C3O5)2
_chemical_formula_sum   'Ca4 H48 C24 O40'
_cell_volume   1136.78432763
_cell_formula_units_Z   4
loop_
 _symmetry_equiv_pos_site_id
 _symmetry_equiv_pos_as_xyz
  1  'x, y, z'
loop_
 _atom_site_type_symbol
 _atom_site_label
 _atom_site_symmetry_multiplicity
 _atom_site_fract_x
 _atom_site_fract_y
 _atom_site_fract_z
 _atom_site_occupancy
  Ca  Ca0  1  0.99874000  0.99999000  0.75000000  1.0
  Ca  Ca1  1  0.50126000  0.50000000  0.25000000  1.0
  Ca  Ca2  1  0.00128000  0.00000000  0.25000000  1.0
  Ca  Ca3  1  0.49873000  0.50001000  0.75000000  1.0
  H  H4  1  0.65161000  0.99632000  0.51079000  1.0
  H  H5  1  0.65161000  0.00368000  0.98921000  1.0
  H  H6  1  0.84838000  0.49633000  0.48921000  1.0
  H  H7  1  0.84841000  0.50368000  0.01080000  1.0
  H  H8  1  0.34840000  0.00366000  0.48921000  1.0
  H  H9  1  0.34840000  0.99633000  0.01079000  1.0
  H  H10  1  0.15159000  0.50368000  0.51079000  1.0
  H  H11  1  0.15162000  0.49633000  0.98921000  1.0
  H  H12  1  0.94171000  0.12814000  0.48594000  1.0
  H  H13  1  0.94172000  0.87186000  0.01406000  1.0
  H  H14  1  0.55826000  0.62815000  0.51406000  1.0
  H  H15  1  0.55830000  0.37186000  0.98594000  1.0
  H  H16  1  0.05828000  0.87185000  0.51405000  1.0
  H  H17  1  0.05829000  0.12814000  0.98594000  1.0
  H  H18  1  0.44170000  0.37185000  0.48594000  1.0
  H  H19  1  0.44172000  0.62815000  0.01406000  1.0
  H  H20  1  0.66168000  0.91404000  0.66555000  1.0
  H  H21  1  0.66169000  0.08596000  0.83445000  1.0
  H  H22  1  0.83831000  0.41405000  0.33445000  1.0
  H  H23  1  0.83832000  0.58596000  0.16556000  1.0
  H  H24  1  0.33834000  0.08595000  0.33446000  1.0
  H  H25  1  0.33834000  0.91405000  0.16554000  1.0
  H  H26  1  0.16168000  0.58595000  0.66556000  1.0
  H  H27  1  0.16170000  0.41404000  0.83445000  1.0
  H  H28  1  0.11322000  0.16318000  0.59693000  1.0
  H  H29  1  0.11321000  0.83681000  0.90307000  1.0
  H  H30  1  0.38677000  0.66318000  0.40307000  1.0
  H  H31  1  0.38678000  0.33683000  0.09693000  1.0
  H  H32  1  0.88677000  0.83682000  0.40307000  1.0
  H  H33  1  0.88680000  0.16319000  0.09693000  1.0
  H  H34  1  0.61322000  0.33683000  0.59693000  1.0
  H  H35  1  0.61322000  0.66318000  0.90307000  1.0
  H  H36  1  0.21436000  0.76583000  0.74796000  1.0
  H  H37  1  0.21432000  0.23417000  0.75204000  1.0
  H  H38  1  0.28565000  0.26584000  0.25204000  1.0
  H  H39  1  0.28564000  0.73417000  0.24796000  1.0
  H  H40  1  0.78565000  0.23417000  0.25204000  1.0
  H  H41  1  0.78563000  0.76582000  0.24797000  1.0
  H  H42  1  0.71437000  0.73418000  0.74796000  1.0
  H  H43  1  0.71434000  0.26583000  0.75203000  1.0
  H  H44  1  0.24218000  0.81544000  0.64946000  1.0
  H  H45  1  0.24216000  0.18455000  0.85053000  1.0
  H  H46  1  0.25782000  0.31546000  0.35053000  1.0
  H  H47  1  0.25783000  0.68455000  0.14946000  1.0
  H  H48  1  0.75785000  0.18455000  0.35054000  1.0
  H  H49  1  0.75783000  0.81545000  0.14946000  1.0
  H  H50  1  0.74216000  0.68455000  0.64946000  1.0
  H  H51  1  0.74217000  0.31546000  0.85053000  1.0
  C  C52  1  0.68115000  0.13008000  0.61501000  1.0
  C  C53  1  0.68115000  0.86991000  0.88500000  1.0
  C  C54  1  0.81882000  0.63009000  0.38500000  1.0
  C  C55  1  0.81883000  0.36993000  0.11502000  1.0
  C  C56  1  0.31885000  0.86991000  0.38500000  1.0
  C  C57  1  0.31886000  0.13009000  0.11500000  1.0
  C  C58  1  0.18114000  0.36993000  0.61501000  1.0
  C  C59  1  0.18117000  0.63006000  0.88498000  1.0
  C  C60  1  0.75188000  0.01942000  0.56661000  1.0
  C  C61  1  0.75188000  0.98056000  0.93339000  1.0
  C  C62  1  0.74809000  0.51943000  0.43339000  1.0
  C  C63  1  0.74813000  0.48058000  0.06661000  1.0
  C  C64  1  0.24813000  0.98056000  0.43339000  1.0
  C  C65  1  0.24813000  0.01943000  0.06661000  1.0
  C  C66  1  0.25187000  0.48057000  0.56661000  1.0
  C  C67  1  0.25189000  0.51943000  0.93339000  1.0
  C  C68  1  0.95793000  0.04969000  0.52839000  1.0
  C  C69  1  0.95794000  0.95030000  0.97161000  1.0
  C  C70  1  0.54209000  0.54971000  0.47158000  1.0
  C  C71  1  0.54210000  0.45030000  0.02841000  1.0
  C  C72  1  0.04206000  0.95030000  0.47161000  1.0
  C  C73  1  0.04208000  0.04970000  0.02840000  1.0
  C  C74  1  0.45788000  0.45029000  0.52842000  1.0
  C  C75  1  0.45792000  0.54971000  0.97159000  1.0
  O  O76  1  0.72110000  0.13717000  0.69953000  1.0
  O  O77  1  0.72110000  0.86282000  0.80048000  1.0
  O  O78  1  0.77888000  0.63718000  0.30048000  1.0
  O  O79  1  0.77890000  0.36282000  0.19952000  1.0
  O  O80  1  0.27891000  0.86283000  0.30047000  1.0
  O  O81  1  0.27891000  0.13717000  0.19952000  1.0
  O  O82  1  0.22106000  0.36283000  0.69952000  1.0
  O  O83  1  0.22109000  0.63716000  0.80048000  1.0
  O  O84  1  0.77891000  0.92225000  0.62681000  1.0
  O  O85  1  0.77893000  0.07775000  0.87319000  1.0
  O  O86  1  0.72108000  0.42226000  0.37320000  1.0
  O  O87  1  0.72109000  0.57775000  0.12681000  1.0
  O  O88  1  0.22109000  0.07775000  0.37320000  1.0
  O  O89  1  0.22110000  0.92226000  0.12680000  1.0
  O  O90  1  0.27890000  0.57775000  0.62681000  1.0
  O  O91  1  0.27893000  0.42225000  0.87320000  1.0
  O  O92  1  0.09255000  0.07454000  0.60087000  1.0
  O  O93  1  0.09256000  0.92545000  0.89913000  1.0
  O  O94  1  0.40743000  0.57453000  0.39913000  1.0
  O  O95  1  0.40745000  0.42547000  0.10087000  1.0
  O  O96  1  0.90745000  0.92546000  0.39912000  1.0
  O  O97  1  0.90746000  0.07454000  0.10087000  1.0
  O  O98  1  0.59254000  0.42546000  0.60087000  1.0
  O  O99  1  0.59256000  0.57455000  0.89912000  1.0
  O  O100  1  0.60451000  0.20780000  0.56614000  1.0
  O  O101  1  0.60452000  0.79220000  0.93386000  1.0
  O  O102  1  0.89547000  0.70781000  0.43386000  1.0
  O  O103  1  0.89552000  0.29219000  0.06613000  1.0
  O  O104  1  0.39546000  0.79219000  0.43386000  1.0
  O  O105  1  0.39550000  0.20781000  0.06614000  1.0
  O  O106  1  0.10450000  0.29219000  0.56613000  1.0
  O  O107  1  0.10450000  0.70781000  0.93386000  1.0
  O  O108  1  0.21163000  0.83983000  0.71087000  1.0
  O  O109  1  0.21160000  0.16017000  0.78912000  1.0
  O  O110  1  0.28839000  0.33983000  0.28912000  1.0
  O  O111  1  0.28838000  0.66018000  0.21088000  1.0
  O  O112  1  0.78840000  0.16017000  0.28912000  1.0
  O  O113  1  0.78840000  0.83984000  0.21088000  1.0
  O  O114  1  0.71162000  0.66017000  0.71087000  1.0
  O  O115  1  0.71159000  0.33983000  0.78912000  1.0
