# generated using pymatgen
data_CuNiH8C12(N2O)4
_symmetry_space_group_name_H-M   'P 1'
_cell_length_a   9.19252000
_cell_length_b   9.19253000
_cell_length_c   10.45660000
_cell_angle_alpha   100.52900000
_cell_angle_beta   100.52900000
_cell_angle_gamma   92.26660000
_symmetry_Int_Tables_number   1
_chemical_formula_structural   CuNiH8C12(N2O)4
_chemical_formula_sum   'Cu2 Ni2 H16 C24 N16 O8'
_cell_volume   851.66882906
_cell_formula_units_Z   2
loop_
 _symmetry_equiv_pos_site_id
 _symmetry_equiv_pos_as_xyz
  1  'x, y, z'
loop_
 _atom_site_type_symbol
 _atom_site_label
 _atom_site_symmetry_multiplicity
 _atom_site_fract_x
 _atom_site_fract_y
 _atom_site_fract_z
 _atom_site_occupancy
  Cu  Cu0  1  0.00000000  0.00000000  0.00000000  1.0
  Cu  Cu1  1  0.99999000  0.00000000  0.50000000  1.0
  Ni  Ni2  1  0.85122000  0.14878000  0.75000000  1.0
  Ni  Ni3  1  0.14878000  0.85122000  0.25000000  1.0
  H  H4  1  0.40894000  0.93615000  0.89780000  1.0
  H  H5  1  0.06384000  0.59106000  0.60219000  1.0
  H  H6  1  0.59106000  0.06384000  0.10219000  1.0
  H  H7  1  0.93616000  0.40894000  0.39781000  1.0
  H  H8  1  0.67059000  0.96999000  0.86769000  1.0
  H  H9  1  0.03001000  0.32941000  0.63231000  1.0
  H  H10  1  0.32941000  0.03000000  0.13231000  1.0
  H  H11  1  0.97000000  0.67059000  0.36769000  1.0
  H  H12  1  0.56235000  0.28564000  0.63562000  1.0
  H  H13  1  0.71435000  0.43764000  0.86437000  1.0
  H  H14  1  0.43765000  0.71436000  0.36438000  1.0
  H  H15  1  0.28565000  0.56236000  0.13564000  1.0
  H  H16  1  0.29807000  0.26958000  0.66289000  1.0
  H  H17  1  0.73041000  0.70192000  0.83710000  1.0
  H  H18  1  0.70193000  0.73041000  0.33711000  1.0
  H  H19  1  0.26960000  0.29808000  0.16290000  1.0
  C  C20  1  0.44002000  0.01712000  0.84182000  1.0
  C  C21  1  0.98288000  0.55998000  0.65818000  1.0
  C  C22  1  0.55998000  0.98288000  0.15818000  1.0
  C  C23  1  0.01712000  0.44002000  0.34183000  1.0
  C  C24  1  0.58482000  0.03373000  0.82348000  1.0
  C  C25  1  0.96627000  0.41518000  0.67651000  1.0
  C  C26  1  0.41518000  0.96626000  0.17652000  1.0
  C  C27  1  0.03374000  0.58482000  0.32349000  1.0
  C  C28  1  0.52505000  0.21109000  0.69507000  1.0
  C  C29  1  0.78891000  0.47495000  0.80492000  1.0
  C  C30  1  0.47495000  0.78891000  0.30493000  1.0
  C  C31  1  0.21110000  0.52505000  0.19508000  1.0
  C  C32  1  0.33473000  0.10569000  0.78808000  1.0
  C  C33  1  0.89431000  0.66527000  0.71192000  1.0
  C  C34  1  0.66527000  0.89431000  0.21192000  1.0
  C  C35  1  0.10569000  0.33473000  0.28808000  1.0
  C  C36  1  0.18096000  0.09679000  0.81764000  1.0
  C  C37  1  0.90320000  0.81904000  0.68236000  1.0
  C  C38  1  0.81904000  0.90321000  0.18236000  1.0
  C  C39  1  0.09680000  0.18097000  0.31764000  1.0
  C  C40  1  0.37775000  0.20184000  0.71015000  1.0
  C  C41  1  0.79816000  0.62225000  0.78984000  1.0
  C  C42  1  0.62226000  0.79816000  0.28984000  1.0
  C  C43  1  0.20185000  0.37775000  0.21017000  1.0
  N  N44  1  0.62840000  0.13093000  0.75312000  1.0
  N  N45  1  0.86907000  0.37159000  0.74687000  1.0
  N  N46  1  0.37160000  0.86907000  0.24688000  1.0
  N  N47  1  0.13093000  0.62841000  0.25313000  1.0
  N  N48  1  0.91090000  0.18585000  0.95794000  1.0
  N  N49  1  0.81414000  0.08910000  0.54205000  1.0
  N  N50  1  0.08910000  0.81415000  0.04206000  1.0
  N  N51  1  0.18585000  0.91090000  0.45795000  1.0
  N  N52  1  0.82641000  0.24844000  0.02278000  1.0
  N  N53  1  0.75155000  0.17360000  0.47721000  1.0
  N  N54  1  0.17359000  0.75156000  0.97722000  1.0
  N  N55  1  0.24844000  0.82641000  0.52279000  1.0
  N  N56  1  0.74565000  0.31166000  0.08267000  1.0
  N  N57  1  0.68834000  0.25435000  0.41732000  1.0
  N  N58  1  0.25433000  0.68834000  0.91733000  1.0
  N  N59  1  0.31166000  0.74566000  0.58268000  1.0
  O  O60  1  0.17111000  0.04224000  0.91976000  1.0
  O  O61  1  0.95774000  0.82889000  0.58023000  1.0
  O  O62  1  0.82889000  0.95776000  0.08024000  1.0
  O  O63  1  0.04224000  0.17111000  0.41976000  1.0
  O  O64  1  0.07781000  0.14254000  0.74025000  1.0
  O  O65  1  0.85746000  0.92219000  0.75975000  1.0
  O  O66  1  0.92219000  0.85745000  0.25975000  1.0
  O  O67  1  0.14254000  0.07781000  0.24025000  1.0
