# generated using pymatgen
data_CoH22C22N3ClO2
_symmetry_space_group_name_H-M   'P 1'
_cell_length_a   9.33901000
_cell_length_b   10.71720000
_cell_length_c   11.36100000
_cell_angle_alpha   109.62400000
_cell_angle_beta   102.44200000
_cell_angle_gamma   98.50260000
_symmetry_Int_Tables_number   1
_chemical_formula_structural   CoH22C22N3ClO2
_chemical_formula_sum   'Co2 H44 C44 N6 Cl2 O4'
_cell_volume   1015.48219587
_cell_formula_units_Z   2
loop_
 _symmetry_equiv_pos_site_id
 _symmetry_equiv_pos_as_xyz
  1  'x, y, z'
loop_
 _atom_site_type_symbol
 _atom_site_label
 _atom_site_symmetry_multiplicity
 _atom_site_fract_x
 _atom_site_fract_y
 _atom_site_fract_z
 _atom_site_occupancy
  Co  Co0  1  0.06577000  0.36462000  0.90542000  1.0
  Co  Co1  1  0.93423000  0.63538000  0.09458000  1.0
  H  H2  1  0.17645000  0.57249000  0.66541000  1.0
  H  H3  1  0.82355000  0.42751000  0.33459000  1.0
  H  H4  1  0.07628000  0.24088000  0.62612000  1.0
  H  H5  1  0.92372000  0.75912000  0.37388000  1.0
  H  H6  1  0.21122000  0.78761000  0.47002000  1.0
  H  H7  1  0.78878000  0.21239000  0.52998000  1.0
  H  H8  1  0.62320000  0.23533000  0.07897000  1.0
  H  H9  1  0.37680000  0.76467000  0.92102000  1.0
  H  H10  1  0.66924000  0.18869000  0.92959000  1.0
  H  H11  1  0.33076000  0.81131000  0.07041000  1.0
  H  H12  1  0.97888000  0.85113000  0.91476000  1.0
  H  H13  1  0.02111000  0.14887000  0.08524000  1.0
  H  H14  1  0.54472000  0.06104000  0.69354000  1.0
  H  H15  1  0.45528000  0.93896000  0.30646000  1.0
  H  H16  1  0.02242000  0.01339000  0.80199000  1.0
  H  H17  1  0.97758000  0.98661000  0.19801000  1.0
  H  H18  1  0.44183000  0.27479000  0.16626000  1.0
  H  H19  1  0.55817000  0.72521000  0.83374000  1.0
  H  H20  1  0.27514000  0.33351000  0.14080000  1.0
  H  H21  1  0.72486000  0.66648000  0.85920000  1.0
  H  H22  1  0.19639000  0.57867000  0.34096000  1.0
  H  H23  1  0.80362000  0.42133000  0.65904000  1.0
  H  H24  1  0.12447000  0.51291000  0.44526000  1.0
  H  H25  1  0.87553000  0.48709000  0.55474000  1.0
  H  H26  1  0.25477000  0.32827000  0.39016000  1.0
  H  H27  1  0.74523000  0.67173000  0.60984000  1.0
  H  H28  1  0.13201000  0.95000000  0.61766000  1.0
  H  H29  1  0.86798000  0.05000000  0.38234000  1.0
  H  H30  1  0.50676000  0.95106000  0.85807000  1.0
  H  H31  1  0.49325000  0.04894000  0.14194000  1.0
  H  H32  1  0.66388000  0.99838000  0.99683000  1.0
  H  H33  1  0.33613000  0.00162000  0.00317000  1.0
  H  H34  1  0.39040000  0.02509000  0.46922000  1.0
  H  H35  1  0.60960000  0.97492000  0.53078000  1.0
  H  H36  1  0.16396000  0.11435000  0.43713000  1.0
  H  H37  1  0.83604000  0.88565000  0.56287000  1.0
  H  H38  1  0.50575000  0.74687000  0.56913000  1.0
  H  H39  1  0.49426000  0.25313000  0.43087000  1.0
  H  H40  1  0.49989000  0.52775000  0.27962000  1.0
  H  H41  1  0.50011000  0.47225000  0.72038000  1.0
  H  H42  1  0.41923000  0.54497000  0.13088000  1.0
  H  H43  1  0.58077000  0.45503000  0.86912000  1.0
  H  H44  1  0.58872000  0.48708000  0.15258000  1.0
  H  H45  1  0.41128000  0.51292000  0.84742000  1.0
  C  C46  1  0.14201000  0.66863000  0.69272000  1.0
  C  C47  1  0.85799000  0.33137000  0.30728000  1.0
  C  C48  1  0.26124000  0.21908000  0.76497000  1.0
  C  C49  1  0.73876000  0.78093000  0.23503000  1.0
  C  C50  1  0.17738000  0.20206000  0.64038000  1.0
  C  C51  1  0.82263000  0.79795000  0.35962000  1.0
  C  C52  1  0.07445000  0.70339000  0.79463000  1.0
  C  C53  1  0.92556000  0.29661000  0.20537000  1.0
  C  C54  1  0.39174000  0.16786000  0.78222000  1.0
  C  C55  1  0.60826000  0.83214000  0.21779000  1.0
  C  C56  1  0.35409000  0.27089000  0.97536000  1.0
  C  C57  1  0.64591000  0.72911000  0.02464000  1.0
  C  C58  1  0.16103000  0.75632000  0.62552000  1.0
  C  C59  1  0.83897000  0.24368000  0.37448000  1.0
  C  C60  1  0.58191000  0.16690000  0.97599000  1.0
  C  C61  1  0.41809000  0.83310000  0.02401000  1.0
  C  C62  1  0.03055000  0.82697000  0.83518000  1.0
  C  C63  1  0.96945000  0.17303000  0.16482000  1.0
  C  C64  1  0.04626000  0.60850000  0.86111000  1.0
  C  C65  1  0.95374000  0.39150000  0.13889000  1.0
  C  C66  1  0.44262000  0.09809000  0.67797000  1.0
  C  C67  1  0.55738000  0.90191000  0.32203000  1.0
  C  C68  1  0.05556000  0.91654000  0.77243000  1.0
  C  C69  1  0.94443000  0.08346000  0.22757000  1.0
  C  C70  1  0.38408000  0.33496000  0.11906000  1.0
  C  C71  1  0.61592000  0.66504000  0.88094000  1.0
  C  C72  1  0.21883000  0.58611000  0.44266000  1.0
  C  C73  1  0.78117000  0.41389000  0.55734000  1.0
  C  C74  1  0.36250000  0.40406000  0.43853000  1.0
  C  C75  1  0.63750000  0.59594000  0.56148000  1.0
  C  C76  1  0.36450000  0.54316000  0.47766000  1.0
  C  C77  1  0.63550000  0.45684000  0.52234000  1.0
  C  C78  1  0.11849000  0.88169000  0.66913000  1.0
  C  C79  1  0.88150000  0.11831000  0.33087000  1.0
  C  C80  1  0.55296000  0.01753000  0.96211000  1.0
  C  C81  1  0.44705000  0.98247000  0.03790000  1.0
  C  C82  1  0.35738000  0.08067000  0.55435000  1.0
  C  C83  1  0.64262000  0.91934000  0.44565000  1.0
  C  C84  1  0.22738000  0.13167000  0.53580000  1.0
  C  C85  1  0.77263000  0.86833000  0.46420000  1.0
  C  C86  1  0.50354000  0.63854000  0.53975000  1.0
  C  C87  1  0.49646000  0.36146000  0.46025000  1.0
  C  C88  1  0.47917000  0.48268000  0.17364000  1.0
  C  C89  1  0.52083000  0.51732000  0.82636000  1.0
  N  N90  1  0.44767000  0.20246000  0.91545000  1.0
  N  N91  1  0.55232000  0.79754000  0.08455000  1.0
  N  N92  1  0.24035000  0.28176000  0.88699000  1.0
  N  N93  1  0.75965000  0.71824000  0.11301000  1.0
  N  N94  1  0.21741000  0.72430000  0.51960000  1.0
  N  N95  1  0.78259000  0.27570000  0.48040000  1.0
  Cl  Cl96  1  0.84700000  0.22266000  0.77173000  1.0
  Cl  Cl97  1  0.15301000  0.77734000  0.22827000  1.0
  O  O98  1  0.11777000  0.51387000  0.85013000  1.0
  O  O99  1  0.88223000  0.48613000  0.14987000  1.0
  O  O100  1  0.94864000  0.62560000  0.92499000  1.0
  O  O101  1  0.05136000  0.37441000  0.07502000  1.0
