# generated using pymatgen
data_KH4C6NO3
_symmetry_space_group_name_H-M   'P 1'
_cell_length_a   3.66603000
_cell_length_b   7.61544000
_cell_length_c   24.13780000
_cell_angle_alpha   89.99980000
_cell_angle_beta   89.99980000
_cell_angle_gamma   85.09010000
_symmetry_Int_Tables_number   1
_chemical_formula_structural   KH4C6NO3
_chemical_formula_sum   'K4 H16 C24 N4 O12'
_cell_volume   671.41669340
_cell_formula_units_Z   4
loop_
 _symmetry_equiv_pos_site_id
 _symmetry_equiv_pos_as_xyz
  1  'x, y, z'
loop_
 _atom_site_type_symbol
 _atom_site_label
 _atom_site_symmetry_multiplicity
 _atom_site_fract_x
 _atom_site_fract_y
 _atom_site_fract_z
 _atom_site_occupancy
  K  K0  1  0.45724000  0.20987000  0.02595000  1.0
  K  K1  1  0.04277000  0.29013000  0.52595000  1.0
  K  K2  1  0.54277000  0.79013000  0.97405000  1.0
  K  K3  1  0.95721000  0.70987000  0.47405000  1.0
  H  H4  1  0.87318000  0.14219000  0.14095000  1.0
  H  H5  1  0.62683000  0.35781000  0.64095000  1.0
  H  H6  1  0.12681000  0.85781000  0.85905000  1.0
  H  H7  1  0.37319000  0.64219000  0.35905000  1.0
  H  H8  1  0.62556000  0.05600000  0.23099000  1.0
  H  H9  1  0.87444000  0.44400000  0.73099000  1.0
  H  H10  1  0.37444000  0.94400000  0.76901000  1.0
  H  H11  1  0.12557000  0.55600000  0.26901000  1.0
  H  H12  1  0.55118000  0.74047000  0.25234000  1.0
  H  H13  1  0.94882000  0.75953000  0.75234000  1.0
  H  H14  1  0.44882000  0.25953000  0.74766000  1.0
  H  H15  1  0.05118000  0.24047000  0.24767000  1.0
  H  H16  1  0.73225000  0.51115000  0.18144000  1.0
  H  H17  1  0.76775000  0.98885000  0.68144000  1.0
  H  H18  1  0.26776000  0.48885000  0.81856000  1.0
  H  H19  1  0.23224000  0.01115000  0.31856000  1.0
  C  C20  1  0.94270000  0.87946000  0.10657000  1.0
  C  C21  1  0.55731000  0.62054000  0.60657000  1.0
  C  C22  1  0.05730000  0.12054000  0.89343000  1.0
  C  C23  1  0.44269000  0.37946000  0.39343000  1.0
  C  C24  1  0.84018000  0.00412000  0.14989000  1.0
  C  C25  1  0.65982000  0.49588000  0.64989000  1.0
  C  C26  1  0.15981000  0.99587000  0.85011000  1.0
  C  C27  1  0.34018000  0.50412000  0.35011000  1.0
  C  C28  1  0.70432000  0.95537000  0.20009000  1.0
  C  C29  1  0.79568000  0.54463000  0.70009000  1.0
  C  C30  1  0.29567000  0.04462000  0.79991000  1.0
  C  C31  1  0.20433000  0.45538000  0.29991000  1.0
  C  C32  1  0.66087000  0.77684000  0.21246000  1.0
  C  C33  1  0.83913000  0.72317000  0.71246000  1.0
  C  C34  1  0.33913000  0.22316000  0.78754000  1.0
  C  C35  1  0.16086000  0.27684000  0.28754000  1.0
  C  C36  1  0.75953000  0.65011000  0.17350000  1.0
  C  C37  1  0.74047000  0.84988000  0.67350000  1.0
  C  C38  1  0.24047000  0.34988000  0.82651000  1.0
  C  C39  1  0.25953000  0.15011000  0.32651000  1.0
  C  C40  1  0.90808000  0.69605000  0.12185000  1.0
  C  C41  1  0.59193000  0.80395000  0.62185000  1.0
  C  C42  1  0.09193000  0.30394000  0.87815000  1.0
  C  C43  1  0.40807000  0.19606000  0.37815000  1.0
  N  N44  1  0.02057000  0.55617000  0.08596000  1.0
  N  N45  1  0.47943000  0.94383000  0.58596000  1.0
  N  N46  1  0.97944000  0.44382000  0.91404000  1.0
  N  N47  1  0.52055000  0.05618000  0.41404000  1.0
  O  O48  1  0.04092000  0.93279000  0.05878000  1.0
  O  O49  1  0.45909000  0.56721000  0.55878000  1.0
  O  O50  1  0.95907000  0.06721000  0.94122000  1.0
  O  O51  1  0.54092000  0.43279000  0.44122000  1.0
  O  O52  1  0.94014000  0.40095000  0.09718000  1.0
  O  O53  1  0.55984000  0.09905000  0.59718000  1.0
  O  O54  1  0.05988000  0.59905000  0.90283000  1.0
  O  O55  1  0.44013000  0.90095000  0.40283000  1.0
  O  O56  1  0.20682000  0.58229000  0.04331000  1.0
  O  O57  1  0.29318000  0.91771000  0.54331000  1.0
  O  O58  1  0.79319000  0.41771000  0.95669000  1.0
  O  O59  1  0.70681000  0.08229000  0.45669000  1.0
