# generated using pymatgen
data_BaH18C14(N3O2)4
_symmetry_space_group_name_H-M   'P 1'
_cell_length_a   6.92320000
_cell_length_b   10.11490000
_cell_length_c   16.57430000
_cell_angle_alpha   99.05430000
_cell_angle_beta   90.00000000
_cell_angle_gamma   90.00000000
_symmetry_Int_Tables_number   1
_chemical_formula_structural   BaH18C14(N3O2)4
_chemical_formula_sum   'Ba2 H36 C28 N24 O16'
_cell_volume   1146.19419599
_cell_formula_units_Z   2
loop_
 _symmetry_equiv_pos_site_id
 _symmetry_equiv_pos_as_xyz
  1  'x, y, z'
loop_
 _atom_site_type_symbol
 _atom_site_label
 _atom_site_symmetry_multiplicity
 _atom_site_fract_x
 _atom_site_fract_y
 _atom_site_fract_z
 _atom_site_occupancy
  Ba  Ba0  1  0.32901000  0.25000000  0.25000000  1.0
  Ba  Ba1  1  0.67099000  0.75000000  0.75000000  1.0
  H  H2  1  0.61539000  0.17934000  0.37372000  1.0
  H  H3  1  0.61539000  0.32066000  0.12628000  1.0
  H  H4  1  0.38461000  0.82066000  0.62628000  1.0
  H  H5  1  0.38461000  0.67934000  0.87372000  1.0
  H  H6  1  0.72421000  0.32080000  0.38937000  1.0
  H  H7  1  0.72421000  0.17920000  0.11063000  1.0
  H  H8  1  0.27579000  0.67920000  0.61063000  1.0
  H  H9  1  0.27579000  0.82080000  0.88937000  1.0
  H  H10  1  0.04628000  0.03156000  0.30788000  1.0
  H  H11  1  0.04627000  0.46844000  0.19212000  1.0
  H  H12  1  0.95372000  0.96844000  0.69212000  1.0
  H  H13  1  0.95373000  0.53156000  0.80787000  1.0
  H  H14  1  0.89203000  0.14791000  0.30055000  1.0
  H  H15  1  0.89203000  0.35209000  0.19945000  1.0
  H  H16  1  0.10797000  0.85209000  0.69945000  1.0
  H  H17  1  0.10798000  0.64792000  0.80055000  1.0
  H  H18  1  0.10413000  0.46513000  0.65887000  1.0
  H  H19  1  0.10412000  0.03487000  0.84113000  1.0
  H  H20  1  0.89587000  0.53487000  0.34113000  1.0
  H  H21  1  0.89587000  0.96513000  0.15887000  1.0
  H  H22  1  0.00991000  0.22750000  0.59349000  1.0
  H  H23  1  0.00990000  0.27250000  0.90651000  1.0
  H  H24  1  0.99010000  0.77250000  0.40651000  1.0
  H  H25  1  0.99009000  0.72750000  0.09349000  1.0
  H  H26  1  0.09110000  0.15938000  0.44374000  1.0
  H  H27  1  0.09109000  0.34063000  0.05626000  1.0
  H  H28  1  0.90891000  0.84062000  0.55626000  1.0
  H  H29  1  0.90891000  0.65937000  0.94374000  1.0
  H  H30  1  0.62022000  0.86344000  0.33498000  1.0
  H  H31  1  0.62022000  0.63656000  0.16501000  1.0
  H  H32  1  0.37979000  0.13656000  0.66502000  1.0
  H  H33  1  0.37978000  0.36344000  0.83499000  1.0
  H  H34  1  0.58254000  0.90177000  0.44303000  1.0
  H  H35  1  0.58254000  0.59823000  0.05697000  1.0
  H  H36  1  0.41745000  0.09823000  0.55697000  1.0
  H  H37  1  0.41746000  0.40177000  0.94303000  1.0
  C  C38  1  0.33934000  0.55886000  0.42278000  1.0
  C  C39  1  0.33934000  0.94114000  0.07722000  1.0
  C  C40  1  0.66066000  0.44114000  0.57722000  1.0
  C  C41  1  0.66066000  0.05885000  0.92279000  1.0
  C  C42  1  0.34779000  0.95939000  0.36863000  1.0
  C  C43  1  0.34778000  0.54061000  0.13137000  1.0
  C  C44  1  0.65223000  0.04062000  0.63137000  1.0
  C  C45  1  0.65221000  0.45939000  0.86863000  1.0
  C  C46  1  0.13433000  0.42568000  0.59462000  1.0
  C  C47  1  0.13433000  0.07432000  0.90538000  1.0
  C  C48  1  0.86566000  0.57432000  0.40538000  1.0
  C  C49  1  0.86567000  0.92568000  0.09462000  1.0
  C  C50  1  0.08350000  0.29607000  0.55894000  1.0
  C  C51  1  0.08349000  0.20393000  0.94106000  1.0
  C  C52  1  0.91651000  0.70393000  0.44106000  1.0
  C  C53  1  0.91651000  0.79607000  0.05895000  1.0
  C  C54  1  0.25161000  0.46576000  0.47158000  1.0
  C  C55  1  0.25161000  0.03424000  0.02842000  1.0
  C  C56  1  0.74839000  0.53425000  0.52842000  1.0
  C  C57  1  0.74839000  0.96576000  0.97158000  1.0
  C  C58  1  0.12536000  0.25899000  0.47620000  1.0
  C  C59  1  0.12535000  0.24102000  0.02380000  1.0
  C  C60  1  0.87465000  0.74101000  0.52380000  1.0
  C  C61  1  0.87465000  0.75899000  0.97620000  1.0
  C  C62  1  0.51432000  0.86451000  0.38416000  1.0
  C  C63  1  0.51432000  0.63549000  0.11584000  1.0
  C  C64  1  0.48568000  0.13549000  0.61584000  1.0
  C  C65  1  0.48569000  0.36451000  0.88416000  1.0
  N  N66  1  0.38149000  0.68705000  0.45121000  1.0
  N  N67  1  0.38149000  0.81295000  0.04879000  1.0
  N  N68  1  0.61851000  0.31295000  0.54879000  1.0
  N  N69  1  0.61851000  0.18705000  0.95121000  1.0
  N  N70  1  0.45490000  0.72789000  0.38550000  1.0
  N  N71  1  0.45490000  0.77211000  0.11450000  1.0
  N  N72  1  0.54510000  0.27211000  0.61450000  1.0
  N  N73  1  0.54510000  0.22788000  0.88550000  1.0
  N  N74  1  0.20950000  0.34316000  0.43182000  1.0
  N  N75  1  0.20950000  0.15684000  0.06818000  1.0
  N  N76  1  0.79050000  0.65684000  0.56818000  1.0
  N  N77  1  0.79050000  0.84316000  0.93182000  1.0
  N  N78  1  0.21887000  0.51125000  0.55110000  1.0
  N  N79  1  0.21887000  0.98875000  0.94890000  1.0
  N  N80  1  0.78113000  0.48875000  0.44890000  1.0
  N  N81  1  0.78113000  0.01125000  0.05110000  1.0
  N  N82  1  0.45935000  0.63345000  0.31926000  1.0
  N  N83  1  0.45934000  0.86655000  0.18074000  1.0
  N  N84  1  0.54065000  0.36655000  0.68074000  1.0
  N  N85  1  0.54065000  0.13345000  0.81926000  1.0
  N  N86  1  0.38621000  0.52539000  0.34246000  1.0
  N  N87  1  0.38621000  0.97461000  0.15754000  1.0
  N  N88  1  0.61379000  0.47461000  0.65754000  1.0
  N  N89  1  0.61378000  0.02539000  0.84246000  1.0
  O  O90  1  0.17731000  0.91651000  0.36091000  1.0
  O  O91  1  0.17732000  0.58349000  0.13909000  1.0
  O  O92  1  0.82267000  0.08348000  0.63908000  1.0
  O  O93  1  0.82269000  0.41651000  0.86091000  1.0
  O  O94  1  0.69552000  0.24149000  0.34748000  1.0
  O  O95  1  0.69552000  0.25851000  0.15252000  1.0
  O  O96  1  0.30448000  0.75851000  0.65252000  1.0
  O  O97  1  0.30448000  0.74149000  0.84748000  1.0
  O  O98  1  0.00180000  0.09615000  0.27240000  1.0
  O  O99  1  0.00179000  0.40385000  0.22760000  1.0
  O  O100  1  0.99821000  0.90385000  0.72760000  1.0
  O  O101  1  0.99821000  0.59615000  0.77240000  1.0
  O  O102  1  0.40576000  0.07734000  0.36513000  1.0
  O  O103  1  0.40576000  0.42266000  0.13487000  1.0
  O  O104  1  0.59423000  0.92265000  0.63487000  1.0
  O  O105  1  0.59424000  0.57734000  0.86513000  1.0
