# generated using pymatgen
data_CdH4(CN2)4
_symmetry_space_group_name_H-M   'P 1'
_cell_length_a   8.67950000
_cell_length_b   8.80006000
_cell_length_c   10.13620000
_cell_angle_alpha   90.00000000
_cell_angle_beta   91.37480000
_cell_angle_gamma   90.00000000
_symmetry_Int_Tables_number   1
_chemical_formula_structural   CdH4(CN2)4
_chemical_formula_sum   'Cd4 H16 C16 N32'
_cell_volume   773.98131690
_cell_formula_units_Z   4
loop_
 _symmetry_equiv_pos_site_id
 _symmetry_equiv_pos_as_xyz
  1  'x, y, z'
loop_
 _atom_site_type_symbol
 _atom_site_label
 _atom_site_symmetry_multiplicity
 _atom_site_fract_x
 _atom_site_fract_y
 _atom_site_fract_z
 _atom_site_occupancy
  Cd  Cd0  1  0.00608000  0.68452000  0.63008000  1.0
  Cd  Cd1  1  0.49392000  0.18452000  0.86992000  1.0
  Cd  Cd2  1  0.99392000  0.31548000  0.36992000  1.0
  Cd  Cd3  1  0.50608000  0.81548000  0.13008000  1.0
  H  H4  1  0.33992000  0.17044000  0.41134000  1.0
  H  H5  1  0.16008000  0.67044000  0.08866000  1.0
  H  H6  1  0.66008000  0.82956000  0.58866000  1.0
  H  H7  1  0.83992000  0.32956000  0.91134000  1.0
  H  H8  1  0.48268000  0.16133000  0.52881000  1.0
  H  H9  1  0.01732000  0.66133000  0.97119000  1.0
  H  H10  1  0.51732000  0.83867000  0.47119000  1.0
  H  H11  1  0.98268000  0.33867000  0.02881000  1.0
  H  H12  1  0.22522000  0.47022000  0.84175000  1.0
  H  H13  1  0.27478000  0.97022000  0.65825000  1.0
  H  H14  1  0.77478000  0.52978000  0.15825000  1.0
  H  H15  1  0.72522000  0.02978000  0.34175000  1.0
  H  H16  1  0.82632000  0.89671000  0.89369000  1.0
  H  H17  1  0.67368000  0.39671000  0.60631000  1.0
  H  H18  1  0.17368000  0.10329000  0.10631000  1.0
  H  H19  1  0.32632000  0.60329000  0.39369000  1.0
  C  C20  1  0.29549000  0.28064000  0.58270000  1.0
  C  C21  1  0.20451000  0.78064000  0.91730000  1.0
  C  C22  1  0.70451000  0.71936000  0.41730000  1.0
  C  C23  1  0.79549000  0.21936000  0.08270000  1.0
  C  C24  1  0.22970000  0.41722000  0.74509000  1.0
  C  C25  1  0.27030000  0.91722000  0.75491000  1.0
  C  C26  1  0.77031000  0.58278000  0.25491000  1.0
  C  C27  1  0.72969000  0.08278000  0.24509000  1.0
  C  C28  1  0.63708000  0.58932000  0.90408000  1.0
  C  C29  1  0.86291000  0.08932000  0.59592000  1.0
  C  C30  1  0.36291000  0.41068000  0.09591000  1.0
  C  C31  1  0.13709000  0.91068000  0.40408000  1.0
  C  C32  1  0.77604000  0.78434000  0.88374000  1.0
  C  C33  1  0.72396000  0.28434000  0.61626000  1.0
  C  C34  1  0.22396000  0.21566000  0.11626000  1.0
  C  C35  1  0.27604000  0.71566000  0.38374000  1.0
  N  N36  1  0.13430000  0.45419000  0.64590000  1.0
  N  N37  1  0.36570000  0.95419000  0.85410000  1.0
  N  N38  1  0.86571000  0.54581000  0.35411000  1.0
  N  N39  1  0.63430000  0.04581000  0.14589000  1.0
  N  N40  1  0.17673000  0.36636000  0.53889000  1.0
  N  N41  1  0.32327000  0.86636000  0.96111000  1.0
  N  N42  1  0.82327000  0.63364000  0.46111000  1.0
  N  N43  1  0.67673000  0.13364000  0.03889000  1.0
  N  N44  1  0.33213000  0.30820000  0.71181000  1.0
  N  N45  1  0.16787000  0.80820000  0.78819000  1.0
  N  N46  1  0.66788000  0.69180000  0.28820000  1.0
  N  N47  1  0.83213000  0.19180000  0.21180000  1.0
  N  N48  1  0.36755000  0.17061000  0.50951000  1.0
  N  N49  1  0.13245000  0.67061000  0.99049000  1.0
  N  N50  1  0.63245000  0.82939000  0.49049000  1.0
  N  N51  1  0.86755000  0.32939000  0.00951000  1.0
  N  N52  1  0.81344000  0.68559000  0.78651000  1.0
  N  N53  1  0.68655000  0.18559000  0.71349000  1.0
  N  N54  1  0.18655000  0.31441000  0.21349000  1.0
  N  N55  1  0.31345000  0.81441000  0.28651000  1.0
  N  N56  1  0.72444000  0.56040000  0.79935000  1.0
  N  N57  1  0.77556000  0.06040000  0.70065000  1.0
  N  N58  1  0.27556000  0.43960000  0.20065000  1.0
  N  N59  1  0.22444000  0.93960000  0.29935000  1.0
  N  N60  1  0.66586000  0.72808000  0.95977000  1.0
  N  N61  1  0.83414000  0.22808000  0.54023000  1.0
  N  N62  1  0.33414000  0.27192000  0.04023000  1.0
  N  N63  1  0.16586000  0.77192000  0.45977000  1.0
  N  N64  1  0.53729000  0.48056000  0.94905000  1.0
  N  N65  1  0.96271000  0.98056000  0.55095000  1.0
  N  N66  1  0.46271000  0.51944000  0.05095000  1.0
  N  N67  1  0.03729000  0.01944000  0.44905000  1.0
