# generated using pymatgen
data_ZnH12C12S2(NO3)2
_symmetry_space_group_name_H-M   'P 1'
_cell_length_a   5.01886000
_cell_length_b   9.97618000
_cell_length_c   14.65180000
_cell_angle_alpha   90.00000000
_cell_angle_beta   90.00020000
_cell_angle_gamma   103.25400000
_symmetry_Int_Tables_number   1
_chemical_formula_structural   ZnH12C12S2(NO3)2
_chemical_formula_sum   'Zn2 H24 C24 S4 N4 O12'
_cell_volume   714.06095587
_cell_formula_units_Z   2
loop_
 _symmetry_equiv_pos_site_id
 _symmetry_equiv_pos_as_xyz
  1  'x, y, z'
loop_
 _atom_site_type_symbol
 _atom_site_label
 _atom_site_symmetry_multiplicity
 _atom_site_fract_x
 _atom_site_fract_y
 _atom_site_fract_z
 _atom_site_occupancy
  Zn  Zn0  1  0.00000000  0.00000000  0.00000000  1.0
  Zn  Zn1  1  0.00000000  0.50000000  0.50000000  1.0
  H  H2  1  0.50951000  0.61809000  0.01116000  1.0
  H  H3  1  0.50951000  0.11809000  0.48884000  1.0
  H  H4  1  0.49048000  0.38191000  0.98885000  1.0
  H  H5  1  0.49049000  0.88191000  0.51116000  1.0
  H  H6  1  0.00142000  0.63305000  0.24771000  1.0
  H  H7  1  0.00140000  0.13304000  0.25229000  1.0
  H  H8  1  0.99858000  0.36696000  0.75229000  1.0
  H  H9  1  0.99859000  0.86695000  0.74771000  1.0
  H  H10  1  0.85420000  0.82884000  0.17500000  1.0
  H  H11  1  0.85417000  0.32882000  0.32500000  1.0
  H  H12  1  0.14582000  0.17118000  0.82500000  1.0
  H  H13  1  0.14582000  0.67117000  0.67500000  1.0
  H  H14  1  0.55058000  0.47452000  0.15010000  1.0
  H  H15  1  0.55058000  0.97452000  0.34991000  1.0
  H  H16  1  0.44941000  0.52548000  0.84991000  1.0
  H  H17  1  0.44942000  0.02548000  0.65009000  1.0
  H  H18  1  0.20031000  0.38753000  0.15447000  1.0
  H  H19  1  0.20032000  0.88752000  0.34553000  1.0
  H  H20  1  0.79968000  0.61248000  0.84553000  1.0
  H  H21  1  0.79969000  0.11247000  0.65446000  1.0
  H  H22  1  0.35042000  0.48672000  0.24875000  1.0
  H  H23  1  0.35043000  0.98672000  0.25125000  1.0
  H  H24  1  0.64956000  0.51328000  0.75125000  1.0
  H  H25  1  0.64958000  0.01328000  0.74875000  1.0
  C  C26  1  0.27002000  0.77051000  0.01500000  1.0
  C  C27  1  0.27002000  0.27051000  0.48500000  1.0
  C  C28  1  0.72998000  0.22950000  0.98499000  1.0
  C  C29  1  0.72998000  0.72949000  0.51500000  1.0
  C  C30  1  0.36058000  0.65934000  0.04963000  1.0
  C  C31  1  0.36058000  0.15934000  0.45037000  1.0
  C  C32  1  0.63940000  0.34066000  0.95037000  1.0
  C  C33  1  0.63942000  0.84066000  0.54963000  1.0
  C  C34  1  0.26286000  0.60429000  0.13452000  1.0
  C  C35  1  0.26285000  0.10429000  0.36549000  1.0
  C  C36  1  0.73714000  0.39572000  0.86549000  1.0
  C  C37  1  0.73716000  0.89572000  0.63451000  1.0
  C  C38  1  0.07844000  0.66751000  0.18021000  1.0
  C  C39  1  0.07842000  0.16750000  0.31980000  1.0
  C  C40  1  0.92156000  0.33250000  0.81980000  1.0
  C  C41  1  0.92157000  0.83249000  0.68020000  1.0
  C  C42  1  0.99658000  0.77801000  0.14068000  1.0
  C  C43  1  0.99656000  0.27799000  0.35932000  1.0
  C  C44  1  0.00343000  0.22201000  0.85932000  1.0
  C  C45  1  0.00343000  0.72200000  0.64068000  1.0
  C  C46  1  0.34832000  0.48284000  0.17402000  1.0
  C  C47  1  0.34832000  0.98284000  0.32598000  1.0
  C  C48  1  0.65167000  0.51716000  0.82598000  1.0
  C  C49  1  0.65169000  0.01716000  0.67402000  1.0
  S  S50  1  0.39382000  0.84284000  0.90635000  1.0
  S  S51  1  0.39381000  0.34284000  0.59365000  1.0
  S  S52  1  0.60619000  0.15716000  0.09365000  1.0
  S  S53  1  0.60619000  0.65716000  0.40635000  1.0
  N  N54  1  0.09075000  0.82902000  0.05853000  1.0
  N  N55  1  0.09073000  0.32901000  0.44147000  1.0
  N  N56  1  0.90926000  0.17098000  0.94147000  1.0
  N  N57  1  0.90926000  0.67098000  0.55853000  1.0
  O  O58  1  0.30610000  0.97498000  0.90169000  1.0
  O  O59  1  0.30609000  0.47498000  0.59831000  1.0
  O  O60  1  0.69391000  0.02502000  0.09831000  1.0
  O  O61  1  0.69391000  0.52502000  0.40169000  1.0
  O  O62  1  0.27088000  0.74271000  0.83774000  1.0
  O  O63  1  0.27088000  0.24271000  0.66226000  1.0
  O  O64  1  0.72912000  0.25729000  0.16226000  1.0
  O  O65  1  0.72911000  0.75729000  0.33774000  1.0
  O  O66  1  0.69410000  0.86374000  0.91055000  1.0
  O  O67  1  0.69409000  0.36374000  0.58945000  1.0
  O  O68  1  0.30591000  0.13626000  0.08945000  1.0
  O  O69  1  0.30591000  0.63625000  0.41055000  1.0
