# generated using pymatgen
data_AlH3C8BrClO5
_symmetry_space_group_name_H-M   'P 1'
_cell_length_a   6.61346000
_cell_length_b   8.92070000
_cell_length_c   11.05840000
_cell_angle_alpha   83.22320000
_cell_angle_beta   73.65110000
_cell_angle_gamma   75.07240000
_symmetry_Int_Tables_number   1
_chemical_formula_structural   AlH3C8BrClO5
_chemical_formula_sum   'Al2 H6 C16 Br2 Cl2 O10'
_cell_volume   604.17342949
_cell_formula_units_Z   2
loop_
 _symmetry_equiv_pos_site_id
 _symmetry_equiv_pos_as_xyz
  1  'x, y, z'
loop_
 _atom_site_type_symbol
 _atom_site_label
 _atom_site_symmetry_multiplicity
 _atom_site_fract_x
 _atom_site_fract_y
 _atom_site_fract_z
 _atom_site_occupancy
  Al  Al0  1  0.48982000  0.50660000  0.50120000  1.0
  Al  Al1  1  0.99075000  0.50794000  0.49769000  1.0
  H  H2  1  0.76329000  0.62312000  0.35674000  1.0
  H  H3  1  0.19537000  0.41353000  0.64925000  1.0
  H  H4  1  0.22677000  0.27027000  0.23882000  1.0
  H  H5  1  0.15620000  0.07655000  0.12484000  1.0
  H  H6  1  0.47123000  0.27228000  0.76918000  1.0
  H  H7  1  0.28045000  0.07700000  0.88969000  1.0
  C  C8  1  0.36030000  0.50052000  0.27424000  1.0
  C  C9  1  0.13061000  0.78460000  0.50913000  1.0
  C  C10  1  0.62498000  0.51239000  0.72584000  1.0
  C  C11  1  0.85294000  0.22978000  0.48882000  1.0
  C  C12  1  0.91440000  0.05703000  0.47475000  1.0
  C  C13  1  0.06824000  0.95737000  0.52299000  1.0
  C  C14  1  0.42979000  0.50287000  0.13278000  1.0
  C  C15  1  0.38599000  0.38905000  0.06940000  1.0
  C  C16  1  0.53418000  0.61480000  0.06535000  1.0
  C  C17  1  0.27903000  0.27281000  0.13616000  1.0
  C  C18  1  0.23960000  0.16426000  0.07229000  1.0
  C  C19  1  0.56048000  0.50866000  0.86741000  1.0
  C  C20  1  0.59860000  0.61876000  0.93140000  1.0
  C  C21  1  0.45420000  0.39116000  0.93421000  1.0
  C  C22  1  0.41519000  0.27501000  0.87164000  1.0
  C  C23  1  0.30899000  0.16501000  0.93921000  1.0
  Br  Br24  1  0.72595000  0.77946000  0.83939000  1.0
  Br  Br25  1  0.57871000  0.77078000  0.15200000  1.0
  Cl  Cl26  1  0.77209000  0.99759000  0.38875000  1.0
  Cl  Cl27  1  0.20949000  0.01936000  0.60829000  1.0
  O  O28  1  0.50920000  0.46896000  0.33105000  1.0
  O  O29  1  0.97600000  0.71934000  0.52346000  1.0
  O  O30  1  0.82602000  0.48292000  0.67011000  1.0
  O  O31  1  0.65175000  0.29314000  0.52090000  1.0
  O  O32  1  0.47167000  0.53895000  0.67249000  1.0
  O  O33  1  0.00814000  0.29634000  0.46702000  1.0
  O  O34  1  0.15779000  0.53028000  0.32636000  1.0
  O  O35  1  0.33136000  0.72036000  0.48478000  1.0
  O  O36  1  0.74297000  0.57450000  0.44128000  1.0
  O  O37  1  0.23509000  0.43913000  0.55919000  1.0
