# generated using pymatgen
data_CdH13C20N2O5
_symmetry_space_group_name_H-M   'P 1'
_cell_length_a   13.26260000
_cell_length_b   17.76750000
_cell_length_c   20.97800000
_cell_angle_alpha   83.25430000
_cell_angle_beta   71.61640000
_cell_angle_gamma   68.10410000
_symmetry_Int_Tables_number   1
_chemical_formula_structural   CdH13C20N2O5
_chemical_formula_sum   'Cd8 H104 C160 N16 O40'
_cell_volume   4352.64953652
_cell_formula_units_Z   8
loop_
 _symmetry_equiv_pos_site_id
 _symmetry_equiv_pos_as_xyz
  1  'x, y, z'
loop_
 _atom_site_type_symbol
 _atom_site_label
 _atom_site_symmetry_multiplicity
 _atom_site_fract_x
 _atom_site_fract_y
 _atom_site_fract_z
 _atom_site_occupancy
  Cd  Cd0  1  0.05160000  0.38921000  0.52223000  1.0
  Cd  Cd1  1  0.42631000  0.11079000  0.52221000  1.0
  Cd  Cd2  1  0.55898000  0.38923000  0.97783000  1.0
  Cd  Cd3  1  0.46297000  0.11076000  0.97768000  1.0
  Cd  Cd4  1  0.94841000  0.61079000  0.47777000  1.0
  Cd  Cd5  1  0.57368000  0.88921000  0.47779000  1.0
  Cd  Cd6  1  0.44101000  0.61077000  0.02217000  1.0
  Cd  Cd7  1  0.53702000  0.88923000  0.02231000  1.0
  H  H8  1  0.21851000  0.58406000  0.61750000  1.0
  H  H9  1  0.32887000  0.50121000  0.69730000  1.0
  H  H10  1  0.38596000  0.34965000  0.69494000  1.0
  H  H11  1  0.24631000  0.26200000  0.71595000  1.0
  H  H12  1  0.28788000  0.20016000  0.80500000  1.0
  H  H13  1  0.11960000  0.44782000  0.36754000  1.0
  H  H14  1  0.19965000  0.39334000  0.25252000  1.0
  H  H15  1  0.23527000  0.15415000  0.33884000  1.0
  H  H16  1  0.15700000  0.21873000  0.45111000  1.0
  H  H17  1  0.18344000  0.01503000  0.92676000  1.0
  H  H18  1  0.26775000  0.00609000  0.71060000  1.0
  H  H19  1  0.20465000  0.94672000  0.82360000  1.0
  H  H20  1  0.22514000  0.14164000  0.91723000  1.0
  H  H21  1  0.16418000  0.91598000  0.61726000  1.0
  H  H22  1  0.97412000  0.99878000  0.69705000  1.0
  H  H23  1  0.91928000  0.15036000  0.69476000  1.0
  H  H24  1  0.03780000  0.23803000  0.71599000  1.0
  H  H25  1  0.90705000  0.29988000  0.80492000  1.0
  H  H26  1  0.51287000  0.05208000  0.36739000  1.0
  H  H27  1  0.54808000  0.10663000  0.25240000  1.0
  H  H28  1  0.42558000  0.34579000  0.33900000  1.0
  H  H29  1  0.39122000  0.28117000  0.45120000  1.0
  H  H30  1  0.88970000  0.48484000  0.92701000  1.0
  H  H31  1  0.02159000  0.49394000  0.71088000  1.0
  H  H32  1  0.97153000  0.55327000  0.82399000  1.0
  H  H33  1  0.85759000  0.35826000  0.91725000  1.0
  H  H34  1  0.19714000  0.58399000  0.88251000  1.0
  H  H35  1  0.16999000  0.50099000  0.80262000  1.0
  H  H36  1  0.26456000  0.34946000  0.80495000  1.0
  H  H37  1  0.49163000  0.26193000  0.78392000  1.0
  H  H38  1  0.51180000  0.20007000  0.69493000  1.0
  H  H39  1  0.43216000  0.44788000  0.13256000  1.0
  H  H40  1  0.40661000  0.39338000  0.24756000  1.0
  H  H41  1  0.61061000  0.15429000  0.16110000  1.0
  H  H42  1  0.62400000  0.21885000  0.04887000  1.0
  H  H43  1  0.80113000  0.01486000  0.57316000  1.0
  H  H44  1  0.72600000  0.00616000  0.78931000  1.0
  H  H45  1  0.84834000  0.94667000  0.67629000  1.0
  H  H46  1  0.63304000  0.14158000  0.58268000  1.0
  H  H47  1  0.91981000  0.91607000  0.88263000  1.0
  H  H48  1  0.02702000  0.99895000  0.80288000  1.0
  H  H49  1  0.93021000  0.15051000  0.80521000  1.0
  H  H50  1  0.72380000  0.23817000  0.78407000  1.0
  H  H51  1  0.79287000  0.30008000  0.69522000  1.0
  H  H52  1  0.43510000  0.05219000  0.13240000  1.0
  H  H53  1  0.34550000  0.10661000  0.24742000  1.0
  H  H54  1  0.22826000  0.34581000  0.16107000  1.0
  H  H55  1  0.32704000  0.28128000  0.04880000  1.0
  H  H56  1  0.62553000  0.48514000  0.57320000  1.0
  H  H57  1  0.48421000  0.49400000  0.78932000  1.0
  H  H58  1  0.47509000  0.55340000  0.67622000  1.0
  H  H59  1  0.78409000  0.35853000  0.58292000  1.0
  H  H60  1  0.78150000  0.41594000  0.38250000  1.0
  H  H61  1  0.67114000  0.49879000  0.30270000  1.0
  H  H62  1  0.61405000  0.65035000  0.30506000  1.0
  H  H63  1  0.75369000  0.73800000  0.28405000  1.0
  H  H64  1  0.71212000  0.79984000  0.19500000  1.0
  H  H65  1  0.88040000  0.55218000  0.63246000  1.0
  H  H66  1  0.80035000  0.60665000  0.74748000  1.0
  H  H67  1  0.76474000  0.84585000  0.66115000  1.0
  H  H68  1  0.84300000  0.78127000  0.54889000  1.0
  H  H69  1  0.81656000  0.98497000  0.07325000  1.0
  H  H70  1  0.73225000  0.99391000  0.28940000  1.0
  H  H71  1  0.79535000  0.05328000  0.17640000  1.0
  H  H72  1  0.77486000  0.85836000  0.08277000  1.0
  H  H73  1  0.83582000  0.08402000  0.38275000  1.0
  H  H74  1  0.02588000  0.00121000  0.30295000  1.0
  H  H75  1  0.08071000  0.84963000  0.30524000  1.0
  H  H76  1  0.96220000  0.76197000  0.28401000  1.0
  H  H77  1  0.09294000  0.70013000  0.19508000  1.0
  H  H78  1  0.48713000  0.94792000  0.63261000  1.0
  H  H79  1  0.45191000  0.89337000  0.74760000  1.0
  H  H80  1  0.57441000  0.65421000  0.66101000  1.0
  H  H81  1  0.60878000  0.71883000  0.54880000  1.0
  H  H82  1  0.11030000  0.51516000  0.07300000  1.0
  H  H83  1  0.97842000  0.50606000  0.28912000  1.0
  H  H84  1  0.02848000  0.44673000  0.17601000  1.0
  H  H85  1  0.14241000  0.64174000  0.08275000  1.0
  H  H86  1  0.80286000  0.41601000  0.11748000  1.0
  H  H87  1  0.83001000  0.49901000  0.19738000  1.0
  H  H88  1  0.73544000  0.65054000  0.19505000  1.0
  H  H89  1  0.50837000  0.73807000  0.21608000  1.0
  H  H90  1  0.48820000  0.79994000  0.30507000  1.0
  H  H91  1  0.56784000  0.55212000  0.86744000  1.0
  H  H92  1  0.59339000  0.60662000  0.75243000  1.0
  H  H93  1  0.38938000  0.84571000  0.83890000  1.0
  H  H94  1  0.37599000  0.78115000  0.95113000  1.0
  H  H95  1  0.19886000  0.98514000  0.42684000  1.0
  H  H96  1  0.27400000  0.99384000  0.21069000  1.0
  H  H97  1  0.15166000  0.05333000  0.32371000  1.0
  H  H98  1  0.36696000  0.85842000  0.41732000  1.0
  H  H99  1  0.08018000  0.08393000  0.11737000  1.0
  H  H100  1  0.97298000  0.00105000  0.19712000  1.0
  H  H101  1  0.06979000  0.84949000  0.19479000  1.0
  H  H102  1  0.27621000  0.76183000  0.21593000  1.0
  H  H103  1  0.20713000  0.69991000  0.30477000  1.0
  H  H104  1  0.56490000  0.94781000  0.86760000  1.0
  H  H105  1  0.65451000  0.89339000  0.75257000  1.0
  H  H106  1  0.77175000  0.65418000  0.83893000  1.0
  H  H107  1  0.67297000  0.71871000  0.95120000  1.0
  H  H108  1  0.37447000  0.51486000  0.42680000  1.0
  H  H109  1  0.51580000  0.50600000  0.21068000  1.0
  H  H110  1  0.52491000  0.44660000  0.32378000  1.0
  H  H111  1  0.21591000  0.64147000  0.41708000  1.0
  C  C112  1  0.14824000  0.53746000  0.53297000  1.0
  C  C113  1  0.21913000  0.48162000  0.57568000  1.0
  C  C114  1  0.24667000  0.51813000  0.61991000  1.0
  C  C115  1  0.30656000  0.47266000  0.66338000  1.0
  C  C116  1  0.33813000  0.38859000  0.66228000  1.0
  C  C117  1  0.31124000  0.35190000  0.61847000  1.0
  C  C118  1  0.34717000  0.26113000  0.61439000  1.0
  C  C119  1  0.30422000  0.22276000  0.67347000  1.0
  C  C120  1  0.32469000  0.13843000  0.68188000  1.0
  C  C121  1  0.27977000  0.10774000  0.75036000  1.0
  C  C122  1  0.26647000  0.14590000  0.80894000  1.0
  C  C123  1  0.14707000  0.38270000  0.35927000  1.0
  C  C124  1  0.19128000  0.35149000  0.29440000  1.0
  C  C125  1  0.22542000  0.26776000  0.28416000  1.0
  C  C126  1  0.21148000  0.21955000  0.34202000  1.0
  C  C127  1  0.16716000  0.25498000  0.40538000  1.0
  C  C128  1  0.20999000  0.04105000  0.87737000  1.0
  C  C129  1  0.25702000  0.03566000  0.75624000  1.0
  C  C130  1  0.22221000  0.00273000  0.81938000  1.0
  C  C131  1  0.23236000  0.11276000  0.87211000  1.0
  C  C132  1  0.31886000  0.96263000  0.53291000  1.0
  C  C133  1  0.20525000  0.01843000  0.57552000  1.0
  C  C134  1  0.13354000  0.98191000  0.61967000  1.0
  C  C135  1  0.03020000  0.02738000  0.66313000  1.0
  C  C136  1  0.99971000  0.11144000  0.66209000  1.0
  C  C137  1  0.07039000  0.14815000  0.61836000  1.0
  C  C138  1  0.03861000  0.23892000  0.61435000  1.0
  C  C139  1  0.02252000  0.27726000  0.67347000  1.0
  C  C140  1  0.99364000  0.36159000  0.68194000  1.0
  C  C141  1  0.96984000  0.39229000  0.75047000  1.0
  C  C142  1  0.92452000  0.35410000  0.80897000  1.0
  C  C143  1  0.49355000  0.11721000  0.35918000  1.0
  C  C144  1  0.51436000  0.14845000  0.29434000  1.0
  C  C145  1  0.49031000  0.23219000  0.28420000  1.0
  C  C146  1  0.44624000  0.28038000  0.34211000  1.0
  C  C147  1  0.42699000  0.24494000  0.40542000  1.0
  C  C148  1  0.91247000  0.45890000  0.87758000  1.0
  C  C149  1  0.98664000  0.46437000  0.75647000  1.0
  C  C150  1  0.95824000  0.49726000  0.81966000  1.0
  C  C151  1  0.89543000  0.38719000  0.87219000  1.0
  C  C152  1  0.31411000  0.53756000  0.96696000  1.0
  C  C153  1  0.29906000  0.48165000  0.92431000  1.0
  C  C154  1  0.23499000  0.51806000  0.88009000  1.0
  C  C155  1  0.22074000  0.47250000  0.83657000  1.0
  C  C156  1  0.27332000  0.38845000  0.83765000  1.0
  C  C157  1  0.33689000  0.35187000  0.88146000  1.0
  C  C158  1  0.39181000  0.26111000  0.88553000  1.0
  C  C159  1  0.47300000  0.22272000  0.82643000  1.0
  C  C160  1  0.53678000  0.13840000  0.81801000  1.0
  C  C161  1  0.61233000  0.10769000  0.74953000  1.0
  C  C162  1  0.58742000  0.14582000  0.69097000  1.0
  C  C163  1  0.46980000  0.38277000  0.14080000  1.0
  C  C164  1  0.45687000  0.35155000  0.20566000  1.0
  C  C165  1  0.50664000  0.26784000  0.21585000  1.0
  C  C166  1  0.56887000  0.21968000  0.15796000  1.0
  C  C167  1  0.57763000  0.25509000  0.09462000  1.0
  C  C168  1  0.74861000  0.04093000  0.62253000  1.0
  C  C169  1  0.70711000  0.03562000  0.74367000  1.0
  C  C170  1  0.77480000  0.00267000  0.68052000  1.0
  C  C171  1  0.65466000  0.11265000  0.62779000  1.0
  C  C172  1  0.71853000  0.96261000  0.96703000  1.0
  C  C173  1  0.77623000  0.01845000  0.92436000  1.0
  C  C174  1  0.88450000  0.98199000  0.88020000  1.0
  C  C175  1  0.94231000  0.02750000  0.83676000  1.0
  C  C176  1  0.88868000  0.11156000  0.83783000  1.0
  C  C177  1  0.78132000  0.14822000  0.88156000  1.0
  C  C178  1  0.72232000  0.23897000  0.88567000  1.0
  C  C179  1  0.69995000  0.27736000  0.82661000  1.0
  C  C180  1  0.64468000  0.36171000  0.81819000  1.0
  C  C181  1  0.63767000  0.39243000  0.74969000  1.0
  C  C182  1  0.72123000  0.35431000  0.69118000  1.0
  C  C183  1  0.38921000  0.11730000  0.14066000  1.0
  C  C184  1  0.33725000  0.14847000  0.20553000  1.0
  C  C185  1  0.27742000  0.23218000  0.21576000  1.0
  C  C186  1  0.27308000  0.28041000  0.15789000  1.0
  C  C187  1  0.32765000  0.24501000  0.09454000  1.0
  C  C188  1  0.62857000  0.45914000  0.62262000  1.0
  C  C189  1  0.54874000  0.46446000  0.74373000  1.0
  C  C190  1  0.54432000  0.49739000  0.68055000  1.0
  C  C191  1  0.71727000  0.38744000  0.62798000  1.0
  C  C192  1  0.85177000  0.46254000  0.46703000  1.0
  C  C193  1  0.78088000  0.51837000  0.42433000  1.0
  C  C194  1  0.75334000  0.48187000  0.38009000  1.0
  C  C195  1  0.69345000  0.52734000  0.33662000  1.0
  C  C196  1  0.66187000  0.61140000  0.33772000  1.0
  C  C197  1  0.68877000  0.64810000  0.38153000  1.0
  C  C198  1  0.65283000  0.73887000  0.38561000  1.0
  C  C199  1  0.69578000  0.77724000  0.32653000  1.0
  C  C200  1  0.67530000  0.86157000  0.31812000  1.0
  C  C201  1  0.72022000  0.89226000  0.24965000  1.0
  C  C202  1  0.73352000  0.85410000  0.19106000  1.0
  C  C203  1  0.85293000  0.61729000  0.64073000  1.0
  C  C204  1  0.80872000  0.64851000  0.70560000  1.0
  C  C205  1  0.77458000  0.73223000  0.71584000  1.0
  C  C206  1  0.78853000  0.78045000  0.65798000  1.0
  C  C207  1  0.83284000  0.74502000  0.59462000  1.0
  C  C208  1  0.79001000  0.95895000  0.12263000  1.0
  C  C209  1  0.74297000  0.96434000  0.24376000  1.0
  C  C210  1  0.77778000  0.99727000  0.18063000  1.0
  C  C211  1  0.76764000  0.88724000  0.12789000  1.0
  C  C212  1  0.68113000  0.03737000  0.46709000  1.0
  C  C213  1  0.79475000  0.98157000  0.42448000  1.0
  C  C214  1  0.86645000  0.01809000  0.38033000  1.0
  C  C215  1  0.96979000  0.97262000  0.33687000  1.0
  C  C216  1  0.00028000  0.88856000  0.33791000  1.0
  C  C217  1  0.92961000  0.85185000  0.38164000  1.0
  C  C218  1  0.96139000  0.76108000  0.38566000  1.0
  C  C219  1  0.97748000  0.72274000  0.32653000  1.0
  C  C220  1  0.00637000  0.63841000  0.31806000  1.0
  C  C221  1  0.03017000  0.60771000  0.24953000  1.0
  C  C222  1  0.07548000  0.64590000  0.19103000  1.0
  C  C223  1  0.50645000  0.88279000  0.64082000  1.0
  C  C224  1  0.48563000  0.85155000  0.70566000  1.0
  C  C225  1  0.50969000  0.76781000  0.71580000  1.0
  C  C226  1  0.55376000  0.71962000  0.65789000  1.0
  C  C227  1  0.57301000  0.75506000  0.59458000  1.0
  C  C228  1  0.08754000  0.54111000  0.12242000  1.0
  C  C229  1  0.01337000  0.53563000  0.24353000  1.0
  C  C230  1  0.04177000  0.50274000  0.18034000  1.0
  C  C231  1  0.10457000  0.61281000  0.12781000  1.0
  C  C232  1  0.68589000  0.46245000  0.03304000  1.0
  C  C233  1  0.70093000  0.51835000  0.07569000  1.0
  C  C234  1  0.76501000  0.48194000  0.11991000  1.0
  C  C235  1  0.77925000  0.52750000  0.16343000  1.0
  C  C236  1  0.72668000  0.61155000  0.16235000  1.0
  C  C237  1  0.66310000  0.64814000  0.11854000  1.0
  C  C238  1  0.60818000  0.73889000  0.11446000  1.0
  C  C239  1  0.52699000  0.77728000  0.17357000  1.0
  C  C240  1  0.46321000  0.86161000  0.18199000  1.0
  C  C241  1  0.38767000  0.89231000  0.25047000  1.0
  C  C242  1  0.41257000  0.85418000  0.30903000  1.0
  C  C243  1  0.53020000  0.61723000  0.85920000  1.0
  C  C244  1  0.54313000  0.64845000  0.79434000  1.0
  C  C245  1  0.49336000  0.73216000  0.78415000  1.0
  C  C246  1  0.43113000  0.78032000  0.84204000  1.0
  C  C247  1  0.42237000  0.74491000  0.90538000  1.0
  C  C248  1  0.25138000  0.95908000  0.37746000  1.0
  C  C249  1  0.29289000  0.96438000  0.25633000  1.0
  C  C250  1  0.22519000  0.99733000  0.31948000  1.0
  C  C251  1  0.34534000  0.88735000  0.37221000  1.0
  C  C252  1  0.28147000  0.03739000  0.03297000  1.0
  C  C253  1  0.22377000  0.98155000  0.07565000  1.0
  C  C254  1  0.11550000  0.01801000  0.11980000  1.0
  C  C255  1  0.05768000  0.97250000  0.16324000  1.0
  C  C256  1  0.11132000  0.88844000  0.16217000  1.0
  C  C257  1  0.21868000  0.85178000  0.11844000  1.0
  C  C258  1  0.27768000  0.76103000  0.11433000  1.0
  C  C259  1  0.30005000  0.72264000  0.17339000  1.0
  C  C260  1  0.35532000  0.63828000  0.18181000  1.0
  C  C261  1  0.36233000  0.60756000  0.25031000  1.0
  C  C262  1  0.27877000  0.64569000  0.30881000  1.0
  C  C263  1  0.61080000  0.88270000  0.85934000  1.0
  C  C264  1  0.66276000  0.85152000  0.79446000  1.0
  C  C265  1  0.72259000  0.76781000  0.78424000  1.0
  C  C266  1  0.72693000  0.71959000  0.84210000  1.0
  C  C267  1  0.67235000  0.75498000  0.90546000  1.0
  C  C268  1  0.37143000  0.54086000  0.37738000  1.0
  C  C269  1  0.45126000  0.53554000  0.25627000  1.0
  C  C270  1  0.45568000  0.50261000  0.31945000  1.0
  C  C271  1  0.28273000  0.61256000  0.37202000  1.0
  N  N272  1  0.25396000  0.39809000  0.57423000  1.0
  N  N273  1  0.13559000  0.33532000  0.41407000  1.0
  N  N274  1  0.17184000  0.10197000  0.57414000  1.0
  N  N275  1  0.44999000  0.16457000  0.41403000  1.0
  N  N276  1  0.34786000  0.39813000  0.92572000  1.0
  N  N277  1  0.52871000  0.33543000  0.08598000  1.0
  N  N278  1  0.72608000  0.10198000  0.92577000  1.0
  N  N279  1  0.38519000  0.16468000  0.08585000  1.0
  N  N280  1  0.74605000  0.60191000  0.42577000  1.0
  N  N281  1  0.86441000  0.66467000  0.58593000  1.0
  N  N282  1  0.82816000  0.89803000  0.42586000  1.0
  N  N283  1  0.55001000  0.83543000  0.58596000  1.0
  N  N284  1  0.65214000  0.60187000  0.07428000  1.0
  N  N285  1  0.47128000  0.66457000  0.91402000  1.0
  N  N286  1  0.27392000  0.89802000  0.07423000  1.0
  N  N287  1  0.61481000  0.83532000  0.91414000  1.0
  O  O288  1  0.09553000  0.50885000  0.50531000  1.0
  O  O289  1  0.14110000  0.60952000  0.52970000  1.0
  O  O290  1  0.23600000  0.35998000  0.53191000  1.0
  O  O291  1  0.41622000  0.22918000  0.55871000  1.0
  O  O292  1  0.37906000  0.08518000  0.63535000  1.0
  O  O293  1  0.39916000  0.99126000  0.50527000  1.0
  O  O294  1  0.32944000  0.89052000  0.52966000  1.0
  O  O295  1  0.23213000  0.14007000  0.53191000  1.0
  O  O296  1  0.02528000  0.27090000  0.55864000  1.0
  O  O297  1  0.98610000  0.41483000  0.63539000  1.0
  O  O298  1  0.39573000  0.50907000  0.99436000  1.0
  O  O299  1  0.24895000  0.60954000  0.97040000  1.0
  O  O300  1  0.40392000  0.36009000  0.96805000  1.0
  O  O301  1  0.35489000  0.22917000  0.94126000  1.0
  O  O302  1  0.53563000  0.08515000  0.86455000  1.0
  O  O303  1  0.60960000  0.99119000  0.99460000  1.0
  O  O304  1  0.78018000  0.89058000  0.97041000  1.0
  O  O305  1  0.62774000  0.14007000  0.96804000  1.0
  O  O306  1  0.70368000  0.27092000  0.94139000  1.0
  O  O307  1  0.59935000  0.41498000  0.86472000  1.0
  O  O308  1  0.90448000  0.49115000  0.49469000  1.0
  O  O309  1  0.85891000  0.39048000  0.47030000  1.0
  O  O310  1  0.76401000  0.64002000  0.46809000  1.0
  O  O311  1  0.58378000  0.77082000  0.44130000  1.0
  O  O312  1  0.62094000  0.91482000  0.36466000  1.0
  O  O313  1  0.60083000  0.00875000  0.49474000  1.0
  O  O314  1  0.67056000  0.10948000  0.47034000  1.0
  O  O315  1  0.76787000  0.85993000  0.46810000  1.0
  O  O316  1  0.97472000  0.72910000  0.44136000  1.0
  O  O317  1  0.01391000  0.58517000  0.36461000  1.0
  O  O318  1  0.60426000  0.49093000  0.00564000  1.0
  O  O319  1  0.75105000  0.39046000  0.02959000  1.0
  O  O320  1  0.59608000  0.63991000  0.03195000  1.0
  O  O321  1  0.64510000  0.77083000  0.05873000  1.0
  O  O322  1  0.46436000  0.91485000  0.13545000  1.0
  O  O323  1  0.39040000  0.00881000  0.00540000  1.0
  O  O324  1  0.21982000  0.10942000  0.02960000  1.0
  O  O325  1  0.37226000  0.85993000  0.03196000  1.0
  O  O326  1  0.29633000  0.72908000  0.05861000  1.0
  O  O327  1  0.40065000  0.58502000  0.13528000  1.0
