# generated using pymatgen
data_CdH12C12(SN3)2
_symmetry_space_group_name_H-M   'P 1'
_cell_length_a   5.59731000
_cell_length_b   13.77280000
_cell_length_c   18.66600000
_cell_angle_alpha   90.00000000
_cell_angle_beta   90.00000000
_cell_angle_gamma   90.00000000
_symmetry_Int_Tables_number   1
_chemical_formula_structural   CdH12C12(SN3)2
_chemical_formula_sum   'Cd4 H48 C48 S8 N24'
_cell_volume   1438.97372138
_cell_formula_units_Z   4
loop_
 _symmetry_equiv_pos_site_id
 _symmetry_equiv_pos_as_xyz
  1  'x, y, z'
loop_
 _atom_site_type_symbol
 _atom_site_label
 _atom_site_symmetry_multiplicity
 _atom_site_fract_x
 _atom_site_fract_y
 _atom_site_fract_z
 _atom_site_occupancy
  Cd  Cd0  1  0.00000000  0.50000000  0.00000000  1.0
  Cd  Cd1  1  0.00000000  0.00000000  0.50000000  1.0
  Cd  Cd2  1  0.50000000  0.50000000  0.50000000  1.0
  Cd  Cd3  1  0.50000000  0.00000000  0.00000000  1.0
  H  H4  1  0.55661000  0.70781000  0.30521000  1.0
  H  H5  1  0.44340000  0.79219000  0.80521000  1.0
  H  H6  1  0.05659000  0.29218000  0.19479000  1.0
  H  H7  1  0.94339000  0.20782000  0.69479000  1.0
  H  H8  1  0.44340000  0.29219000  0.69479000  1.0
  H  H9  1  0.55659000  0.20781000  0.19478000  1.0
  H  H10  1  0.94340000  0.70782000  0.80521000  1.0
  H  H11  1  0.05662000  0.79218000  0.30522000  1.0
  H  H12  1  0.32408000  0.65214000  0.34887000  1.0
  H  H13  1  0.67593000  0.84786000  0.84887000  1.0
  H  H14  1  0.82406000  0.34786000  0.15113000  1.0
  H  H15  1  0.17592000  0.15215000  0.65113000  1.0
  H  H16  1  0.67593000  0.34786000  0.65113000  1.0
  H  H17  1  0.32406000  0.15214000  0.15113000  1.0
  H  H18  1  0.17592000  0.65215000  0.84887000  1.0
  H  H19  1  0.82409000  0.84785000  0.34887000  1.0
  H  H20  1  0.42690000  0.64144000  0.06032000  1.0
  H  H21  1  0.57311000  0.85856000  0.56032000  1.0
  H  H22  1  0.92688000  0.35856000  0.43968000  1.0
  H  H23  1  0.07311000  0.14144000  0.93968000  1.0
  H  H24  1  0.57311000  0.35856000  0.93968000  1.0
  H  H25  1  0.42688000  0.14144000  0.43968000  1.0
  H  H26  1  0.07311000  0.64144000  0.56032000  1.0
  H  H27  1  0.92690000  0.85856000  0.06032000  1.0
  H  H28  1  0.59553000  0.70232000  0.17280000  1.0
  H  H29  1  0.40448000  0.79768000  0.67280000  1.0
  H  H30  1  0.09551000  0.29768000  0.32720000  1.0
  H  H31  1  0.90447000  0.20232000  0.82720000  1.0
  H  H32  1  0.40447000  0.29768000  0.82720000  1.0
  H  H33  1  0.59551000  0.20232000  0.32720000  1.0
  H  H34  1  0.90448000  0.70232000  0.67280000  1.0
  H  H35  1  0.09554000  0.79769000  0.17280000  1.0
  H  H36  1  0.98487000  0.57728000  0.28227000  1.0
  H  H37  1  0.01513000  0.92273000  0.78227000  1.0
  H  H38  1  0.48486000  0.42273000  0.21773000  1.0
  H  H39  1  0.51513000  0.07728000  0.71773000  1.0
  H  H40  1  0.01513000  0.42272000  0.71773000  1.0
  H  H41  1  0.98486000  0.07727000  0.21773000  1.0
  H  H42  1  0.51513000  0.57728000  0.78227000  1.0
  H  H43  1  0.48489000  0.92272000  0.28227000  1.0
  H  H44  1  0.84221000  0.52114000  0.16344000  1.0
  H  H45  1  0.15780000  0.97887000  0.66344000  1.0
  H  H46  1  0.34219000  0.47887000  0.33656000  1.0
  H  H47  1  0.65781000  0.02114000  0.83656000  1.0
  H  H48  1  0.15780000  0.47887000  0.83656000  1.0
  H  H49  1  0.84219000  0.02113000  0.33656000  1.0
  H  H50  1  0.65781000  0.52114000  0.66344000  1.0
  H  H51  1  0.34220000  0.97886000  0.16344000  1.0
  C  C52  1  0.33279000  0.62802000  0.11028000  1.0
  C  C53  1  0.66722000  0.87199000  0.61027000  1.0
  C  C54  1  0.83277000  0.37199000  0.38972000  1.0
  C  C55  1  0.16722000  0.12802000  0.88972000  1.0
  C  C56  1  0.66721000  0.37199000  0.88972000  1.0
  C  C57  1  0.33277000  0.12801000  0.38972000  1.0
  C  C58  1  0.16722000  0.62801000  0.61028000  1.0
  C  C59  1  0.83280000  0.87199000  0.11028000  1.0
  C  C60  1  0.42756000  0.66245000  0.17380000  1.0
  C  C61  1  0.57245000  0.83754000  0.67380000  1.0
  C  C62  1  0.92754000  0.33754000  0.32620000  1.0
  C  C63  1  0.07245000  0.16245000  0.82620000  1.0
  C  C64  1  0.57245000  0.33755000  0.82620000  1.0
  C  C65  1  0.42754000  0.16245000  0.32619000  1.0
  C  C66  1  0.07245000  0.66245000  0.67380000  1.0
  C  C67  1  0.92757000  0.83755000  0.17380000  1.0
  C  C68  1  0.30624000  0.64528000  0.23888000  1.0
  C  C69  1  0.69377000  0.85472000  0.73888000  1.0
  C  C70  1  0.80622000  0.35472000  0.26112000  1.0
  C  C71  1  0.19376000  0.14529000  0.76111000  1.0
  C  C72  1  0.69377000  0.35472000  0.76112000  1.0
  C  C73  1  0.30622000  0.14528000  0.26112000  1.0
  C  C74  1  0.19377000  0.64529000  0.73889000  1.0
  C  C75  1  0.80625000  0.85471000  0.23889000  1.0
  C  C76  1  0.08970000  0.59262000  0.23436000  1.0
  C  C77  1  0.91030000  0.90738000  0.73436000  1.0
  C  C78  1  0.58969000  0.40738000  0.26564000  1.0
  C  C79  1  0.41031000  0.09262000  0.76564000  1.0
  C  C80  1  0.91031000  0.40738000  0.76564000  1.0
  C  C81  1  0.08969000  0.09261000  0.26564000  1.0
  C  C82  1  0.41030000  0.59262000  0.73436000  1.0
  C  C83  1  0.58971000  0.90738000  0.23436000  1.0
  C  C84  1  0.00931000  0.56111000  0.16820000  1.0
  C  C85  1  0.99069000  0.93889000  0.66820000  1.0
  C  C86  1  0.50930000  0.43889000  0.33180000  1.0
  C  C87  1  0.49069000  0.06111000  0.83179000  1.0
  C  C88  1  0.99069000  0.43889000  0.83180000  1.0
  C  C89  1  0.00930000  0.06110000  0.33179000  1.0
  C  C90  1  0.49070000  0.56111000  0.66821000  1.0
  C  C91  1  0.50932000  0.93888000  0.16821000  1.0
  C  C92  1  0.50804000  0.60610000  0.94204000  1.0
  C  C93  1  0.49200000  0.89391000  0.44204000  1.0
  C  C94  1  0.00803000  0.39391000  0.55796000  1.0
  C  C95  1  0.99196000  0.10608000  0.05796000  1.0
  C  C96  1  0.49197000  0.39391000  0.05796000  1.0
  C  C97  1  0.50802000  0.10610000  0.55796000  1.0
  C  C98  1  0.99197000  0.60609000  0.44204000  1.0
  C  C99  1  0.00804000  0.89391000  0.94204000  1.0
  S  S100  1  0.75598000  0.66485000  0.95537000  1.0
  S  S101  1  0.24399000  0.83515000  0.45537000  1.0
  S  S102  1  0.25600000  0.33515000  0.54463000  1.0
  S  S103  1  0.74401000  0.16484000  0.04463000  1.0
  S  S104  1  0.24401000  0.33516000  0.04463000  1.0
  S  S105  1  0.75599000  0.16485000  0.54463000  1.0
  S  S106  1  0.74401000  0.66484000  0.45538000  1.0
  S  S107  1  0.25598000  0.83516000  0.95537000  1.0
  N  N108  1  0.12672000  0.57734000  0.10612000  1.0
  N  N109  1  0.87329000  0.92267000  0.60611000  1.0
  N  N110  1  0.62670000  0.42267000  0.39388000  1.0
  N  N111  1  0.37329000  0.07734000  0.89388000  1.0
  N  N112  1  0.87328000  0.42267000  0.89389000  1.0
  N  N113  1  0.12670000  0.07733000  0.39388000  1.0
  N  N114  1  0.37329000  0.57733000  0.60612000  1.0
  N  N115  1  0.62672000  0.92266000  0.10612000  1.0
  N  N116  1  0.38647000  0.68180000  0.30233000  1.0
  N  N117  1  0.61354000  0.81820000  0.80233000  1.0
  N  N118  1  0.88645000  0.31820000  0.19767000  1.0
  N  N119  1  0.11353000  0.18180000  0.69767000  1.0
  N  N120  1  0.61353000  0.31820000  0.69767000  1.0
  N  N121  1  0.38646000  0.18180000  0.19767000  1.0
  N  N122  1  0.11353000  0.68181000  0.80233000  1.0
  N  N123  1  0.88649000  0.81819000  0.30233000  1.0
  N  N124  1  0.32448000  0.56445000  0.93278000  1.0
  N  N125  1  0.67556000  0.93556000  0.43279000  1.0
  N  N126  1  0.82447000  0.43556000  0.56722000  1.0
  N  N127  1  0.17552000  0.06443000  0.06722000  1.0
  N  N128  1  0.67554000  0.43556000  0.06722000  1.0
  N  N129  1  0.32446000  0.06445000  0.56721000  1.0
  N  N130  1  0.17552000  0.56444000  0.43279000  1.0
  N  N131  1  0.82448000  0.93556000  0.93278000  1.0
