# generated using pymatgen
data_Zn4H16C32O13F2
_symmetry_space_group_name_H-M   'P 1'
_cell_length_a   13.07830000
_cell_length_b   13.25030000
_cell_length_c   18.08710000
_cell_angle_alpha   68.89290000
_cell_angle_beta   72.38160000
_cell_angle_gamma   88.78490000
_symmetry_Int_Tables_number   1
_chemical_formula_structural   Zn4H16C32O13F2
_chemical_formula_sum   'Zn4 H16 C32 O13 F2'
_cell_volume   2773.27779536
_cell_formula_units_Z   1
loop_
 _symmetry_equiv_pos_site_id
 _symmetry_equiv_pos_as_xyz
  1  'x, y, z'
loop_
 _atom_site_type_symbol
 _atom_site_label
 _atom_site_symmetry_multiplicity
 _atom_site_fract_x
 _atom_site_fract_y
 _atom_site_fract_z
 _atom_site_occupancy
  Zn  Zn0  1  0.41613000  0.44689000  0.44521000  1.0
  Zn  Zn1  1  0.55340000  0.38164000  0.57235000  1.0
  Zn  Zn2  1  0.40969000  0.56990000  0.57375000  1.0
  Zn  Zn3  1  0.60974000  0.61174000  0.40707000  1.0
  H  H4  1  0.67401000  0.75788000  0.87995000  1.0
  H  H5  1  0.37378000  0.23900000  0.84411000  1.0
  H  H6  1  0.34831000  0.24212000  0.11250000  1.0
  H  H7  1  0.71446000  0.79126000  0.99337000  1.0
  H  H8  1  0.68678000  0.74044000  0.14573000  1.0
  H  H9  1  0.46729000  0.46757000  0.20382000  1.0
  H  H10  1  0.58764000  0.64487000  0.83055000  1.0
  H  H11  1  0.41512000  0.36618000  0.16359000  1.0
  H  H12  1  0.33696000  0.19263000  0.99706000  1.0
  H  H13  1  0.09894000  0.49395000  0.45616000  1.0
  H  H14  1  0.94438000  0.52084000  0.40782000  1.0
  H  H15  1  0.05231000  0.48643000  0.63614000  1.0
  H  H16  1  0.42840000  0.89477000  0.55569000  1.0
  H  H17  1  0.43782000  0.04683000  0.60032000  1.0
  H  H18  1  0.53884000  0.96012000  0.36573000  1.0
  H  H19  1  0.51005000  0.55777000  0.79226000  1.0
  C  C20  1  0.77317000  0.49561000  0.48058000  1.0
  C  C21  1  0.42996000  0.39003000  0.09674000  1.0
  C  C22  1  0.39233000  0.32020000  0.06845000  1.0
  C  C23  1  0.21628000  0.49910000  0.55004000  1.0
  C  C24  1  0.41047000  0.34672000  0.98160000  1.0
  C  C25  1  0.46495000  0.45041000  0.92354000  1.0
  C  C26  1  0.37708000  0.27186000  0.95187000  1.0
  C  C27  1  0.39610000  0.29733000  0.86770000  1.0
  C  C28  1  0.47517000  0.47759000  0.83841000  1.0
  C  C29  1  0.09718000  0.48897000  0.57391000  1.0
  C  C30  1  0.04848000  0.48777000  0.51829000  1.0
  C  C31  1  0.64561000  0.69247000  0.12346000  1.0
  C  C32  1  0.88943000  0.49675000  0.47142000  1.0
  C  C33  1  0.93401000  0.48022000  0.53263000  1.0
  C  C34  1  0.50116000  0.90879000  0.43113000  1.0
  C  C35  1  0.46147000  0.22127000  0.52483000  1.0
  C  C36  1  0.46114000  0.95047000  0.49075000  1.0
  C  C37  1  0.44910000  0.10502000  0.53727000  1.0
  C  C38  1  0.46258000  0.06475000  0.47658000  1.0
  C  C39  1  0.50417000  0.78986000  0.45383000  1.0
  C  C40  1  0.45812000  0.43197000  0.72025000  1.0
  C  C41  1  0.55215000  0.57342000  0.27354000  1.0
  C  C42  1  0.52178000  0.53689000  0.15590000  1.0
  C  C43  1  0.57349000  0.60116000  0.18243000  1.0
  C  C44  1  0.44280000  0.40252000  0.81068000  1.0
  C  C45  1  0.66084000  0.71967000  0.03956000  1.0
  C  C46  1  0.53912000  0.56022000  0.07028000  1.0
  C  C47  1  0.60801000  0.65579000  0.01116000  1.0
  C  C48  1  0.49121000  0.49104000  0.04060000  1.0
  C  C49  1  0.50873000  0.52177000  0.95366000  1.0
  C  C50  1  0.57369000  0.62059000  0.89733000  1.0
  C  C51  1  0.62246000  0.68420000  0.92464000  1.0
  O  O52  1  0.49892000  0.50278000  0.49854000  1.0
  O  O53  1  0.48084000  0.35644000  0.69126000  1.0
  O  O54  1  0.61661000  0.61987000  0.29498000  1.0
  O  O55  1  0.44705000  0.53006000  0.67796000  1.0
  O  O56  1  0.47053000  0.50537000  0.32329000  1.0
  O  O57  1  0.41777000  0.28823000  0.47574000  1.0
  O  O58  1  0.57515000  0.75960000  0.40177000  1.0
  O  O59  1  0.70877000  0.42121000  0.54362000  1.0
  O  O60  1  0.25682000  0.52203000  0.59900000  1.0
  O  O61  1  0.74992000  0.57061000  0.42167000  1.0
  O  O62  1  0.26848000  0.48539000  0.48264000  1.0
  O  O63  1  0.51557000  0.24240000  0.56663000  1.0
  O  O64  1  0.43742000  0.72854000  0.52332000  1.0
  F  F65  1  0.87116000  0.45904000  0.61259000  1.0
  F  F66  1  0.48616000  0.13279000  0.39538000  1.0
