# generated using pymatgen
data_CuH9C9NO4
_symmetry_space_group_name_H-M   'P 1'
_cell_length_a   6.64325000
_cell_length_b   9.26902317
_cell_length_c   16.43730000
_cell_angle_alpha   95.05131640
_cell_angle_beta   101.62430000
_cell_angle_gamma   110.96419407
_symmetry_Int_Tables_number   1
_chemical_formula_structural   CuH9C9NO4
_chemical_formula_sum   'Cu4 H36 C36 N4 O16'
_cell_volume   911.46562231
_cell_formula_units_Z   4
loop_
 _symmetry_equiv_pos_site_id
 _symmetry_equiv_pos_as_xyz
  1  'x, y, z'
loop_
 _atom_site_type_symbol
 _atom_site_label
 _atom_site_symmetry_multiplicity
 _atom_site_fract_x
 _atom_site_fract_y
 _atom_site_fract_z
 _atom_site_occupancy
  Cu  Cu0  1  0.00436000  0.03912000  0.79757000  1.0
  Cu  Cu1  1  0.66811000  0.46055000  0.70253000  1.0
  Cu  Cu2  1  0.99563000  0.96087000  0.20243000  1.0
  Cu  Cu3  1  0.33189000  0.53946000  0.29747000  1.0
  H  H4  1  0.60944000  0.86774000  0.70575000  1.0
  H  H5  1  0.53631000  0.63213000  0.79438000  1.0
  H  H6  1  0.39057000  0.13227000  0.29425000  1.0
  H  H7  1  0.46369000  0.36787000  0.20562000  1.0
  H  H8  1  0.77495000  0.78799000  0.67952000  1.0
  H  H9  1  0.80754000  0.71173000  0.82065000  1.0
  H  H10  1  0.22505000  0.21201000  0.32048000  1.0
  H  H11  1  0.19246000  0.28827000  0.17935000  1.0
  H  H12  1  0.20870000  0.42501000  0.93739000  1.0
  H  H13  1  0.34723000  0.07468000  0.56257000  1.0
  H  H14  1  0.79129000  0.57498000  0.06261000  1.0
  H  H15  1  0.65276000  0.92532000  0.43743000  1.0
  H  H16  1  0.37696000  0.40782000  0.86727000  1.0
  H  H17  1  0.60249000  0.09185000  0.63273000  1.0
  H  H18  1  0.62304000  0.59218000  0.13273000  1.0
  H  H19  1  0.39751000  0.90816000  0.36727000  1.0
  H  H20  1  0.34098000  0.26772000  0.02175000  1.0
  H  H21  1  0.55196000  0.23245000  0.47815000  1.0
  H  H22  1  0.65902000  0.73227000  0.97825000  1.0
  H  H23  1  0.44804000  0.76756000  0.52186000  1.0
  H  H24  1  0.43741000  0.12575000  0.11606000  1.0
  H  H25  1  0.69602000  0.37450000  0.38397000  1.0
  H  H26  1  0.56259000  0.87425000  0.88394000  1.0
  H  H27  1  0.30398000  0.62550000  0.61604000  1.0
  H  H28  1  0.43432000  0.87691000  0.16235000  1.0
  H  H29  1  0.89531000  0.62333000  0.33774000  1.0
  H  H30  1  0.56567000  0.12308000  0.83765000  1.0
  H  H31  1  0.10470000  0.37667000  0.66226000  1.0
  H  H32  1  0.23742000  0.62599000  0.06098000  1.0
  H  H33  1  0.04986000  0.87426000  0.43914000  1.0
  H  H34  1  0.76257000  0.37400000  0.93901000  1.0
  H  H35  1  0.95015000  0.12574000  0.56086000  1.0
  H  H36  1  0.04823000  0.62449000  0.91261000  1.0
  H  H37  1  0.01020000  0.87565000  0.58752000  1.0
  H  H38  1  0.95177000  0.37551000  0.08739000  1.0
  H  H39  1  0.98981000  0.12435000  0.41248000  1.0
  C  C40  1  0.03853000  0.34627000  0.80408000  1.0
  C  C41  1  0.38841000  0.15349000  0.69586000  1.0
  C  C42  1  0.96148000  0.65373000  0.19592000  1.0
  C  C43  1  0.61158000  0.84651000  0.30414000  1.0
  C  C44  1  0.21428000  0.35261000  0.88183000  1.0
  C  C45  1  0.48046333  0.14713000  0.61813000  1.0
  C  C46  1  0.78572000  0.64739000  0.11817000  1.0
  C  C47  1  0.51954667  0.85288000  0.38187000  1.0
  C  C48  1  0.25640000  0.16746000  0.96937000  1.0
  C  C49  1  0.61990000  0.33253000  0.53063000  1.0
  C  C50  1  0.74360000  0.83254000  0.03063000  1.0
  C  C51  1  0.38009000  0.66747000  0.46937000  1.0
  C  C52  1  0.23945000  0.01684000  0.99003000  1.0
  C  C53  1  0.73263000  0.48323000  0.51004000  1.0
  C  C54  1  0.76054000  0.98315000  0.00997000  1.0
  C  C55  1  0.26737000  0.51677000  0.48996000  1.0
  C  C56  1  0.34614000  0.01395000  0.07291000  1.0
  C  C57  1  0.75942000  0.48626000  0.42715000  1.0
  C  C58  1  0.65386000  0.98604000  0.92709000  1.0
  C  C59  1  0.24059000  0.51374000  0.57285000  1.0
  C  C60  1  0.34517000  0.87597000  0.09917000  1.0
  C  C61  1  0.87003000  0.62427000  0.40092000  1.0
  C  C62  1  0.65482000  0.12402000  0.90083000  1.0
  C  C63  1  0.12998000  0.37573000  0.59908000  1.0
  C  C64  1  0.23613000  0.73516000  0.04106000  1.0
  C  C65  1  0.95947000  0.76506000  0.45904000  1.0
  C  C66  1  0.76386000  0.26483000  0.95894000  1.0
  C  C67  1  0.04055000  0.23495000  0.54096000  1.0
  C  C68  1  0.12823000  0.73279000  0.95893000  1.0
  C  C69  1  0.93591000  0.76734000  0.54118000  1.0
  C  C70  1  0.87176000  0.26720000  0.04106000  1.0
  C  C71  1  0.06410000  0.23266000  0.45882000  1.0
  C  C72  1  0.12495000  0.87258000  0.93126000  1.0
  C  C73  1  0.82097000  0.62745000  0.56886000  1.0
  C  C74  1  0.87504000  0.12741000  0.06874000  1.0
  C  C75  1  0.17903000  0.37255000  0.43114000  1.0
  N  N76  1  0.18463000  0.19460000  0.89562000  1.0
  N  N77  1  0.59488000  0.30515000  0.60439000  1.0
  N  N78  1  0.81537000  0.80540000  0.10438000  1.0
  N  N79  1  0.40512000  0.69485000  0.39562000  1.0
  O  O80  1  0.01412000  0.86284000  0.85271000  1.0
  O  O81  1  0.79872000  0.63705000  0.64748000  1.0
  O  O82  1  0.98588000  0.13716000  0.14729000  1.0
  O  O83  1  0.20128000  0.36295000  0.35252000  1.0
  O  O84  1  0.93256000  0.21181000  0.75508000  1.0
  O  O85  1  0.46579000  0.28792000  0.74491000  1.0
  O  O86  1  0.06745000  0.78819000  0.24492000  1.0
  O  O87  1  0.53421000  0.71209000  0.25509000  1.0
  O  O88  1  0.25229000  0.03026000  0.71012000  1.0
  O  O89  1  0.01162000  0.46959000  0.78977000  1.0
  O  O90  1  0.74769000  0.96974000  0.28988000  1.0
  O  O91  1  0.98838000  0.53041000  0.21022000  1.0
  O  O92  1  0.75802000  0.89197000  0.69731000  1.0
  O  O93  1  0.66904000  0.60780000  0.80289000  1.0
  O  O94  1  0.24198000  0.10803000  0.30269000  1.0
  O  O95  1  0.33095000  0.39220000  0.19711000  1.0
