# generated using pymatgen
data_Zr3H18C30Cl5O16
_symmetry_space_group_name_H-M   'P 1'
_cell_length_a   14.77426458
_cell_length_b   14.88189735
_cell_length_c   14.88460000
_cell_angle_alpha   60.59099189
_cell_angle_beta   60.33337662
_cell_angle_gamma   60.32747360
_symmetry_Int_Tables_number   1
_chemical_formula_structural   Zr3H18C30Cl5O16
_chemical_formula_sum   'Zr6 H36 C60 Cl10 O32'
_cell_volume   2335.92572626
_cell_formula_units_Z   2
loop_
 _symmetry_equiv_pos_site_id
 _symmetry_equiv_pos_as_xyz
  1  'x, y, z'
loop_
 _atom_site_type_symbol
 _atom_site_label
 _atom_site_symmetry_multiplicity
 _atom_site_fract_x
 _atom_site_fract_y
 _atom_site_fract_z
 _atom_site_occupancy
  Zr  Zr0  1  0.38035000  0.12090000  0.88412000  1.0
  Zr  Zr1  1  0.62159000  0.88439000  0.11918000  1.0
  Zr  Zr2  1  0.37992000  0.88373000  0.12164000  1.0
  Zr  Zr3  1  0.62134000  0.11852000  0.88490000  1.0
  Zr  Zr4  1  0.37917000  0.12016000  0.12087000  1.0
  Zr  Zr5  1  0.61459000  0.88317000  0.88422000  1.0
  H  H6  1  0.21794000  0.09479000  0.09562000  1.0
  H  H7  1  0.59705000  0.09430000  0.09504000  1.0
  H  H8  1  0.59201000  0.72292000  0.09463000  1.0
  H  H9  1  0.59215000  0.09366000  0.72370000  1.0
  H  H10  1  0.13309000  0.47106000  0.14723000  1.0
  H  H11  1  0.04794000  0.38804000  0.24035000  1.0
  H  H12  1  0.87844000  0.55728000  0.23652000  1.0
  H  H13  1  0.96443000  0.64019000  0.14651000  1.0
  H  H14  1  0.66583000  0.75805000  0.62374000  1.0
  H  H15  1  0.73883000  0.85302000  0.54099000  1.0
  H  H16  1  0.74007000  0.85198000  0.37182000  1.0
  H  H17  1  0.66296000  0.76045000  0.45431000  1.0
  H  H18  1  0.66238000  0.45462000  0.76105000  1.0
  H  H19  1  0.73976000  0.37221000  0.85233000  1.0
  H  H20  1  0.73788000  0.54165000  0.85365000  1.0
  H  H21  1  0.66435000  0.62426000  0.75917000  1.0
  H  H22  1  0.96254000  0.14677000  0.64087000  1.0
  H  H23  1  0.87735000  0.23630000  0.55726000  1.0
  H  H24  1  0.04755000  0.24007000  0.38886000  1.0
  H  H25  1  0.13201000  0.14663000  0.47253000  1.0
  H  H26  1  0.82336000  0.12179000  0.07855000  1.0
  H  H27  1  0.84686000  0.98500000  0.16842000  1.0
  H  H28  1  0.00369000  0.98701000  0.16891000  1.0
  H  H29  1  0.97974000  0.12341000  0.07789000  1.0
  H  H30  1  0.12044000  0.82922000  0.09452000  1.0
  H  H31  1  0.17950000  0.85305000  0.95255000  1.0
  H  H32  1  0.96271000  0.82850000  0.09369000  1.0
  H  H33  1  0.02289000  0.85248000  0.95140000  1.0
  H  H34  1  0.90742000  0.15935000  0.87377000  1.0
  H  H35  1  0.98856000  0.05071000  0.82021000  1.0
  H  H36  1  0.14625000  0.05048000  0.82098000  1.0
  H  H37  1  0.06531000  0.15955000  0.87361000  1.0
  H  H38  1  0.25507000  0.46139000  0.63037000  1.0
  H  H39  1  0.33970000  0.37715000  0.54574000  1.0
  H  H40  1  0.33978000  0.54534000  0.37756000  1.0
  H  H41  1  0.25512000  0.63006000  0.46171000  1.0
  C  C42  1  0.19738000  0.30427000  0.00029000  1.0
  C  C43  1  0.49299000  0.00258000  0.30641000  1.0
  C  C44  1  0.80407000  0.70369000  0.99429000  1.0
  C  C45  1  0.48902000  0.99819000  0.70743000  1.0
  C  C46  1  0.19557000  0.00061000  0.00020000  1.0
  C  C47  1  0.50227000  0.30553000  0.70283000  1.0
  C  C48  1  0.81105000  0.99880000  0.99853000  1.0
  C  C49  1  0.50236000  0.70234000  0.30603000  1.0
  C  C50  1  0.19715000  0.99994000  0.30489000  1.0
  C  C51  1  0.48821000  0.70697000  0.99941000  1.0
  C  C52  1  0.80383000  0.99334000  0.70418000  1.0
  C  C53  1  0.49292000  0.30583000  0.00323000  1.0
  C  C54  1  0.09381000  0.40094000  0.99794000  1.0
  C  C55  1  0.90225000  0.60133000  0.99128000  1.0
  C  C56  1  0.04674000  0.45791000  0.07059000  1.0
  C  C57  1  0.94766000  0.54403000  0.91679000  1.0
  C  C58  1  0.95473000  0.55292000  0.06796000  1.0
  C  C59  1  0.03844000  0.44483000  0.92228000  1.0
  C  C60  1  0.05746000  0.45906000  0.16599000  1.0
  C  C61  1  0.95221000  0.56537000  0.16420000  1.0
  C  C62  1  0.48132000  0.00101000  0.60959000  1.0
  C  C63  1  0.48521000  0.00632000  0.40874000  1.0
  C  C64  1  0.56344000  0.92726000  0.55382000  1.0
  C  C65  1  0.40110000  0.08381000  0.46298000  1.0
  C  C66  1  0.56463000  0.92920000  0.45866000  1.0
  C  C67  1  0.39720000  0.07944000  0.56227000  1.0
  C  C68  1  0.67102000  0.83264000  0.55293000  1.0
  C  C69  1  0.67108000  0.83350000  0.44656000  1.0
  C  C70  1  0.48502000  0.40814000  0.00719000  1.0
  C  C71  1  0.48057000  0.60907000  0.00233000  1.0
  C  C72  1  0.56417000  0.45841000  0.93002000  1.0
  C  C73  1  0.39687000  0.56127000  0.08097000  1.0
  C  C74  1  0.56269000  0.55359000  0.92834000  1.0
  C  C75  1  0.40104000  0.46194000  0.08510000  1.0
  C  C76  1  0.67051000  0.44678000  0.83413000  1.0
  C  C77  1  0.67003000  0.55328000  0.83352000  1.0
  C  C78  1  0.90177000  0.99070000  0.60155000  1.0
  C  C79  1  0.09344000  0.99768000  0.40132000  1.0
  C  C80  1  0.95396000  0.06762000  0.55324000  1.0
  C  C81  1  0.03811000  0.92204000  0.44488000  1.0
  C  C82  1  0.04611000  0.07031000  0.45840000  1.0
  C  C83  1  0.94735000  0.91635000  0.54407000  1.0
  C  C84  1  0.95103000  0.16398000  0.56584000  1.0
  C  C85  1  0.05663000  0.16567000  0.45992000  1.0
  C  C86  1  0.88527000  0.03915000  0.08984000  1.0
  C  C87  1  0.99010000  0.04010000  0.09004000  1.0
  C  C88  1  0.09317000  0.00037000  0.99728000  1.0
  C  C89  1  0.10565000  0.88360000  0.01656000  1.0
  C  C90  1  0.00119000  0.88305000  0.01586000  1.0
  C  C91  1  0.91559000  0.99950000  0.99651000  1.0
  C  C92  1  0.96847000  0.07665000  0.88740000  1.0
  C  C93  1  0.07319000  0.07672000  0.88772000  1.0
  C  C94  1  0.50818000  0.40518000  0.60188000  1.0
  C  C95  1  0.50829000  0.60133000  0.40564000  1.0
  C  C96  1  0.42917000  0.45698000  0.55064000  1.0
  C  C97  1  0.59108000  0.54924000  0.45510000  1.0
  C  C98  1  0.42921000  0.55018000  0.45744000  1.0
  C  C99  1  0.59099000  0.45461000  0.54987000  1.0
  C  C100  1  0.32680000  0.45099000  0.55656000  1.0
  C  C101  1  0.32681000  0.55620000  0.45139000  1.0
  Cl  Cl102  1  0.89619000  0.59242000  0.81441000  1.0
  Cl  Cl103  1  0.07623000  0.37754000  0.83572000  1.0
  Cl  Cl104  1  0.30106000  0.19033000  0.40925000  1.0
  Cl  Cl105  1  0.28526000  0.17315000  0.62286000  1.0
  Cl  Cl106  1  0.28551000  0.62090000  0.17571000  1.0
  Cl  Cl107  1  0.30177000  0.40741000  0.19202000  1.0
  Cl  Cl108  1  0.07585000  0.83581000  0.37725000  1.0
  Cl  Cl109  1  0.89593000  0.81399000  0.59221000  1.0
  Cl  Cl110  1  0.69792000  0.59789000  0.40164000  1.0
  Cl  Cl111  1  0.69758000  0.40130000  0.59880000  1.0
  O  O112  1  0.24644000  0.26577000  0.92187000  1.0
  O  O113  1  0.57461000  0.92752000  0.26855000  1.0
  O  O114  1  0.77102000  0.74082000  0.07066000  1.0
  O  O115  1  0.41880000  0.07482000  0.74769000  1.0
  O  O116  1  0.23315000  0.92631000  0.07778000  1.0
  O  O117  1  0.57527000  0.26262000  0.74776000  1.0
  O  O118  1  0.76919000  0.07420000  0.92415000  1.0
  O  O119  1  0.42448000  0.73593000  0.27045000  1.0
  O  O120  1  0.23036000  0.07980000  0.26835000  1.0
  O  O121  1  0.56748000  0.74101000  0.92232000  1.0
  O  O122  1  0.75908000  0.92100000  0.74648000  1.0
  O  O123  1  0.41805000  0.26339000  0.07487000  1.0
  O  O124  1  0.41761000  0.74776000  0.07561000  1.0
  O  O125  1  0.77064000  0.06996000  0.74101000  1.0
  O  O126  1  0.57461000  0.26799000  0.92820000  1.0
  O  O127  1  0.24632000  0.92140000  0.26650000  1.0
  O  O128  1  0.23585000  0.07641000  0.92612000  1.0
  O  O129  1  0.57545000  0.74717000  0.26311000  1.0
  O  O130  1  0.77039000  0.92410000  0.07563000  1.0
  O  O131  1  0.42452000  0.26982000  0.73631000  1.0
  O  O132  1  0.56794000  0.92080000  0.74192000  1.0
  O  O133  1  0.23051000  0.26768000  0.08021000  1.0
  O  O134  1  0.41816000  0.07439000  0.26395000  1.0
  O  O135  1  0.75885000  0.74551000  0.92244000  1.0
  O  O136  1  0.56636000  0.06760000  0.80297000  1.0
  O  O137  1  0.56619000  0.80221000  0.06855000  1.0
  O  O138  1  0.56909000  0.06819000  0.06888000  1.0
  O  O139  1  0.29799000  0.06898000  0.06972000  1.0
  O  O140  1  0.45228000  0.95298000  0.14863000  1.0
  O  O141  1  0.45217000  0.14800000  0.95372000  1.0
  O  O142  1  0.64849000  0.95206000  0.95295000  1.0
  O  O143  1  0.44762000  0.95307000  0.95391000  1.0
