# generated using pymatgen
data_Zr3H26C30NO16
_symmetry_space_group_name_H-M   'P 1'
_cell_length_a   14.77543341
_cell_length_b   14.77820000
_cell_length_c   14.78290000
_cell_angle_alpha   119.97470000
_cell_angle_beta   90.05730692
_cell_angle_gamma   119.86212852
_symmetry_Int_Tables_number   1
_chemical_formula_structural   Zr3H26C30NO16
_chemical_formula_sum   'Zr6 H52 C60 N2 O32'
_cell_volume   2286.95699688
_cell_formula_units_Z   2
loop_
 _symmetry_equiv_pos_site_id
 _symmetry_equiv_pos_as_xyz
  1  'x, y, z'
loop_
 _atom_site_type_symbol
 _atom_site_label
 _atom_site_symmetry_multiplicity
 _atom_site_fract_x
 _atom_site_fract_y
 _atom_site_fract_z
 _atom_site_occupancy
  Zr  Zr0  1  0.38618000  0.50611000  0.88132000  1.0
  Zr  Zr1  1  0.61954000  0.49521000  0.11431000  1.0
  Zr  Zr2  1  0.38185000  0.26281000  0.87655000  1.0
  Zr  Zr3  1  0.62499000  0.74040000  0.12157000  1.0
  Zr  Zr4  1  0.62271000  0.50183000  0.87928000  1.0
  Zr  Zr5  1  0.38354000  0.50069000  0.11791000  1.0
  H  H6  1  0.40756000  0.31625000  0.71614000  1.0
  H  H7  1  0.78514000  0.68659000  0.09502000  1.0
  H  H8  1  0.40471000  0.30797000  0.08717000  1.0
  H  H9  1  0.41320000  0.69335000  0.09797000  1.0
  H  H10  1  0.60366000  0.43901000  0.56079000  1.0
  H  H11  1  0.41365000  0.57640000  0.44300000  1.0
  H  H12  1  0.05477000  0.42042000  0.08619000  1.0
  H  H13  1  0.93888000  0.55646000  0.89341000  1.0
  H  H14  1  0.90957000  0.04965000  0.13570000  1.0
  H  H15  1  0.08320000  0.95234000  0.84952000  1.0
  H  H16  1  0.65825000  0.04647000  0.42573000  1.0
  H  H17  1  0.36333000  0.95370000  0.59038000  1.0
  H  H18  1  0.04714000  0.30237000  0.61207000  1.0
  H  H19  1  0.12763000  0.27605000  0.52483000  1.0
  H  H20  1  0.95409000  0.10171000  0.35926000  1.0
  H  H21  1  0.87345000  0.12743000  0.44635000  1.0
  H  H22  1  0.36886000  0.76973000  0.86108000  1.0
  H  H23  1  0.64167000  0.23172000  0.13121000  1.0
  H  H24  1  0.64657000  0.36626000  0.40426000  1.0
  H  H25  1  0.56476000  0.31978000  0.28101000  1.0
  H  H26  1  0.69218000  0.47012000  0.36061000  1.0
  H  H27  1  0.37298000  0.65187000  0.60196000  1.0
  H  H28  1  0.31843000  0.53747000  0.63437000  1.0
  H  H29  1  0.44575000  0.68582000  0.72330000  1.0
  H  H30  1  0.88655000  0.33270000  0.11441000  1.0
  H  H31  1  0.87426000  0.46309000  0.18664000  1.0
  H  H32  1  0.77313000  0.32423000  0.05872000  1.0
  H  H33  1  0.21612000  0.65887000  0.91925000  1.0
  H  H34  1  0.12543000  0.50749000  0.79503000  1.0
  H  H35  1  0.09345000  0.62221000  0.84602000  1.0
  H  H36  1  0.02879000  0.26157000  0.22552000  1.0
  H  H37  1  0.16786000  0.31866000  0.22698000  1.0
  H  H38  1  0.08490000  0.32196000  0.14571000  1.0
  H  H39  1  0.95963000  0.74103000  0.75521000  1.0
  H  H40  1  0.90771000  0.68036000  0.83553000  1.0
  H  H41  1  0.82130000  0.68343000  0.75750000  1.0
  H  H42  1  0.75469000  0.25870000  0.55138000  1.0
  H  H43  1  0.67700000  0.32349000  0.60411000  1.0
  H  H44  1  0.74924000  0.31303000  0.68835000  1.0
  H  H45  1  0.26988000  0.74176000  0.46850000  1.0
  H  H46  1  0.27305000  0.68474000  0.33060000  1.0
  H  H47  1  0.34872000  0.67862000  0.41612000  1.0
  H  H48  1  0.27131000  0.79212000  0.76781000  1.0
  H  H49  1  0.27177000  0.93212000  0.84021000  1.0
  H  H50  1  0.35312000  0.92037000  0.75432000  1.0
  H  H51  1  0.73657000  0.20945000  0.22730000  1.0
  H  H52  1  0.66269000  0.07238000  0.23070000  1.0
  H  H53  1  0.74602000  0.07755000  0.14649000  1.0
  H  H54  1  0.81775000  0.68153000  0.37988000  1.0
  H  H55  1  0.92793000  0.73373000  0.47774000  1.0
  H  H56  1  0.11495000  0.00695000  0.71082000  1.0
  H  H57  1  0.98385000  0.86847000  0.64505000  1.0
  C  C58  1  0.50939000  0.51613000  0.70166000  1.0
  C  C59  1  0.80052000  0.48722000  0.99286000  1.0
  C  C60  1  0.50453000  0.49576000  0.30050000  1.0
  C  C61  1  0.19835000  0.50037000  0.99527000  1.0
  C  C62  1  0.19004000  0.20301000  0.70444000  1.0
  C  C63  1  0.51357000  0.81292000  0.00382000  1.0
  C  C64  1  0.79584000  0.80004000  0.31259000  1.0
  C  C65  1  0.49861000  0.18848000  0.98666000  1.0
  C  C66  1  0.50843000  0.19952000  0.69774000  1.0
  C  C67  1  0.19160000  0.19858000  0.99378000  1.0
  C  C68  1  0.50692000  0.80147000  0.31095000  1.0
  C  C69  1  0.80483000  0.80341000  0.99460000  1.0
  C  C70  1  0.50819000  0.49843000  0.40284000  1.0
  C  C71  1  0.50831000  0.51627000  0.60067000  1.0
  C  C72  1  0.56347000  0.45776000  0.43396000  1.0
  C  C73  1  0.45288000  0.55664000  0.56942000  1.0
  C  C74  1  0.56212000  0.46918000  0.53347000  1.0
  C  C75  1  0.45492000  0.54606000  0.47033000  1.0
  C  C76  1  0.89949000  0.48303000  0.99158000  1.0
  C  C77  1  0.09518000  0.49601000  0.98988000  1.0
  C  C78  1  0.92941000  0.44135000  0.04639000  1.0
  C  C79  1  0.06372000  0.53440000  0.93229000  1.0
  C  C80  1  0.02792000  0.45044000  0.04420000  1.0
  C  C81  1  0.96577000  0.52657000  0.93553000  1.0
  C  C82  1  0.08966000  0.10074000  0.99589000  1.0
  C  C83  1  0.90239000  0.90160000  0.98846000  1.0
  C  C84  1  0.04141000  0.13229000  0.07947000  1.0
  C  C85  1  0.94950000  0.86999000  0.90383000  1.0
  C  C86  1  0.94870000  0.03010000  0.07245000  1.0
  C  C87  1  0.04277000  0.97215000  0.91147000  1.0
  C  C88  1  0.51483000  0.10046000  0.60133000  1.0
  C  C89  1  0.50597000  0.89985000  0.41384000  1.0
  C  C90  1  0.60190000  0.13070000  0.55687000  1.0
  C  C91  1  0.42047000  0.86947000  0.46013000  1.0
  C  C92  1  0.59372000  0.02787000  0.46348000  1.0
  C  C93  1  0.42823000  0.97235000  0.55305000  1.0
  C  C94  1  0.08206000  0.10144000  0.61535000  1.0
  C  C95  1  0.88460000  0.89957000  0.42072000  1.0
  C  C96  1  0.03555000  0.12513000  0.55385000  1.0
  C  C97  1  0.92510000  0.87267000  0.48447000  1.0
  C  C98  1  0.94054000  0.02926000  0.46233000  1.0
  C  C99  1  0.02077000  0.97318000  0.58310000  1.0
  C  C100  1  0.05247000  0.22873000  0.54294000  1.0
  C  C101  1  0.94333000  0.11894000  0.43859000  1.0
  C  C102  1  0.49790000  0.08706000  0.98687000  1.0
  C  C103  1  0.51405000  0.91440000  0.00396000  1.0
  C  C104  1  0.41759000  0.95457000  0.90767000  1.0
  C  C105  1  0.59412000  0.04688000  0.08341000  1.0
  C  C106  1  0.42882000  0.87255000  0.91985000  1.0
  C  C107  1  0.58233000  0.12891000  0.07179000  1.0
  C  C108  1  0.61982000  0.40051000  0.36649000  1.0
  C  C109  1  0.39453000  0.61120000  0.63588000  1.0
  C  C110  1  0.86197000  0.38687000  0.10422000  1.0
  C  C111  1  0.12824000  0.58378000  0.87010000  1.0
  C  C112  1  0.08275000  0.26565000  0.17457000  1.0
  C  C113  1  0.90736000  0.73665000  0.80781000  1.0
  C  C114  1  0.70107000  0.26352000  0.60240000  1.0
  C  C115  1  0.32268000  0.73662000  0.41659000  1.0
  C  C116  1  0.32308000  0.89646000  0.81243000  1.0
  C  C117  1  0.68995000  0.10490000  0.17728000  1.0
  N  N118  1  0.87475000  0.75058000  0.45763000  1.0
  N  N119  1  0.04958000  0.93408000  0.63919000  1.0
  O  O120  1  0.43279000  0.51546000  0.74206000  1.0
  O  O121  1  0.76174000  0.49067000  0.07105000  1.0
  O  O122  1  0.57888000  0.49241000  0.25745000  1.0
  O  O123  1  0.24189000  0.50416000  0.92147000  1.0
  O  O124  1  0.23584000  0.16781000  0.74186000  1.0
  O  O125  1  0.58856000  0.84716000  0.08044000  1.0
  O  O126  1  0.76331000  0.83799000  0.26700000  1.0
  O  O127  1  0.42159000  0.15432000  0.91217000  1.0
  O  O128  1  0.58216000  0.31657000  0.73696000  1.0
  O  O129  1  0.23501000  0.31602000  0.07059000  1.0
  O  O130  1  0.43020000  0.68389000  0.26770000  1.0
  O  O131  1  0.76514000  0.68623000  0.92037000  1.0
  O  O132  1  0.23038000  0.15908000  0.91657000  1.0
  O  O133  1  0.58275000  0.84052000  0.27101000  1.0
  O  O134  1  0.76833000  0.84226000  0.07400000  1.0
  O  O135  1  0.42854000  0.16129000  0.73396000  1.0
  O  O136  1  0.23458000  0.31857000  0.73755000  1.0
  O  O137  1  0.57670000  0.30450000  0.06305000  1.0
  O  O138  1  0.75783000  0.68199000  0.26749000  1.0
  O  O139  1  0.43618000  0.69700000  0.92660000  1.0
  O  O140  1  0.23650000  0.50034000  0.07300000  1.0
  O  O141  1  0.58486000  0.51260000  0.73905000  1.0
  O  O142  1  0.76320000  0.49113000  0.91777000  1.0
  O  O143  1  0.42799000  0.49769000  0.26292000  1.0
  O  O144  1  0.43877000  0.63857000  0.06950000  1.0
  O  O145  1  0.43249000  0.36257000  0.06153000  1.0
  O  O146  1  0.70494000  0.63335000  0.06657000  1.0
  O  O147  1  0.43573000  0.36972000  0.79641000  1.0
  O  O148  1  0.55101000  0.39964000  0.94619000  1.0
  O  O149  1  0.55491000  0.60284000  0.95170000  1.0
  O  O150  1  0.55231000  0.59763000  0.14763000  1.0
  O  O151  1  0.35441000  0.40440000  0.94904000  1.0
