# generated using pymatgen
data_AlH7C13BrNO6
_symmetry_space_group_name_H-M   'P 1'
_cell_length_a   6.71555000
_cell_length_b   11.08140000
_cell_length_c   17.07140000
_cell_angle_alpha   84.58340000
_cell_angle_beta   81.38610000
_cell_angle_gamma   72.80040000
_symmetry_Int_Tables_number   1
_chemical_formula_structural   AlH7C13BrNO6
_chemical_formula_sum   'Al2 H14 C26 Br2 N2 O12'
_cell_volume   1198.22274485
_cell_formula_units_Z   2
loop_
 _symmetry_equiv_pos_site_id
 _symmetry_equiv_pos_as_xyz
  1  'x, y, z'
loop_
 _atom_site_type_symbol
 _atom_site_label
 _atom_site_symmetry_multiplicity
 _atom_site_fract_x
 _atom_site_fract_y
 _atom_site_fract_z
 _atom_site_occupancy
  Al  Al0  1  0.49707000  0.50104000  0.49609000  1.0
  Al  Al1  1  0.99652000  0.50094000  0.49636000  1.0
  H  H2  1  0.18832000  0.65165000  0.45136000  1.0
  H  H3  1  0.80625000  0.35236000  0.54531000  1.0
  H  H4  1  0.83924000  0.49971000  0.73967000  1.0
  H  H5  1  0.78389000  0.49836000  0.88744000  1.0
  H  H6  1  0.42565000  0.49821000  0.88642000  1.0
  H  H7  1  0.57037000  0.50652000  0.10613000  1.0
  H  H8  1  0.22353000  0.47862000  0.10708000  1.0
  H  H9  1  0.16511000  0.48103000  0.25472000  1.0
  H  H10  1  0.87952000  0.76646000  0.60765000  1.0
  H  H11  1  0.61907000  0.23509000  0.60498000  1.0
  H  H12  1  0.18858000  0.11759000  0.44339000  1.0
  H  H13  1  0.30622000  0.88135000  0.45008000  1.0
  H  H14  1  0.51550000  0.49685000  0.67541000  1.0
  H  H15  1  0.47685000  0.51116000  0.31691000  1.0
  C  C16  1  0.62988000  0.72727000  0.50927000  1.0
  C  C17  1  0.80686000  0.49933000  0.35144000  1.0
  C  C18  1  0.35745000  0.27373000  0.49801000  1.0
  C  C19  1  0.18906000  0.49955000  0.64198000  1.0
  C  C20  1  0.16299000  0.49897000  0.72890000  1.0
  C  C21  1  0.96682000  0.49907000  0.77219000  1.0
  C  C22  1  0.93481000  0.49836000  0.85389000  1.0
  C  C23  1  0.10272000  0.49797000  0.89485000  1.0
  C  C24  1  0.29833000  0.49847000  0.85360000  1.0
  C  C25  1  0.33106000  0.49871000  0.77060000  1.0
  C  C26  1  0.69964000  0.50074000  0.13934000  1.0
  C  C27  1  0.89900000  0.49317000  0.09863000  1.0
  C  C28  1  0.06958000  0.48515000  0.14016000  1.0
  C  C29  1  0.03601000  0.48617000  0.22180000  1.0
  C  C30  1  0.83574000  0.49528000  0.26459000  1.0
  C  C31  1  0.66524000  0.50245000  0.22230000  1.0
  C  C32  1  0.55701000  0.86682000  0.51733000  1.0
  C  C33  1  0.66065000  0.93240000  0.55870000  1.0
  C  C34  1  0.38494000  0.93353000  0.47968000  1.0
  C  C35  1  0.82492000  0.86919000  0.60451000  1.0
  C  C36  1  0.91653000  0.93538000  0.64583000  1.0
  C  C37  1  0.42198000  0.13342000  0.51119000  1.0
  C  C38  1  0.31825000  0.06613000  0.47609000  1.0
  C  C39  1  0.58893000  0.06837000  0.55647000  1.0
  C  C40  1  0.68056000  0.13307000  0.60212000  1.0
  C  C41  1  0.84230000  0.06939000  0.64507000  1.0
  Br  Br42  1  0.13741000  0.84407000  0.70424000  1.0
  Br  Br43  1  0.95680000  0.16557000  0.70241000  1.0
  N  N44  1  0.08970000  0.49723000  0.97844000  1.0
  N  N45  1  0.91253000  0.49411000  0.01507000  1.0
  O  O46  1  0.48874000  0.67246000  0.50697000  1.0
  O  O47  1  0.96136000  0.49727000  0.38696000  1.0
  O  O48  1  0.16260000  0.32823000  0.49575000  1.0
  O  O49  1  0.37649000  0.49187000  0.60553000  1.0
  O  O50  1  0.50105000  0.32946000  0.48868000  1.0
  O  O51  1  0.03239000  0.50574000  0.60659000  1.0
  O  O52  1  0.82714000  0.67306000  0.50207000  1.0
  O  O53  1  0.61916000  0.50691000  0.38759000  1.0
  O  O54  1  0.23081000  0.56072000  0.46235000  1.0
  O  O55  1  0.76196000  0.44234000  0.53080000  1.0
  O  O56  1  0.52246000  0.49974000  0.73340000  1.0
  O  O57  1  0.46910000  0.51182000  0.25871000  1.0
