# generated using pymatgen
data_BaH3C7NO4
_symmetry_space_group_name_H-M   'P 1'
_cell_length_a   9.45599000
_cell_length_b   10.97180000
_cell_length_c   12.73038287
_cell_angle_alpha   115.53226312
_cell_angle_beta   91.51718465
_cell_angle_gamma   89.98840000
_symmetry_Int_Tables_number   1
_chemical_formula_structural   BaH3C7NO4
_chemical_formula_sum   'Ba6 H18 C42 N6 O24'
_cell_volume   1191.27507897
_cell_formula_units_Z   6
loop_
 _symmetry_equiv_pos_site_id
 _symmetry_equiv_pos_as_xyz
  1  'x, y, z'
loop_
 _atom_site_type_symbol
 _atom_site_label
 _atom_site_symmetry_multiplicity
 _atom_site_fract_x
 _atom_site_fract_y
 _atom_site_fract_z
 _atom_site_occupancy
  Ba  Ba0  1  0.25005000  0.92682000  0.00001000  1.0
  Ba  Ba1  1  0.74995000  0.07318000  0.99999000  1.0
  Ba  Ba2  1  0.07730000  0.99286000  0.67382000  1.0
  Ba  Ba3  1  0.42282000  0.31890000  0.32617000  1.0
  Ba  Ba4  1  0.92270000  0.00714000  0.32618000  1.0
  Ba  Ba5  1  0.57718000  0.68110000  0.67383000  1.0
  H  H6  1  0.09782000  0.49185000  0.13784000  1.0
  H  H7  1  0.40240000  0.35405000  0.86223000  1.0
  H  H8  1  0.90218000  0.50815000  0.86216000  1.0
  H  H9  1  0.59760000  0.64595000  0.13777000  1.0
  H  H10  1  0.25019000  0.30363000  0.00003000  1.0
  H  H11  1  0.74981000  0.69637000  0.99997000  1.0
  H  H12  1  0.67558000  0.12470000  0.77838000  1.0
  H  H13  1  0.82438000  0.34637000  0.22161000  1.0
  H  H14  1  0.32442000  0.87530000  0.22161000  1.0
  H  H15  1  0.17562000  0.65363000  0.77838000  1.0
  H  H16  1  0.72211000  0.22996000  0.64216000  1.0
  H  H17  1  0.77783000  0.58791000  0.35794000  1.0
  H  H18  1  0.27789000  0.77005000  0.35784000  1.0
  H  H19  1  0.22217000  0.41209000  0.64206000  1.0
  H  H20  1  0.52637000  0.23264000  0.50842000  1.0
  H  H21  1  0.97372000  0.72426000  0.49164000  1.0
  H  H22  1  0.47363000  0.76736000  0.49158000  1.0
  H  H23  1  0.02628000  0.27574000  0.50836000  1.0
  C  C24  1  0.41859000  0.03331000  0.81300000  1.0
  C  C25  1  0.08135000  0.22016000  0.18712000  1.0
  C  C26  1  0.58141000  0.96669000  0.18700000  1.0
  C  C27  1  0.91864000  0.77984000  0.81288000  1.0
  C  C28  1  0.16834000  0.63166000  0.07285000  1.0
  C  C29  1  0.33187000  0.55887000  0.92726000  1.0
  C  C30  1  0.83166000  0.36834000  0.92715000  1.0
  C  C31  1  0.66813000  0.44113000  0.07274000  1.0
  C  C32  1  0.16562000  0.50586000  0.07602000  1.0
  C  C33  1  0.33467000  0.42990000  0.92409000  1.0
  C  C34  1  0.83438000  0.49414000  0.92398000  1.0
  C  C35  1  0.66533000  0.57010000  0.07591000  1.0
  C  C36  1  0.25020000  0.40311000  0.00008000  1.0
  C  C37  1  0.74980000  0.59690000  0.99993000  1.0
  C  C38  1  0.08092000  0.74831000  0.15383000  1.0
  C  C39  1  0.41928000  0.59443000  0.84623000  1.0
  C  C40  1  0.91908000  0.25169000  0.84617000  1.0
  C  C41  1  0.58073000  0.40556000  0.15377000  1.0
  C  C42  1  0.25570000  0.12703000  0.49029000  1.0
  C  C43  1  0.24437000  0.63652000  0.50958000  1.0
  C  C44  1  0.74430000  0.87296000  0.50970000  1.0
  C  C45  1  0.75563000  0.36348000  0.49042000  1.0
  C  C46  1  0.45492000  0.08796000  0.72609000  1.0
  C  C47  1  0.04499000  0.36181000  0.27392000  1.0
  C  C48  1  0.54508000  0.91203000  0.27390000  1.0
  C  C49  1  0.95501000  0.63819000  0.72608000  1.0
  C  C50  1  0.59183000  0.13344000  0.72206000  1.0
  C  C51  1  0.90811000  0.41142000  0.27793000  1.0
  C  C52  1  0.40817000  0.86656000  0.27794000  1.0
  C  C53  1  0.09189000  0.58858000  0.72207000  1.0
  C  C54  1  0.61772000  0.18957000  0.64499000  1.0
  C  C55  1  0.88225000  0.54466000  0.35503000  1.0
  C  C56  1  0.38228000  0.81043000  0.35501000  1.0
  C  C57  1  0.11775000  0.45534000  0.64497000  1.0
  C  C58  1  0.50821000  0.19095000  0.57027000  1.0
  C  C59  1  0.99183000  0.62067000  0.42973000  1.0
  C  C60  1  0.49179000  0.80904000  0.42972000  1.0
  C  C61  1  0.00817000  0.37932000  0.57027000  1.0
  C  C62  1  0.37594000  0.13746000  0.57548000  1.0
  C  C63  1  0.12404000  0.56182000  0.42452000  1.0
  C  C64  1  0.62406000  0.86253000  0.42452000  1.0
  C  C65  1  0.87596000  0.43818000  0.57548000  1.0
  N  N66  1  0.25012000  0.65757000  0.00007000  1.0
  N  N67  1  0.74988000  0.34242000  0.99993000  1.0
  N  N68  1  0.34917000  0.09069000  0.65477000  1.0
  N  N69  1  0.15075000  0.43571000  0.34528000  1.0
  N  N70  1  0.65083000  0.90931000  0.34523000  1.0
  N  N71  1  0.84925000  0.56429000  0.65472000  1.0
  O  O72  1  0.28964000  0.03601000  0.83986000  1.0
  O  O73  1  0.21031000  0.19600000  0.16026000  1.0
  O  O74  1  0.71036000  0.96399000  0.16014000  1.0
  O  O75  1  0.78968000  0.80401000  0.83974000  1.0
  O  O76  1  0.51896000  0.98685000  0.85302000  1.0
  O  O77  1  0.98101000  0.13365000  0.14710000  1.0
  O  O78  1  0.48104000  0.01315000  0.14697000  1.0
  O  O79  1  0.01898000  0.86635000  0.85291000  1.0
  O  O80  1  0.08929000  0.85907000  0.14208000  1.0
  O  O81  1  0.41086000  0.71691000  0.85786000  1.0
  O  O82  1  0.91070000  0.14093000  0.85792000  1.0
  O  O83  1  0.58915000  0.28308000  0.14214000  1.0
  O  O84  1  0.27421000  0.17772000  0.41923000  1.0
  O  O85  1  0.22620000  0.75844000  0.58042000  1.0
  O  O86  1  0.72579000  0.82228000  0.58077000  1.0
  O  O87  1  0.77380000  0.24156000  0.41957000  1.0
  O  O88  1  0.00824000  0.73359000  0.22919000  1.0
  O  O89  1  0.49195000  0.50429000  0.77089000  1.0
  O  O90  1  0.99177000  0.26640000  0.77081000  1.0
  O  O91  1  0.50806000  0.49571000  0.22912000  1.0
  O  O92  1  0.14246000  0.06664000  0.49555000  1.0
  O  O93  1  0.35741000  0.57062000  0.50444000  1.0
  O  O94  1  0.85754000  0.93336000  0.50445000  1.0
  O  O95  1  0.64259000  0.42938000  0.49556000  1.0
