# generated using pymatgen
data_CdH15C15NO12
_symmetry_space_group_name_H-M   'P 1'
_cell_length_a   8.37427000
_cell_length_b   8.64973000
_cell_length_c   12.78810000
_cell_angle_alpha   94.97150000
_cell_angle_beta   98.94730000
_cell_angle_gamma   98.99220000
_symmetry_Int_Tables_number   1
_chemical_formula_structural   CdH15C15NO12
_chemical_formula_sum   'Cd2 H30 C30 N2 O24'
_cell_volume   897.92616795
_cell_formula_units_Z   2
loop_
 _symmetry_equiv_pos_site_id
 _symmetry_equiv_pos_as_xyz
  1  'x, y, z'
loop_
 _atom_site_type_symbol
 _atom_site_label
 _atom_site_symmetry_multiplicity
 _atom_site_fract_x
 _atom_site_fract_y
 _atom_site_fract_z
 _atom_site_occupancy
  Cd  Cd0  1  0.30185000  0.72656000  0.01326000  1.0
  Cd  Cd1  1  0.69815000  0.27345000  0.98674000  1.0
  H  H2  1  0.64432000  0.70342000  0.06301000  1.0
  H  H3  1  0.35570000  0.29660000  0.93698000  1.0
  H  H4  1  0.63643000  0.89015000  0.07922000  1.0
  H  H5  1  0.36357000  0.10987000  0.92078000  1.0
  H  H6  1  0.46142000  0.51931000  0.87965000  1.0
  H  H7  1  0.53860000  0.48069000  0.12035000  1.0
  H  H8  1  0.29051000  0.51699000  0.80820000  1.0
  H  H9  1  0.70951000  0.48300000  0.19181000  1.0
  H  H10  1  0.23548000  0.97960000  0.15088000  1.0
  H  H11  1  0.76451000  0.02041000  0.84912000  1.0
  H  H12  1  0.33474000  0.07297000  0.07200000  1.0
  H  H13  1  0.66525000  0.92704000  0.92799000  1.0
  H  H14  1  0.03177000  0.67574000  0.85703000  1.0
  H  H15  1  0.96824000  0.32425000  0.14298000  1.0
  H  H16  1  0.93142000  0.64085000  0.95314000  1.0
  H  H17  1  0.06859000  0.35911000  0.04686000  1.0
  H  H18  1  0.40234000  0.29681000  0.22172000  1.0
  H  H19  1  0.59767000  0.70319000  0.77829000  1.0
  H  H20  1  0.40074000  0.14569000  0.37821000  1.0
  H  H21  1  0.59925000  0.85431000  0.62179000  1.0
  H  H22  1  0.20743000  0.65895000  0.38601000  1.0
  H  H23  1  0.79258000  0.34106000  0.61399000  1.0
  H  H24  1  0.53399000  0.17051000  0.58512000  1.0
  H  H25  1  0.46600000  0.82949000  0.41488000  1.0
  H  H26  1  0.48970000  0.99841000  0.72664000  1.0
  H  H27  1  0.51029000  0.00160000  0.27337000  1.0
  H  H28  1  0.02656000  0.22863000  0.54829000  1.0
  H  H29  1  0.97343000  0.77136000  0.45170000  1.0
  H  H30  1  0.11400000  0.69801000  0.63887000  1.0
  H  H31  1  0.88600000  0.30199000  0.36113000  1.0
  C  C32  1  0.28869000  0.57092000  0.19602000  1.0
  C  C33  1  0.71133000  0.42910000  0.80398000  1.0
  C  C34  1  0.29952000  0.48512000  0.29280000  1.0
  C  C35  1  0.70049000  0.51489000  0.70721000  1.0
  C  C36  1  0.36006000  0.34324000  0.29244000  1.0
  C  C37  1  0.63994000  0.65677000  0.70756000  1.0
  C  C38  1  0.36176000  0.25987000  0.38066000  1.0
  C  C39  1  0.63823000  0.74013000  0.61934000  1.0
  C  C40  1  0.30445000  0.31575000  0.47129000  1.0
  C  C41  1  0.69554000  0.68425000  0.52870000  1.0
  C  C42  1  0.25441000  0.46470000  0.47494000  1.0
  C  C43  1  0.74559000  0.53529000  0.52506000  1.0
  C  C44  1  0.21719000  0.53801000  0.57625000  1.0
  C  C45  1  0.78281000  0.46199000  0.42375000  1.0
  C  C46  1  0.24938000  0.54598000  0.38494000  1.0
  C  C47  1  0.75063000  0.45403000  0.61506000  1.0
  C  C48  1  0.28365000  0.21102000  0.55553000  1.0
  C  C49  1  0.71634000  0.78897000  0.44446000  1.0
  C  C50  1  0.41207000  0.14332000  0.60563000  1.0
  C  C51  1  0.58792000  0.85667000  0.39437000  1.0
  C  C52  1  0.38748000  0.04515000  0.68482000  1.0
  C  C53  1  0.61251000  0.95486000  0.31518000  1.0
  C  C54  1  0.23328000  0.00813000  0.71384000  1.0
  C  C55  1  0.76671000  0.99187000  0.28617000  1.0
  C  C56  1  0.20650000  0.88701000  0.78969000  1.0
  C  C57  1  0.79350000  0.11300000  0.21031000  1.0
  C  C58  1  0.10591000  0.07729000  0.66274000  1.0
  C  C59  1  0.89408000  0.92270000  0.33726000  1.0
  C  C60  1  0.12846000  0.17586000  0.58443000  1.0
  C  C61  1  0.87152000  0.82413000  0.41557000  1.0
  N  N62  1  0.94637000  0.05593000  0.69670000  1.0
  N  N63  1  0.05362000  0.94407000  0.30329000  1.0
  O  O64  1  0.34667000  0.51452000  0.11522000  1.0
  O  O65  1  0.65335000  0.48549000  0.88478000  1.0
  O  O66  1  0.22332000  0.69225000  0.19342000  1.0
  O  O67  1  0.77670000  0.30776000  0.80658000  1.0
  O  O68  1  0.26513000  0.49565000  0.66382000  1.0
  O  O69  1  0.73486000  0.50433000  0.33618000  1.0
  O  O70  1  0.13184000  0.65497000  0.56458000  1.0
  O  O71  1  0.86816000  0.34502000  0.43542000  1.0
  O  O72  1  0.10512000  0.76077000  0.75424000  1.0
  O  O73  1  0.89487000  0.23923000  0.24576000  1.0
  O  O74  1  0.29206000  0.91519000  0.88250000  1.0
  O  O75  1  0.70794000  0.08481000  0.11750000  1.0
  O  O76  1  0.94293000  0.02110000  0.78938000  1.0
  O  O77  1  0.05705000  0.97890000  0.21062000  1.0
  O  O78  1  0.82482000  0.07484000  0.63395000  1.0
  O  O79  1  0.17517000  0.92515000  0.36604000  1.0
  O  O80  1  0.59521000  0.78885000  0.03145000  1.0
  O  O81  1  0.40479000  0.21116000  0.96854000  1.0
  O  O82  1  0.34223000  0.51644000  0.88310000  1.0
  O  O83  1  0.65779000  0.48356000  0.11691000  1.0
  O  O84  1  0.32880000  0.98079000  0.11200000  1.0
  O  O85  1  0.67118000  0.01922000  0.88799000  1.0
  O  O86  1  0.03469000  0.63586000  0.92814000  1.0
  O  O87  1  0.96533000  0.36411000  0.07186000  1.0
