# generated using pymatgen
data_V4Cu3H4C4(NO2)6
_symmetry_space_group_name_H-M   'P 1'
_cell_length_a   7.59035000
_cell_length_b   7.84305000
_cell_length_c   8.43588000
_cell_angle_alpha   63.14840000
_cell_angle_beta   64.69490000
_cell_angle_gamma   66.81660000
_symmetry_Int_Tables_number   1
_chemical_formula_structural   V4Cu3H4C4(NO2)6
_chemical_formula_sum   'V4 Cu3 H4 C4 N6 O12'
_cell_volume   392.33104677
_cell_formula_units_Z   1
loop_
 _symmetry_equiv_pos_site_id
 _symmetry_equiv_pos_as_xyz
  1  'x, y, z'
loop_
 _atom_site_type_symbol
 _atom_site_label
 _atom_site_symmetry_multiplicity
 _atom_site_fract_x
 _atom_site_fract_y
 _atom_site_fract_z
 _atom_site_occupancy
  V  V0  1  0.39343000  0.97841000  0.77152000  1.0
  V  V1  1  0.60686000  0.02284000  0.22796000  1.0
  V  V2  1  0.18426000  0.17561000  0.12054000  1.0
  V  V3  1  0.81510000  0.82531000  0.87923000  1.0
  Cu  Cu4  1  0.50025000  0.49947000  0.99976000  1.0
  Cu  Cu5  1  0.31688000  0.63937000  0.67711000  1.0
  Cu  Cu6  1  0.68274000  0.35740000  0.32531000  1.0
  H  H7  1  0.04064000  0.72525000  0.17946000  1.0
  H  H8  1  0.95936000  0.27373000  0.82081000  1.0
  H  H9  1  0.96172000  0.77212000  0.51438000  1.0
  H  H10  1  0.03910000  0.22944000  0.48453000  1.0
  C  C11  1  0.13546000  0.67512000  0.26585000  1.0
  C  C12  1  0.86469000  0.32390000  0.73432000  1.0
  C  C13  1  0.09690000  0.69671000  0.43259000  1.0
  C  C14  1  0.90355000  0.30356000  0.56705000  1.0
  N  N15  1  0.32956000  0.57529000  0.21855000  1.0
  N  N16  1  0.66993000  0.42196000  0.78278000  1.0
  N  N17  1  0.40870000  0.53547000  0.34836000  1.0
  N  N18  1  0.59046000  0.46229000  0.65232000  1.0
  N  N19  1  0.26937000  0.60780000  0.47991000  1.0
  N  N20  1  0.73063000  0.39155000  0.52027000  1.0
  O  O21  1  0.37828000  0.74205000  0.82050000  1.0
  O  O22  1  0.62397000  0.25972000  0.17820000  1.0
  O  O23  1  0.64242000  0.97361000  0.74390000  1.0
  O  O24  1  0.35793000  0.02871000  0.25503000  1.0
  O  O25  1  0.33007000  0.13410000  0.58690000  1.0
  O  O26  1  0.67064000  0.86780000  0.41230000  1.0
  O  O27  1  0.22342000  0.06037000  0.96296000  1.0
  O  O28  1  0.77612000  0.94033000  0.03731000  1.0
  O  O29  1  0.05180000  0.80657000  0.73353000  1.0
  O  O30  1  0.94801000  0.19247000  0.26772000  1.0
  O  O31  1  0.23338000  0.39362000  0.99942000  1.0
  O  O32  1  0.76437000  0.60804000  0.99965000  1.0
