# generated using pymatgen
data_NiH9C9N3O4
_symmetry_space_group_name_H-M   'P 1'
_cell_length_a   6.24535000
_cell_length_b   8.08389000
_cell_length_c   24.94800000
_cell_angle_alpha   90.00430000
_cell_angle_beta   90.01030000
_cell_angle_gamma   92.56170000
_symmetry_Int_Tables_number   1
_chemical_formula_structural   NiH9C9N3O4
_chemical_formula_sum   'Ni4 H36 C36 N12 O16'
_cell_volume   1258.28402717
_cell_formula_units_Z   4
loop_
 _symmetry_equiv_pos_site_id
 _symmetry_equiv_pos_as_xyz
  1  'x, y, z'
loop_
 _atom_site_type_symbol
 _atom_site_label
 _atom_site_symmetry_multiplicity
 _atom_site_fract_x
 _atom_site_fract_y
 _atom_site_fract_z
 _atom_site_occupancy
  Ni  Ni0  1  0.36732000  0.29986000  0.55147000  1.0
  Ni  Ni1  1  0.12928000  0.21544000  0.97628000  1.0
  Ni  Ni2  1  0.63272000  0.70016000  0.05136000  1.0
  Ni  Ni3  1  0.87068000  0.78460000  0.47635000  1.0
  H  H4  1  0.42835000  0.13770000  0.65960000  1.0
  H  H5  1  0.21056000  0.09560000  0.74442000  1.0
  H  H6  1  0.71454000  0.37062000  0.66862000  1.0
  H  H7  1  0.94338000  0.38572000  0.58721000  1.0
  H  H8  1  0.08492000  0.38605000  0.87021000  1.0
  H  H9  1  0.30746000  0.42672000  0.78602000  1.0
  H  H10  1  0.78413000  0.12915000  0.86001000  1.0
  H  H11  1  0.54772000  0.10814000  0.94051000  1.0
  H  H12  1  0.04522000  0.27700000  0.40312000  1.0
  H  H13  1  0.27687000  0.16911000  0.38951000  1.0
  H  H14  1  0.39801000  0.44827000  0.40707000  1.0
  H  H15  1  0.62280000  0.40868000  0.48085000  1.0
  H  H16  1  0.55701000  0.20723000  0.46599000  1.0
  H  H17  1  0.81562000  0.96188000  0.63203000  1.0
  H  H18  1  0.57182000  0.84493000  0.62743000  1.0
  H  H19  1  0.89990000  0.67595000  0.62469000  1.0
  H  H20  1  0.12428000  0.69660000  0.54910000  1.0
  H  H21  1  0.07673000  0.90070000  0.55758000  1.0
  H  H22  1  0.57167000  0.86216000  0.15953000  1.0
  H  H23  1  0.78924000  0.90407000  0.24441000  1.0
  H  H24  1  0.28548000  0.62934000  0.16862000  1.0
  H  H25  1  0.05678000  0.61445000  0.08715000  1.0
  H  H26  1  0.91510000  0.61403000  0.37028000  1.0
  H  H27  1  0.69259000  0.57331000  0.28608000  1.0
  H  H28  1  0.21582000  0.87079000  0.36002000  1.0
  H  H29  1  0.45219000  0.89189000  0.44055000  1.0
  H  H30  1  0.95459000  0.72306000  0.90301000  1.0
  H  H31  1  0.72294000  0.83096000  0.88942000  1.0
  H  H32  1  0.60177000  0.55178000  0.90696000  1.0
  H  H33  1  0.37713000  0.59134000  0.98077000  1.0
  H  H34  1  0.44291000  0.79279000  0.96592000  1.0
  H  H35  1  0.18453000  0.03809000  0.13196000  1.0
  H  H36  1  0.42834000  0.15499000  0.12738000  1.0
  H  H37  1  0.10028000  0.32404000  0.12465000  1.0
  H  H38  1  0.87588000  0.30355000  0.04903000  1.0
  H  H39  1  0.92322000  0.09941000  0.05750000  1.0
  C  C40  1  0.26966000  0.18642000  0.66410000  1.0
  C  C41  1  0.14934000  0.16406000  0.71053000  1.0
  C  C42  1  0.94798000  0.23399000  0.71401000  1.0
  C  C43  1  0.87169000  0.31785000  0.66908000  1.0
  C  C44  1  0.99934000  0.32838000  0.62365000  1.0
  C  C45  1  0.24014000  0.33128000  0.86548000  1.0
  C  C46  1  0.36306000  0.35334000  0.81944000  1.0
  C  C47  1  0.55996000  0.27675000  0.81569000  1.0
  C  C48  1  0.62905000  0.18529000  0.85980000  1.0
  C  C49  1  0.49849000  0.17310000  0.90468000  1.0
  C  C50  1  0.12420000  0.10068000  0.46297000  1.0
  C  C51  1  0.19216000  0.23298000  0.42157000  1.0
  C  C52  1  0.33178000  0.37962000  0.44190000  1.0
  C  C53  1  0.19297000  0.50038000  0.47300000  1.0
  C  C54  1  0.64359000  0.99977000  0.55992000  1.0
  C  C55  1  0.71585000  0.88461000  0.60462000  1.0
  C  C56  1  0.83742000  0.73334000  0.58815000  1.0
  C  C57  1  0.68592000  0.60211000  0.56088000  1.0
  C  C58  1  0.73038000  0.81350000  0.16405000  1.0
  C  C59  1  0.85060000  0.83574000  0.21051000  1.0
  C  C60  1  0.05204000  0.76583000  0.21400000  1.0
  C  C61  1  0.12837000  0.68208000  0.16906000  1.0
  C  C62  1  0.00082000  0.67167000  0.12360000  1.0
  C  C63  1  0.75994000  0.66876000  0.36555000  1.0
  C  C64  1  0.63708000  0.64670000  0.31950000  1.0
  C  C65  1  0.44008000  0.72321000  0.31573000  1.0
  C  C66  1  0.37090000  0.81465000  0.35983000  1.0
  C  C67  1  0.50147000  0.82686000  0.40473000  1.0
  C  C68  1  0.87571000  0.89935000  0.96288000  1.0
  C  C69  1  0.80765000  0.76704000  0.92147000  1.0
  C  C70  1  0.66811000  0.62041000  0.94178000  1.0
  C  C71  1  0.80694000  0.49965000  0.97288000  1.0
  C  C72  1  0.35643000  0.00024000  0.05983000  1.0
  C  C73  1  0.28426000  0.11541000  0.10456000  1.0
  C  C74  1  0.16271000  0.26669000  0.08810000  1.0
  C  C75  1  0.31416000  0.39788000  0.06083000  1.0
  N  N76  1  0.19661000  0.26733000  0.62091000  1.0
  N  N77  1  0.83435000  0.20969000  0.76243000  1.0
  N  N78  1  0.30628000  0.24264000  0.90771000  1.0
  N  N79  1  0.67533000  0.30165000  0.76757000  1.0
  N  N80  1  0.50110000  0.31957000  0.47681000  1.0
  N  N81  1  0.01027000  0.78427000  0.55081000  1.0
  N  N82  1  0.80354000  0.73272000  0.12082000  1.0
  N  N83  1  0.16552000  0.79008000  0.26244000  1.0
  N  N84  1  0.69375000  0.75738000  0.40779000  1.0
  N  N85  1  0.32475000  0.69834000  0.26759000  1.0
  N  N86  1  0.49883000  0.68043000  0.97670000  1.0
  N  N87  1  0.98982000  0.21582000  0.05075000  1.0
  O  O88  1  0.15487000  0.11935000  0.51304000  1.0
  O  O89  1  0.03617000  0.97255000  0.44110000  1.0
  O  O90  1  0.18683000  0.48535000  0.52400000  1.0
  O  O91  1  0.09059000  0.60328000  0.44612000  1.0
  O  O92  1  0.66060000  0.96642000  0.51041000  1.0
  O  O93  1  0.56490000  0.12989000  0.57891000  1.0
  O  O94  1  0.68613000  0.60411000  0.50966000  1.0
  O  O95  1  0.57270000  0.50270000  0.58924000  1.0
  O  O96  1  0.84498000  0.88070000  0.01295000  1.0
  O  O97  1  0.96380000  0.02744000  0.94102000  1.0
  O  O98  1  0.81317000  0.51472000  0.02387000  1.0
  O  O99  1  0.90940000  0.39681000  0.94600000  1.0
  O  O100  1  0.33929000  0.03369000  0.01032000  1.0
  O  O101  1  0.43512000  0.87007000  0.07879000  1.0
  O  O102  1  0.31381000  0.39593000  0.00960000  1.0
  O  O103  1  0.42745000  0.49735000  0.08916000  1.0
