# generated using pymatgen
data_ZnH12C35N2(ClO5)4
_symmetry_space_group_name_H-M   'P 1'
_cell_length_a   16.75230000
_cell_length_b   16.83750000
_cell_length_c   23.20150000
_cell_angle_alpha   86.04290000
_cell_angle_beta   85.93130000
_cell_angle_gamma   80.30780000
_symmetry_Int_Tables_number   1
_chemical_formula_structural   ZnH12C35N2(ClO5)4
_chemical_formula_sum   'Zn2 H24 C70 N4 Cl8 O40'
_cell_volume   6423.85776305
_cell_formula_units_Z   2
loop_
 _symmetry_equiv_pos_site_id
 _symmetry_equiv_pos_as_xyz
  1  'x, y, z'
loop_
 _atom_site_type_symbol
 _atom_site_label
 _atom_site_symmetry_multiplicity
 _atom_site_fract_x
 _atom_site_fract_y
 _atom_site_fract_z
 _atom_site_occupancy
  Zn  Zn0  1  0.59698000  0.49524000  0.49275000  1.0
  Zn  Zn1  1  0.41236000  0.50364000  0.49894000  1.0
  H  H2  1  0.42188000  0.29705000  0.06956000  1.0
  H  H3  1  0.39803000  0.69548000  0.93245000  1.0
  H  H4  1  0.40643000  0.29349000  0.96213000  1.0
  H  H5  1  0.37960000  0.70227000  0.04133000  1.0
  H  H6  1  0.37821000  0.55899000  0.65827000  1.0
  H  H7  1  0.39101000  0.45252000  0.34886000  1.0
  H  H8  1  0.46400000  0.90095000  0.43051000  1.0
  H  H9  1  0.42964000  0.12028000  0.43658000  1.0
  H  H10  1  0.99920000  0.59388000  0.48381000  1.0
  H  H11  1  0.01042000  0.41312000  0.52194000  1.0
  H  H12  1  0.32342000  0.67670000  0.42248000  1.0
  H  H13  1  0.67258000  0.36266000  0.61355000  1.0
  H  H14  1  0.62253000  0.65413000  0.37468000  1.0
  H  H15  1  0.32683000  0.35371000  0.65795000  1.0
  H  H16  1  0.15871000  0.25077000  0.61038000  1.0
  H  H17  1  0.94960000  0.64745000  0.35154000  1.0
  H  H18  1  0.93417000  0.38356000  0.64998000  1.0
  H  H19  1  0.05421000  0.52196000  0.34786000  1.0
  H  H20  1  0.25471000  0.68343000  0.74413000  1.0
  H  H21  1  0.26640000  0.35787000  0.28394000  1.0
  H  H22  1  0.44862000  0.71559000  0.70925000  1.0
  H  H23  1  0.76124000  0.27172000  0.52362000  1.0
  H  H24  1  0.44030000  0.13828000  0.59207000  1.0
  H  H25  1  0.68616000  0.85665000  0.43670000  1.0
  C  C26  1  0.53378000  0.35504000  0.46457000  1.0
  C  C27  1  0.48193000  0.64525000  0.52228000  1.0
  C  C28  1  0.49258000  0.46175000  0.60574000  1.0
  C  C29  1  0.49810000  0.53130000  0.38541000  1.0
  C  C30  1  0.39030000  0.57794000  0.11991000  1.0
  C  C31  1  0.40245000  0.41740000  0.88306000  1.0
  C  C32  1  0.42767000  0.42680000  0.12870000  1.0
  C  C33  1  0.42102000  0.56314000  0.87214000  1.0
  C  C34  1  0.41232000  0.42547000  0.06664000  1.0
  C  C35  1  0.40490000  0.56734000  0.93538000  1.0
  C  C36  1  0.40255000  0.49839000  0.03172000  1.0
  C  C37  1  0.40351000  0.49539000  0.97060000  1.0
  C  C38  1  0.39308000  0.57419000  0.05629000  1.0
  C  C39  1  0.40417000  0.42045000  0.94640000  1.0
  C  C40  1  0.41407000  0.35238000  0.04181000  1.0
  C  C41  1  0.39666000  0.64106000  0.96054000  1.0
  C  C42  1  0.40708000  0.35022000  0.98192000  1.0
  C  C43  1  0.38789000  0.64475000  0.02103000  1.0
  C  C44  1  0.39253000  0.52761000  0.74890000  1.0
  C  C45  1  0.39799000  0.47416000  0.25650000  1.0
  C  C46  1  0.41353000  0.52053000  0.69013000  1.0
  C  C47  1  0.42168000  0.48084000  0.31218000  1.0
  C  C48  1  0.47806000  0.46302000  0.67046000  1.0
  C  C49  1  0.48197000  0.52535000  0.32269000  1.0
  C  C50  1  0.52308000  0.41246000  0.71090000  1.0
  C  C51  1  0.52131000  0.56192000  0.27538000  1.0
  C  C52  1  0.50685000  0.42290000  0.77058000  1.0
  C  C53  1  0.50207000  0.55142000  0.21856000  1.0
  C  C54  1  0.43978000  0.47879000  0.78959000  1.0
  C  C55  1  0.43859000  0.50989000  0.20912000  1.0
  C  C56  1  0.54236000  0.26763000  0.45196000  1.0
  C  C57  1  0.47678000  0.73556000  0.52496000  1.0
  C  C58  1  0.47627000  0.23100000  0.43904000  1.0
  C  C59  1  0.46683000  0.78346000  0.47348000  1.0
  C  C60  1  0.48262000  0.14727000  0.44349000  1.0
  C  C61  1  0.47153000  0.86507000  0.47124000  1.0
  C  C62  1  0.55463000  0.09770000  0.45814000  1.0
  C  C63  1  0.48837000  0.90098000  0.52058000  1.0
  C  C64  1  0.62388000  0.13335000  0.46186000  1.0
  C  C65  1  0.49337000  0.85470000  0.57345000  1.0
  C  C66  1  0.61769000  0.21722000  0.45979000  1.0
  C  C67  1  0.48581000  0.77247000  0.57630000  1.0
  C  C68  1  0.55452000  0.01095000  0.47263000  1.0
  C  C69  1  0.50169000  0.98576000  0.51441000  1.0
  C  C70  1  0.23658000  0.52506000  0.46260000  1.0
  C  C71  1  0.77036000  0.48936000  0.54375000  1.0
  C  C72  1  0.15607000  0.51532000  0.45925000  1.0
  C  C73  1  0.85124000  0.49839000  0.54694000  1.0
  C  C74  1  0.12011000  0.46763000  0.50251000  1.0
  C  C75  1  0.89063000  0.53694000  0.50011000  1.0
  C  C76  1  0.17329000  0.41924000  0.54033000  1.0
  C  C77  1  0.84172000  0.57373000  0.45587000  1.0
  C  C78  1  0.25573000  0.42705000  0.53740000  1.0
  C  C79  1  0.76095000  0.56131000  0.45586000  1.0
  C  C80  1  0.03227000  0.46918000  0.50758000  1.0
  C  C81  1  0.97840000  0.53690000  0.49698000  1.0
  C  C82  1  0.26859000  0.58605000  0.41999000  1.0
  C  C83  1  0.73044000  0.44977000  0.59562000  1.0
  C  C84  1  0.71846000  0.59160000  0.40146000  1.0
  C  C85  1  0.31120000  0.37163000  0.57756000  1.0
  C  C86  1  0.13962000  0.36105000  0.58361000  1.0
  C  C87  1  0.86966000  0.63273000  0.41064000  1.0
  C  C88  1  0.89478000  0.47453000  0.60167000  1.0
  C  C89  1  0.10957000  0.55433000  0.40871000  1.0
  C  C90  1  0.31812000  0.58406000  0.76736000  1.0
  C  C91  1  0.32697000  0.43422000  0.24839000  1.0
  C  C92  1  0.48860000  0.71942000  0.63107000  1.0
  C  C93  1  0.69415000  0.25143000  0.46599000  1.0
  C  C94  1  0.44547000  0.04403000  0.55117000  1.0
  C  C95  1  0.60949000  0.95327000  0.43472000  1.0
  N  N96  1  0.41903000  0.50419000  0.15080000  1.0
  N  N97  1  0.42252000  0.48655000  0.85016000  1.0
  N  N98  1  0.28623000  0.48286000  0.50141000  1.0
  N  N99  1  0.72558000  0.51708000  0.49783000  1.0
  Cl  Cl100  1  0.71575000  0.07235000  0.47341000  1.0
  Cl  Cl101  1  0.51757000  0.89985000  0.63289000  1.0
  Cl  Cl102  1  0.59474000  0.33193000  0.68945000  1.0
  Cl  Cl103  1  0.59210000  0.62254000  0.28418000  1.0
  Cl  Cl104  1  0.56948000  0.36796000  0.81944000  1.0
  Cl  Cl105  1  0.55705000  0.58924000  0.16089000  1.0
  Cl  Cl106  1  0.38486000  0.28320000  0.41697000  1.0
  Cl  Cl107  1  0.45055000  0.74192000  0.40959000  1.0
  O  O108  1  0.59782000  0.37936000  0.47842000  1.0
  O  O109  1  0.41733000  0.61570000  0.53099000  1.0
  O  O110  1  0.46385000  0.39698000  0.46346000  1.0
  O  O111  1  0.55247000  0.61008000  0.50712000  1.0
  O  O112  1  0.56184000  0.46793000  0.58294000  1.0
  O  O113  1  0.43368000  0.55005000  0.41779000  1.0
  O  O114  1  0.42871000  0.45870000  0.57978000  1.0
  O  O115  1  0.56983000  0.51560000  0.40137000  1.0
  O  O116  1  0.36843000  0.64033000  0.14496000  1.0
  O  O117  1  0.38802000  0.35928000  0.85901000  1.0
  O  O118  1  0.44927000  0.36541000  0.15904000  1.0
  O  O119  1  0.43425000  0.62128000  0.83997000  1.0
  O  O120  1  0.26928000  0.58089000  0.36794000  1.0
  O  O121  1  0.29066000  0.64441000  0.44855000  1.0
  O  O122  1  0.72104000  0.47945000  0.64240000  1.0
  O  O123  1  0.71081000  0.37969000  0.58243000  1.0
  O  O124  1  0.74768000  0.56675000  0.35514000  1.0
  O  O125  1  0.65259000  0.64694000  0.41031000  1.0
  O  O126  1  0.36266000  0.31651000  0.56197000  1.0
  O  O127  1  0.28946000  0.38945000  0.63312000  1.0
  O  O128  1  0.07904000  0.37850000  0.61549000  1.0
  O  O129  1  0.18307000  0.28582000  0.58110000  1.0
  O  O130  1  0.83848000  0.70365000  0.40843000  1.0
  O  O131  1  0.93230000  0.60150000  0.37470000  1.0
  O  O132  1  0.92168000  0.52254000  0.62843000  1.0
  O  O133  1  0.90135000  0.39439000  0.61600000  1.0
  O  O134  1  0.09042000  0.62678000  0.39868000  1.0
  O  O135  1  0.09158000  0.49627000  0.37691000  1.0
  O  O136  1  0.27199000  0.57282000  0.80910000  1.0
  O  O137  1  0.30561000  0.65081000  0.73024000  1.0
  O  O138  1  0.28301000  0.44811000  0.20781000  1.0
  O  O139  1  0.31418000  0.38002000  0.29304000  1.0
  O  O140  1  0.52214000  0.64916000  0.63370000  1.0
  O  O141  1  0.44623000  0.75602000  0.67652000  1.0
  O  O142  1  0.73555000  0.27551000  0.42544000  1.0
  O  O143  1  0.71433000  0.24435000  0.52182000  1.0
  O  O144  1  0.37331000  0.04088000  0.56016000  1.0
  O  O145  1  0.48285000  0.09968000  0.57315000  1.0
  O  O146  1  0.61402000  0.96294000  0.38205000  1.0
  O  O147  1  0.65282000  0.89084000  0.46493000  1.0
