# generated using pymatgen
data_CdH24C36(NF2)4
_symmetry_space_group_name_H-M   'P 1'
_cell_length_a   12.70030000
_cell_length_b   12.72100000
_cell_length_c   15.26484251
_cell_angle_alpha   108.50311038
_cell_angle_beta   108.41991575
_cell_angle_gamma   103.63800000
_symmetry_Int_Tables_number   1
_chemical_formula_structural   CdH24C36(NF2)4
_chemical_formula_sum   'Cd2 H48 C72 N8 F16'
_cell_volume   2058.28937497
_cell_formula_units_Z   2
loop_
 _symmetry_equiv_pos_site_id
 _symmetry_equiv_pos_as_xyz
  1  'x, y, z'
loop_
 _atom_site_type_symbol
 _atom_site_label
 _atom_site_symmetry_multiplicity
 _atom_site_fract_x
 _atom_site_fract_y
 _atom_site_fract_z
 _atom_site_occupancy
  Cd  Cd0  1  0.02895000  0.29562000  0.29485000  1.0
  Cd  Cd1  1  0.79571000  0.52873000  0.79546000  1.0
  H  H2  1  0.34069000  0.36653000  0.32701000  1.0
  H  H3  1  0.27916000  0.36898000  0.57784000  1.0
  H  H4  1  0.51203000  0.30038000  0.37777000  1.0
  H  H5  1  0.44863000  0.30507000  0.64025000  1.0
  H  H6  1  0.86959000  0.44678000  0.23812000  1.0
  H  H7  1  0.98585000  0.33983000  0.01290000  1.0
  H  H8  1  0.67316000  0.42250000  0.11438000  1.0
  H  H9  1  0.79290000  0.31198000  0.87709000  1.0
  H  H10  1  0.53846000  0.25471000  0.86890000  1.0
  H  H11  1  0.61673000  0.36835000  0.84381000  1.0
  H  H12  1  0.64984000  0.30812000  0.63037000  1.0
  H  H13  1  0.65432000  0.27196000  0.50982000  1.0
  H  H14  1  0.09417000  0.14596000  0.15337000  1.0
  H  H15  1  0.11771000  0.23379000  0.91975000  1.0
  H  H16  1  0.17537000  0.98601000  0.10612000  1.0
  H  H17  1  0.19799000  0.07717000  0.86165000  1.0
  H  H18  1  0.08449000  0.59142000  0.27170000  1.0
  H  H19  1  0.20753000  0.51652000  0.51992000  1.0
  H  H20  1  0.09366000  0.79143000  0.37991000  1.0
  H  H21  1  0.22451000  0.71409000  0.64067000  1.0
  H  H22  1  0.26215000  0.95197000  0.62456000  1.0
  H  H23  1  0.15208000  0.87911000  0.65496000  1.0
  H  H24  1  0.19127000  0.86626000  0.86442000  1.0
  H  H25  1  0.22479000  0.86159000  0.98430000  1.0
  H  H26  1  0.64673000  0.59575000  0.65430000  1.0
  H  H27  1  0.73286000  0.61596000  0.41894000  1.0
  H  H28  1  0.48648000  0.67661000  0.60723000  1.0
  H  H29  1  0.57586000  0.69584000  0.36097000  1.0
  H  H30  1  0.09132000  0.58442000  0.77231000  1.0
  H  H31  1  0.01735000  0.70924000  0.02128000  1.0
  H  H32  1  0.29143000  0.59298000  0.88003000  1.0
  H  H33  1  0.21519000  0.72587000  0.14158000  1.0
  H  H34  1  0.45251000  0.76227000  0.12523000  1.0
  H  H35  1  0.37923000  0.65237000  0.15542000  1.0
  H  H36  1  0.36625000  0.69101000  0.36455000  1.0
  H  H37  1  0.36101000  0.72483000  0.48431000  1.0
  H  H38  1  0.86534000  0.83932000  0.82598000  1.0
  H  H39  1  0.86904000  0.77932000  0.07755000  1.0
  H  H40  1  0.79973000  0.01090000  0.87731000  1.0
  H  H41  1  0.80579000  0.94909000  0.14053000  1.0
  H  H42  1  0.94714000  0.36974000  0.73833000  1.0
  H  H43  1  0.84060000  0.48588000  0.51349000  1.0
  H  H44  1  0.92189000  0.17321000  0.61421000  1.0
  H  H45  1  0.81185000  0.29293000  0.37739000  1.0
  H  H46  1  0.75373000  0.03844000  0.36932000  1.0
  H  H47  1  0.86742000  0.11599000  0.34377000  1.0
  H  H48  1  0.80851000  0.14987000  0.13024000  1.0
  H  H49  1  0.77265000  0.15386000  0.00958000  1.0
  C  C50  1  0.84992000  0.41773000  0.15706000  1.0
  C  C51  1  0.91448000  0.35932000  0.03203000  1.0
  C  C52  1  0.73953000  0.40329000  0.08752000  1.0
  C  C53  1  0.80647000  0.34209000  0.95661000  1.0
  C  C54  1  0.71631000  0.36528000  0.98428000  1.0
  C  C55  1  0.59893000  0.34888000  0.90423000  1.0
  C  C56  1  0.53956000  0.42809000  0.94709000  1.0
  C  C57  1  0.56877000  0.54532000  0.95650000  1.0
  C  C58  1  0.52067000  0.62210000  0.00250000  1.0
  C  C59  1  0.36690000  0.35150000  0.39614000  1.0
  C  C60  1  0.33341000  0.35370000  0.53534000  1.0
  C  C61  1  0.46230000  0.31420000  0.42428000  1.0
  C  C62  1  0.42749000  0.31729000  0.57002000  1.0
  C  C63  1  0.49389000  0.29587000  0.51315000  1.0
  C  C64  1  0.59592000  0.25493000  0.54751000  1.0
  C  C65  1  0.55288000  0.12384000  0.52370000  1.0
  C  C66  1  0.52948000  0.03752000  0.42906000  1.0
  C  C67  1  0.48826000  0.91599000  0.40499000  1.0
  C  C68  1  0.11507000  0.62253000  0.35417000  1.0
  C  C69  1  0.18298000  0.58067000  0.49247000  1.0
  C  C70  1  0.12034000  0.73375000  0.41487000  1.0
  C  C71  1  0.19222000  0.69027000  0.55903000  1.0
  C  C72  1  0.15920000  0.76928000  0.51993000  1.0
  C  C73  1  0.16923000  0.88895000  0.59138000  1.0
  C  C74  1  0.08636000  0.94091000  0.54205000  1.0
  C  C75  1  0.96850000  0.91011000  0.53157000  1.0
  C  C76  1  0.89122000  0.95778000  0.48532000  1.0
  C  C77  1  0.11916000  0.12885000  0.08918000  1.0
  C  C78  1  0.13099000  0.17662000  0.95944000  1.0
  C  C79  1  0.16437000  0.03944000  0.06284000  1.0
  C  C80  1  0.17605000  0.08911000  0.92685000  1.0
  C  C81  1  0.19352000  0.01801000  0.97954000  1.0
  C  C82  1  0.24079000  0.92056000  0.94710000  1.0
  C  C83  1  0.37271000  0.96749000  0.97348000  1.0
  C  C84  1  0.45896000  0.99137000  0.06831000  1.0
  C  C85  1  0.58085000  0.03272000  0.09247000  1.0
  C  C86  1  0.12270000  0.61524000  0.85486000  1.0
  C  C87  1  0.08128000  0.68418000  0.99353000  1.0
  C  C88  1  0.23401000  0.62024000  0.91531000  1.0
  C  C89  1  0.19097000  0.69322000  0.05985000  1.0
  C  C90  1  0.26971000  0.65955000  0.02045000  1.0
  C  C91  1  0.38932000  0.66951000  0.09194000  1.0
  C  C92  1  0.44128000  0.58672000  0.04253000  1.0
  C  C93  1  0.41110000  0.46931000  0.03264000  1.0
  C  C94  1  0.45882000  0.39225000  0.98608000  1.0
  C  C95  1  0.62916000  0.61994000  0.58973000  1.0
  C  C96  1  0.67602000  0.62991000  0.45905000  1.0
  C  C97  1  0.53956000  0.66503000  0.56350000  1.0
  C  C98  1  0.58833000  0.67479000  0.42657000  1.0
  C  C99  1  0.51774000  0.69333000  0.47981000  1.0
  C  C100  1  0.42037000  0.74072000  0.44726000  1.0
  C  C101  1  0.46740000  0.87248000  0.47350000  1.0
  C  C102  1  0.49136000  0.95878000  0.56838000  1.0
  C  C103  1  0.53268000  0.08055000  0.59266000  1.0
  C  C104  1  0.91794000  0.35004000  0.65730000  1.0
  C  C105  1  0.85975000  0.41449000  0.53247000  1.0
  C  C106  1  0.90297000  0.23963000  0.58758000  1.0
  C  C107  1  0.84203000  0.30642000  0.45686000  1.0
  C  C108  1  0.86485000  0.21624000  0.48436000  1.0
  C  C109  1  0.84807000  0.09861000  0.40439000  1.0
  C  C110  1  0.92737000  0.03930000  0.44722000  1.0
  C  C111  1  0.04510000  0.06931000  0.45737000  1.0
  C  C112  1  0.12208000  0.02118000  0.50297000  1.0
  C  C113  1  0.85075000  0.86593000  0.89537000  1.0
  C  C114  1  0.85363000  0.83331000  0.03499000  1.0
  C  C115  1  0.81382000  0.96145000  0.92385000  1.0
  C  C116  1  0.81759000  0.92758000  0.07003000  1.0
  C  C117  1  0.79609000  0.99365000  0.01307000  1.0
  C  C118  1  0.75545000  0.09584000  0.04740000  1.0
  C  C119  1  0.62420000  0.05303000  0.02353000  1.0
  C  C120  1  0.53792000  0.02979000  0.92897000  1.0
  C  C121  1  0.41627000  0.98853000  0.90501000  1.0
  N  N122  1  0.93721000  0.39755000  0.13120000  1.0
  N  N123  1  0.30225000  0.37080000  0.44991000  1.0
  N  N124  1  0.14474000  0.54618000  0.39144000  1.0
  N  N125  1  0.10227000  0.19737000  0.03901000  1.0
  N  N126  1  0.04655000  0.64551000  0.89242000  1.0
  N  N127  1  0.69733000  0.60227000  0.53912000  1.0
  N  N128  1  0.89813000  0.43734000  0.63163000  1.0
  N  N129  1  0.87023000  0.80164000  0.94926000  1.0
  F  F130  1  0.64717000  0.58709000  0.92132000  1.0
  F  F131  1  0.55256000  0.73488000  0.00857000  1.0
  F  F132  1  0.54763000  0.07252000  0.35800000  1.0
  F  F133  1  0.46677000  0.83740000  0.31052000  1.0
  F  F134  1  0.92855000  0.83263000  0.56837000  1.0
  F  F135  1  0.77829000  0.92572000  0.47941000  1.0
  F  F136  1  0.42336000  0.97234000  0.13893000  1.0
  F  F137  1  0.65921000  0.05325000  0.18644000  1.0
  F  F138  1  0.33429000  0.42964000  0.07025000  1.0
  F  F139  1  0.42766000  0.27976000  0.98072000  1.0
  F  F140  1  0.47237000  0.92330000  0.63901000  1.0
  F  F141  1  0.55330000  0.15880000  0.68676000  1.0
  F  F142  1  0.08719000  0.14867000  0.42327000  1.0
  F  F143  1  0.23527000  0.05401000  0.50958000  1.0
  F  F144  1  0.57301000  0.04810000  0.85795000  1.0
  F  F145  1  0.33751000  0.96714000  0.81068000  1.0
