# generated using pymatgen
data_CuH9C9N3ClO
_symmetry_space_group_name_H-M   'P 1'
_cell_length_a   8.56691000
_cell_length_b   11.47210000
_cell_length_c   11.47390000
_cell_angle_alpha   90.00070000
_cell_angle_beta   90.00020000
_cell_angle_gamma   71.14500000
_symmetry_Int_Tables_number   1
_chemical_formula_structural   CuH9C9N3ClO
_chemical_formula_sum   'Cu4 H36 C36 N12 Cl4 O4'
_cell_volume   1067.14920082
_cell_formula_units_Z   4
loop_
 _symmetry_equiv_pos_site_id
 _symmetry_equiv_pos_as_xyz
  1  'x, y, z'
loop_
 _atom_site_type_symbol
 _atom_site_label
 _atom_site_symmetry_multiplicity
 _atom_site_fract_x
 _atom_site_fract_y
 _atom_site_fract_z
 _atom_site_occupancy
  Cu  Cu0  1  0.04930000  0.89759000  0.88773000  1.0
  Cu  Cu1  1  0.95070000  0.60240000  0.38773000  1.0
  Cu  Cu2  1  0.95070000  0.10241000  0.11227000  1.0
  Cu  Cu3  1  0.04929000  0.39759000  0.61227000  1.0
  H  H4  1  0.17483000  0.70166000  0.36975000  1.0
  H  H5  1  0.82516000  0.79834000  0.86974000  1.0
  H  H6  1  0.82515000  0.29834000  0.63025000  1.0
  H  H7  1  0.17484000  0.20166000  0.13026000  1.0
  H  H8  1  0.03562000  0.73972000  0.24046000  1.0
  H  H9  1  0.96437000  0.76027000  0.74046000  1.0
  H  H10  1  0.96436000  0.26027000  0.75953000  1.0
  H  H11  1  0.03563000  0.23972000  0.25954000  1.0
  H  H12  1  0.24203000  0.47768000  0.32795000  1.0
  H  H13  1  0.75798000  0.02233000  0.82795000  1.0
  H  H14  1  0.75798000  0.52233000  0.67205000  1.0
  H  H15  1  0.24202000  0.97767000  0.17205000  1.0
  H  H16  1  0.07154000  0.41250000  0.17573000  1.0
  H  H17  1  0.92847000  0.08750000  0.67573000  1.0
  H  H18  1  0.92846000  0.58750000  0.82427000  1.0
  H  H19  1  0.07154000  0.91250000  0.32427000  1.0
  H  H20  1  0.98529000  0.56843000  0.12772000  1.0
  H  H21  1  0.01473000  0.93156000  0.62772000  1.0
  H  H22  1  0.01472000  0.43156000  0.87227000  1.0
  H  H23  1  0.98528000  0.06844000  0.37228000  1.0
  H  H24  1  0.42355000  0.89350000  0.99074000  1.0
  H  H25  1  0.57644000  0.60651000  0.49074000  1.0
  H  H26  1  0.57644000  0.10650000  0.00926000  1.0
  H  H27  1  0.42356000  0.39350000  0.50927000  1.0
  H  H28  1  0.66467000  0.81709000  0.12691000  1.0
  H  H29  1  0.33532000  0.68292000  0.62692000  1.0
  H  H30  1  0.33532000  0.18291000  0.87308000  1.0
  H  H31  1  0.66468000  0.31708000  0.37309000  1.0
  H  H32  1  0.71577000  0.62116000  0.23575000  1.0
  H  H33  1  0.28424000  0.87885000  0.73576000  1.0
  H  H34  1  0.28424000  0.37885000  0.76425000  1.0
  H  H35  1  0.71577000  0.12115000  0.26425000  1.0
  H  H36  1  0.53787000  0.49021000  0.20921000  1.0
  H  H37  1  0.46214000  0.00980000  0.70921000  1.0
  H  H38  1  0.46213000  0.50980000  0.79080000  1.0
  H  H39  1  0.53787000  0.99020000  0.29080000  1.0
  C  C40  1  0.10841000  0.67022000  0.30198000  1.0
  C  C41  1  0.89160000  0.82978000  0.80197000  1.0
  C  C42  1  0.89159000  0.32978000  0.69802000  1.0
  C  C43  1  0.10841000  0.17022000  0.19802000  1.0
  C  C44  1  0.14527000  0.54517000  0.27848000  1.0
  C  C45  1  0.85474000  0.95482000  0.77847000  1.0
  C  C46  1  0.85473000  0.45482000  0.72153000  1.0
  C  C47  1  0.14527000  0.04517000  0.22153000  1.0
  C  C48  1  0.09354000  0.50076000  0.16764000  1.0
  C  C49  1  0.90648000  0.99923000  0.66763000  1.0
  C  C50  1  0.90647000  0.49923000  0.83236000  1.0
  C  C51  1  0.09353000  0.00077000  0.33236000  1.0
  C  C52  1  0.44944000  0.80702000  0.03818000  1.0
  C  C53  1  0.55055000  0.69299000  0.53818000  1.0
  C  C54  1  0.55056000  0.19298000  0.96182000  1.0
  C  C55  1  0.44944000  0.30702000  0.46182000  1.0
  C  C56  1  0.58103000  0.76376000  0.11453000  1.0
  C  C57  1  0.41896000  0.73625000  0.61453000  1.0
  C  C58  1  0.41897000  0.23625000  0.88547000  1.0
  C  C59  1  0.58103000  0.26375000  0.38548000  1.0
  C  C60  1  0.61142000  0.65130000  0.17586000  1.0
  C  C61  1  0.38858000  0.84871000  0.67587000  1.0
  C  C62  1  0.38858000  0.34871000  0.82414000  1.0
  C  C63  1  0.61142000  0.15129000  0.32414000  1.0
  C  C64  1  0.51349000  0.57682000  0.16240000  1.0
  C  C65  1  0.48652000  0.92319000  0.66240000  1.0
  C  C66  1  0.48651000  0.42318000  0.83761000  1.0
  C  C67  1  0.51348000  0.07681000  0.33761000  1.0
  C  C68  1  0.38128000  0.62067000  0.08483000  1.0
  C  C69  1  0.61872000  0.87933000  0.58482000  1.0
  C  C70  1  0.61872000  0.37933000  0.91517000  1.0
  C  C71  1  0.38128000  0.12067000  0.41518000  1.0
  C  C72  1  0.34736000  0.73360000  0.02441000  1.0
  C  C73  1  0.65263000  0.76640000  0.52441000  1.0
  C  C74  1  0.65264000  0.26640000  0.97559000  1.0
  C  C75  1  0.34736000  0.23361000  0.47559000  1.0
  N  N76  1  0.25770000  0.57817000  0.04787000  1.0
  N  N77  1  0.74230000  0.92183000  0.54787000  1.0
  N  N78  1  0.74231000  0.42182000  0.95213000  1.0
  N  N79  1  0.25769000  0.07818000  0.45213000  1.0
  N  N80  1  0.15403000  0.65465000  0.97366000  1.0
  N  N81  1  0.84597000  0.84534000  0.47366000  1.0
  N  N82  1  0.84597000  0.34534000  0.02634000  1.0
  N  N83  1  0.15402000  0.15466000  0.52634000  1.0
  N  N84  1  0.20625000  0.75003000  0.95915000  1.0
  N  N85  1  0.79374000  0.74997000  0.45915000  1.0
  N  N86  1  0.79375000  0.24997000  0.04085000  1.0
  N  N87  1  0.20625000  0.25004000  0.54085000  1.0
  Cl  Cl88  1  0.13949000  0.05977000  0.90400000  1.0
  Cl  Cl89  1  0.86052000  0.44023000  0.40399000  1.0
  Cl  Cl90  1  0.86050000  0.94023000  0.09600000  1.0
  Cl  Cl91  1  0.13949000  0.55977000  0.59599000  1.0
  O  O92  1  0.23031000  0.47221000  0.08035000  1.0
  O  O93  1  0.76971000  0.02779000  0.58035000  1.0
  O  O94  1  0.76971000  0.52779000  0.91965000  1.0
  O  O95  1  0.23030000  0.97221000  0.41965000  1.0
