# generated using pymatgen
data_CuH10C4(N5Cl)2
_symmetry_space_group_name_H-M   'P 1'
_cell_length_a   5.11333000
_cell_length_b   6.30352000
_cell_length_c   8.99789000
_cell_angle_alpha   79.73200000
_cell_angle_beta   77.85300000
_cell_angle_gamma   89.46730000
_symmetry_Int_Tables_number   1
_chemical_formula_structural   CuH10C4(N5Cl)2
_chemical_formula_sum   'Cu1 H10 C4 N10 Cl2'
_cell_volume   278.86578079
_cell_formula_units_Z   1
loop_
 _symmetry_equiv_pos_site_id
 _symmetry_equiv_pos_as_xyz
  1  'x, y, z'
loop_
 _atom_site_type_symbol
 _atom_site_label
 _atom_site_symmetry_multiplicity
 _atom_site_fract_x
 _atom_site_fract_y
 _atom_site_fract_z
 _atom_site_occupancy
  Cu  Cu0  1  0.99999000  0.00000000  0.00000000  1.0
  H  H1  1  0.74859000  0.63283000  0.92088000  1.0
  H  H2  1  0.25139000  0.36716000  0.07913000  1.0
  H  H3  1  0.49144000  0.73356000  0.04024000  1.0
  H  H4  1  0.50856000  0.26642000  0.95977000  1.0
  H  H5  1  0.50651000  0.74856000  0.39013000  1.0
  H  H6  1  0.49349000  0.25145000  0.60987000  1.0
  H  H7  1  0.17663000  0.86126000  0.41647000  1.0
  H  H8  1  0.82338000  0.13875000  0.58353000  1.0
  H  H9  1  0.21876000  0.58000000  0.48222000  1.0
  H  H10  1  0.78125000  0.42000000  0.51776000  1.0
  C  C11  1  0.46664000  0.78125000  0.81894000  1.0
  C  C12  1  0.53336000  0.21877000  0.18105000  1.0
  C  C13  1  0.30727000  0.74250000  0.46536000  1.0
  C  C14  1  0.69273000  0.25749000  0.53463000  1.0
  N  N15  1  0.53606000  0.71723000  0.68160000  1.0
  N  N16  1  0.46394000  0.28278000  0.31841000  1.0
  N  N17  1  0.33493000  0.78963000  0.61367000  1.0
  N  N18  1  0.66507000  0.21037000  0.38633000  1.0
  N  N19  1  0.15165000  0.89200000  0.69649000  1.0
  N  N20  1  0.84834000  0.10799000  0.30351000  1.0
  N  N21  1  0.23235000  0.88924000  0.82814000  1.0
  N  N22  1  0.76764000  0.11077000  0.17186000  1.0
  N  N23  1  0.61080000  0.75144000  0.93178000  1.0
  N  N24  1  0.38920000  0.24855000  0.06823000  1.0
  Cl  Cl25  1  0.97178000  0.32423000  0.83428000  1.0
  Cl  Cl26  1  0.02822000  0.67576000  0.16571000  1.0
