# generated using pymatgen
data_CdH8C6S(NO3)2
_symmetry_space_group_name_H-M   'P 1'
_cell_length_a   6.85948000
_cell_length_b   8.00577000
_cell_length_c   9.22033000
_cell_angle_alpha   89.09660000
_cell_angle_beta   89.99940000
_cell_angle_gamma   89.99990000
_symmetry_Int_Tables_number   1
_chemical_formula_structural   CdH8C6S(NO3)2
_chemical_formula_sum   'Cd2 H16 C12 S2 N4 O12'
_cell_volume   506.27534854
_cell_formula_units_Z   2
loop_
 _symmetry_equiv_pos_site_id
 _symmetry_equiv_pos_as_xyz
  1  'x, y, z'
loop_
 _atom_site_type_symbol
 _atom_site_label
 _atom_site_symmetry_multiplicity
 _atom_site_fract_x
 _atom_site_fract_y
 _atom_site_fract_z
 _atom_site_occupancy
  Cd  Cd0  1  0.63883000  0.82939000  0.17099000  1.0
  Cd  Cd1  1  0.13884000  0.17061000  0.82901000  1.0
  H  H2  1  0.72612000  0.22883000  0.20007000  1.0
  H  H3  1  0.22612000  0.77117000  0.79993000  1.0
  H  H4  1  0.75641000  0.09287000  0.55577000  1.0
  H  H5  1  0.25641000  0.90713000  0.44423000  1.0
  H  H6  1  0.74534000  0.86808000  0.73976000  1.0
  H  H7  1  0.24533000  0.13191000  0.26024000  1.0
  H  H8  1  0.68415000  0.56811000  0.80645000  1.0
  H  H9  1  0.18414000  0.43189000  0.19356000  1.0
  H  H10  1  0.59867000  0.36769000  0.61029000  1.0
  H  H11  1  0.09868000  0.63231000  0.38971000  1.0
  H  H12  1  0.57677000  0.47655000  0.35395000  1.0
  H  H13  1  0.07678000  0.52346000  0.64605000  1.0
  H  H14  1  0.42358000  0.61273000  0.00924000  1.0
  H  H15  1  0.92358000  0.38728000  0.99076000  1.0
  H  H16  1  0.59500000  0.47651000  0.04334000  1.0
  H  H17  1  0.09500000  0.52349000  0.95666000  1.0
  C  C18  1  0.69314000  0.82815000  0.51221000  1.0
  C  C19  1  0.19314000  0.17185000  0.48779000  1.0
  C  C20  1  0.72351000  0.00310000  0.47085000  1.0
  C  C21  1  0.22351000  0.99690000  0.52915000  1.0
  C  C22  1  0.70999000  0.77679000  0.65739000  1.0
  C  C23  1  0.20999000  0.22320000  0.34261000  1.0
  C  C24  1  0.67584000  0.60953000  0.69356000  1.0
  C  C25  1  0.17584000  0.39047000  0.30643000  1.0
  C  C26  1  0.62688000  0.49858000  0.58478000  1.0
  C  C27  1  0.12689000  0.50142000  0.41522000  1.0
  C  C28  1  0.61368000  0.55918000  0.44236000  1.0
  C  C29  1  0.11370000  0.44082000  0.55764000  1.0
  S  S30  1  0.13633000  0.83078000  0.08628000  1.0
  S  S31  1  0.63633000  0.16922000  0.91372000  1.0
  N  N32  1  0.64553000  0.71928000  0.40682000  1.0
  N  N33  1  0.14554000  0.28072000  0.59318000  1.0
  N  N34  1  0.70912000  0.04846000  0.33641000  1.0
  N  N35  1  0.20913000  0.95154000  0.66359000  1.0
  O  O36  1  0.73808000  0.21453000  0.30936000  1.0
  O  O37  1  0.23808000  0.78547000  0.69064000  1.0
  O  O38  1  0.96166000  0.75236000  0.15332000  1.0
  O  O39  1  0.46167000  0.24764000  0.84668000  1.0
  O  O40  1  0.20498000  0.71737000  0.96503000  1.0
  O  O41  1  0.70498000  0.28263000  0.03497000  1.0
  O  O42  1  0.08821000  0.99805000  0.02545000  1.0
  O  O43  1  0.58821000  0.00195000  0.97455000  1.0
  O  O44  1  0.29297000  0.84138000  0.19684000  1.0
  O  O45  1  0.79298000  0.15862000  0.80316000  1.0
  O  O46  1  0.55939000  0.59667000  0.04249000  1.0
  O  O47  1  0.05939000  0.40334000  0.95751000  1.0
