# generated using pymatgen
data_Zn2H18C37S2N2(O5F2)2
_symmetry_space_group_name_H-M   'P 1'
_cell_length_a   12.74740000
_cell_length_b   16.37960000
_cell_length_c   17.71230000
_cell_angle_alpha   95.74300000
_cell_angle_beta   90.37430000
_cell_angle_gamma   92.69770000
_symmetry_Int_Tables_number   1
_chemical_formula_structural   Zn2H18C37S2N2(O5F2)2
_chemical_formula_sum   'Zn2 H18 C37 S2 N2 O10 F4'
_cell_volume   3675.40489839
_cell_formula_units_Z   1
loop_
 _symmetry_equiv_pos_site_id
 _symmetry_equiv_pos_as_xyz
  1  'x, y, z'
loop_
 _atom_site_type_symbol
 _atom_site_label
 _atom_site_symmetry_multiplicity
 _atom_site_fract_x
 _atom_site_fract_y
 _atom_site_fract_z
 _atom_site_occupancy
  Zn  Zn0  1  0.49640000  0.41256000  0.49655000  1.0
  Zn  Zn1  1  0.50419000  0.58603000  0.50120000  1.0
  H  H2  1  0.39214000  0.71201000  0.42919000  1.0
  H  H3  1  0.39334000  0.86423000  0.42934000  1.0
  H  H4  1  0.63762000  0.87920000  0.60309000  1.0
  H  H5  1  0.37998000  0.11951000  0.38489000  1.0
  H  H6  1  0.58170000  0.13604000  0.58518000  1.0
  H  H7  1  0.58462000  0.28822000  0.58426000  1.0
  H  H8  1  0.58177000  0.00428000  0.56427000  1.0
  H  H9  1  0.41704000  0.99525000  0.43528000  1.0
  H  H10  1  0.50483000  0.62108000  0.26147000  1.0
  H  H11  1  0.50361000  0.61398000  0.12126000  1.0
  H  H12  1  0.49523000  0.34862000  0.11219000  1.0
  H  H13  1  0.51031000  0.65431000  0.88674000  1.0
  H  H14  1  0.49247000  0.38885000  0.87655000  1.0
  H  H15  1  0.49389000  0.38245000  0.73639000  1.0
  H  H16  1  0.49567000  0.40696000  0.99675000  1.0
  H  H17  1  0.50466000  0.59552000  0.00170000  1.0
  H  H18  1  0.86633000  0.62761000  0.49823000  1.0
  H  H19  1  0.05085000  0.34128000  0.58671000  1.0
  C  C20  1  0.49991000  0.50116000  0.35186000  1.0
  C  C21  1  0.29588000  0.49784000  0.49821000  1.0
  C  C22  1  0.50211000  0.50308000  0.64648000  1.0
  C  C23  1  0.70503000  0.49772000  0.49814000  1.0
  C  C24  1  0.44477000  0.75255000  0.46630000  1.0
  C  C25  1  0.44653000  0.83710000  0.46700000  1.0
  C  C26  1  0.51664000  0.88630000  0.51646000  1.0
  C  C27  1  0.58154000  0.84583000  0.56336000  1.0
  C  C28  1  0.57356000  0.76062000  0.55805000  1.0
  C  C29  1  0.52540000  0.97570000  0.52172000  1.0
  C  C30  1  0.47185000  0.02376000  0.47894000  1.0
  C  C31  1  0.42719000  0.15307000  0.43026000  1.0
  C  C32  1  0.48042000  0.11321000  0.48431000  1.0
  C  C33  1  0.53904000  0.16278000  0.54104000  1.0
  C  C34  1  0.54148000  0.24728000  0.54131000  1.0
  C  C35  1  0.43553000  0.23838000  0.43514000  1.0
  C  C36  1  0.50014000  0.49131000  0.26685000  1.0
  C  C37  1  0.50243000  0.56186000  0.22730000  1.0
  C  C38  1  0.50186000  0.55739000  0.14883000  1.0
  C  C39  1  0.49908000  0.48048000  0.10480000  1.0
  C  C40  1  0.49716000  0.40955000  0.14341000  1.0
  C  C41  1  0.49785000  0.41545000  0.22219000  1.0
  C  C42  1  0.49851000  0.47069000  0.02219000  1.0
  C  C43  1  0.50151000  0.53185000  0.97615000  1.0
  C  C44  1  0.50630000  0.59352000  0.85523000  1.0
  C  C45  1  0.50131000  0.52235000  0.89356000  1.0
  C  C46  1  0.49668000  0.44561000  0.84923000  1.0
  C  C47  1  0.49743000  0.44156000  0.77077000  1.0
  C  C48  1  0.50222000  0.51235000  0.73151000  1.0
  C  C49  1  0.50656000  0.58798000  0.77650000  1.0
  C  C50  1  0.10822000  0.42811000  0.49658000  1.0
  C  C51  1  0.89158000  0.56509000  0.49806000  1.0
  C  C52  1  0.17951000  0.49494000  0.49586000  1.0
  C  C53  1  0.82106000  0.49850000  0.49800000  1.0
  C  C54  1  0.99621000  0.53988000  0.49773000  1.0
  C  C55  1  0.00338000  0.45427000  0.49794000  1.0
  C  C56  1  0.13222000  0.33943000  0.49497000  1.0
  S  S57  1  0.11927000  0.58791000  0.49637000  1.0
  S  S58  1  0.88060000  0.40498000  0.49708000  1.0
  N  N59  1  0.50829000  0.71403000  0.51154000  1.0
  N  N60  1  0.48994000  0.28526000  0.48863000  1.0
  O  O61  1  0.49151000  0.43638000  0.38561000  1.0
  O  O62  1  0.50770000  0.57452000  0.38405000  1.0
  O  O63  1  0.34138000  0.56737000  0.48951000  1.0
  O  O64  1  0.33932000  0.43190000  0.50943000  1.0
  O  O65  1  0.49126000  0.56736000  0.61299000  1.0
  O  O66  1  0.51210000  0.43079000  0.61417000  1.0
  O  O67  1  0.65811000  0.42684000  0.49414000  1.0
  O  O68  1  0.66300000  0.56687000  0.50218000  1.0
  O  O69  1  0.08623000  0.30081000  0.55273000  1.0
  O  O70  1  0.18151000  0.30033000  0.44690000  1.0
  F  F71  1  0.63574000  0.72135000  0.60222000  1.0
  F  F72  1  0.38720000  0.27696000  0.38320000  1.0
  F  F73  1  0.49697000  0.34339000  0.25397000  1.0
  F  F74  1  0.51253000  0.66031000  0.74491000  1.0
