# generated using pymatgen
data_CdH8C13N5ClO2
_symmetry_space_group_name_H-M   'P 1'
_cell_length_a   11.04950000
_cell_length_b   11.65390000
_cell_length_c   13.20000000
_cell_angle_alpha   110.55500000
_cell_angle_beta   98.73980000
_cell_angle_gamma   113.96700000
_symmetry_Int_Tables_number   1
_chemical_formula_structural   CdH8C13N5ClO2
_chemical_formula_sum   'Cd4 H32 C52 N20 Cl4 O8'
_cell_volume   1365.41383354
_cell_formula_units_Z   4
loop_
 _symmetry_equiv_pos_site_id
 _symmetry_equiv_pos_as_xyz
  1  'x, y, z'
loop_
 _atom_site_type_symbol
 _atom_site_label
 _atom_site_symmetry_multiplicity
 _atom_site_fract_x
 _atom_site_fract_y
 _atom_site_fract_z
 _atom_site_occupancy
  Cd  Cd0  1  0.14759000  0.22177000  0.11102000  1.0
  Cd  Cd1  1  0.85241000  0.77823000  0.88898000  1.0
  Cd  Cd2  1  0.63587000  0.44464000  0.60153000  1.0
  Cd  Cd3  1  0.36413000  0.55536000  0.39847000  1.0
  H  H4  1  0.22344000  0.53958000  0.12249000  1.0
  H  H5  1  0.77656000  0.46042000  0.87751000  1.0
  H  H6  1  0.31597000  0.67481000  0.01137000  1.0
  H  H7  1  0.68403000  0.32518000  0.98863000  1.0
  H  H8  1  0.39744000  0.36379000  0.81755000  1.0
  H  H9  1  0.60256000  0.63621000  0.18245000  1.0
  H  H10  1  0.22955000  0.92899000  0.97128000  1.0
  H  H11  1  0.77045000  0.07101000  0.02872000  1.0
  H  H12  1  0.51631000  0.08471000  0.75972000  1.0
  H  H13  1  0.48369000  0.91529000  0.24028000  1.0
  H  H14  1  0.61541000  0.93381000  0.66428000  1.0
  H  H15  1  0.38459000  0.06619000  0.33571000  1.0
  H  H16  1  0.44276000  0.66655000  0.82147000  1.0
  H  H17  1  0.55724000  0.33345000  0.17853000  1.0
  H  H18  1  0.33458000  0.80671000  0.90732000  1.0
  H  H19  1  0.66542000  0.19329000  0.09268000  1.0
  H  H20  1  0.64751000  0.15161000  0.56636000  1.0
  H  H21  1  0.35249000  0.84839000  0.43364000  1.0
  H  H22  1  0.75246000  0.00761000  0.46304000  1.0
  H  H23  1  0.24754000  0.99238000  0.53696000  1.0
  H  H24  1  0.92794000  0.29397000  0.33614000  1.0
  H  H25  1  0.07206000  0.70602000  0.66386000  1.0
  H  H26  1  0.74413000  0.71180000  0.47915000  1.0
  H  H27  1  0.25587000  0.28820000  0.52085000  1.0
  H  H28  1  0.86800000  0.87352000  0.42781000  1.0
  H  H29  1  0.13200000  0.12648000  0.57219000  1.0
  H  H30  1  0.96129000  0.01871000  0.33034000  1.0
  H  H31  1  0.03870000  0.98129000  0.66967000  1.0
  H  H32  1  0.07127000  0.72023000  0.12988000  1.0
  H  H33  1  0.92874000  0.27977000  0.87012000  1.0
  H  H34  1  0.98504000  0.57668000  0.23343000  1.0
  H  H35  1  0.01496000  0.42332000  0.76657000  1.0
  C  C36  1  0.26309000  0.50208000  0.05451000  1.0
  C  C37  1  0.73691000  0.49792000  0.94549000  1.0
  C  C38  1  0.31306000  0.57458000  0.99214000  1.0
  C  C39  1  0.68694000  0.42542000  0.00786000  1.0
  C  C40  1  0.35916000  0.40447000  0.88612000  1.0
  C  C41  1  0.64084000  0.59553000  0.11389000  1.0
  C  C42  1  0.31179000  0.33215000  0.94997000  1.0
  C  C43  1  0.68821000  0.66785000  0.05003000  1.0
  C  C44  1  0.31356000  0.20245000  0.93319000  1.0
  C  C45  1  0.68645000  0.79755000  0.06681000  1.0
  C  C46  1  0.27075000  0.01565000  0.94973000  1.0
  C  C47  1  0.72925000  0.98435000  0.05027000  1.0
  C  C48  1  0.41999000  0.95428000  0.83865000  1.0
  C  C49  1  0.58001000  0.04572000  0.16135000  1.0
  C  C50  1  0.50204000  0.99337000  0.77283000  1.0
  C  C51  1  0.49796000  0.00663000  0.22717000  1.0
  C  C52  1  0.55721000  0.90968000  0.72054000  1.0
  C  C53  1  0.44279000  0.09032000  0.27946000  1.0
  C  C54  1  0.53567000  0.79138000  0.73683000  1.0
  C  C55  1  0.46433000  0.20862000  0.26317000  1.0
  C  C56  1  0.45930000  0.75791000  0.80750000  1.0
  C  C57  1  0.54070000  0.24209000  0.19250000  1.0
  C  C58  1  0.39913000  0.83747000  0.85687000  1.0
  C  C59  1  0.60087000  0.16253000  0.14313000  1.0
  C  C60  1  0.58203000  0.69284000  0.67148000  1.0
  C  C61  1  0.41797000  0.30716000  0.32852000  1.0
  C  C62  1  0.71101000  0.18184000  0.51482000  1.0
  C  C63  1  0.28898000  0.81815000  0.48518000  1.0
  C  C64  1  0.77039000  0.10472000  0.45876000  1.0
  C  C65  1  0.22961000  0.89528000  0.54124000  1.0
  C  C66  1  0.86464000  0.26063000  0.38713000  1.0
  C  C67  1  0.13536000  0.73937000  0.61287000  1.0
  C  C68  1  0.80358000  0.33789000  0.44186000  1.0
  C  C69  1  0.19642000  0.66211000  0.55814000  1.0
  C  C70  1  0.81492000  0.46260000  0.43230000  1.0
  C  C71  1  0.18508000  0.53740000  0.56770000  1.0
  C  C72  1  0.78114000  0.63631000  0.45560000  1.0
  C  C73  1  0.21886000  0.36369000  0.54440000  1.0
  C  C74  1  0.91852000  0.71490000  0.33423000  1.0
  C  C75  1  0.08148000  0.28510000  0.66577000  1.0
  C  C76  1  0.91416000  0.84037000  0.36383000  1.0
  C  C77  1  0.08584000  0.15963000  0.63617000  1.0
  C  C78  1  0.96785000  0.92264000  0.30936000  1.0
  C  C79  1  0.03215000  0.07736000  0.69064000  1.0
  C  C80  1  0.02250000  0.87856000  0.22342000  1.0
  C  C81  1  0.97750000  0.12144000  0.77658000  1.0
  C  C82  1  0.02903000  0.75414000  0.19698000  1.0
  C  C83  1  0.97097000  0.24586000  0.80302000  1.0
  C  C84  1  0.97938000  0.67291000  0.25291000  1.0
  C  C85  1  0.02062000  0.32709000  0.74709000  1.0
  C  C86  1  0.06321000  0.95810000  0.15456000  1.0
  C  C87  1  0.93679000  0.04191000  0.84544000  1.0
  N  N88  1  0.26224000  0.38086000  0.03262000  1.0
  N  N89  1  0.73777000  0.61914000  0.96738000  1.0
  N  N90  1  0.35964000  0.52575000  0.90782000  1.0
  N  N91  1  0.64036000  0.47425000  0.09218000  1.0
  N  N92  1  0.38385000  0.15324000  0.87451000  1.0
  N  N93  1  0.61616000  0.84676000  0.12549000  1.0
  N  N94  1  0.35637000  0.03449000  0.88601000  1.0
  N  N95  1  0.64363000  0.96551000  0.11399000  1.0
  N  N96  1  0.24324000  0.12098000  0.98109000  1.0
  N  N97  1  0.75677000  0.87903000  0.01891000  1.0
  N  N98  1  0.72817000  0.29776000  0.50614000  1.0
  N  N99  1  0.27183000  0.70224000  0.49386000  1.0
  N  N100  1  0.84843000  0.14499000  0.39628000  1.0
  N  N101  1  0.15157000  0.85501000  0.60372000  1.0
  N  N102  1  0.88202000  0.51651000  0.37063000  1.0
  N  N103  1  0.11798000  0.48349000  0.62937000  1.0
  N  N104  1  0.86032000  0.62743000  0.38634000  1.0
  N  N105  1  0.13968000  0.37257000  0.61366000  1.0
  N  N106  1  0.75182000  0.53355000  0.48577000  1.0
  N  N107  1  0.24818000  0.46645000  0.51423000  1.0
  Cl  Cl108  1  0.09227000  0.40424000  0.23324000  1.0
  Cl  Cl109  1  0.90774000  0.59576000  0.76676000  1.0
  Cl  Cl110  1  0.49098000  0.26607000  0.66051000  1.0
  Cl  Cl111  1  0.50902000  0.73393000  0.33949000  1.0
  O  O112  1  0.57338000  0.66858000  0.56920000  1.0
  O  O113  1  0.42662000  0.33142000  0.43080000  1.0
  O  O114  1  0.62347000  0.63327000  0.72395000  1.0
  O  O115  1  0.37654000  0.36673000  0.27605000  1.0
  O  O116  1  0.09481000  0.08735000  0.20239000  1.0
  O  O117  1  0.90519000  0.91265000  0.79762000  1.0
  O  O118  1  0.06007000  0.89110000  0.05344000  1.0
  O  O119  1  0.93993000  0.10890000  0.94656000  1.0
