# generated using pymatgen
data_CoH15C23N2O5
_symmetry_space_group_name_H-M   'P 1'
_cell_length_a   9.46350000
_cell_length_b   10.34800000
_cell_length_c   10.95340000
_cell_angle_alpha   103.81900000
_cell_angle_beta   112.79300000
_cell_angle_gamma   107.57000000
_symmetry_Int_Tables_number   1
_chemical_formula_structural   CoH15C23N2O5
_chemical_formula_sum   'Co2 H30 C46 N4 O10'
_cell_volume   862.04778178
_cell_formula_units_Z   2
loop_
 _symmetry_equiv_pos_site_id
 _symmetry_equiv_pos_as_xyz
  1  'x, y, z'
loop_
 _atom_site_type_symbol
 _atom_site_label
 _atom_site_symmetry_multiplicity
 _atom_site_fract_x
 _atom_site_fract_y
 _atom_site_fract_z
 _atom_site_occupancy
  Co  Co0  1  0.15188000  0.04171000  0.18151000  1.0
  Co  Co1  1  0.84767000  0.95824000  0.81684000  1.0
  H  H2  1  0.65489000  0.85010000  0.05351000  1.0
  H  H3  1  0.34586000  0.15074000  0.94692000  1.0
  H  H4  1  0.88940000  0.30546000  0.03288000  1.0
  H  H5  1  0.10933000  0.69516000  0.96437000  1.0
  H  H6  1  0.03633000  0.57501000  0.10492000  1.0
  H  H7  1  0.96082000  0.42539000  0.89061000  1.0
  H  H8  1  0.49454000  0.36428000  0.10764000  1.0
  H  H9  1  0.50897000  0.63659000  0.89761000  1.0
  H  H10  1  0.64349000  0.63294000  0.18067000  1.0
  H  H11  1  0.35979000  0.36826000  0.82494000  1.0
  H  H12  1  0.27974000  0.80729000  0.22834000  1.0
  H  H13  1  0.71777000  0.19252000  0.77278000  1.0
  H  H14  1  0.57632000  0.82983000  0.36447000  1.0
  H  H15  1  0.42042000  0.16924000  0.63925000  1.0
  H  H16  1  0.82744000  0.07601000  0.48593000  1.0
  H  H17  1  0.17034000  0.92209000  0.51596000  1.0
  H  H18  1  0.93337000  0.35981000  0.55807000  1.0
  H  H19  1  0.06595000  0.63827000  0.44299000  1.0
  H  H20  1  0.86517000  0.56768000  0.53818000  1.0
  H  H21  1  0.13533000  0.43118000  0.46382000  1.0
  H  H22  1  0.63587000  0.65680000  0.42137000  1.0
  H  H23  1  0.36533000  0.34295000  0.58005000  1.0
  H  H24  1  0.32871000  0.57913000  0.24312000  1.0
  H  H25  1  0.67358000  0.42111000  0.75605000  1.0
  H  H26  1  0.11937000  0.31313000  0.12321000  1.0
  H  H27  1  0.88242000  0.68722000  0.87417000  1.0
  H  H28  1  0.10552000  0.18544000  0.36499000  1.0
  H  H29  1  0.89547000  0.81554000  0.63370000  1.0
  H  H30  1  0.07512000  0.03203000  0.37161000  1.0
  H  H31  1  0.92452000  0.96872000  0.62693000  1.0
  C  C32  1  0.86913000  0.11883000  0.14276000  1.0
  C  C33  1  0.13140000  0.88172000  0.85561000  1.0
  C  C34  1  0.67867000  0.06303000  0.06013000  1.0
  C  C35  1  0.32183000  0.93740000  0.93919000  1.0
  C  C36  1  0.58399000  0.91390000  0.02540000  1.0
  C  C37  1  0.41663000  0.08672000  0.97452000  1.0
  C  C38  1  0.59478000  0.15412000  0.03517000  1.0
  C  C39  1  0.40583000  0.84647000  0.96476000  1.0
  C  C40  1  0.68272000  0.31343000  0.06937000  1.0
  C  C41  1  0.31802000  0.68727000  0.93114000  1.0
  C  C42  1  0.83545000  0.37655000  0.06726000  1.0
  C  C43  1  0.16386000  0.62410000  0.93115000  1.0
  C  C44  1  0.91726000  0.52826000  0.10560000  1.0
  C  C45  1  0.08133000  0.47235000  0.89218000  1.0
  C  C46  1  0.61383000  0.40899000  0.10696000  1.0
  C  C47  1  0.38827000  0.59192000  0.89615000  1.0
  C  C48  1  0.69669000  0.56056000  0.14770000  1.0
  C  C49  1  0.30513000  0.44040000  0.85540000  1.0
  C  C50  1  0.85000000  0.62275000  0.14767000  1.0
  C  C51  1  0.14975000  0.37801000  0.85223000  1.0
  C  C52  1  0.93821000  0.78739000  0.19718000  1.0
  C  C53  1  0.06096000  0.21323000  0.80165000  1.0
  C  C54  1  0.39216000  0.91315000  0.28174000  1.0
  C  C55  1  0.60581000  0.08620000  0.71889000  1.0
  C  C56  1  0.55781000  0.92717000  0.35813000  1.0
  C  C57  1  0.43968000  0.07172000  0.64368000  1.0
  C  C58  1  0.69825000  0.06423000  0.42735000  1.0
  C  C59  1  0.29982000  0.93421000  0.57379000  1.0
  C  C60  1  0.67098000  0.18962000  0.42090000  1.0
  C  C61  1  0.32805000  0.80899000  0.57923000  1.0
  C  C62  1  0.80175000  0.33925000  0.49199000  1.0
  C  C63  1  0.19780000  0.65923000  0.50869000  1.0
  C  C64  1  0.76374000  0.45475000  0.47963000  1.0
  C  C65  1  0.23648000  0.54416000  0.52156000  1.0
  C  C66  1  0.59195000  0.42997000  0.39084000  1.0
  C  C67  1  0.40857000  0.56941000  0.60978000  1.0
  C  C68  1  0.54155000  0.54079000  0.36600000  1.0
  C  C69  1  0.45952000  0.45892000  0.63480000  1.0
  C  C70  1  0.37228000  0.49806000  0.26890000  1.0
  C  C71  1  0.62933000  0.50198000  0.73060000  1.0
  C  C72  1  0.25162000  0.34874000  0.20115000  1.0
  C  C73  1  0.74968000  0.65137000  0.79730000  1.0
  C  C74  1  0.46236000  0.28302000  0.31986000  1.0
  C  C75  1  0.53785000  0.71641000  0.67959000  1.0
  C  C76  1  0.50074000  0.16505000  0.33831000  1.0
  C  C77  1  0.49867000  0.83404000  0.66107000  1.0
  N  N78  1  0.36257000  0.02942000  0.26931000  1.0
  N  N79  1  0.63643000  0.97001000  0.72998000  1.0
  N  N80  1  0.29375000  0.24223000  0.22854000  1.0
  N  N81  1  0.70686000  0.75767000  0.77013000  1.0
  O  O82  1  0.93263000  0.04796000  0.08146000  1.0
  O  O83  1  0.06737000  0.95223000  0.91658000  1.0
  O  O84  1  0.95134000  0.22121000  0.26705000  1.0
  O  O85  1  0.04990000  0.77984000  0.73102000  1.0
  O  O86  1  0.02940000  0.83498000  0.14026000  1.0
  O  O87  1  0.96945000  0.16508000  0.85811000  1.0
  O  O88  1  0.91876000  0.86711000  0.29029000  1.0
  O  O89  1  0.08038000  0.13405000  0.70813000  1.0
  O  O90  1  0.17057000  0.12782000  0.39555000  1.0
  O  O91  1  0.82967000  0.87266000  0.60318000  1.0
