# generated using pymatgen
data_KPH24C12(OF)6
_symmetry_space_group_name_H-M   'P 1'
_cell_length_a   7.72283000
_cell_length_b   10.76240000
_cell_length_c   11.35920000
_cell_angle_alpha   90.00000000
_cell_angle_beta   89.99990000
_cell_angle_gamma   89.99990000
_symmetry_Int_Tables_number   1
_chemical_formula_structural   KPH24C12(OF)6
_chemical_formula_sum   'K2 P2 H48 C24 O12 F12'
_cell_volume   944.13337537
_cell_formula_units_Z   2
loop_
 _symmetry_equiv_pos_site_id
 _symmetry_equiv_pos_as_xyz
  1  'x, y, z'
loop_
 _atom_site_type_symbol
 _atom_site_label
 _atom_site_symmetry_multiplicity
 _atom_site_fract_x
 _atom_site_fract_y
 _atom_site_fract_z
 _atom_site_occupancy
  K  K0  1  0.49999000  0.50000000  0.80260000  1.0
  K  K1  1  0.00000000  0.00000000  0.30259000  1.0
  P  P2  1  0.00000000  0.50000000  0.80041000  1.0
  P  P3  1  0.50000000  0.00000000  0.30041000  1.0
  H  H4  1  0.52951000  0.38977000  0.40527000  1.0
  H  H5  1  0.97049000  0.88977000  0.90527000  1.0
  H  H6  1  0.02952000  0.11023000  0.90527000  1.0
  H  H7  1  0.47049000  0.61023000  0.40527000  1.0
  H  H8  1  0.69170000  0.46320000  0.49448000  1.0
  H  H9  1  0.80829000  0.96320000  0.99447000  1.0
  H  H10  1  0.19171000  0.03680000  0.99447000  1.0
  H  H11  1  0.30829000  0.53680000  0.49447000  1.0
  H  H12  1  0.74098000  0.27770000  0.60318000  1.0
  H  H13  1  0.75902000  0.77770000  0.10318000  1.0
  H  H14  1  0.24098000  0.22230000  0.10318000  1.0
  H  H15  1  0.25902000  0.72230000  0.60318000  1.0
  H  H16  1  0.58639000  0.19840000  0.51314000  1.0
  H  H17  1  0.91361000  0.69840000  0.01314000  1.0
  H  H18  1  0.08639000  0.30160000  0.01314000  1.0
  H  H19  1  0.41361000  0.80160000  0.51314000  1.0
  H  H20  1  0.40140000  0.16701000  0.69627000  1.0
  H  H21  1  0.09860000  0.66701000  0.19627000  1.0
  H  H22  1  0.90140000  0.33299000  0.19627000  1.0
  H  H23  1  0.59860000  0.83299000  0.69627000  1.0
  H  H24  1  0.60597000  0.08879000  0.69696000  1.0
  H  H25  1  0.89403000  0.58879000  0.19697000  1.0
  H  H26  1  0.10597000  0.41121000  0.19696000  1.0
  H  H27  1  0.39403000  0.91121000  0.69697000  1.0
  H  H28  1  0.61167000  0.08908000  0.90925000  1.0
  H  H29  1  0.88833000  0.58908000  0.40925000  1.0
  H  H30  1  0.11167000  0.41092000  0.40925000  1.0
  H  H31  1  0.38833000  0.91092000  0.90925000  1.0
  H  H32  1  0.40527000  0.16469000  0.91165000  1.0
  H  H33  1  0.09472000  0.66469000  0.41165000  1.0
  H  H34  1  0.90528000  0.33531000  0.41165000  1.0
  H  H35  1  0.59473000  0.83531000  0.91165000  1.0
  H  H36  1  0.59135000  0.19905000  0.09328000  1.0
  H  H37  1  0.90865000  0.69905000  0.59328000  1.0
  H  H38  1  0.09135000  0.30094000  0.59328000  1.0
  H  H39  1  0.40865000  0.80095000  0.09328000  1.0
  H  H40  1  0.74377000  0.27927000  0.00226000  1.0
  H  H41  1  0.75623000  0.77928000  0.50226000  1.0
  H  H42  1  0.24377000  0.22073000  0.50226000  1.0
  H  H43  1  0.25624000  0.72073000  0.00226000  1.0
  H  H44  1  0.69251000  0.46623000  0.10874000  1.0
  H  H45  1  0.80749000  0.96623000  0.60874000  1.0
  H  H46  1  0.19251000  0.03377000  0.60874000  1.0
  H  H47  1  0.30749000  0.53377000  0.10874000  1.0
  H  H48  1  0.53484000  0.39093000  0.20036000  1.0
  H  H49  1  0.96516000  0.89093000  0.70036000  1.0
  H  H50  1  0.03484000  0.10907000  0.70036000  1.0
  H  H51  1  0.46516000  0.60907000  0.20036000  1.0
  C  C52  1  0.55228000  0.44080000  0.48843000  1.0
  C  C53  1  0.94772000  0.94079000  0.98843000  1.0
  C  C54  1  0.05228000  0.05921000  0.98843000  1.0
  C  C55  1  0.44772000  0.55921000  0.48843000  1.0
  C  C56  1  0.60255000  0.25463000  0.59352000  1.0
  C  C57  1  0.89745000  0.75463000  0.09352000  1.0
  C  C58  1  0.10255000  0.24537000  0.09352000  1.0
  C  C59  1  0.39745000  0.74537000  0.59352000  1.0
  C  C60  1  0.54328000  0.18119000  0.69890000  1.0
  C  C61  1  0.95672000  0.68119000  0.19890000  1.0
  C  C62  1  0.04328000  0.31881000  0.19890000  1.0
  C  C63  1  0.45672000  0.81881000  0.69890000  1.0
  C  C64  1  0.54672000  0.18066000  0.90778000  1.0
  C  C65  1  0.95328000  0.68066000  0.40778000  1.0
  C  C66  1  0.04672000  0.31934000  0.40778000  1.0
  C  C67  1  0.45328000  0.81934000  0.90778000  1.0
  C  C68  1  0.60586000  0.25499000  0.01261000  1.0
  C  C69  1  0.89414000  0.75499000  0.51261000  1.0
  C  C70  1  0.10586000  0.24501000  0.51261000  1.0
  C  C71  1  0.39414000  0.74501000  0.01261000  1.0
  C  C72  1  0.55397000  0.44163000  0.11659000  1.0
  C  C73  1  0.94603000  0.94163000  0.61659000  1.0
  C  C74  1  0.05397000  0.05837000  0.61659000  1.0
  C  C75  1  0.44603000  0.55837000  0.11659000  1.0
  O  O76  1  0.50203000  0.36631000  0.58633000  1.0
  O  O77  1  0.99796000  0.86631000  0.08633000  1.0
  O  O78  1  0.00204000  0.13369000  0.08633000  1.0
  O  O79  1  0.49797000  0.63369000  0.58633000  1.0
  O  O80  1  0.59056000  0.24646000  0.80314000  1.0
  O  O81  1  0.90944000  0.74646000  0.30314000  1.0
  O  O82  1  0.09056000  0.25354000  0.30314000  1.0
  O  O83  1  0.40944000  0.75354000  0.80314000  1.0
  O  O84  1  0.50347000  0.36575000  0.01974000  1.0
  O  O85  1  0.99653000  0.86575000  0.51974000  1.0
  O  O86  1  0.00347000  0.13425000  0.51974000  1.0
  O  O87  1  0.49653000  0.63425000  0.01974000  1.0
  F  F88  1  0.85011000  0.49093000  0.90269000  1.0
  F  F89  1  0.64989000  0.99093000  0.40269000  1.0
  F  F90  1  0.35011000  0.00907000  0.40269000  1.0
  F  F91  1  0.14989000  0.50907000  0.90269000  1.0
  F  F92  1  0.85022000  0.49086000  0.69811000  1.0
  F  F93  1  0.64978000  0.99086000  0.19811000  1.0
  F  F94  1  0.35022000  0.00914000  0.19811000  1.0
  F  F95  1  0.14978000  0.50914000  0.69811000  1.0
  F  F96  1  0.98150000  0.65167000  0.80048000  1.0
  F  F97  1  0.51850000  0.15167000  0.30048000  1.0
  F  F98  1  0.48150000  0.84833000  0.30048000  1.0
  F  F99  1  0.01850000  0.34833000  0.80048000  1.0
