# generated using pymatgen
data_Na3H7C(SO4)3
_symmetry_space_group_name_H-M   'P 1'
_cell_length_a   9.77833000
_cell_length_b   9.86165000
_cell_length_c   11.72080000
_cell_angle_alpha   90.00000000
_cell_angle_beta   93.19750000
_cell_angle_gamma   90.00000000
_symmetry_Int_Tables_number   1
_chemical_formula_structural   Na3H7C(SO4)3
_chemical_formula_sum   'Na12 H28 C4 S12 O48'
_cell_volume   1128.48266751
_cell_formula_units_Z   4
loop_
 _symmetry_equiv_pos_site_id
 _symmetry_equiv_pos_as_xyz
  1  'x, y, z'
loop_
 _atom_site_type_symbol
 _atom_site_label
 _atom_site_symmetry_multiplicity
 _atom_site_fract_x
 _atom_site_fract_y
 _atom_site_fract_z
 _atom_site_occupancy
  Na  Na0  1  0.91026000  0.90909000  0.12026000  1.0
  Na  Na1  1  0.58974000  0.40909000  0.87974000  1.0
  Na  Na2  1  0.08975000  0.09091000  0.87974000  1.0
  Na  Na3  1  0.41025000  0.59091000  0.12026000  1.0
  Na  Na4  1  0.03943000  0.69922000  0.90574000  1.0
  Na  Na5  1  0.46057000  0.19922000  0.09426000  1.0
  Na  Na6  1  0.96057000  0.30078000  0.09426000  1.0
  Na  Na7  1  0.53943000  0.80078000  0.90574000  1.0
  Na  Na8  1  0.43569000  0.65417000  0.45970000  1.0
  Na  Na9  1  0.06432000  0.15417000  0.54030000  1.0
  Na  Na10  1  0.56432000  0.34583000  0.54030000  1.0
  Na  Na11  1  0.93569000  0.84583000  0.45970000  1.0
  H  H12  1  0.37293000  0.94310000  0.24618000  1.0
  H  H13  1  0.12707000  0.44310000  0.75382000  1.0
  H  H14  1  0.62707000  0.05690000  0.75382000  1.0
  H  H15  1  0.87293000  0.55690000  0.24618000  1.0
  H  H16  1  0.83371000  0.63056000  0.75655000  1.0
  H  H17  1  0.66629000  0.13056000  0.24345000  1.0
  H  H18  1  0.16629000  0.36944000  0.24345000  1.0
  H  H19  1  0.33371000  0.86944000  0.75655000  1.0
  H  H20  1  0.87017000  0.47741000  0.76660000  1.0
  H  H21  1  0.62983000  0.97741000  0.23340000  1.0
  H  H22  1  0.12983000  0.52259000  0.23340000  1.0
  H  H23  1  0.37017000  0.02259000  0.76660000  1.0
  H  H24  1  0.61984000  0.87821000  0.55799000  1.0
  H  H25  1  0.88016000  0.37821000  0.44201000  1.0
  H  H26  1  0.38016000  0.12179000  0.44201000  1.0
  H  H27  1  0.11984000  0.62179000  0.55799000  1.0
  H  H28  1  0.48417000  0.88913000  0.62157000  1.0
  H  H29  1  0.01583000  0.38913000  0.37843000  1.0
  H  H30  1  0.51583000  0.11087000  0.37843000  1.0
  H  H31  1  0.98417000  0.61087000  0.62157000  1.0
  H  H32  1  0.38414000  0.35751000  0.36489000  1.0
  H  H33  1  0.11586000  0.85751000  0.63511000  1.0
  H  H34  1  0.61586000  0.64249000  0.63511000  1.0
  H  H35  1  0.88414000  0.14249000  0.36489000  1.0
  H  H36  1  0.30388000  0.39290000  0.47182000  1.0
  H  H37  1  0.19612000  0.89290000  0.52818000  1.0
  H  H38  1  0.69612000  0.60711000  0.52818000  1.0
  H  H39  1  0.80388000  0.10710000  0.47182000  1.0
  C  C40  1  0.26499000  0.93795000  0.21487000  1.0
  C  C41  1  0.23501000  0.43795000  0.78513000  1.0
  C  C42  1  0.73501000  0.06205000  0.78513000  1.0
  C  C43  1  0.76499000  0.56205000  0.21487000  1.0
  S  S44  1  0.18912000  0.79272000  0.28804000  1.0
  S  S45  1  0.31088000  0.29272000  0.71196000  1.0
  S  S46  1  0.81088000  0.20728000  0.71196000  1.0
  S  S47  1  0.68912000  0.70728000  0.28804000  1.0
  S  S48  1  0.26473000  0.91438000  0.06008000  1.0
  S  S49  1  0.23527000  0.41438000  0.93992000  1.0
  S  S50  1  0.73527000  0.08562000  0.93992000  1.0
  S  S51  1  0.76473000  0.58562000  0.06008000  1.0
  S  S52  1  0.18513000  0.09805000  0.25658000  1.0
  S  S53  1  0.31487000  0.59805000  0.74342000  1.0
  S  S54  1  0.81487000  0.90195000  0.74342000  1.0
  S  S55  1  0.68513000  0.40195000  0.25658000  1.0
  O  O56  1  0.04106000  0.81607000  0.28298000  1.0
  O  O57  1  0.45894000  0.31607000  0.71702000  1.0
  O  O58  1  0.95894000  0.18393000  0.71702000  1.0
  O  O59  1  0.54106000  0.68393000  0.28299000  1.0
  O  O60  1  0.25235000  0.79591000  0.40423000  1.0
  O  O61  1  0.24765000  0.29591000  0.59577000  1.0
  O  O62  1  0.74764000  0.20409000  0.59577000  1.0
  O  O63  1  0.75235000  0.70410000  0.40423000  1.0
  O  O64  1  0.22771000  0.67229000  0.22415000  1.0
  O  O65  1  0.27229000  0.17229000  0.77585000  1.0
  O  O66  1  0.77229000  0.32771000  0.77585000  1.0
  O  O67  1  0.72771000  0.82771000  0.22415000  1.0
  O  O68  1  0.36779000  0.81020000  0.04318000  1.0
  O  O69  1  0.13221000  0.31019000  0.95682000  1.0
  O  O70  1  0.63221000  0.18980000  0.95682000  1.0
  O  O71  1  0.86779000  0.68980000  0.04318000  1.0
  O  O72  1  0.12359000  0.87567000  0.02372000  1.0
  O  O73  1  0.37641000  0.37567000  0.97628000  1.0
  O  O74  1  0.87641000  0.12433000  0.97628000  1.0
  O  O75  1  0.62359000  0.62433000  0.02372000  1.0
  O  O76  1  0.30083000  0.04585000  0.01247000  1.0
  O  O77  1  0.19917000  0.54585000  0.98753000  1.0
  O  O78  1  0.69917000  0.95415000  0.98753000  1.0
  O  O79  1  0.80082000  0.45415000  0.01247000  1.0
  O  O80  1  0.04808000  0.10180000  0.19899000  1.0
  O  O81  1  0.45192000  0.60180000  0.80101000  1.0
  O  O82  1  0.95192000  0.89820000  0.80101000  1.0
  O  O83  1  0.54808000  0.39820000  0.19899000  1.0
  O  O84  1  0.27430000  0.20756000  0.21909000  1.0
  O  O85  1  0.22570000  0.70756000  0.78091000  1.0
  O  O86  1  0.72570000  0.79244000  0.78091000  1.0
  O  O87  1  0.77430000  0.29244000  0.21909000  1.0
  O  O88  1  0.18533000  0.08877000  0.38106000  1.0
  O  O89  1  0.31467000  0.58877000  0.61894000  1.0
  O  O90  1  0.81467000  0.91123000  0.61894000  1.0
  O  O91  1  0.68533000  0.41123000  0.38106000  1.0
  O  O92  1  0.91244000  0.56827000  0.76140000  1.0
  O  O93  1  0.58756000  0.06827000  0.23860000  1.0
  O  O94  1  0.08756000  0.43173000  0.23860000  1.0
  O  O95  1  0.41244000  0.93173000  0.76140000  1.0
  O  O96  1  0.52550000  0.84501000  0.55626000  1.0
  O  O97  1  0.97450000  0.34501000  0.44374000  1.0
  O  O98  1  0.47450000  0.15499000  0.44374000  1.0
  O  O99  1  0.02550000  0.65499000  0.55626000  1.0
  O  O100  1  0.35963000  0.43345000  0.41328000  1.0
  O  O101  1  0.14038000  0.93345000  0.58672000  1.0
  O  O102  1  0.64037000  0.56655000  0.58672000  1.0
  O  O103  1  0.85963000  0.06655000  0.41328000  1.0
