# generated using pymatgen
data_Gd4H22C24N6O35
_symmetry_space_group_name_H-M   'P 1'
_cell_length_a   8.53349000
_cell_length_b   13.44190000
_cell_length_c   20.13120000
_cell_angle_alpha   86.96740000
_cell_angle_beta   85.97070000
_cell_angle_gamma   81.81740000
_symmetry_Int_Tables_number   1
_chemical_formula_structural   Gd4H22C24N6O35
_chemical_formula_sum   'Gd8 H44 C48 N12 O70'
_cell_volume   2277.86425568
_cell_formula_units_Z   2
loop_
 _symmetry_equiv_pos_site_id
 _symmetry_equiv_pos_as_xyz
  1  'x, y, z'
loop_
 _atom_site_type_symbol
 _atom_site_label
 _atom_site_symmetry_multiplicity
 _atom_site_fract_x
 _atom_site_fract_y
 _atom_site_fract_z
 _atom_site_occupancy
  Gd  Gd0  1  0.27987000  0.76996000  0.97255000  1.0
  Gd  Gd1  1  0.72014000  0.23004000  0.02744000  1.0
  Gd  Gd2  1  0.22472000  0.50094000  0.24639000  1.0
  Gd  Gd3  1  0.77527000  0.49906000  0.75361000  1.0
  Gd  Gd4  1  0.12800000  0.75780000  0.52897000  1.0
  Gd  Gd5  1  0.87200000  0.24219000  0.47103000  1.0
  Gd  Gd6  1  0.20505000  0.02670000  0.24670000  1.0
  Gd  Gd7  1  0.79495000  0.97330000  0.75330000  1.0
  H  H8  1  0.44775000  0.59397000  0.30347000  1.0
  H  H9  1  0.55225000  0.40603000  0.69653000  1.0
  H  H10  1  0.25048000  0.89652000  0.62192000  1.0
  H  H11  1  0.74950000  0.10349000  0.37809000  1.0
  H  H12  1  0.06266000  0.93422000  0.61532000  1.0
  H  H13  1  0.93733000  0.06578000  0.38468000  1.0
  H  H14  1  0.16820000  0.73386000  0.24837000  1.0
  H  H15  1  0.83180000  0.26614000  0.75163000  1.0
  H  H16  1  0.09776000  0.69167000  0.18719000  1.0
  H  H17  1  0.90226000  0.30833000  0.81280000  1.0
  H  H18  1  0.02989000  0.33481000  0.22893000  1.0
  H  H19  1  0.97011000  0.66519000  0.77106000  1.0
  H  H20  1  0.11221000  0.35734000  0.15675000  1.0
  H  H21  1  0.88779000  0.64266000  0.84325000  1.0
  H  H22  1  0.56571000  0.55369000  0.24331000  1.0
  H  H23  1  0.43429000  0.44630000  0.75669000  1.0
  H  H24  1  0.45029000  0.32660000  0.27413000  1.0
  H  H25  1  0.54971000  0.67339000  0.72587000  1.0
  H  H26  1  0.36664000  0.34363000  0.34957000  1.0
  H  H27  1  0.63335000  0.65637000  0.65043000  1.0
  H  H28  1  0.40239000  0.12496000  0.13921000  1.0
  H  H29  1  0.59761000  0.87503000  0.86079000  1.0
  H  H30  1  0.25789000  0.20487000  0.15223000  1.0
  H  H31  1  0.74211000  0.79513000  0.84777000  1.0
  H  H32  1  0.89884000  0.15593000  0.19113000  1.0
  H  H33  1  0.10116000  0.84407000  0.80886000  1.0
  H  H34  1  0.91433000  0.17645000  0.26728000  1.0
  H  H35  1  0.08567000  0.82355000  0.73272000  1.0
  H  H36  1  0.25639000  0.23146000  0.29921000  1.0
  H  H37  1  0.74361000  0.76854000  0.70079000  1.0
  H  H38  1  0.19579000  0.16540000  0.36050000  1.0
  H  H39  1  0.80422000  0.83460000  0.63950000  1.0
  H  H40  1  0.41238000  0.92105000  0.12551000  1.0
  H  H41  1  0.58762000  0.07894000  0.87450000  1.0
  H  H42  1  0.53793000  0.94410000  0.17702000  1.0
  H  H43  1  0.46207000  0.05590000  0.82298000  1.0
  H  H44  1  0.32782000  0.81044000  0.30531000  1.0
  H  H45  1  0.67216000  0.18955000  0.69470000  1.0
  H  H46  1  0.36410000  0.83645000  0.22893000  1.0
  H  H47  1  0.63590000  0.16355000  0.77108000  1.0
  H  H48  1  0.86207000  0.96439000  0.24512000  1.0
  H  H49  1  0.13792000  0.03562000  0.75488000  1.0
  H  H50  1  0.92932000  0.92766000  0.31566000  1.0
  H  H51  1  0.07068000  0.07234000  0.68434000  1.0
  C  C52  1  0.25064000  0.59252000  0.08963000  1.0
  C  C53  1  0.74936000  0.40749000  0.91037000  1.0
  C  C54  1  0.38552000  0.53909000  0.04582000  1.0
  C  C55  1  0.61448000  0.46091000  0.95417000  1.0
  C  C56  1  0.49272000  0.45275000  0.06189000  1.0
  C  C57  1  0.50728000  0.54725000  0.93810000  1.0
  C  C58  1  0.50696000  0.39132000  0.12769000  1.0
  C  C59  1  0.49303000  0.60867000  0.87230000  1.0
  C  C60  1  0.12882000  0.93528000  0.09027000  1.0
  C  C61  1  0.87118000  0.06472000  0.90973000  1.0
  C  C62  1  0.98082000  0.91289000  0.06030000  1.0
  C  C63  1  0.01919000  0.08712000  0.93970000  1.0
  C  C64  1  0.82421000  0.95145000  0.08131000  1.0
  C  C65  1  0.17579000  0.04855000  0.91869000  1.0
  C  C66  1  0.72854000  0.84975000  0.01032000  1.0
  C  C67  1  0.27147000  0.15024000  0.98968000  1.0
  C  C68  1  0.88353000  0.81122000  0.98807000  1.0
  C  C69  1  0.11648000  0.18879000  0.01193000  1.0
  C  C70  1  0.92813000  0.72959000  0.93888000  1.0
  C  C71  1  0.07188000  0.27041000  0.06112000  1.0
  C  C72  1  0.78353000  0.02860000  0.13362000  1.0
  C  C73  1  0.21646000  0.97140000  0.86638000  1.0
  C  C74  1  0.58106000  0.81459000  0.98955000  1.0
  C  C75  1  0.41896000  0.18540000  0.01045000  1.0
  C  C76  1  0.20610000  0.59791000  0.40586000  1.0
  C  C77  1  0.79390000  0.40209000  0.59414000  1.0
  C  C78  1  0.09385000  0.54300000  0.45183000  1.0
  C  C79  1  0.90615000  0.45700000  0.54817000  1.0
  C  C80  1  0.99577000  0.53233000  0.56299000  1.0
  C  C81  1  0.00423000  0.46767000  0.43701000  1.0
  C  C82  1  0.00872000  0.57591000  0.62994000  1.0
  C  C83  1  0.99128000  0.42408000  0.37006000  1.0
  C  C84  1  0.50225000  0.01961000  0.34648000  1.0
  C  C85  1  0.49773000  0.98041000  0.65353000  1.0
  C  C86  1  0.49332000  0.94504000  0.40557000  1.0
  C  C87  1  0.50667000  0.05497000  0.59444000  1.0
  C  C88  1  0.35405000  0.90773000  0.43220000  1.0
  C  C89  1  0.64595000  0.09227000  0.56780000  1.0
  C  C90  1  0.50679000  0.79901000  0.50375000  1.0
  C  C91  1  0.49321000  0.20099000  0.49625000  1.0
  C  C92  1  0.64301000  0.83948000  0.47870000  1.0
  C  C93  1  0.35699000  0.16052000  0.52130000  1.0
  C  C94  1  0.80519000  0.80188000  0.50243000  1.0
  C  C95  1  0.19481000  0.19812000  0.49757000  1.0
  C  C96  1  0.50518000  0.71409000  0.55567000  1.0
  C  C97  1  0.49482000  0.28590000  0.44433000  1.0
  C  C98  1  0.18191000  0.93682000  0.41466000  1.0
  C  C99  1  0.81809000  0.06318000  0.58534000  1.0
  N  N100  1  0.08449000  0.57320000  0.51439000  1.0
  N  N101  1  0.91551000  0.42679000  0.48561000  1.0
  N  N102  1  0.36669000  0.83634000  0.48137000  1.0
  N  N103  1  0.63331000  0.16366000  0.51863000  1.0
  N  N104  1  0.00556000  0.84444000  0.01369000  1.0
  N  N105  1  0.99444000  0.15556000  0.98631000  1.0
  N  N106  1  0.70002000  0.91874000  0.05681000  1.0
  N  N107  1  0.29999000  0.08125000  0.94319000  1.0
  N  N108  1  0.63479000  0.91235000  0.43063000  1.0
  N  N109  1  0.36521000  0.08765000  0.56938000  1.0
  N  N110  1  0.39791000  0.58327000  0.98497000  1.0
  N  N111  1  0.60209000  0.41673000  0.01503000  1.0
  O  O112  1  0.20963000  0.68514000  0.07552000  1.0
  O  O113  1  0.79038000  0.31487000  0.92448000  1.0
  O  O114  1  0.11495000  0.67750000  0.23449000  1.0
  O  O115  1  0.88506000  0.32249000  0.76550000  1.0
  O  O116  1  0.18430000  0.54288000  0.13553000  1.0
  O  O117  1  0.81570000  0.45712000  0.86447000  1.0
  O  O118  1  0.08507000  0.38376000  0.20273000  1.0
  O  O119  1  0.91492000  0.61624000  0.79726000  1.0
  O  O120  1  0.46388000  0.59370000  0.25449000  1.0
  O  O121  1  0.53612000  0.40629000  0.74550000  1.0
  O  O122  1  0.45144000  0.43127000  0.18140000  1.0
  O  O123  1  0.54854000  0.56872000  0.81859000  1.0
  O  O124  1  0.34973000  0.34841000  0.29880000  1.0
  O  O125  1  0.65027000  0.65159000  0.70120000  1.0
  O  O126  1  0.58256000  0.30405000  0.12361000  1.0
  O  O127  1  0.41744000  0.69595000  0.87639000  1.0
  O  O128  1  0.31776000  0.14498000  0.17395000  1.0
  O  O129  1  0.68225000  0.85502000  0.82605000  1.0
  O  O130  1  0.07355000  0.69344000  0.93247000  1.0
  O  O131  1  0.92646000  0.30656000  0.06753000  1.0
  O  O132  1  0.97532000  0.16422000  0.22477000  1.0
  O  O133  1  0.02469000  0.83578000  0.77523000  1.0
  O  O134  1  0.81746000  0.70354000  0.90765000  1.0
  O  O135  1  0.18255000  0.29645000  0.09235000  1.0
  O  O136  1  0.20650000  0.17060000  0.31118000  1.0
  O  O137  1  0.79349000  0.82940000  0.68882000  1.0
  O  O138  1  0.26017000  0.90163000  0.05996000  1.0
  O  O139  1  0.73983000  0.09836000  0.94004000  1.0
  O  O140  1  0.42978000  0.92726000  0.17304000  1.0
  O  O141  1  0.57022000  0.07274000  0.82697000  1.0
  O  O142  1  0.10964000  0.98220000  0.14372000  1.0
  O  O143  1  0.89036000  0.01780000  0.85628000  1.0
  O  O144  1  0.14612000  0.87545000  0.61306000  1.0
  O  O145  1  0.85387000  0.12454000  0.38694000  1.0
  O  O146  1  0.53334000  0.74160000  0.02366000  1.0
  O  O147  1  0.46666000  0.25839000  0.97635000  1.0
  O  O148  1  0.50304000  0.86399000  0.94388000  1.0
  O  O149  1  0.49697000  0.13600000  0.05612000  1.0
  O  O150  1  0.81128000  0.11791000  0.11780000  1.0
  O  O151  1  0.18872000  0.88210000  0.88220000  1.0
  O  O152  1  0.72268000  0.99867000  0.18841000  1.0
  O  O153  1  0.27731000  0.00133000  0.81158000  1.0
  O  O154  1  0.27095000  0.55666000  0.35371000  1.0
  O  O155  1  0.72904000  0.44335000  0.64629000  1.0
  O  O156  1  0.23341000  0.68144000  0.42504000  1.0
  O  O157  1  0.76659000  0.31855000  0.57497000  1.0
  O  O158  1  0.04294000  0.66426000  0.62839000  1.0
  O  O159  1  0.95707000  0.33574000  0.37161000  1.0
  O  O160  1  0.99016000  0.52014000  0.68185000  1.0
  O  O161  1  0.00983000  0.47986000  0.31815000  1.0
  O  O162  1  0.44389000  0.99403000  0.29433000  1.0
  O  O163  1  0.55612000  0.00599000  0.70567000  1.0
  O  O164  1  0.57008000  0.09494000  0.35206000  1.0
  O  O165  1  0.42988000  0.90508000  0.64796000  1.0
  O  O166  1  0.14594000  0.99132000  0.36301000  1.0
  O  O167  1  0.85406000  0.00867000  0.63700000  1.0
  O  O168  1  0.27680000  0.82793000  0.26363000  1.0
  O  O169  1  0.72320000  0.17207000  0.73637000  1.0
  O  O170  1  0.08047000  0.90145000  0.45429000  1.0
  O  O171  1  0.91953000  0.09854000  0.54571000  1.0
  O  O172  1  0.95935000  0.94922000  0.27025000  1.0
  O  O173  1  0.04066000  0.05078000  0.72975000  1.0
  O  O174  1  0.37096000  0.68678000  0.57290000  1.0
  O  O175  1  0.62904000  0.31322000  0.42710000  1.0
  O  O176  1  0.63714000  0.67782000  0.57777000  1.0
  O  O177  1  0.36287000  0.32218000  0.42223000  1.0
  O  O178  1  0.85126000  0.83979000  0.55323000  1.0
  O  O179  1  0.14874000  0.16020000  0.44676000  1.0
  O  O180  1  0.89296000  0.73819000  0.46760000  1.0
  O  O181  1  0.10704000  0.26180000  0.53240000  1.0
