# generated using pymatgen
data_CuH4C4SIN2
_symmetry_space_group_name_H-M   'P 1'
_cell_length_a   7.11755000
_cell_length_b   7.91669000
_cell_length_c   14.01540000
_cell_angle_alpha   74.74300000
_cell_angle_beta   80.65730000
_cell_angle_gamma   64.16370000
_symmetry_Int_Tables_number   1
_chemical_formula_structural   CuH4C4SIN2
_chemical_formula_sum   'Cu4 H16 C16 S4 I4 N8'
_cell_volume   684.70710626
_cell_formula_units_Z   4
loop_
 _symmetry_equiv_pos_site_id
 _symmetry_equiv_pos_as_xyz
  1  'x, y, z'
loop_
 _atom_site_type_symbol
 _atom_site_label
 _atom_site_symmetry_multiplicity
 _atom_site_fract_x
 _atom_site_fract_y
 _atom_site_fract_z
 _atom_site_occupancy
  Cu  Cu0  1  0.83464000  0.97365000  0.78958000  1.0
  Cu  Cu1  1  0.16535000  0.02637000  0.21042000  1.0
  Cu  Cu2  1  0.16234000  0.68184000  0.75065000  1.0
  Cu  Cu3  1  0.83765000  0.31815000  0.24934000  1.0
  H  H4  1  0.94712000  0.72182000  0.21835000  1.0
  H  H5  1  0.05288000  0.27817000  0.78165000  1.0
  H  H6  1  0.63739000  0.03526000  0.14930000  1.0
  H  H7  1  0.36262000  0.96475000  0.85070000  1.0
  H  H8  1  0.61213000  0.12419000  0.96421000  1.0
  H  H9  1  0.38788000  0.87583000  0.03579000  1.0
  H  H10  1  0.49548000  0.17330000  0.46990000  1.0
  H  H11  1  0.50453000  0.82669000  0.53011000  1.0
  H  H12  1  0.19586000  0.50468000  0.42314000  1.0
  H  H13  1  0.80415000  0.49529000  0.57686000  1.0
  H  H14  1  0.07214000  0.71271000  0.54956000  1.0
  H  H15  1  0.92786000  0.28726000  0.45044000  1.0
  H  H16  1  0.17560000  0.54726000  0.10825000  1.0
  H  H17  1  0.82439000  0.45274000  0.89175000  1.0
  H  H18  1  0.63720000  0.09025000  0.62586000  1.0
  H  H19  1  0.36280000  0.90976000  0.37415000  1.0
  C  C20  1  0.04735000  0.72670000  0.97553000  1.0
  C  C21  1  0.95265000  0.27331000  0.02447000  1.0
  C  C22  1  0.91880000  0.77872000  0.13982000  1.0
  C  C23  1  0.08120000  0.22129000  0.86018000  1.0
  C  C24  1  0.75224000  0.94559000  0.10175000  1.0
  C  C25  1  0.24776000  0.05441000  0.89825000  1.0
  C  C26  1  0.74071000  0.99431000  0.99913000  1.0
  C  C27  1  0.25930000  0.00571000  0.00087000  1.0
  C  C28  1  0.45540000  0.34110000  0.67217000  1.0
  C  C29  1  0.54459000  0.65889000  0.32783000  1.0
  C  C30  1  0.42859000  0.27570000  0.51823000  1.0
  C  C31  1  0.57142000  0.72429000  0.48177000  1.0
  C  C32  1  0.26751000  0.45501000  0.49383000  1.0
  C  C33  1  0.73250000  0.54498000  0.50617000  1.0
  C  C34  1  0.20017000  0.56962000  0.56393000  1.0
  C  C35  1  0.79982000  0.43036000  0.43607000  1.0
  S  S36  1  0.23948000  0.58361000  0.90771000  1.0
  S  S37  1  0.76051000  0.41640000  0.09229000  1.0
  S  S38  1  0.58210000  0.27533000  0.77589000  1.0
  S  S39  1  0.41789000  0.72467000  0.22410000  1.0
  I  I40  1  0.73165000  0.73021000  0.73717000  1.0
  I  I41  1  0.26835000  0.26979000  0.26283000  1.0
  I  I42  1  0.11525000  0.02591000  0.63982000  1.0
  I  I43  1  0.88475000  0.97409000  0.36017000  1.0
  N  N44  1  0.88104000  0.89088000  0.93688000  1.0
  N  N45  1  0.11897000  0.10913000  0.06312000  1.0
  N  N46  1  0.05854000  0.67656000  0.07717000  1.0
  N  N47  1  0.94146000  0.32345000  0.92282000  1.0
  N  N48  1  0.28704000  0.51486000  0.65106000  1.0
  N  N49  1  0.71295000  0.48513000  0.34894000  1.0
  N  N50  1  0.51843000  0.22478000  0.60495000  1.0
  N  N51  1  0.48157000  0.77522000  0.39506000  1.0
