# generated using pymatgen
data_FeH8C6S2(N5O)2
_symmetry_space_group_name_H-M   'P 1'
_cell_length_a   5.47516000
_cell_length_b   11.00330000
_cell_length_c   11.62230000
_cell_angle_alpha   96.79600000
_cell_angle_beta   90.00600000
_cell_angle_gamma   104.39900000
_symmetry_Int_Tables_number   1
_chemical_formula_structural   FeH8C6S2(N5O)2
_chemical_formula_sum   'Fe2 H16 C12 S4 N20 O4'
_cell_volume   673.10632013
_cell_formula_units_Z   2
loop_
 _symmetry_equiv_pos_site_id
 _symmetry_equiv_pos_as_xyz
  1  'x, y, z'
loop_
 _atom_site_type_symbol
 _atom_site_label
 _atom_site_symmetry_multiplicity
 _atom_site_fract_x
 _atom_site_fract_y
 _atom_site_fract_z
 _atom_site_occupancy
  Fe  Fe0  1  0.50000000  0.50000000  0.50000000  1.0
  Fe  Fe1  1  0.00000000  0.50000000  0.00000000  1.0
  H  H2  1  0.67447000  0.44396000  0.28093000  1.0
  H  H3  1  0.23032000  0.55602000  0.21903000  1.0
  H  H4  1  0.32553000  0.55604000  0.71907000  1.0
  H  H5  1  0.76968000  0.44398000  0.78097000  1.0
  H  H6  1  0.90186000  0.53652000  0.35964000  1.0
  H  H7  1  0.36510000  0.46338000  0.14047000  1.0
  H  H8  1  0.09814000  0.46348000  0.64037000  1.0
  H  H9  1  0.63489000  0.53662000  0.85953000  1.0
  H  H10  1  0.34640000  0.19161000  0.43272000  1.0
  H  H11  1  0.15509000  0.80837000  0.06730000  1.0
  H  H12  1  0.65360000  0.80839000  0.56728000  1.0
  H  H13  1  0.84492000  0.19162000  0.93270000  1.0
  H  H14  1  0.92339000  0.20184000  0.68063000  1.0
  H  H15  1  0.72139000  0.79820000  0.81916000  1.0
  H  H16  1  0.07661000  0.79816000  0.31937000  1.0
  H  H17  1  0.27861000  0.20180000  0.18084000  1.0
  C  C18  1  0.49725000  0.22824000  0.49705000  1.0
  C  C19  1  0.26925000  0.77174000  0.00292000  1.0
  C  C20  1  0.50275000  0.77176000  0.50294000  1.0
  C  C21  1  0.73075000  0.22826000  0.99708000  1.0
  C  C22  1  0.92586000  0.69655000  0.63865000  1.0
  C  C23  1  0.22928000  0.30349000  0.86147000  1.0
  C  C24  1  0.07414000  0.30345000  0.36135000  1.0
  C  C25  1  0.77071000  0.69651000  0.13853000  1.0
  C  C26  1  0.79314000  0.23368000  0.62728000  1.0
  C  C27  1  0.55936000  0.76635000  0.87255000  1.0
  C  C28  1  0.20686000  0.76632000  0.37272000  1.0
  C  C29  1  0.44064000  0.23364000  0.12745000  1.0
  S  S30  1  0.11175000  0.82284000  0.70686000  1.0
  S  S31  1  0.28925000  0.17731000  0.79320000  1.0
  S  S32  1  0.88825000  0.17716000  0.29314000  1.0
  S  S33  1  0.71075000  0.82269000  0.20680000  1.0
  N  N34  1  0.77957000  0.60847000  0.58770000  1.0
  N  N35  1  0.17101000  0.39157000  0.91240000  1.0
  N  N36  1  0.22044000  0.39153000  0.41230000  1.0
  N  N37  1  0.82898000  0.60843000  0.08760000  1.0
  N  N38  1  0.58459000  0.02625000  0.53870000  1.0
  N  N39  1  0.55818000  0.97379000  0.96121000  1.0
  N  N40  1  0.41542000  0.97375000  0.46130000  1.0
  N  N41  1  0.44181000  0.02621000  0.03879000  1.0
  N  N42  1  0.61725000  0.15404000  0.55136000  1.0
  N  N43  1  0.46325000  0.84598000  0.94853000  1.0
  N  N44  1  0.38275000  0.84596000  0.44864000  1.0
  N  N45  1  0.53675000  0.15402000  0.05147000  1.0
  N  N46  1  0.59690000  0.34762000  0.53864000  1.0
  N  N47  1  0.24956000  0.65240000  0.96131000  1.0
  N  N48  1  0.40310000  0.65238000  0.46136000  1.0
  N  N49  1  0.75044000  0.34760000  0.03869000  1.0
  N  N50  1  0.78432000  0.35085000  0.62103000  1.0
  N  N51  1  0.43352000  0.64918000  0.87883000  1.0
  N  N52  1  0.21568000  0.64915000  0.37897000  1.0
  N  N53  1  0.56647000  0.35082000  0.12117000  1.0
  O  O54  1  0.71637000  0.51303000  0.34518000  1.0
  O  O55  1  0.20308000  0.48687000  0.15486000  1.0
  O  O56  1  0.28363000  0.48697000  0.65482000  1.0
  O  O57  1  0.79692000  0.51313000  0.84514000  1.0
