# generated using pymatgen
data_MnH10C14SO7
_symmetry_space_group_name_H-M   'P 1'
_cell_length_a   4.75446000
_cell_length_b   11.99030260
_cell_length_c   14.19120000
_cell_angle_alpha   65.83839597
_cell_angle_beta   82.59870000
_cell_angle_gamma   81.42386178
_symmetry_Int_Tables_number   1
_chemical_formula_structural   MnH10C14SO7
_chemical_formula_sum   'Mn2 H20 C28 S2 O14'
_cell_volume   727.81447262
_cell_formula_units_Z   2
loop_
 _symmetry_equiv_pos_site_id
 _symmetry_equiv_pos_as_xyz
  1  'x, y, z'
loop_
 _atom_site_type_symbol
 _atom_site_label
 _atom_site_symmetry_multiplicity
 _atom_site_fract_x
 _atom_site_fract_y
 _atom_site_fract_z
 _atom_site_occupancy
  Mn  Mn0  1  0.56459000  0.52087000  0.10451000  1.0
  Mn  Mn1  1  0.43546000  0.47911000  0.89547000  1.0
  H  H2  1  0.50029000  0.68536000  0.19000000  1.0
  H  H3  1  0.49973000  0.31461000  0.80998000  1.0
  H  H4  1  0.17074000  0.67583000  0.19422000  1.0
  H  H5  1  0.82932000  0.32407000  0.80578000  1.0
  H  H6  1  0.48280000  0.23640000  0.34500000  1.0
  H  H7  1  0.51717000  0.76361000  0.65498000  1.0
  H  H8  1  0.59097000  0.14607000  0.53072000  1.0
  H  H9  1  0.40907000  0.85394000  0.46926000  1.0
  H  H10  1  0.87590000  0.37720000  0.59648000  1.0
  H  H11  1  0.12409000  0.62279000  0.40354000  1.0
  H  H12  1  0.75900000  0.46047000  0.41119000  1.0
  H  H13  1  0.24096000  0.53955000  0.58883000  1.0
  H  H14  1  0.59448000  0.96969000  0.70646000  1.0
  H  H15  1  0.40557000  0.03031000  0.29355000  1.0
  H  H16  1  0.49927000  0.75448000  0.81978000  1.0
  H  H17  1  0.50074000  0.24550000  0.18024000  1.0
  H  H18  1  0.77794000  0.88869000  0.97474000  1.0
  H  H19  1  0.22190000  0.11133000  0.02522000  1.0
  H  H20  1  0.88188000  0.10541000  0.86613000  1.0
  H  H21  1  0.11804000  0.89461000  0.13384000  1.0
  C  C22  1  0.04183000  0.40475000  0.25638000  1.0
  C  C23  1  0.95816000  0.59527000  0.74361000  1.0
  C  C24  1  0.11029000  0.35160000  0.36789000  1.0
  C  C25  1  0.88967000  0.64842000  0.63212000  1.0
  C  C26  1  0.34501000  0.26310000  0.40147000  1.0
  C  C27  1  0.65500000  0.73691000  0.59854000  1.0
  C  C28  1  0.40533000  0.21276000  0.50498000  1.0
  C  C29  1  0.59469000  0.78725000  0.49504000  1.0
  C  C30  1  0.23240000  0.25407000  0.57453000  1.0
  C  C31  1  0.76766000  0.74593000  0.42550000  1.0
  C  C32  1  0.00247000  0.34436000  0.54181000  1.0
  C  C33  1  0.99757000  0.65563000  0.45822000  1.0
  C  C34  1  0.93959000  0.39131000  0.43868000  1.0
  C  C35  1  0.06042000  0.60870000  0.56133000  1.0
  C  C36  1  0.23600000  0.04940000  0.77757000  1.0
  C  C37  1  0.76400000  0.95063000  0.22242000  1.0
  C  C38  1  0.41144000  0.95186000  0.76331000  1.0
  C  C39  1  0.58858000  0.04816000  0.23669000  1.0
  C  C40  1  0.35861000  0.83185000  0.82665000  1.0
  C  C41  1  0.64138000  0.16816000  0.17336000  1.0
  C  C42  1  0.12811000  0.80939000  0.90200000  1.0
  C  C43  1  0.87183000  0.19061000  0.09800000  1.0
  C  C44  1  0.95483000  0.90804000  0.91532000  1.0
  C  C45  1  0.04510000  0.09198000  0.08466000  1.0
  C  C46  1  0.01042000  0.02858000  0.85435000  1.0
  C  C47  1  0.98955000  0.97144000  0.14562000  1.0
  C  C48  1  0.07214000  0.68007000  0.97052000  1.0
  C  C49  1  0.92789000  0.31991000  0.02949000  1.0
  S  S50  1  0.33228000  0.19989000  0.70343000  1.0
  S  S51  1  0.66769000  0.80011000  0.29656000  1.0
  O  O52  1  0.35504000  0.66828000  0.15594000  1.0
  O  O53  1  0.64500000  0.33168000  0.84405000  1.0
  O  O54  1  0.23993000  0.40142000  0.18809000  1.0
  O  O55  1  0.76015000  0.59855000  0.81193000  1.0
  O  O56  1  0.78362000  0.44844000  0.23914000  1.0
  O  O57  1  0.21639000  0.55158000  0.76086000  1.0
  O  O58  1  0.27830000  0.59451000  0.97541000  1.0
  O  O59  1  0.72178000  0.40552000  0.02454000  1.0
  O  O60  1  0.83346000  0.66310000  0.02112000  1.0
  O  O61  1  0.16656000  0.33687000  0.97891000  1.0
  O  O62  1  0.18186000  0.28267000  0.75045000  1.0
  O  O63  1  0.81815000  0.71732000  0.24955000  1.0
  O  O64  1  0.64162000  0.18877000  0.69614000  1.0
  O  O65  1  0.35833000  0.81125000  0.30388000  1.0
