# generated using pymatgen
data_KH26C16S(NO3)3
_symmetry_space_group_name_H-M   'P 1'
_cell_length_a   8.04207000
_cell_length_b   8.41152000
_cell_length_c   15.85200000
_cell_angle_alpha   94.33060000
_cell_angle_beta   102.99900000
_cell_angle_gamma   95.46860000
_symmetry_Int_Tables_number   1
_chemical_formula_structural   KH26C16S(NO3)3
_chemical_formula_sum   'K2 H52 C32 S2 N6 O18'
_cell_volume   1034.88144603
_cell_formula_units_Z   2
loop_
 _symmetry_equiv_pos_site_id
 _symmetry_equiv_pos_as_xyz
  1  'x, y, z'
loop_
 _atom_site_type_symbol
 _atom_site_label
 _atom_site_symmetry_multiplicity
 _atom_site_fract_x
 _atom_site_fract_y
 _atom_site_fract_z
 _atom_site_occupancy
  K  K0  1  0.43027000  0.76367000  0.51549000  1.0
  K  K1  1  0.56973000  0.23633000  0.48451000  1.0
  H  H2  1  0.95863000  0.75823000  0.40106000  1.0
  H  H3  1  0.04137000  0.24177000  0.59894000  1.0
  H  H4  1  0.01560000  0.76137000  0.50134000  1.0
  H  H5  1  0.98440000  0.23863000  0.49866000  1.0
  H  H6  1  0.26290000  0.06793000  0.57944000  1.0
  H  H7  1  0.73710000  0.93207000  0.42056000  1.0
  H  H8  1  0.20460000  0.07169000  0.47916000  1.0
  H  H9  1  0.79540000  0.92831000  0.52084000  1.0
  H  H10  1  0.45690000  0.70558000  0.29656000  1.0
  H  H11  1  0.54310000  0.29442000  0.70344000  1.0
  H  H12  1  0.52887000  0.97920000  0.71414000  1.0
  H  H13  1  0.47113000  0.02080000  0.28587000  1.0
  H  H14  1  0.69574000  0.92224000  0.69724000  1.0
  H  H15  1  0.30426000  0.07776000  0.30276000  1.0
  H  H16  1  0.62865000  0.84211000  0.21968000  1.0
  H  H17  1  0.37136000  0.15789000  0.78032000  1.0
  H  H18  1  0.39597000  0.41994000  0.58413000  1.0
  H  H19  1  0.60403000  0.58006000  0.41587000  1.0
  H  H20  1  0.19970000  0.41561000  0.53954000  1.0
  H  H21  1  0.80030000  0.58439000  0.46046000  1.0
  H  H22  1  0.42090000  0.80889000  0.94689000  1.0
  H  H23  1  0.57910000  0.19111000  0.05311000  1.0
  H  H24  1  0.46313000  0.54591000  0.87648000  1.0
  H  H25  1  0.53687000  0.45409000  0.12351000  1.0
  H  H26  1  0.31638000  0.46287000  0.72062000  1.0
  H  H27  1  0.68362000  0.53714000  0.27937000  1.0
  H  H28  1  0.13407000  0.64525000  0.63631000  1.0
  H  H29  1  0.86592000  0.35476000  0.36369000  1.0
  H  H30  1  0.14830000  0.04303000  0.09683000  1.0
  H  H31  1  0.85170000  0.95697000  0.90317000  1.0
  H  H32  1  0.12959000  0.27933000  0.18980000  1.0
  H  H33  1  0.87040000  0.72067000  0.81020000  1.0
  H  H34  1  0.22624000  0.57614000  0.98856000  1.0
  H  H35  1  0.77376000  0.42386000  0.01144000  1.0
  H  H36  1  0.23994000  0.33420000  0.89631000  1.0
  H  H37  1  0.76006000  0.66580000  0.10369000  1.0
  H  H38  1  0.03114000  0.48478000  0.23076000  1.0
  H  H39  1  0.96886000  0.51522000  0.76924000  1.0
  H  H40  1  0.11377000  0.68795000  0.26184000  1.0
  H  H41  1  0.88623000  0.31205000  0.73816000  1.0
  H  H42  1  0.23847000  0.48125000  0.36244000  1.0
  H  H43  1  0.76153000  0.51875000  0.63756000  1.0
  H  H44  1  0.34689000  0.41758000  0.28179000  1.0
  H  H45  1  0.65311000  0.58242000  0.71821000  1.0
  H  H46  1  0.17197000  0.83034000  0.16960000  1.0
  H  H47  1  0.82803000  0.16966000  0.83040000  1.0
  H  H48  1  0.14425000  0.75291000  0.06021000  1.0
  H  H49  1  0.85575000  0.24709000  0.93979000  1.0
  H  H50  1  0.45991000  0.71098000  0.09136000  1.0
  H  H51  1  0.54010000  0.28902000  0.90864000  1.0
  H  H52  1  0.41364000  0.91378000  0.10063000  1.0
  H  H53  1  0.58636000  0.08622000  0.89937000  1.0
  C  C54  1  0.17807000  0.82984000  0.74345000  1.0
  C  C55  1  0.82193000  0.17016000  0.25654000  1.0
  C  C56  1  0.25514000  0.87517000  0.83227000  1.0
  C  C57  1  0.74486000  0.12483000  0.16773000  1.0
  C  C58  1  0.35697000  0.77033000  0.87933000  1.0
  C  C59  1  0.64303000  0.22967000  0.12067000  1.0
  C  C60  1  0.38010000  0.62369000  0.83922000  1.0
  C  C61  1  0.61990000  0.37631000  0.16078000  1.0
  C  C62  1  0.29986000  0.57810000  0.75196000  1.0
  C  C63  1  0.70014000  0.42190000  0.24803000  1.0
  C  C64  1  0.19850000  0.68130000  0.70405000  1.0
  C  C65  1  0.80150000  0.31870000  0.29595000  1.0
  C  C66  1  0.20492000  0.17065000  0.99201000  1.0
  C  C67  1  0.79508000  0.82934000  0.00799000  1.0
  C  C68  1  0.16879000  0.16081000  0.07458000  1.0
  C  C69  1  0.83121000  0.83919000  0.92542000  1.0
  C  C70  1  0.15724000  0.29552000  0.12688000  1.0
  C  C71  1  0.84276000  0.70448000  0.87312000  1.0
  C  C72  1  0.18558000  0.45109000  0.09981000  1.0
  C  C73  1  0.81442000  0.54890000  0.90019000  1.0
  C  C74  1  0.21360000  0.46041000  0.01425000  1.0
  C  C75  1  0.78640000  0.53959000  0.98576000  1.0
  C  C76  1  0.22192000  0.32412000  0.96189000  1.0
  C  C77  1  0.77809000  0.67588000  0.03811000  1.0
  C  C78  1  0.14658000  0.57115000  0.23891000  1.0
  C  C79  1  0.85342000  0.42885000  0.76109000  1.0
  C  C80  1  0.29131000  0.51983000  0.30807000  1.0
  C  C81  1  0.70869000  0.48017000  0.69193000  1.0
  C  C82  1  0.21920000  0.74586000  0.12682000  1.0
  C  C83  1  0.78080000  0.25414000  0.87318000  1.0
  C  C84  1  0.40667000  0.79925000  0.12971000  1.0
  C  C85  1  0.59333000  0.20075000  0.87029000  1.0
  S  S86  1  0.04518000  0.95951000  0.68303000  1.0
  S  S87  1  0.95482000  0.04049000  0.31697000  1.0
  N  N88  1  0.23430000  0.02712000  0.86963000  1.0
  N  N89  1  0.76570000  0.97288000  0.13037000  1.0
  N  N90  1  0.21804000  0.02555000  0.94799000  1.0
  N  N91  1  0.78196000  0.97445000  0.05201000  1.0
  N  N92  1  0.18614000  0.58578000  0.15370000  1.0
  N  N93  1  0.81386000  0.41422000  0.84630000  1.0
  O  O94  1  0.16027000  0.10394000  0.67496000  1.0
  O  O95  1  0.83973000  0.89606000  0.32504000  1.0
  O  O96  1  0.96845000  0.86780000  0.59794000  1.0
  O  O97  1  0.03155000  0.13220000  0.40206000  1.0
  O  O98  1  0.00479000  0.69140000  0.44726000  1.0
  O  O99  1  0.99521000  0.30860000  0.55274000  1.0
  O  O100  1  0.91697000  0.99863000  0.73157000  1.0
  O  O101  1  0.08303000  0.00138000  0.26843000  1.0
  O  O102  1  0.30054000  0.04703000  0.52525000  1.0
  O  O103  1  0.69947000  0.95297000  0.47475000  1.0
  O  O104  1  0.42456000  0.64915000  0.34443000  1.0
  O  O105  1  0.57544000  0.35085000  0.65557000  1.0
  O  O106  1  0.57064000  0.89107000  0.68379000  1.0
  O  O107  1  0.42936000  0.10893000  0.31621000  1.0
  O  O108  1  0.50535000  0.81946000  0.21837000  1.0
  O  O109  1  0.49465000  0.18054000  0.78163000  1.0
  O  O110  1  0.31569000  0.46148000  0.53625000  1.0
  O  O111  1  0.68431000  0.53852000  0.46375000  1.0
