# generated using pymatgen
data_CuH12C20(N3O4)2
_symmetry_space_group_name_H-M   'P 1'
_cell_length_a   9.95364000
_cell_length_b   12.12510000
_cell_length_c   18.11060000
_cell_angle_alpha   89.99900000
_cell_angle_beta   90.00040000
_cell_angle_gamma   89.99960000
_symmetry_Int_Tables_number   1
_chemical_formula_structural   CuH12C20(N3O4)2
_chemical_formula_sum   'Cu4 H48 C80 N24 O32'
_cell_volume   2185.74803628
_cell_formula_units_Z   4
loop_
 _symmetry_equiv_pos_site_id
 _symmetry_equiv_pos_as_xyz
  1  'x, y, z'
loop_
 _atom_site_type_symbol
 _atom_site_label
 _atom_site_symmetry_multiplicity
 _atom_site_fract_x
 _atom_site_fract_y
 _atom_site_fract_z
 _atom_site_occupancy
  Cu  Cu0  1  0.50000000  0.74999000  0.83756000  1.0
  Cu  Cu1  1  1.00000000  0.75000000  0.66244000  1.0
  Cu  Cu2  1  0.49998000  0.25000000  0.16244000  1.0
  Cu  Cu3  1  0.99999000  0.24999000  0.33756000  1.0
  H  H4  1  0.40101000  0.48684000  0.01116000  1.0
  H  H5  1  0.59900000  0.01318000  0.01113000  1.0
  H  H6  1  0.90099000  0.01317000  0.48885000  1.0
  H  H7  1  0.09898000  0.48684000  0.48885000  1.0
  H  H8  1  0.59896000  0.51313000  0.98883000  1.0
  H  H9  1  0.40098000  0.98680000  0.98887000  1.0
  H  H10  1  0.09896000  0.98687000  0.51117000  1.0
  H  H11  1  0.90098000  0.51320000  0.51112000  1.0
  H  H12  1  0.28170000  0.40887000  0.11737000  1.0
  H  H13  1  0.71828000  0.09113000  0.11735000  1.0
  H  H14  1  0.78168000  0.09113000  0.38264000  1.0
  H  H15  1  0.21828000  0.40888000  0.38263000  1.0
  H  H16  1  0.71827000  0.59111000  0.88262000  1.0
  H  H17  1  0.28169000  0.90885000  0.88265000  1.0
  H  H18  1  0.21827000  0.90889000  0.61738000  1.0
  H  H19  1  0.78169000  0.59115000  0.61735000  1.0
  H  H20  1  0.94958000  0.63175000  0.08043000  1.0
  H  H21  1  0.05039000  0.86824000  0.08044000  1.0
  H  H22  1  0.44959000  0.86824000  0.41957000  1.0
  H  H23  1  0.55040000  0.63175000  0.41957000  1.0
  H  H24  1  0.05040000  0.36825000  0.91957000  1.0
  H  H25  1  0.94960000  0.13175000  0.91956000  1.0
  H  H26  1  0.55040000  0.13174000  0.58043000  1.0
  H  H27  1  0.44960000  0.36824000  0.58043000  1.0
  H  H28  1  0.07406000  0.70834000  0.97032000  1.0
  H  H29  1  0.92592000  0.79164000  0.97032000  1.0
  H  H30  1  0.57407000  0.79164000  0.52968000  1.0
  H  H31  1  0.42592000  0.70834000  0.52969000  1.0
  H  H32  1  0.92592000  0.29165000  0.02969000  1.0
  H  H33  1  0.07407000  0.20834000  0.02968000  1.0
  H  H34  1  0.42592000  0.20834000  0.47031000  1.0
  H  H35  1  0.57407000  0.29164000  0.47032000  1.0
  H  H36  1  0.85123000  0.49108000  0.30701000  1.0
  H  H37  1  0.14873000  0.00890000  0.30701000  1.0
  H  H38  1  0.35122000  0.00891000  0.19299000  1.0
  H  H39  1  0.64872000  0.49109000  0.19298000  1.0
  H  H40  1  0.14874000  0.50890000  0.69299000  1.0
  H  H41  1  0.85123000  0.99108000  0.69300000  1.0
  H  H42  1  0.64875000  0.99107000  0.80701000  1.0
  H  H43  1  0.35122000  0.50891000  0.80700000  1.0
  H  H44  1  0.13398000  0.31183000  0.18109000  1.0
  H  H45  1  0.86599000  0.18816000  0.18109000  1.0
  H  H46  1  0.63398000  0.18816000  0.31891000  1.0
  H  H47  1  0.36600000  0.31184000  0.31891000  1.0
  H  H48  1  0.86601000  0.68816000  0.81891000  1.0
  H  H49  1  0.13400000  0.81183000  0.81890000  1.0
  H  H50  1  0.36600000  0.81183000  0.68109000  1.0
  H  H51  1  0.63399000  0.68816000  0.68109000  1.0
  C  C52  1  0.31473000  0.65806000  0.92087000  1.0
  C  C53  1  0.68528000  0.84194000  0.92085000  1.0
  C  C54  1  0.81474000  0.84193000  0.57913000  1.0
  C  C55  1  0.18528000  0.65806000  0.57915000  1.0
  C  C56  1  0.68525000  0.34193000  0.07914000  1.0
  C  C57  1  0.31471000  0.15805000  0.07915000  1.0
  C  C58  1  0.18526000  0.15806000  0.42087000  1.0
  C  C59  1  0.81472000  0.34194000  0.42085000  1.0
  C  C60  1  0.24408000  0.60402000  0.98414000  1.0
  C  C61  1  0.75593000  0.89598000  0.98412000  1.0
  C  C62  1  0.74408000  0.89597000  0.51587000  1.0
  C  C63  1  0.25591000  0.60402000  0.51587000  1.0
  C  C64  1  0.75589000  0.39597000  0.01586000  1.0
  C  C65  1  0.24407000  0.10400000  0.01588000  1.0
  C  C66  1  0.25590000  0.10403000  0.48414000  1.0
  C  C67  1  0.74407000  0.39599000  0.48412000  1.0
  C  C68  1  0.30262000  0.51913000  0.02541000  1.0
  C  C69  1  0.69738000  0.98089000  0.02539000  1.0
  C  C70  1  0.80261000  0.98088000  0.47460000  1.0
  C  C71  1  0.19738000  0.51913000  0.47460000  1.0
  C  C72  1  0.69736000  0.48085000  0.97458000  1.0
  C  C73  1  0.30260000  0.01909000  0.97461000  1.0
  C  C74  1  0.19736000  0.01915000  0.52542000  1.0
  C  C75  1  0.80259000  0.48090000  0.52539000  1.0
  C  C76  1  0.23511000  0.47492000  0.08575000  1.0
  C  C77  1  0.76488000  0.02508000  0.08573000  1.0
  C  C78  1  0.73511000  0.02508000  0.41426000  1.0
  C  C79  1  0.26487000  0.47493000  0.41426000  1.0
  C  C80  1  0.76485000  0.52506000  0.91425000  1.0
  C  C81  1  0.23510000  0.97491000  0.91427000  1.0
  C  C82  1  0.26485000  0.97494000  0.58575000  1.0
  C  C83  1  0.73511000  0.52509000  0.58572000  1.0
  C  C84  1  0.10889000  0.51650000  0.10522000  1.0
  C  C85  1  0.89108000  0.98350000  0.10522000  1.0
  C  C86  1  0.60889000  0.98349000  0.39478000  1.0
  C  C87  1  0.39110000  0.51651000  0.39478000  1.0
  C  C88  1  0.89108000  0.48348000  0.89478000  1.0
  C  C89  1  0.10890000  0.01649000  0.89478000  1.0
  C  C90  1  0.39109000  0.01651000  0.60523000  1.0
  C  C91  1  0.60889000  0.48350000  0.60521000  1.0
  C  C92  1  0.04823000  0.60090000  0.06459000  1.0
  C  C93  1  0.95176000  0.89909000  0.06459000  1.0
  C  C94  1  0.54823000  0.89910000  0.43541000  1.0
  C  C95  1  0.45176000  0.60090000  0.43541000  1.0
  C  C96  1  0.95175000  0.39910000  0.93541000  1.0
  C  C97  1  0.04823000  0.10089000  0.93541000  1.0
  C  C98  1  0.45175000  0.10090000  0.56459000  1.0
  C  C99  1  0.54823000  0.39910000  0.56459000  1.0
  C  C100  1  0.11683000  0.64305000  0.00398000  1.0
  C  C101  1  0.88315000  0.85695000  0.00397000  1.0
  C  C102  1  0.61684000  0.85694000  0.49603000  1.0
  C  C103  1  0.38316000  0.64305000  0.49603000  1.0
  C  C104  1  0.88315000  0.35694000  0.99603000  1.0
  C  C105  1  0.11684000  0.14304000  0.99602000  1.0
  C  C106  1  0.38316000  0.14305000  0.50398000  1.0
  C  C107  1  0.61683000  0.35694000  0.50397000  1.0
  C  C108  1  0.92129000  0.46794000  0.26390000  1.0
  C  C109  1  0.07867000  0.03205000  0.26390000  1.0
  C  C110  1  0.42129000  0.03205000  0.23610000  1.0
  C  C111  1  0.57867000  0.46795000  0.23610000  1.0
  C  C112  1  0.07868000  0.53205000  0.73610000  1.0
  C  C113  1  0.92130000  0.96794000  0.73611000  1.0
  C  C114  1  0.57868000  0.96793000  0.76390000  1.0
  C  C115  1  0.42129000  0.53205000  0.76389000  1.0
  C  C116  1  0.06681000  0.37544000  0.20218000  1.0
  C  C117  1  0.93315000  0.12456000  0.20218000  1.0
  C  C118  1  0.56681000  0.12456000  0.29782000  1.0
  C  C119  1  0.43315000  0.37544000  0.29782000  1.0
  C  C120  1  0.93317000  0.62455000  0.79782000  1.0
  C  C121  1  0.06683000  0.87544000  0.79781000  1.0
  C  C122  1  0.43316000  0.87544000  0.70218000  1.0
  C  C123  1  0.56682000  0.62455000  0.70218000  1.0
  C  C124  1  0.49974000  0.25005000  0.92511000  1.0
  C  C125  1  0.00003000  0.25007000  0.57491000  1.0
  C  C126  1  0.50042000  0.74980000  0.07492000  1.0
  C  C127  1  0.00051000  0.75022000  0.42507000  1.0
  C  C128  1  0.24995000  0.19137000  0.74999000  1.0
  C  C129  1  0.74993000  0.30863000  0.75002000  1.0
  C  C130  1  0.75000000  0.80864000  0.25001000  1.0
  C  C131  1  0.25002000  0.69138000  0.24998000  1.0
  N  N132  1  0.04299000  0.47275000  0.16845000  1.0
  N  N133  1  0.95697000  0.02725000  0.16845000  1.0
  N  N134  1  0.54299000  0.02725000  0.33155000  1.0
  N  N135  1  0.45698000  0.47275000  0.33155000  1.0
  N  N136  1  0.95698000  0.52724000  0.83154000  1.0
  N  N137  1  0.04301000  0.97274000  0.83155000  1.0
  N  N138  1  0.45698000  0.97275000  0.66846000  1.0
  N  N139  1  0.54300000  0.52725000  0.66845000  1.0
  N  N140  1  0.94917000  0.53222000  0.20692000  1.0
  N  N141  1  0.05080000  0.96777000  0.20692000  1.0
  N  N142  1  0.44916000  0.96777000  0.29309000  1.0
  N  N143  1  0.55081000  0.53222000  0.29308000  1.0
  N  N144  1  0.05081000  0.46776000  0.79308000  1.0
  N  N145  1  0.94917000  0.03221000  0.79309000  1.0
  N  N146  1  0.55081000  0.03222000  0.70692000  1.0
  N  N147  1  0.44916000  0.46778000  0.70691000  1.0
  N  N148  1  0.99116000  0.37047000  0.26310000  1.0
  N  N149  1  0.00880000  0.12952000  0.26310000  1.0
  N  N150  1  0.49116000  0.12952000  0.23690000  1.0
  N  N151  1  0.50880000  0.37048000  0.23690000  1.0
  N  N152  1  0.00882000  0.62952000  0.73690000  1.0
  N  N153  1  0.99118000  0.87047000  0.73690000  1.0
  N  N154  1  0.50882000  0.87047000  0.76310000  1.0
  N  N155  1  0.49117000  0.62952000  0.76310000  1.0
  O  O156  1  0.44369000  0.64556000  0.91733000  1.0
  O  O157  1  0.55632000  0.85445000  0.91731000  1.0
  O  O158  1  0.94370000  0.85443000  0.58266000  1.0
  O  O159  1  0.05631000  0.64554000  0.58269000  1.0
  O  O160  1  0.55627000  0.35443000  0.08267000  1.0
  O  O161  1  0.44368000  0.14555000  0.08268000  1.0
  O  O162  1  0.05629000  0.14555000  0.41732000  1.0
  O  O163  1  0.94369000  0.35444000  0.41733000  1.0
  O  O164  1  0.24950000  0.71477000  0.87481000  1.0
  O  O165  1  0.75051000  0.78521000  0.87482000  1.0
  O  O166  1  0.74953000  0.78522000  0.62518000  1.0
  O  O167  1  0.25049000  0.71478000  0.62518000  1.0
  O  O168  1  0.75046000  0.28522000  0.12518000  1.0
  O  O169  1  0.24949000  0.21477000  0.12518000  1.0
  O  O170  1  0.25048000  0.21478000  0.37482000  1.0
  O  O171  1  0.74951000  0.28521000  0.37482000  1.0
  O  O172  1  0.41879000  0.32063000  0.92483000  1.0
  O  O173  1  0.58069000  0.17949000  0.92481000  1.0
  O  O174  1  0.91908000  0.17951000  0.57518000  1.0
  O  O175  1  0.08098000  0.32064000  0.57522000  1.0
  O  O176  1  0.58131000  0.67919000  0.07523000  1.0
  O  O177  1  0.41952000  0.82041000  0.07517000  1.0
  O  O178  1  0.08140000  0.82084000  0.42478000  1.0
  O  O179  1  0.91962000  0.67961000  0.42481000  1.0
  O  O180  1  0.33499000  0.19045000  0.79498000  1.0
  O  O181  1  0.66488000  0.30960000  0.79501000  1.0
  O  O182  1  0.83497000  0.30951000  0.70502000  1.0
  O  O183  1  0.16490000  0.19042000  0.70499000  1.0
  O  O184  1  0.66495000  0.80958000  0.20501000  1.0
  O  O185  1  0.33506000  0.69045000  0.20498000  1.0
  O  O186  1  0.16498000  0.69045000  0.29498000  1.0
  O  O187  1  0.83503000  0.80956000  0.29502000  1.0
