# generated using pymatgen
data_ZnH15C21(NO3)2
_symmetry_space_group_name_H-M   'P 1'
_cell_length_a   9.44166000
_cell_length_b   9.95724000
_cell_length_c   10.51590000
_cell_angle_alpha   91.91840000
_cell_angle_beta   96.69480000
_cell_angle_gamma   103.54600000
_symmetry_Int_Tables_number   1
_chemical_formula_structural   ZnH15C21(NO3)2
_chemical_formula_sum   'Zn2 H30 C42 N4 O12'
_cell_volume   952.68147857
_cell_formula_units_Z   2
loop_
 _symmetry_equiv_pos_site_id
 _symmetry_equiv_pos_as_xyz
  1  'x, y, z'
loop_
 _atom_site_type_symbol
 _atom_site_label
 _atom_site_symmetry_multiplicity
 _atom_site_fract_x
 _atom_site_fract_y
 _atom_site_fract_z
 _atom_site_occupancy
  Zn  Zn0  1  0.16287000  0.22342000  0.09587000  1.0
  Zn  Zn1  1  0.83713000  0.77658000  0.90414000  1.0
  H  H2  1  0.34748000  0.11629000  0.00792000  1.0
  H  H3  1  0.65251000  0.88372000  0.99208000  1.0
  H  H4  1  0.34535000  0.08669000  0.16161000  1.0
  H  H5  1  0.65465000  0.91331000  0.83839000  1.0
  H  H6  1  0.47094000  0.40915000  0.11104000  1.0
  H  H7  1  0.52905000  0.59085000  0.88896000  1.0
  H  H8  1  0.58785000  0.66602000  0.14518000  1.0
  H  H9  1  0.41214000  0.33398000  0.85482000  1.0
  H  H10  1  0.42940000  0.82529000  0.19747000  1.0
  H  H11  1  0.57058000  0.17471000  0.80251000  1.0
  H  H12  1  0.16314000  0.72708000  0.20197000  1.0
  H  H13  1  0.83684000  0.27292000  0.79801000  1.0
  H  H14  1  0.95197000  0.62517000  0.23491000  1.0
  H  H15  1  0.04802000  0.37483000  0.76508000  1.0
  H  H16  1  0.69559000  0.49234000  0.23878000  1.0
  H  H17  1  0.30440000  0.50765000  0.76122000  1.0
  H  H18  1  0.62082000  0.24099000  0.15648000  1.0
  H  H19  1  0.37916000  0.75900000  0.84352000  1.0
  H  H20  1  0.81641000  0.13193000  0.08926000  1.0
  H  H21  1  0.18358000  0.86806000  0.91074000  1.0
  H  H22  1  0.68835000  0.73618000  0.35827000  1.0
  H  H23  1  0.31166000  0.26383000  0.64174000  1.0
  H  H24  1  0.06382000  0.74653000  0.63678000  1.0
  H  H25  1  0.93619000  0.25347000  0.36323000  1.0
  H  H26  1  0.22464000  0.89734000  0.49915000  1.0
  H  H27  1  0.77538000  0.10265000  0.50085000  1.0
  H  H28  1  0.71210000  0.39417000  0.48540000  1.0
  H  H29  1  0.28791000  0.60584000  0.51460000  1.0
  H  H30  1  0.54602000  0.74438000  0.58881000  1.0
  H  H31  1  0.45400000  0.25563000  0.41120000  1.0
  C  C32  1  0.40839000  0.48448000  0.13174000  1.0
  C  C33  1  0.59160000  0.51552000  0.86826000  1.0
  C  C34  1  0.47183000  0.62560000  0.15222000  1.0
  C  C35  1  0.52816000  0.37439000  0.84778000  1.0
  C  C36  1  0.38337000  0.71425000  0.17963000  1.0
  C  C37  1  0.61662000  0.28575000  0.82035000  1.0
  C  C38  1  0.23410000  0.65902000  0.18326000  1.0
  C  C39  1  0.76588000  0.34099000  0.81672000  1.0
  C  C40  1  0.17735000  0.51631000  0.16034000  1.0
  C  C41  1  0.82264000  0.48369000  0.83965000  1.0
  C  C42  1  0.02053000  0.44787000  0.16139000  1.0
  C  C43  1  0.97945000  0.55213000  0.83860000  1.0
  C  C44  1  0.91932000  0.51613000  0.20308000  1.0
  C  C45  1  0.08066000  0.48386000  0.79691000  1.0
  C  C46  1  0.77475000  0.44148000  0.20308000  1.0
  C  C47  1  0.22524000  0.55851000  0.79691000  1.0
  C  C48  1  0.73354000  0.30220000  0.15991000  1.0
  C  C49  1  0.26645000  0.69780000  0.84009000  1.0
  C  C50  1  0.84129000  0.24145000  0.11996000  1.0
  C  C51  1  0.15869000  0.75854000  0.88003000  1.0
  C  C52  1  0.14489000  0.99447000  0.27149000  1.0
  C  C53  1  0.85512000  0.00553000  0.72851000  1.0
  C  C54  1  0.04850000  0.89905000  0.35058000  1.0
  C  C55  1  0.95151000  0.10095000  0.64942000  1.0
  C  C56  1  0.89658000  0.85211000  0.31106000  1.0
  C  C57  1  0.10343000  0.14788000  0.68895000  1.0
  C  C58  1  0.80584000  0.77088000  0.38943000  1.0
  C  C59  1  0.19418000  0.22912000  0.61058000  1.0
  C  C60  1  0.86725000  0.73142000  0.50543000  1.0
  C  C61  1  0.13277000  0.26858000  0.49458000  1.0
  C  C62  1  0.01827000  0.77587000  0.54514000  1.0
  C  C63  1  0.98175000  0.22413000  0.45487000  1.0
  C  C64  1  0.10718000  0.85980000  0.46811000  1.0
  C  C65  1  0.89283000  0.14019000  0.53190000  1.0
  C  C66  1  0.83132000  0.86601000  0.17566000  1.0
  C  C67  1  0.16870000  0.13399000  0.82434000  1.0
  C  C68  1  0.64193000  0.57613000  0.53981000  1.0
  C  C69  1  0.35809000  0.42388000  0.46020000  1.0
  C  C70  1  0.61828000  0.43947000  0.49074000  1.0
  C  C71  1  0.38174000  0.56054000  0.50927000  1.0
  C  C72  1  0.52474000  0.63758000  0.54983000  1.0
  C  C73  1  0.47527000  0.36243000  0.45018000  1.0
  N  N74  1  0.98074000  0.31250000  0.12172000  1.0
  N  N75  1  0.01925000  0.68749000  0.87828000  1.0
  N  N76  1  0.26508000  0.43152000  0.13570000  1.0
  N  N77  1  0.73491000  0.56848000  0.86429000  1.0
  O  O78  1  0.78531000  0.64784000  0.58608000  1.0
  O  O79  1  0.21471000  0.35217000  0.41394000  1.0
  O  O80  1  0.71928000  0.91379000  0.15334000  1.0
  O  O81  1  0.28072000  0.08621000  0.84667000  1.0
  O  O82  1  0.89505000  0.81238000  0.09214000  1.0
  O  O83  1  0.10496000  0.18762000  0.90787000  1.0
  O  O84  1  0.08055000  0.07597000  0.20725000  1.0
  O  O85  1  0.91946000  0.92403000  0.79276000  1.0
  O  O86  1  0.27842000  0.99144000  0.27371000  1.0
  O  O87  1  0.72158000  0.00855000  0.72628000  1.0
  O  O88  1  0.36792000  0.16044000  0.09748000  1.0
  O  O89  1  0.63208000  0.83957000  0.90252000  1.0
