# generated using pymatgen
data_NdCu2H16C17I2(NO4)2
_symmetry_space_group_name_H-M   'P 1'
_cell_length_a   8.06856000
_cell_length_b   8.14153000
_cell_length_c   18.76930000
_cell_angle_alpha   86.73850000
_cell_angle_beta   86.08650000
_cell_angle_gamma   79.64080000
_symmetry_Int_Tables_number   1
_chemical_formula_structural   NdCu2H16C17I2(NO4)2
_chemical_formula_sum   'Nd2 Cu4 H32 C34 I4 N4 O16'
_cell_volume   1208.78623640
_cell_formula_units_Z   2
loop_
 _symmetry_equiv_pos_site_id
 _symmetry_equiv_pos_as_xyz
  1  'x, y, z'
loop_
 _atom_site_type_symbol
 _atom_site_label
 _atom_site_symmetry_multiplicity
 _atom_site_fract_x
 _atom_site_fract_y
 _atom_site_fract_z
 _atom_site_occupancy
  Nd  Nd0  1  0.71256000  0.30212000  0.00423000  1.0
  Nd  Nd1  1  0.28742000  0.69787000  0.99577000  1.0
  Cu  Cu2  1  0.40268000  0.39337000  0.52069000  1.0
  Cu  Cu3  1  0.59732000  0.60664000  0.47931000  1.0
  Cu  Cu4  1  0.12192000  0.58848000  0.48487000  1.0
  Cu  Cu5  1  0.87809000  0.41152000  0.51512000  1.0
  H  H6  1  0.35706000  0.72560000  0.15860000  1.0
  H  H7  1  0.64294000  0.27439000  0.84139000  1.0
  H  H8  1  0.14250000  0.00522000  0.83426000  1.0
  H  H9  1  0.85749000  0.99479000  0.16574000  1.0
  H  H10  1  0.43315000  0.39435000  0.24821000  1.0
  H  H11  1  0.56687000  0.60565000  0.75179000  1.0
  H  H12  1  0.04515000  0.10354000  0.06906000  1.0
  H  H13  1  0.95483000  0.89645000  0.93093000  1.0
  H  H14  1  0.07647000  0.28548000  0.04005000  1.0
  H  H15  1  0.92352000  0.71450000  0.95994000  1.0
  H  H16  1  0.89742000  0.57705000  0.06503000  1.0
  H  H17  1  0.10256000  0.42295000  0.93497000  1.0
  H  H18  1  0.70743000  0.65532000  0.04413000  1.0
  H  H19  1  0.29255000  0.34467000  0.95587000  1.0
  H  H20  1  0.57664000  0.85295000  0.66724000  1.0
  H  H21  1  0.42335000  0.14706000  0.33276000  1.0
  H  H22  1  0.58361000  0.05546000  0.56354000  1.0
  H  H23  1  0.41637000  0.94453000  0.43646000  1.0
  H  H24  1  0.98683000  0.93053000  0.42669000  1.0
  H  H25  1  0.01319000  0.06947000  0.57330000  1.0
  H  H26  1  0.38645000  0.93564000  0.77597000  1.0
  H  H27  1  0.61356000  0.06438000  0.22404000  1.0
  H  H28  1  0.24175000  0.41939000  0.66712000  1.0
  H  H29  1  0.75827000  0.58063000  0.33289000  1.0
  H  H30  1  0.29656000  0.51422000  0.34542000  1.0
  H  H31  1  0.70345000  0.48578000  0.65457000  1.0
  H  H32  1  0.12864000  0.37798000  0.78959000  1.0
  H  H33  1  0.87137000  0.62205000  0.21042000  1.0
  H  H34  1  0.02322000  0.10215000  0.31405000  1.0
  H  H35  1  0.97680000  0.89786000  0.68595000  1.0
  H  H36  1  0.20291000  0.96595000  0.21060000  1.0
  H  H37  1  0.79712000  0.03406000  0.78940000  1.0
  C  C38  1  0.26223000  0.72759000  0.26854000  1.0
  C  C39  1  0.73779000  0.27241000  0.73145000  1.0
  C  C40  1  0.35165000  0.64454000  0.20684000  1.0
  C  C41  1  0.64836000  0.35546000  0.79315000  1.0
  C  C42  1  0.10757000  0.14062000  0.83619000  1.0
  C  C43  1  0.89242000  0.85939000  0.16381000  1.0
  C  C44  1  0.97064000  0.20190000  0.88843000  1.0
  C  C45  1  0.02934000  0.79810000  0.11157000  1.0
  C  C46  1  0.42325000  0.48223000  0.20194000  1.0
  C  C47  1  0.57676000  0.51778000  0.79806000  1.0
  C  C48  1  0.50052000  0.41449000  0.13394000  1.0
  C  C49  1  0.49948000  0.58550000  0.86605000  1.0
  C  C50  1  0.49761000  0.97610000  0.67005000  1.0
  C  C51  1  0.50238000  0.02390000  0.32996000  1.0
  C  C52  1  0.50333000  0.08896000  0.61160000  1.0
  C  C53  1  0.49665000  0.91104000  0.38840000  1.0
  C  C54  1  0.06599000  0.87804000  0.38109000  1.0
  C  C55  1  0.93402000  0.12196000  0.61890000  1.0
  C  C56  1  0.39271000  0.02281000  0.72986000  1.0
  C  C57  1  0.60730000  0.97720000  0.27015000  1.0
  C  C58  1  0.31264000  0.29168000  0.66960000  1.0
  C  C59  1  0.68737000  0.70833000  0.33041000  1.0
  C  C60  1  0.29577000  0.18501000  0.72996000  1.0
  C  C61  1  0.70425000  0.81501000  0.27005000  1.0
  C  C62  1  0.23821000  0.64438000  0.33497000  1.0
  C  C63  1  0.76180000  0.35562000  0.66502000  1.0
  C  C64  1  0.17490000  0.24325000  0.78811000  1.0
  C  C65  1  0.82511000  0.75677000  0.21190000  1.0
  C  C66  1  0.08599000  0.97209000  0.31790000  1.0
  C  C67  1  0.91403000  0.02792000  0.68210000  1.0
  C  C68  1  0.18560000  0.89678000  0.26123000  1.0
  C  C69  1  0.81442000  0.10322000  0.73876000  1.0
  C  C70  1  0.43301000  0.05597000  0.97758000  1.0
  C  C71  1  0.56696000  0.94403000  0.02242000  1.0
  I  I72  1  0.16887000  0.27460000  0.45279000  1.0
  I  I73  1  0.83114000  0.72540000  0.54721000  1.0
  I  I74  1  0.33015000  0.69862000  0.56712000  1.0
  I  I75  1  0.66985000  0.30138000  0.43288000  1.0
  N  N76  1  0.41252000  0.24491000  0.61128000  1.0
  N  N77  1  0.58749000  0.75509000  0.38872000  1.0
  N  N78  1  0.14240000  0.71695000  0.38977000  1.0
  N  N79  1  0.85761000  0.28304000  0.61022000  1.0
  O  O80  1  0.30842000  0.99667000  0.96114000  1.0
  O  O81  1  0.69155000  0.00329000  0.03886000  1.0
  O  O82  1  0.46200000  0.20312000  0.96124000  1.0
  O  O83  1  0.53798000  0.79686000  0.03877000  1.0
  O  O84  1  0.87672000  0.09939000  0.91637000  1.0
  O  O85  1  0.12329000  0.90060000  0.08363000  1.0
  O  O86  1  0.93760000  0.35501000  0.90598000  1.0
  O  O87  1  0.06238000  0.64499000  0.09402000  1.0
  O  O88  1  0.61570000  0.28498000  0.13455000  1.0
  O  O89  1  0.38430000  0.71501000  0.86544000  1.0
  O  O90  1  0.45410000  0.48599000  0.07322000  1.0
  O  O91  1  0.54589000  0.51399000  0.92678000  1.0
  O  O92  1  0.98936000  0.22263000  0.05969000  1.0
  O  O93  1  0.01062000  0.77736000  0.94030000  1.0
  O  O94  1  0.80545000  0.56304000  0.03388000  1.0
  O  O95  1  0.19453000  0.43696000  0.96612000  1.0
