# generated using pymatgen
data_CdH13C16N2O7
_symmetry_space_group_name_H-M   'P 1'
_cell_length_a   10.23260000
_cell_length_b   12.28550000
_cell_length_c   14.25480000
_cell_angle_alpha   89.99910000
_cell_angle_beta   104.11900000
_cell_angle_gamma   89.99970000
_symmetry_Int_Tables_number   1
_chemical_formula_structural   CdH13C16N2O7
_chemical_formula_sum   'Cd4 H52 C64 N8 O28'
_cell_volume   1737.87361801
_cell_formula_units_Z   4
loop_
 _symmetry_equiv_pos_site_id
 _symmetry_equiv_pos_as_xyz
  1  'x, y, z'
loop_
 _atom_site_type_symbol
 _atom_site_label
 _atom_site_symmetry_multiplicity
 _atom_site_fract_x
 _atom_site_fract_y
 _atom_site_fract_z
 _atom_site_occupancy
  Cd  Cd0  1  0.17716000  0.07921000  0.07878000  1.0
  Cd  Cd1  1  0.82286000  0.57920000  0.42122000  1.0
  Cd  Cd2  1  0.82284000  0.92080000  0.92123000  1.0
  Cd  Cd3  1  0.17714000  0.42080000  0.57878000  1.0
  H  H4  1  0.47048000  0.83825000  0.28718000  1.0
  H  H5  1  0.52955000  0.33824000  0.21282000  1.0
  H  H6  1  0.52952000  0.16176000  0.71282000  1.0
  H  H7  1  0.47045000  0.66176000  0.78718000  1.0
  H  H8  1  0.37766000  0.59408000  0.47652000  1.0
  H  H9  1  0.62235000  0.09409000  0.02347000  1.0
  H  H10  1  0.62235000  0.40592000  0.52348000  1.0
  H  H11  1  0.37766000  0.90591000  0.97653000  1.0
  H  H12  1  0.06740000  0.81321000  0.32661000  1.0
  H  H13  1  0.93262000  0.31319000  0.17339000  1.0
  H  H14  1  0.93259000  0.18677000  0.67339000  1.0
  H  H15  1  0.06738000  0.68681000  0.82660000  1.0
  H  H16  1  0.00385000  0.00878000  0.28531000  1.0
  H  H17  1  0.99616000  0.50877000  0.21469000  1.0
  H  H18  1  0.99614000  0.99122000  0.71469000  1.0
  H  H19  1  0.00384000  0.49122000  0.78531000  1.0
  H  H20  1  0.10134000  0.11709000  0.86142000  1.0
  H  H21  1  0.89870000  0.61711000  0.63860000  1.0
  H  H22  1  0.89867000  0.88289000  0.13859000  1.0
  H  H23  1  0.10131000  0.38288000  0.36140000  1.0
  H  H24  1  0.24217000  0.16387000  0.90525000  1.0
  H  H25  1  0.75785000  0.66386000  0.59475000  1.0
  H  H26  1  0.75783000  0.83614000  0.09475000  1.0
  H  H27  1  0.24215000  0.33614000  0.40525000  1.0
  H  H28  1  0.23652000  0.06706000  0.75110000  1.0
  H  H29  1  0.76347000  0.56707000  0.74890000  1.0
  H  H30  1  0.76346000  0.93293000  0.24890000  1.0
  H  H31  1  0.23654000  0.43293000  0.25110000  1.0
  H  H32  1  0.97188000  0.81889000  0.60877000  1.0
  H  H33  1  0.02811000  0.31888000  0.89122000  1.0
  H  H34  1  0.02812000  0.18112000  0.39122000  1.0
  H  H35  1  0.97188000  0.68111000  0.10878000  1.0
  H  H36  1  0.22801000  0.78323000  0.57814000  1.0
  H  H37  1  0.77199000  0.28322000  0.92185000  1.0
  H  H38  1  0.77200000  0.21678000  0.42185000  1.0
  H  H39  1  0.22800000  0.71678000  0.07815000  1.0
  H  H40  1  0.46402000  0.85581000  0.70023000  1.0
  H  H41  1  0.53597000  0.35582000  0.79977000  1.0
  H  H42  1  0.53597000  0.14419000  0.29978000  1.0
  H  H43  1  0.46403000  0.64419000  0.20022000  1.0
  H  H44  1  0.46061000  0.99354000  0.73226000  1.0
  H  H45  1  0.53938000  0.49355000  0.76774000  1.0
  H  H46  1  0.53938000  0.00646000  0.26775000  1.0
  H  H47  1  0.46063000  0.50646000  0.23226000  1.0
  H  H48  1  0.63922000  0.87034000  0.61660000  1.0
  H  H49  1  0.36077000  0.37035000  0.88339000  1.0
  H  H50  1  0.36078000  0.12967000  0.38340000  1.0
  H  H51  1  0.63922000  0.62965000  0.11660000  1.0
  H  H52  1  0.28529000  0.07170000  0.52767000  1.0
  H  H53  1  0.71471000  0.57169000  0.97233000  1.0
  H  H54  1  0.71471000  0.92830000  0.47233000  1.0
  H  H55  1  0.28528000  0.42831000  0.02767000  1.0
  C  C56  1  0.22347000  0.92652000  0.22829000  1.0
  C  C57  1  0.77655000  0.42650000  0.27171000  1.0
  C  C58  1  0.77652000  0.07348000  0.77171000  1.0
  C  C59  1  0.22345000  0.57350000  0.72828000  1.0
  C  C60  1  0.26560000  0.83889000  0.30159000  1.0
  C  C61  1  0.73443000  0.33888000  0.19842000  1.0
  C  C62  1  0.73439000  0.16110000  0.69841000  1.0
  C  C63  1  0.26558000  0.66112000  0.80158000  1.0
  C  C64  1  0.39868000  0.80217000  0.32309000  1.0
  C  C65  1  0.60135000  0.30217000  0.17692000  1.0
  C  C66  1  0.60132000  0.19783000  0.67691000  1.0
  C  C67  1  0.39865000  0.69784000  0.82308000  1.0
  C  C68  1  0.44089000  0.71816000  0.38946000  1.0
  C  C69  1  0.55913000  0.21816000  0.11055000  1.0
  C  C70  1  0.55911000  0.28184000  0.61054000  1.0
  C  C71  1  0.44087000  0.78184000  0.88946000  1.0
  C  C72  1  0.58471000  0.68235000  0.41141000  1.0
  C  C73  1  0.41531000  0.18236000  0.08859000  1.0
  C  C74  1  0.41530000  0.31767000  0.58858000  1.0
  C  C75  1  0.58469000  0.81765000  0.91141000  1.0
  C  C76  1  0.34668000  0.66396000  0.42910000  1.0
  C  C77  1  0.65333000  0.16396000  0.07090000  1.0
  C  C78  1  0.65333000  0.33604000  0.57089000  1.0
  C  C79  1  0.34667000  0.83604000  0.92911000  1.0
  C  C80  1  0.21199000  0.69814000  0.40476000  1.0
  C  C81  1  0.78803000  0.19813000  0.09524000  1.0
  C  C82  1  0.78802000  0.30185000  0.59524000  1.0
  C  C83  1  0.21197000  0.80187000  0.90476000  1.0
  C  C84  1  0.10490000  0.63436000  0.43512000  1.0
  C  C85  1  0.89511000  0.13434000  0.06488000  1.0
  C  C86  1  0.89511000  0.36563000  0.56488000  1.0
  C  C87  1  0.10489000  0.86566000  0.93512000  1.0
  C  C88  1  0.17265000  0.78814000  0.34432000  1.0
  C  C89  1  0.82738000  0.28812000  0.15569000  1.0
  C  C90  1  0.82735000  0.21185000  0.65568000  1.0
  C  C91  1  0.17262000  0.71188000  0.84431000  1.0
  C  C92  1  0.20094000  0.99542000  0.70736000  1.0
  C  C93  1  0.79905000  0.49542000  0.79264000  1.0
  C  C94  1  0.79905000  0.00458000  0.29264000  1.0
  C  C95  1  0.20096000  0.50457000  0.20736000  1.0
  C  C96  1  0.06407000  0.86626000  0.62996000  1.0
  C  C97  1  0.93593000  0.36626000  0.87003000  1.0
  C  C98  1  0.93594000  0.13374000  0.37003000  1.0
  C  C99  1  0.06407000  0.63373000  0.12997000  1.0
  C  C100  1  0.18990000  0.84718000  0.61635000  1.0
  C  C101  1  0.81009000  0.34718000  0.88364000  1.0
  C  C102  1  0.81009000  0.15282000  0.38364000  1.0
  C  C103  1  0.18991000  0.65282000  0.11636000  1.0
  C  C104  1  0.41928000  0.93484000  0.67432000  1.0
  C  C105  1  0.58070000  0.43484000  0.82568000  1.0
  C  C106  1  0.58071000  0.06517000  0.32568000  1.0
  C  C107  1  0.41930000  0.56516000  0.17432000  1.0
  C  C108  1  0.45678000  0.96653000  0.58188000  1.0
  C  C109  1  0.54321000  0.46653000  0.91812000  1.0
  C  C110  1  0.54322000  0.03348000  0.41813000  1.0
  C  C111  1  0.45679000  0.53347000  0.08188000  1.0
  C  C112  1  0.57791000  0.92744000  0.56553000  1.0
  C  C113  1  0.42208000  0.42744000  0.93447000  1.0
  C  C114  1  0.42209000  0.07257000  0.43447000  1.0
  C  C115  1  0.57791000  0.57256000  0.06553000  1.0
  C  C116  1  0.37901000  0.03916000  0.51547000  1.0
  C  C117  1  0.62099000  0.53915000  0.98453000  1.0
  C  C118  1  0.62099000  0.96085000  0.48454000  1.0
  C  C119  1  0.37900000  0.46085000  0.01546000  1.0
  N  N120  1  0.27377000  0.92803000  0.66559000  1.0
  N  N121  1  0.72622000  0.42803000  0.83441000  1.0
  N  N122  1  0.72623000  0.07197000  0.33441000  1.0
  N  N123  1  0.27378000  0.57196000  0.16559000  1.0
  N  N124  1  0.07390000  0.95874000  0.68629000  1.0
  N  N125  1  0.92609000  0.45874000  0.81371000  1.0
  N  N126  1  0.92609000  0.04126000  0.31371000  1.0
  N  N127  1  0.07391000  0.54125000  0.18629000  1.0
  O  O128  1  0.29981000  0.94518000  0.17132000  1.0
  O  O129  1  0.70022000  0.44516000  0.32868000  1.0
  O  O130  1  0.70020000  0.05484000  0.82870000  1.0
  O  O131  1  0.29978000  0.55485000  0.67131000  1.0
  O  O132  1  0.11369000  0.97875000  0.22210000  1.0
  O  O133  1  0.88633000  0.47874000  0.27790000  1.0
  O  O134  1  0.88628000  0.02123000  0.77789000  1.0
  O  O135  1  0.11368000  0.52126000  0.72210000  1.0
  O  O136  1  0.99989000  0.68701000  0.44247000  1.0
  O  O137  1  0.00012000  0.18701000  0.05753000  1.0
  O  O138  1  0.00012000  0.31298000  0.55754000  1.0
  O  O139  1  0.99989000  0.81299000  0.94248000  1.0
  O  O140  1  0.12102000  0.53232000  0.44618000  1.0
  O  O141  1  0.87901000  0.03231000  0.05383000  1.0
  O  O142  1  0.87899000  0.46766000  0.55382000  1.0
  O  O143  1  0.12100000  0.96769000  0.94618000  1.0
  O  O144  1  0.63055000  0.62439000  0.48683000  1.0
  O  O145  1  0.36946000  0.12440000  0.01318000  1.0
  O  O146  1  0.36945000  0.37562000  0.51316000  1.0
  O  O147  1  0.63053000  0.87561000  0.98683000  1.0
  O  O148  1  0.65472000  0.70755000  0.35174000  1.0
  O  O149  1  0.34529000  0.20756000  0.14825000  1.0
  O  O150  1  0.34529000  0.29247000  0.64826000  1.0
  O  O151  1  0.65471000  0.79245000  0.85175000  1.0
  O  O152  1  0.15996000  0.17757000  0.85352000  1.0
  O  O153  1  0.84006000  0.67758000  0.64649000  1.0
  O  O154  1  0.84004000  0.82242000  0.14648000  1.0
  O  O155  1  0.15995000  0.32241000  0.35351000  1.0
