# generated using pymatgen
data_CoH34C36(NO3)2
_symmetry_space_group_name_H-M   'P 1'
_cell_length_a   6.08922000
_cell_length_b   7.29310000
_cell_length_c   17.37480000
_cell_angle_alpha   97.17720000
_cell_angle_beta   96.84650000
_cell_angle_gamma   95.80390000
_symmetry_Int_Tables_number   1
_chemical_formula_structural   CoH34C36(NO3)2
_chemical_formula_sum   'Co1 H34 C36 N2 O6'
_cell_volume   754.80757316
_cell_formula_units_Z   1
loop_
 _symmetry_equiv_pos_site_id
 _symmetry_equiv_pos_as_xyz
  1  'x, y, z'
loop_
 _atom_site_type_symbol
 _atom_site_label
 _atom_site_symmetry_multiplicity
 _atom_site_fract_x
 _atom_site_fract_y
 _atom_site_fract_z
 _atom_site_occupancy
  Co  Co0  1  0.00000000  0.00000000  0.00000000  1.0
  H  H1  1  0.02885000  0.34457000  0.23002000  1.0
  H  H2  1  0.97117000  0.65544000  0.76997000  1.0
  H  H3  1  0.20891000  0.54285000  0.35298000  1.0
  H  H4  1  0.79110000  0.45716000  0.64701000  1.0
  H  H5  1  0.82007000  0.30602000  0.32752000  1.0
  H  H6  1  0.17993000  0.69398000  0.67247000  1.0
  H  H7  1  0.64026000  0.11277000  0.20315000  1.0
  H  H8  1  0.35973000  0.88723000  0.79685000  1.0
  H  H9  1  0.67627000  0.66635000  0.53756000  1.0
  H  H10  1  0.32376000  0.33368000  0.46244000  1.0
  H  H11  1  0.03284000  0.70003000  0.51475000  1.0
  H  H12  1  0.96714000  0.29995000  0.48525000  1.0
  H  H13  1  0.34059000  0.91949000  0.48877000  1.0
  H  H14  1  0.65942000  0.08049000  0.51125000  1.0
  H  H15  1  0.32716000  0.04241000  0.36040000  1.0
  H  H16  1  0.67289000  0.95759000  0.63962000  1.0
  H  H17  1  0.99481000  0.94660000  0.25987000  1.0
  H  H18  1  0.00525000  0.05342000  0.74014000  1.0
  H  H19  1  0.68309000  0.72802000  0.28633000  1.0
  H  H20  1  0.31696000  0.27199000  0.71367000  1.0
  H  H21  1  0.38060000  0.11450000  0.93161000  1.0
  H  H22  1  0.61938000  0.88550000  0.06839000  1.0
  H  H23  1  0.55189000  0.40612000  0.81507000  1.0
  H  H24  1  0.44808000  0.59390000  0.18493000  1.0
  H  H25  1  0.64579000  0.25060000  0.88109000  1.0
  H  H26  1  0.35420000  0.74940000  0.11890000  1.0
  H  H27  1  0.70606000  0.49695000  0.90779000  1.0
  H  H28  1  0.29392000  0.50306000  0.09220000  1.0
  H  H29  1  0.15089000  0.55884000  0.95707000  1.0
  H  H30  1  0.84910000  0.44116000  0.04293000  1.0
  H  H31  1  0.16844000  0.55857000  0.85564000  1.0
  H  H32  1  0.83151000  0.44142000  0.14436000  1.0
  H  H33  1  0.38921000  0.67766000  0.92568000  1.0
  H  H34  1  0.61074000  0.32234000  0.07431000  1.0
  C  C35  1  0.32284000  0.21705000  0.20874000  1.0
  C  C36  1  0.67716000  0.78297000  0.79127000  1.0
  C  C37  1  0.20154000  0.33543000  0.25231000  1.0
  C  C38  1  0.79845000  0.66460000  0.74769000  1.0
  C  C39  1  0.30229000  0.44594000  0.32109000  1.0
  C  C40  1  0.69769000  0.55406000  0.67890000  1.0
  C  C41  1  0.52812000  0.43987000  0.34801000  1.0
  C  C42  1  0.47187000  0.56012000  0.65198000  1.0
  C  C43  1  0.64631000  0.31467000  0.30592000  1.0
  C  C44  1  0.35369000  0.68532000  0.69408000  1.0
  C  C45  1  0.54572000  0.20469000  0.23709000  1.0
  C  C46  1  0.45428000  0.79531000  0.76290000  1.0
  C  C47  1  0.64661000  0.56713000  0.41716000  1.0
  C  C48  1  0.35343000  0.43290000  0.58284000  1.0
  C  C49  1  0.58622000  0.56377000  0.49023000  1.0
  C  C50  1  0.41374000  0.43618000  0.50976000  1.0
  C  C51  1  0.83339000  0.69804000  0.40268000  1.0
  C  C52  1  0.16664000  0.30196000  0.59731000  1.0
  C  C53  1  0.02118000  0.75599000  0.45929000  1.0
  C  C54  1  0.97880000  0.24398000  0.54072000  1.0
  C  C55  1  0.19609000  0.87924000  0.44428000  1.0
  C  C56  1  0.80391000  0.12075000  0.55573000  1.0
  C  C57  1  0.18873000  0.94817000  0.37261000  1.0
  C  C58  1  0.81131000  0.05182000  0.62740000  1.0
  C  C59  1  0.00279000  0.89301000  0.31591000  1.0
  C  C60  1  0.99724000  0.10700000  0.68411000  1.0
  C  C61  1  0.82809000  0.76908000  0.33063000  1.0
  C  C62  1  0.17193000  0.23092000  0.66937000  1.0
  C  C63  1  0.28590000  0.23497000  0.93681000  1.0
  C  C64  1  0.71409000  0.76503000  0.06319000  1.0
  C  C65  1  0.58140000  0.38432000  0.87674000  1.0
  C  C66  1  0.41857000  0.61568000  0.12325000  1.0
  C  C67  1  0.26459000  0.55475000  0.91288000  1.0
  C  C68  1  0.73538000  0.44525000  0.08712000  1.0
  C  C69  1  0.22513000  0.11815000  0.13009000  1.0
  C  C70  1  0.77488000  0.88186000  0.86991000  1.0
  N  N71  1  0.37529000  0.38665000  0.91149000  1.0
  N  N72  1  0.62470000  0.61334000  0.08851000  1.0
  O  O73  1  0.34505000  0.03430000  0.08582000  1.0
  O  O74  1  0.65496000  0.96572000  0.91418000  1.0
  O  O75  1  0.10375000  0.22943000  0.96594000  1.0
  O  O76  1  0.89623000  0.77057000  0.03406000  1.0
  O  O77  1  0.01720000  0.12605000  0.10623000  1.0
  O  O78  1  0.98277000  0.87395000  0.89377000  1.0
