# generated using pymatgen
data_Zr6H35C64O36F5
_symmetry_space_group_name_H-M   'P 1'
_cell_length_a   14.80898901
_cell_length_b   14.81890624
_cell_length_c   14.83370000
_cell_angle_alpha   90.04403562
_cell_angle_beta   119.87524188
_cell_angle_gamma   119.90811120
_symmetry_Int_Tables_number   1
_chemical_formula_structural   Zr6H35C64O36F5
_chemical_formula_sum   'Zr6 H35 C64 O36 F5'
_cell_volume   2308.48440323
_cell_formula_units_Z   1
loop_
 _symmetry_equiv_pos_site_id
 _symmetry_equiv_pos_as_xyz
  1  'x, y, z'
loop_
 _atom_site_type_symbol
 _atom_site_label
 _atom_site_symmetry_multiplicity
 _atom_site_fract_x
 _atom_site_fract_y
 _atom_site_fract_z
 _atom_site_occupancy
  Zr  Zr0  1  0.26356000  0.38053000  0.88089000  1.0
  Zr  Zr1  1  0.74012000  0.61785000  0.11857000  1.0
  Zr  Zr2  1  0.50225000  0.38088000  0.12195000  1.0
  Zr  Zr3  1  0.50120000  0.61709000  0.88091000  1.0
  Zr  Zr4  1  0.50112000  0.61789000  0.11984000  1.0
  Zr  Zr5  1  0.50064000  0.37720000  0.88281000  1.0
  H  H6  1  0.31666000  0.40865000  0.09801000  1.0
  H  H7  1  0.68960000  0.77977000  0.09474000  1.0
  H  H8  1  0.68928000  0.40504000  0.09640000  1.0
  H  H9  1  0.31439000  0.40432000  0.71923000  1.0
  H  H10  1  0.94845000  0.39628000  0.82449000  1.0
  H  H11  1  0.29695000  0.71978000  0.21622000  1.0
  H  H12  1  0.26449000  0.60227000  0.26135000  1.0
  H  H13  1  0.08823000  0.59466000  0.25739000  1.0
  H  H14  1  0.12095000  0.71159000  0.21144000  1.0
  H  H15  1  0.94630000  0.06738000  0.60392000  1.0
  H  H16  1  0.30466000  0.05947000  0.59852000  1.0
  H  H17  1  0.27741000  0.13913000  0.51195000  1.0
  H  H18  1  0.10518000  0.96505000  0.34683000  1.0
  H  H19  1  0.12715000  0.88464000  0.43404000  1.0
  H  H20  1  0.54060000  0.93023000  0.16326000  1.0
  H  H21  1  0.35748000  0.84787000  0.73467000  1.0
  H  H22  1  0.52372000  0.93547000  0.79249000  1.0
  H  H23  1  0.51464000  0.10153000  0.79568000  1.0
  H  H24  1  0.35034000  0.01349000  0.74397000  1.0
  H  H25  1  0.51754000  0.36002000  0.59409000  1.0
  H  H26  1  0.62898000  0.76957000  0.65052000  1.0
  H  H27  1  0.45975000  0.69041000  0.56448000  1.0
  H  H28  1  0.46407000  0.69217000  0.39651000  1.0
  H  H29  1  0.63256000  0.76759000  0.48189000  1.0
  H  H30  1  0.07398000  0.26541000  0.00691000  1.0
  H  H31  1  0.91849000  0.26821000  0.02372000  1.0
  H  H32  1  0.73815000  0.92724000  0.00392000  1.0
  H  H33  1  0.75015000  0.09799000  0.02327000  1.0
  H  H34  1  0.23380000  0.65878000  0.60037000  1.0
  H  H35  1  0.86923000  0.33270000  0.62862000  1.0
  H  H36  1  0.87276000  0.25383000  0.54115000  1.0
  H  H37  1  0.70701000  0.26160000  0.37454000  1.0
  H  H38  1  0.70568000  0.34222000  0.46214000  1.0
  H  H39  1  0.83478000  0.72805000  0.83364000  1.0
  H  H40  1  0.12071000  0.05773000  0.84183000  1.0
  C  C41  1  0.19876000  0.50353000  0.99592000  1.0
  C  C42  1  0.80199000  0.79843000  0.30430000  1.0
  C  C43  1  0.79873000  0.49771000  0.99250000  1.0
  C  C44  1  0.20124000  0.19172000  0.70128000  1.0
  C  C45  1  0.19400000  0.19352000  0.99478000  1.0
  C  C46  1  0.19921000  0.50419000  0.70277000  1.0
  C  C47  1  0.80395000  0.79865000  0.99455000  1.0
  C  C48  1  0.80787000  0.51051000  0.31004000  1.0
  C  C49  1  0.51375000  0.50421000  0.31022000  1.0
  C  C50  1  0.49514000  0.19335000  0.00469000  1.0
  C  C51  1  0.51518000  0.50377000  0.70613000  1.0
  C  C52  1  0.49695000  0.79887000  0.99778000  1.0
  C  C53  1  0.09808000  0.50441000  0.99406000  1.0
  C  C54  1  0.89827000  0.49925000  0.99002000  1.0
  C  C55  1  0.12104000  0.56256000  0.08534000  1.0
  C  C56  1  0.87725000  0.44207000  0.89762000  1.0
  C  C57  1  0.02392000  0.55892000  0.08292000  1.0
  C  C58  1  0.97208000  0.44303000  0.89865000  1.0
  C  C59  1  0.22119000  0.63793000  0.20416000  1.0
  C  C60  1  0.11079000  0.63310000  0.20160000  1.0
  C  C61  1  0.10171000  0.09164000  0.60115000  1.0
  C  C62  1  0.90172000  0.89703000  0.40564000  1.0
  C  C63  1  0.12763000  0.04821000  0.54093000  1.0
  C  C64  1  0.87789000  0.94379000  0.46726000  1.0
  C  C65  1  0.03059000  0.95391000  0.44735000  1.0
  C  C66  1  0.97278000  0.03645000  0.56140000  1.0
  C  C67  1  0.23062000  0.06387000  0.52986000  1.0
  C  C68  1  0.12108000  0.95542000  0.42577000  1.0
  C  C69  1  0.49933000  0.90023000  0.99993000  1.0
  C  C70  1  0.49948000  0.09552000  0.00698000  1.0
  C  C71  1  0.47856000  0.94231000  0.91298000  1.0
  C  C72  1  0.52357000  0.05296000  0.09529000  1.0
  C  C73  1  0.47799000  0.03598000  0.91717000  1.0
  C  C74  1  0.52302000  0.95890000  0.09262000  1.0
  C  C75  1  0.44800000  0.92541000  0.79782000  1.0
  C  C76  1  0.44449000  0.03019000  0.80189000  1.0
  C  C77  1  0.52643000  0.50986000  0.61185000  1.0
  C  C78  1  0.52521000  0.50819000  0.41583000  1.0
  C  C79  1  0.53580000  0.59367000  0.56623000  1.0
  C  C80  1  0.52146000  0.42653000  0.46673000  1.0
  C  C81  1  0.53543000  0.59244000  0.47192000  1.0
  C  C82  1  0.52199000  0.42639000  0.56069000  1.0
  C  C83  1  0.54316000  0.69938000  0.57534000  1.0
  C  C84  1  0.54478000  0.69900000  0.46960000  1.0
  C  C85  1  0.08945000  0.09060000  0.99023000  1.0
  C  C86  1  0.00121000  0.09516000  0.00115000  1.0
  C  C87  1  0.08260000  0.99393000  0.97760000  1.0
  C  C88  1  0.00411000  0.19227000  0.01049000  1.0
  C  C89  1  0.91578000  0.19334000  0.01848000  1.0
  C  C90  1  0.90307000  0.90059000  0.99261000  1.0
  C  C91  1  0.99127000  0.89895000  0.98346000  1.0
  C  C92  1  0.90425000  0.99746000  0.99999000  1.0
  C  C93  1  0.81475000  0.00161000  0.00841000  1.0
  C  C94  1  0.82063000  0.09731000  0.01779000  1.0
  C  C95  1  0.09952000  0.50916000  0.60756000  1.0
  C  C96  1  0.90869000  0.51571000  0.41431000  1.0
  C  C97  1  0.96952000  0.43058000  0.55588000  1.0
  C  C98  1  0.04132000  0.59680000  0.47061000  1.0
  C  C99  1  0.87833000  0.43449000  0.46295000  1.0
  C  C100  1  0.13366000  0.59434000  0.56296000  1.0
  C  C101  1  0.87067000  0.32525000  0.55575000  1.0
  C  C102  1  0.76744000  0.33023000  0.45114000  1.0
  C  C103  1  0.98937000  0.79598000  0.98153000  1.0
  C  C104  1  0.16743000  0.98822000  0.95313000  1.0
  O  O105  1  0.16216000  0.42680000  0.91963000  1.0
  O  O106  1  0.84149000  0.76258000  0.26420000  1.0
  O  O107  1  0.83753000  0.57460000  0.06992000  1.0
  O  O108  1  0.16338000  0.23012000  0.74120000  1.0
  O  O109  1  0.30723000  0.23207000  0.07421000  1.0
  O  O110  1  0.31528000  0.57863000  0.74044000  1.0
  O  O111  1  0.68834000  0.75904000  0.91799000  1.0
  O  O112  1  0.69309000  0.43177000  0.27140000  1.0
  O  O113  1  0.50865000  0.57917000  0.27006000  1.0
  O  O114  1  0.49273000  0.22982000  0.92597000  1.0
  O  O115  1  0.50810000  0.42393000  0.74172000  1.0
  O  O116  1  0.49665000  0.75869000  0.07383000  1.0
  O  O117  1  0.49559000  0.23499000  0.08050000  1.0
  O  O118  1  0.51038000  0.57878000  0.74209000  1.0
  O  O119  1  0.49741000  0.76056000  0.92069000  1.0
  O  O120  1  0.50702000  0.42524000  0.26585000  1.0
  O  O121  1  0.15741000  0.23208000  0.91705000  1.0
  O  O122  1  0.84255000  0.58226000  0.26519000  1.0
  O  O123  1  0.84344000  0.76153000  0.07193000  1.0
  O  O124  1  0.16068000  0.42422000  0.73836000  1.0
  O  O125  1  0.31695000  0.23204000  0.73897000  1.0
  O  O126  1  0.31408000  0.57774000  0.07516000  1.0
  O  O127  1  0.68567000  0.75830000  0.26378000  1.0
  O  O128  1  0.68264000  0.41855000  0.92027000  1.0
  O  O129  1  0.36698000  0.43064000  0.79911000  1.0
  O  O130  1  0.63534000  0.43124000  0.06918000  1.0
  O  O131  1  0.63593000  0.69984000  0.06589000  1.0
  O  O132  1  0.36668000  0.43212000  0.06800000  1.0
  O  O133  1  0.60079000  0.54909000  0.14885000  1.0
  O  O134  1  0.40236000  0.54841000  0.95080000  1.0
  O  O135  1  0.59962000  0.54683000  0.95065000  1.0
  O  O136  1  0.40189000  0.35028000  0.95252000  1.0
  O  O137  1  0.88904000  0.70789000  0.88605000  1.0
  O  O138  1  0.06711000  0.78795000  0.05775000  1.0
  O  O139  1  0.17396000  0.03016000  0.87240000  1.0
  O  O140  1  0.22495000  0.94763000  0.99657000  1.0
  F  F141  1  0.75939000  0.38339000  0.80069000  1.0
  F  F142  1  0.75643000  0.89822000  0.43522000  1.0
  F  F143  1  0.55058000  0.10526000  0.18943000  1.0
  F  F144  1  0.51487000  0.34103000  0.42305000  1.0
  F  F145  1  0.08488000  0.68282000  0.43436000  1.0
