# generated using pymatgen
data_CoH6C9S(NO)2
_symmetry_space_group_name_H-M   'P 1'
_cell_length_a   11.92160000
_cell_length_b   12.94250000
_cell_length_c   12.94255625
_cell_angle_alpha   111.04662113
_cell_angle_beta   107.76209377
_cell_angle_gamma   107.76200000
_symmetry_Int_Tables_number   1
_chemical_formula_structural   CoH6C9S(NO)2
_chemical_formula_sum   'Co6 H36 C54 S6 N12 O12'
_cell_volume   1569.95157987
_cell_formula_units_Z   6
loop_
 _symmetry_equiv_pos_site_id
 _symmetry_equiv_pos_as_xyz
  1  'x, y, z'
loop_
 _atom_site_type_symbol
 _atom_site_label
 _atom_site_symmetry_multiplicity
 _atom_site_fract_x
 _atom_site_fract_y
 _atom_site_fract_z
 _atom_site_occupancy
  Co  Co0  1  0.70737000  0.57512000  0.80868000  1.0
  Co  Co1  1  0.89891000  0.19082000  0.76640000  1.0
  Co  Co2  1  0.13307000  0.23418000  0.42535000  1.0
  Co  Co3  1  0.29262000  0.42487000  0.19131000  1.0
  Co  Co4  1  0.10109000  0.80918000  0.23360000  1.0
  Co  Co5  1  0.86693000  0.76582000  0.57465000  1.0
  H  H6  1  0.60427000  0.77143000  0.84925000  1.0
  H  H7  1  0.75508000  0.15003000  0.92196000  1.0
  H  H8  1  0.83328000  0.07812000  0.22791000  1.0
  H  H9  1  0.39572000  0.22856000  0.15074000  1.0
  H  H10  1  0.24491000  0.84997000  0.07804000  1.0
  H  H11  1  0.16672000  0.92188000  0.77209000  1.0
  H  H12  1  0.36248000  0.25847000  0.36592000  1.0
  H  H13  1  0.99613000  0.63405000  0.89278000  1.0
  H  H14  1  0.10386000  0.10701000  0.74145000  1.0
  H  H15  1  0.63751000  0.74152000  0.63407000  1.0
  H  H16  1  0.00388000  0.36596000  0.10723000  1.0
  H  H17  1  0.89614000  0.89298000  0.25855000  1.0
  H  H18  1  0.44674000  0.16497000  0.36189000  1.0
  H  H19  1  0.08427000  0.63762000  0.80309000  1.0
  H  H20  1  0.28104000  0.19673000  0.83383000  1.0
  H  H21  1  0.55326000  0.83503000  0.63811000  1.0
  H  H22  1  0.91573000  0.36239000  0.19692000  1.0
  H  H23  1  0.71897000  0.80327000  0.16617000  1.0
  H  H24  1  0.12375000  0.48934000  0.52043000  1.0
  H  H25  1  0.60309000  0.48040000  0.96922000  1.0
  H  H26  1  0.63450000  0.03125000  0.51129000  1.0
  H  H27  1  0.87625000  0.51066000  0.47957000  1.0
  H  H28  1  0.39691000  0.51960000  0.03078000  1.0
  H  H29  1  0.36550000  0.96874000  0.48871000  1.0
  H  H30  1  0.20808000  0.71888000  0.65302000  1.0
  H  H31  1  0.55489000  0.34733000  0.06588000  1.0
  H  H32  1  0.49014000  0.93476000  0.28178000  1.0
  H  H33  1  0.79192000  0.28111000  0.34698000  1.0
  H  H34  1  0.44511000  0.65268000  0.93412000  1.0
  H  H35  1  0.50987000  0.06525000  0.71823000  1.0
  H  H36  1  0.44344000  0.85716000  0.81092000  1.0
  H  H37  1  0.63234000  0.18858000  0.04595000  1.0
  H  H38  1  0.58748000  0.95441000  0.14290000  1.0
  H  H39  1  0.55656000  0.14284000  0.18908000  1.0
  H  H40  1  0.36766000  0.81142000  0.95405000  1.0
  H  H41  1  0.41252000  0.04559000  0.85711000  1.0
  C  C42  1  0.50068000  0.71076000  0.77771000  1.0
  C  C43  1  0.72284000  0.22182000  0.93285000  1.0
  C  C44  1  0.79029000  0.06725000  0.28888000  1.0
  C  C45  1  0.49932000  0.28924000  0.22229000  1.0
  C  C46  1  0.27716000  0.77818000  0.06715000  1.0
  C  C47  1  0.20971000  0.93275000  0.71112000  1.0
  C  C48  1  0.42542000  0.39233000  0.60369000  1.0
  C  C49  1  0.82179000  0.39642000  0.78895000  1.0
  C  C50  1  0.03208000  0.21062000  0.60700000  1.0
  C  C51  1  0.57458000  0.60767000  0.39631000  1.0
  C  C52  1  0.17821000  0.60358000  0.21105000  1.0
  C  C53  1  0.96792000  0.78938000  0.39300000  1.0
  C  C54  1  0.31869000  0.50326000  0.60935000  1.0
  C  C55  1  0.70909000  0.39086000  0.89391000  1.0
  C  C56  1  0.81525000  0.10590000  0.49667000  1.0
  C  C57  1  0.68131000  0.49674000  0.39065000  1.0
  C  C58  1  0.29091000  0.60914000  0.10609000  1.0
  C  C59  1  0.18476000  0.89410000  0.50333000  1.0
  C  C60  1  0.45335000  0.58236000  0.70279000  1.0
  C  C61  1  0.75042000  0.29700000  0.87954000  1.0
  C  C62  1  0.87092000  0.12038000  0.41722000  1.0
  C  C63  1  0.54665000  0.41764000  0.29721000  1.0
  C  C64  1  0.24958000  0.70300000  0.12046000  1.0
  C  C65  1  0.12908000  0.87961000  0.58278000  1.0
  C  C66  1  0.37855000  0.19080000  0.39270000  1.0
  C  C67  1  0.98558000  0.60725000  0.79839000  1.0
  C  C68  1  0.18702000  0.20146000  0.80855000  1.0
  C  C69  1  0.62145000  0.80920000  0.60730000  1.0
  C  C70  1  0.01441000  0.39275000  0.20161000  1.0
  C  C71  1  0.81299000  0.79854000  0.19145000  1.0
  C  C72  1  0.22761000  0.55037000  0.59116000  1.0
  C  C73  1  0.63622000  0.40927000  0.95926000  1.0
  C  C74  1  0.67745000  0.04093000  0.44998000  1.0
  C  C75  1  0.77238000  0.44962000  0.40883000  1.0
  C  C76  1  0.36378000  0.59073000  0.04074000  1.0
  C  C77  1  0.32255000  0.95906000  0.55002000  1.0
  C  C78  1  0.27549000  0.67839000  0.66569000  1.0
  C  C79  1  0.60956000  0.33445000  0.01259000  1.0
  C  C80  1  0.59777000  0.98774000  0.32201000  1.0
  C  C81  1  0.72451000  0.32161000  0.33431000  1.0
  C  C82  1  0.39044000  0.66556000  0.98741000  1.0
  C  C83  1  0.40223000  0.01225000  0.67799000  1.0
  C  C84  1  0.40995000  0.75723000  0.75653000  1.0
  C  C85  1  0.65318000  0.24312000  0.00046000  1.0
  C  C86  1  0.65348000  0.99980000  0.24281000  1.0
  C  C87  1  0.59005000  0.24277000  0.24347000  1.0
  C  C88  1  0.34683000  0.75689000  0.99955000  1.0
  C  C89  1  0.34652000  0.00020000  0.75719000  1.0
  C  C90  1  0.24781000  0.07496000  0.33467000  1.0
  C  C91  1  0.91277000  0.66538000  0.74033000  1.0
  C  C92  1  0.17219000  0.25932000  0.92491000  1.0
  C  C93  1  0.75219000  0.92504000  0.66533000  1.0
  C  C94  1  0.08724000  0.33464000  0.25968000  1.0
  C  C95  1  0.82781000  0.74068000  0.07509000  1.0
  S  S96  1  0.46485000  0.26925000  0.56361000  1.0
  S  S97  1  0.90146000  0.43629000  0.70610000  1.0
  S  S98  1  0.19396000  0.29363000  0.72957000  1.0
  S  S99  1  0.53515000  0.73074000  0.43638000  1.0
  S  S100  1  0.09855000  0.56372000  0.29391000  1.0
  S  S101  1  0.80605000  0.70637000  0.27043000  1.0
  N  N102  1  0.51906000  0.50979000  0.69751000  1.0
  N  N103  1  0.82165000  0.30232000  0.81250000  1.0
  N  N104  1  0.00872000  0.18739000  0.48952000  1.0
  N  N105  1  0.48094000  0.49021000  0.30249000  1.0
  N  N106  1  0.17835000  0.69768000  0.18750000  1.0
  N  N107  1  0.99128000  0.81261000  0.51048000  1.0
  N  N108  1  0.30327000  0.38274000  0.54863000  1.0
  N  N109  1  0.75448000  0.45172000  0.83426000  1.0
  N  N110  1  0.91979000  0.16520000  0.61701000  1.0
  N  N111  1  0.69673000  0.61727000  0.45137000  1.0
  N  N112  1  0.24552000  0.54828000  0.16574000  1.0
  N  N113  1  0.08021000  0.83480000  0.38299000  1.0
  O  O114  1  0.24640000  0.96959000  0.28379000  1.0
  O  O115  1  0.96188000  0.71567000  0.68534000  1.0
  O  O116  1  0.27607000  0.31408000  0.02990000  1.0
  O  O117  1  0.75360000  0.03041000  0.71621000  1.0
  O  O118  1  0.03812000  0.28433000  0.31466000  1.0
  O  O119  1  0.72394000  0.68592000  0.97010000  1.0
  O  O120  1  0.14505000  0.08404000  0.33751000  1.0
  O  O121  1  0.80734000  0.66306000  0.74666000  1.0
  O  O122  1  0.06046000  0.25297000  0.91629000  1.0
  O  O123  1  0.85495000  0.91596000  0.66249000  1.0
  O  O124  1  0.19266000  0.33694000  0.25334000  1.0
  O  O125  1  0.93954000  0.74702000  0.08370000  1.0
