# generated using pymatgen
data_Co3H8C14(NO)6
_symmetry_space_group_name_H-M   'P 1'
_cell_length_a   10.84630000
_cell_length_b   10.85960000
_cell_length_c   10.86510000
_cell_angle_alpha   63.78100000
_cell_angle_beta   89.06330000
_cell_angle_gamma   89.26870000
_symmetry_Int_Tables_number   1
_chemical_formula_structural   Co3H8C14(NO)6
_chemical_formula_sum   'Co6 H16 C28 N12 O12'
_cell_volume   1147.91430090
_cell_formula_units_Z   2
loop_
 _symmetry_equiv_pos_site_id
 _symmetry_equiv_pos_as_xyz
  1  'x, y, z'
loop_
 _atom_site_type_symbol
 _atom_site_label
 _atom_site_symmetry_multiplicity
 _atom_site_fract_x
 _atom_site_fract_y
 _atom_site_fract_z
 _atom_site_occupancy
  Co  Co0  1  0.75010000  0.90564000  0.09361000  1.0
  Co  Co1  1  0.24991000  0.09435000  0.90640000  1.0
  Co  Co2  1  0.99898000  0.00691000  0.15471000  1.0
  Co  Co3  1  0.50113000  0.84501000  0.99373000  1.0
  Co  Co4  1  0.00102000  0.99309000  0.84528000  1.0
  Co  Co5  1  0.49887000  0.15498000  0.00628000  1.0
  H  H6  1  0.58871000  0.83377000  0.46252000  1.0
  H  H7  1  0.91010000  0.53689000  0.16756000  1.0
  H  H8  1  0.41128000  0.16625000  0.53748000  1.0
  H  H9  1  0.08991000  0.46311000  0.83244000  1.0
  H  H10  1  0.48631000  0.84548000  0.66564000  1.0
  H  H11  1  0.01266000  0.33352000  0.15680000  1.0
  H  H12  1  0.51369000  0.15452000  0.33437000  1.0
  H  H13  1  0.98734000  0.66648000  0.84320000  1.0
  H  H14  1  0.94353000  0.92813000  0.57185000  1.0
  H  H15  1  0.55686000  0.42848000  0.06798000  1.0
  H  H16  1  0.05646000  0.07187000  0.42814000  1.0
  H  H17  1  0.44314000  0.57151000  0.93203000  1.0
  H  H18  1  0.95419000  0.79115000  0.12048000  1.0
  H  H19  1  0.54564000  0.87952000  0.20859000  1.0
  H  H20  1  0.04581000  0.20885000  0.87951000  1.0
  H  H21  1  0.45437000  0.12047000  0.79141000  1.0
  C  C22  1  0.82264000  0.88269000  0.37699000  1.0
  C  C23  1  0.67700000  0.62259000  0.11661000  1.0
  C  C24  1  0.17736000  0.11732000  0.62301000  1.0
  C  C25  1  0.32300000  0.37741000  0.88340000  1.0
  C  C26  1  0.77041000  0.88101000  0.50618000  1.0
  C  C27  1  0.72930000  0.49387000  0.11760000  1.0
  C  C28  1  0.22959000  0.11900000  0.49382000  1.0
  C  C29  1  0.27070000  0.50614000  0.88240000  1.0
  C  C30  1  0.64192000  0.85679000  0.53380000  1.0
  C  C31  1  0.85740000  0.46583000  0.14350000  1.0
  C  C32  1  0.35808000  0.14321000  0.46621000  1.0
  C  C33  1  0.14260000  0.53417000  0.85649000  1.0
  C  C34  1  0.58486000  0.86292000  0.64559000  1.0
  C  C35  1  0.91446000  0.35391000  0.13797000  1.0
  C  C36  1  0.41514000  0.13708000  0.35441000  1.0
  C  C37  1  0.08554000  0.64609000  0.86203000  1.0
  C  C38  1  0.66011000  0.89412000  0.73193000  1.0
  C  C39  1  0.83963000  0.26779000  0.10576000  1.0
  C  C40  1  0.33989000  0.10589000  0.26807000  1.0
  C  C41  1  0.16037000  0.73221000  0.89424000  1.0
  C  C42  1  0.78840000  0.91770000  0.70584000  1.0
  C  C43  1  0.71174000  0.29428000  0.08060000  1.0
  C  C44  1  0.21160000  0.08230000  0.29417000  1.0
  C  C45  1  0.28825000  0.70572000  0.91940000  1.0
  C  C46  1  0.84536000  0.91063000  0.59251000  1.0
  C  C47  1  0.65473000  0.40779000  0.08696000  1.0
  C  C48  1  0.15464000  0.08938000  0.40750000  1.0
  C  C49  1  0.34527000  0.59221000  0.91305000  1.0
  N  N50  1  0.63399000  0.90741000  0.84878000  1.0
  N  N51  1  0.86581000  0.15088000  0.09269000  1.0
  N  N52  1  0.36601000  0.09259000  0.15123000  1.0
  N  N53  1  0.13419000  0.84912000  0.90730000  1.0
  N  N54  1  0.73907000  0.93639000  0.89208000  1.0
  N  N55  1  0.76110000  0.10781000  0.06248000  1.0
  N  N56  1  0.26094000  0.06361000  0.10792000  1.0
  N  N57  1  0.23890000  0.89218000  0.93751000  1.0
  N  N58  1  0.83398000  0.94407000  0.80929000  1.0
  N  N59  1  0.66642000  0.19094000  0.05372000  1.0
  N  N60  1  0.16603000  0.05593000  0.19071000  1.0
  N  N61  1  0.33357000  0.80904000  0.94628000  1.0
  O  O62  1  0.93859000  0.88966000  0.07392000  1.0
  O  O63  1  0.56171000  0.92609000  0.11011000  1.0
  O  O64  1  0.06141000  0.11034000  0.92608000  1.0
  O  O65  1  0.43829000  0.07391000  0.88989000  1.0
  O  O66  1  0.74998000  0.85480000  0.30242000  1.0
  O  O67  1  0.74950000  0.69680000  0.14562000  1.0
  O  O68  1  0.25003000  0.14521000  0.69757000  1.0
  O  O69  1  0.25051000  0.30319000  0.85439000  1.0
  O  O70  1  0.93656000  0.91633000  0.34804000  1.0
  O  O71  1  0.56344000  0.65159000  0.08269000  1.0
  O  O72  1  0.06343000  0.08369000  0.65195000  1.0
  O  O73  1  0.43656000  0.34840000  0.91731000  1.0
