# generated using pymatgen
data_ZnH30C25NO8
_symmetry_space_group_name_H-M   'P 1'
_cell_length_a   9.57799000
_cell_length_b   10.79880000
_cell_length_c   15.88240000
_cell_angle_alpha   90.43670000
_cell_angle_beta   92.96460000
_cell_angle_gamma   90.59290000
_symmetry_Int_Tables_number   1
_chemical_formula_structural   ZnH30C25NO8
_chemical_formula_sum   'Zn2 H60 C50 N2 O16'
_cell_volume   1640.38825226
_cell_formula_units_Z   2
loop_
 _symmetry_equiv_pos_site_id
 _symmetry_equiv_pos_as_xyz
  1  'x, y, z'
loop_
 _atom_site_type_symbol
 _atom_site_label
 _atom_site_symmetry_multiplicity
 _atom_site_fract_x
 _atom_site_fract_y
 _atom_site_fract_z
 _atom_site_occupancy
  Zn  Zn0  1  0.64840000  0.50308000  0.50363000  1.0
  Zn  Zn1  1  0.35746000  0.49973000  0.49736000  1.0
  H  H2  1  0.71145000  0.11425000  0.45174000  1.0
  H  H3  1  0.32351000  0.10005000  0.57558000  1.0
  H  H4  1  0.48166000  0.11529000  0.36615000  1.0
  H  H5  1  0.32326000  0.11465000  0.41884000  1.0
  H  H6  1  0.09647000  0.59569000  0.38993000  1.0
  H  H7  1  0.86246000  0.65136000  0.42150000  1.0
  H  H8  1  0.14275000  0.68305000  0.48093000  1.0
  H  H9  1  0.90926000  0.68258000  0.52814000  1.0
  H  H10  1  0.11368000  0.58633000  0.61251000  1.0
  H  H11  1  0.88239000  0.53222000  0.63229000  1.0
  H  H12  1  0.09151000  0.29836000  0.50014000  1.0
  H  H13  1  0.85675000  0.30979000  0.45673000  1.0
  H  H14  1  0.69597000  0.47423000  0.08574000  1.0
  H  H15  1  0.57381000  0.66662000  0.09393000  1.0
  H  H16  1  0.39158000  0.67717000  0.07671000  1.0
  H  H17  1  0.61132000  0.32955000  0.07647000  1.0
  H  H18  1  0.35480000  0.35576000  0.90601000  1.0
  H  H19  1  0.27212000  0.49865000  0.90841000  1.0
  H  H20  1  0.71337000  0.89951000  0.44422000  1.0
  H  H21  1  0.33129000  0.88284000  0.57685000  1.0
  H  H22  1  0.71204000  0.89058000  0.55473000  1.0
  H  H23  1  0.49772000  0.88702000  0.62892000  1.0
  H  H24  1  0.71671000  0.10584000  0.56285000  1.0
  H  H25  1  0.48098000  0.10135000  0.63848000  1.0
  H  H26  1  0.84920000  0.42714000  0.98059000  1.0
  H  H27  1  0.72761000  0.67229000  0.99530000  1.0
  H  H28  1  0.49608000  0.78610000  0.32610000  1.0
  H  H29  1  0.21430000  0.90925000  0.46018000  1.0
  H  H30  1  0.15549000  0.41340000  0.32813000  1.0
  H  H31  1  0.86377000  0.51925000  0.32782000  1.0
  H  H32  1  0.24469000  0.34039000  0.62757000  1.0
  H  H33  1  0.77678000  0.32748000  0.63064000  1.0
  H  H34  1  0.16292000  0.86163000  0.84883000  1.0
  H  H35  1  0.30969000  0.96337000  0.85994000  1.0
  H  H36  1  0.25087000  0.90829000  0.75845000  1.0
  H  H37  1  0.46600000  0.79391000  0.81069000  1.0
  H  H38  1  0.32027000  0.69312000  0.79669000  1.0
  H  H39  1  0.28062000  0.69547000  0.94700000  1.0
  H  H40  1  0.39826000  0.81896000  0.96555000  1.0
  H  H41  1  0.74723000  0.08825000  0.85031000  1.0
  H  H42  1  0.56419000  0.06466000  0.83976000  1.0
  H  H43  1  0.65949000  0.09788000  0.74954000  1.0
  H  H44  1  0.53273000  0.28728000  0.79483000  1.0
  H  H45  1  0.71439000  0.31248000  0.80344000  1.0
  H  H46  1  0.70778000  0.24559000  0.95874000  1.0
  H  H47  1  0.52580000  0.24322000  0.94688000  1.0
  H  H48  1  0.21292000  0.05790000  0.08887000  1.0
  H  H49  1  0.38021000  0.06958000  0.14256000  1.0
  H  H50  1  0.22698000  0.06998000  0.20069000  1.0
  H  H51  1  0.32819000  0.28461000  0.19012000  1.0
  H  H52  1  0.15779000  0.27367000  0.14281000  1.0
  H  H53  1  0.24861000  0.25161000  0.00158000  1.0
  H  H54  1  0.42049000  0.24272000  0.04401000  1.0
  H  H55  1  0.99885000  0.65709000  0.10584000  1.0
  H  H56  1  0.94581000  0.50911000  0.14235000  1.0
  H  H57  1  0.00806000  0.62569000  0.21513000  1.0
  H  H58  1  0.19085000  0.46142000  0.19054000  1.0
  H  H59  1  0.24601000  0.61171000  0.16698000  1.0
  H  H60  1  0.18846000  0.58013000  0.01628000  1.0
  H  H61  1  0.11311000  0.43512000  0.03246000  1.0
  C  C62  1  0.50378000  0.74044000  0.49289000  1.0
  C  C63  1  0.35818000  0.44594000  0.93836000  1.0
  C  C64  1  0.33674000  0.42948000  0.03507000  1.0
  C  C65  1  0.50556000  0.52119000  0.82821000  1.0
  C  C66  1  0.47673000  0.48295000  0.17172000  1.0
  C  C67  1  0.49579000  0.48567000  0.24788000  1.0
  C  C68  1  0.65805000  0.93145000  0.49918000  1.0
  C  C69  1  0.43620000  0.92417000  0.57459000  1.0
  C  C70  1  0.65885000  0.07395000  0.50500000  1.0
  C  C71  1  0.43171000  0.06704000  0.57859000  1.0
  C  C72  1  0.42853000  0.93486000  0.41340000  1.0
  C  C73  1  0.50714000  0.88110000  0.49397000  1.0
  C  C74  1  0.50809000  0.12125000  0.50397000  1.0
  C  C75  1  0.50318000  0.49157000  0.33793000  1.0
  C  C76  1  0.43009000  0.07839000  0.42113000  1.0
  C  C77  1  0.07997000  0.60343000  0.45763000  1.0
  C  C78  1  0.92492000  0.61760000  0.47616000  1.0
  C  C79  1  0.07386000  0.37592000  0.45687000  1.0
  C  C80  1  0.91139000  0.39609000  0.44195000  1.0
  C  C81  1  0.09126000  0.49183000  0.58903000  1.0
  C  C82  1  0.93095000  0.46815000  0.58851000  1.0
  C  C83  1  0.50480000  0.26183000  0.50587000  1.0
  C  C84  1  0.50955000  0.52081000  0.66250000  1.0
  C  C85  1  0.60742000  0.42489000  0.05311000  1.0
  C  C86  1  0.48339000  0.62689000  0.05701000  1.0
  C  C87  1  0.49944000  0.64609000  0.96072000  1.0
  C  C88  1  0.62025000  0.42761000  0.95619000  1.0
  C  C89  1  0.50676000  0.52534000  0.75207000  1.0
  C  C90  1  0.47170000  0.48829000  0.08056000  1.0
  C  C91  1  0.49873000  0.51114000  0.91859000  1.0
  C  C92  1  0.76754000  0.46820000  0.93609000  1.0
  C  C93  1  0.64028000  0.71385000  0.95588000  1.0
  C  C94  1  0.50011000  0.88867000  0.33495000  1.0
  C  C95  1  0.27647000  0.89230000  0.40363000  1.0
  C  C96  1  0.13626000  0.33884000  0.37402000  1.0
  C  C97  1  0.87010000  0.42170000  0.34894000  1.0
  C  C98  1  0.17164000  0.40879000  0.65254000  1.0
  C  C99  1  0.88776000  0.33741000  0.61528000  1.0
  C  C100  1  0.38104000  0.73338000  0.92786000  1.0
  C  C101  1  0.36375000  0.77081000  0.83493000  1.0
  C  C102  1  0.26655000  0.88197000  0.82501000  1.0
  C  C103  1  0.61883000  0.28947000  0.92380000  1.0
  C  C104  1  0.62877000  0.25909000  0.82999000  1.0
  C  C105  1  0.65109000  0.12021000  0.81677000  1.0
  C  C106  1  0.32024000  0.28869000  0.05260000  1.0
  C  C107  1  0.26632000  0.24381000  0.13649000  1.0
  C  C108  1  0.27183000  0.10249000  0.14246000  1.0
  C  C109  1  0.19931000  0.49714000  0.05573000  1.0
  C  C110  1  0.17215000  0.53760000  0.14620000  1.0
  C  C111  1  0.02294000  0.58470000  0.15266000  1.0
  N  N112  1  0.13671000  0.48915000  0.49964000  1.0
  N  N113  1  0.86805000  0.49478000  0.50187000  1.0
  O  O114  1  0.61678000  0.68626000  0.51492000  1.0
  O  O115  1  0.38710000  0.68777000  0.47251000  1.0
  O  O116  1  0.61938000  0.52415000  0.37493000  1.0
  O  O117  1  0.39100000  0.46498000  0.37438000  1.0
  O  O118  1  0.61733000  0.31897000  0.48990000  1.0
  O  O119  1  0.39032000  0.31397000  0.52159000  1.0
  O  O120  1  0.62376000  0.48844000  0.63110000  1.0
  O  O121  1  0.39637000  0.54754000  0.62037000  1.0
  O  O122  1  0.80170000  0.53044000  0.87678000  1.0
  O  O123  1  0.65887000  0.81151000  0.92025000  1.0
  O  O124  1  0.55836000  0.95459000  0.28549000  1.0
  O  O125  1  0.22032000  0.85204000  0.33809000  1.0
  O  O126  1  0.15755000  0.23071000  0.35743000  1.0
  O  O127  1  0.85256000  0.33599000  0.29912000  1.0
  O  O128  1  0.15374000  0.42211000  0.72753000  1.0
  O  O129  1  0.96886000  0.25111000  0.62046000  1.0
