# generated using pymatgen
data_Na2H44PtC44S4(N2O5)2
_symmetry_space_group_name_H-M   'P 1'
_cell_length_a   8.18931000
_cell_length_b   12.77210000
_cell_length_c   12.83020000
_cell_angle_alpha   115.23200000
_cell_angle_beta   106.34500000
_cell_angle_gamma   92.35040000
_symmetry_Int_Tables_number   1
_chemical_formula_structural   Na2H44PtC44S4(N2O5)2
_chemical_formula_sum   'Na2 H44 Pt1 C44 S4 N4 O10'
_cell_volume   1144.66438269
_cell_formula_units_Z   1
loop_
 _symmetry_equiv_pos_site_id
 _symmetry_equiv_pos_as_xyz
  1  'x, y, z'
loop_
 _atom_site_type_symbol
 _atom_site_label
 _atom_site_symmetry_multiplicity
 _atom_site_fract_x
 _atom_site_fract_y
 _atom_site_fract_z
 _atom_site_occupancy
  Na  Na0  1  0.25096000  0.17449000  0.87968000  1.0
  Na  Na1  1  0.74905000  0.82551000  0.12032000  1.0
  H  H2  1  0.21065000  0.60053000  0.09414000  1.0
  H  H3  1  0.78935000  0.39947000  0.90586000  1.0
  H  H4  1  0.19752000  0.75257000  0.29236000  1.0
  H  H5  1  0.80247000  0.24743000  0.70764000  1.0
  H  H6  1  0.29505000  0.84294000  0.51777000  1.0
  H  H7  1  0.70495000  0.15707000  0.48223000  1.0
  H  H8  1  0.50947000  0.75987000  0.62885000  1.0
  H  H9  1  0.49053000  0.24013000  0.37115000  1.0
  H  H10  1  0.61949000  0.58447000  0.51362000  1.0
  H  H11  1  0.38051000  0.41553000  0.48638000  1.0
  H  H12  1  0.62273000  0.42834000  0.31897000  1.0
  H  H13  1  0.37727000  0.57166000  0.68103000  1.0
  H  H14  1  0.52908000  0.21201000  0.15566000  1.0
  H  H15  1  0.47093000  0.78799000  0.84434000  1.0
  H  H16  1  0.73467000  0.29953000  0.19536000  1.0
  H  H17  1  0.26534000  0.70047000  0.80464000  1.0
  H  H18  1  0.74182000  0.18617000  0.98565000  1.0
  H  H19  1  0.25818000  0.81383000  0.01435000  1.0
  H  H20  1  0.72989000  0.09349000  0.05685000  1.0
  H  H21  1  0.27012000  0.90651000  0.94315000  1.0
  H  H22  1  0.43089000  0.92154000  0.76785000  1.0
  H  H23  1  0.56911000  0.07845000  0.23216000  1.0
  H  H24  1  0.65932000  0.97683000  0.83228000  1.0
  H  H25  1  0.34068000  0.02316000  0.16773000  1.0
  H  H26  1  0.60068000  0.14308000  0.77194000  1.0
  H  H27  1  0.39933000  0.85692000  0.22806000  1.0
  H  H28  1  0.54129000  0.99904000  0.64528000  1.0
  H  H29  1  0.45871000  0.00096000  0.35472000  1.0
  H  H30  1  0.27781000  0.05523000  0.52054000  1.0
  H  H31  1  0.72220000  0.94477000  0.47946000  1.0
  H  H32  1  0.37905000  0.19908000  0.64035000  1.0
  H  H33  1  0.62095000  0.80093000  0.35966000  1.0
  H  H34  1  0.05300000  0.17587000  0.53991000  1.0
  H  H35  1  0.94700000  0.82413000  0.46009000  1.0
  H  H36  1  0.02004000  0.07126000  0.59471000  1.0
  H  H37  1  0.97996000  0.92874000  0.40529000  1.0
  H  H38  1  0.07376000  0.38012000  0.68819000  1.0
  H  H39  1  0.92624000  0.61987000  0.31181000  1.0
  H  H40  1  0.29254000  0.36209000  0.73622000  1.0
  H  H41  1  0.70746000  0.63791000  0.26378000  1.0
  H  H42  1  0.23041000  0.52920000  0.90097000  1.0
  H  H43  1  0.76959000  0.47079000  0.09903000  1.0
  H  H44  1  0.06244000  0.43270000  0.89840000  1.0
  H  H45  1  0.93756000  0.56730000  0.10160000  1.0
  Pt  Pt46  1  0.00000000  0.50000000  0.50000000  1.0
  C  C47  1  0.35731000  0.46251000  0.07926000  1.0
  C  C48  1  0.64268000  0.53748000  0.92074000  1.0
  C  C49  1  0.29894000  0.56209000  0.14266000  1.0
  C  C50  1  0.70106000  0.43791000  0.85734000  1.0
  C  C51  1  0.35312000  0.61606000  0.27243000  1.0
  C  C52  1  0.64687000  0.38394000  0.72757000  1.0
  C  C53  1  0.29163000  0.71660000  0.34064000  1.0
  C  C54  1  0.70837000  0.28339000  0.65936000  1.0
  C  C55  1  0.34617000  0.76711000  0.46670000  1.0
  C  C56  1  0.65383000  0.23289000  0.53330000  1.0
  C  C57  1  0.46629000  0.71988000  0.52946000  1.0
  C  C58  1  0.53372000  0.28013000  0.47054000  1.0
  C  C59  1  0.52786000  0.62171000  0.46548000  1.0
  C  C60  1  0.47214000  0.37830000  0.53452000  1.0
  C  C61  1  0.47187000  0.56666000  0.33620000  1.0
  C  C62  1  0.52813000  0.43334000  0.66380000  1.0
  C  C63  1  0.53082000  0.46381000  0.26875000  1.0
  C  C64  1  0.46918000  0.53619000  0.73124000  1.0
  C  C65  1  0.47562000  0.41300000  0.14329000  1.0
  C  C66  1  0.52438000  0.58699000  0.85671000  1.0
  C  C67  1  0.61463000  0.24627000  0.12028000  1.0
  C  C68  1  0.38537000  0.75373000  0.87972000  1.0
  C  C69  1  0.65829000  0.14826000  0.01997000  1.0
  C  C70  1  0.34172000  0.85174000  0.98003000  1.0
  C  C71  1  0.53106000  0.00142000  0.81253000  1.0
  C  C72  1  0.46894000  0.99858000  0.18747000  1.0
  C  C73  1  0.51177000  0.05747000  0.72778000  1.0
  C  C74  1  0.48823000  0.94252000  0.27222000  1.0
  C  C75  1  0.28441000  0.12043000  0.61315000  1.0
  C  C76  1  0.71559000  0.87957000  0.38686000  1.0
  C  C77  1  0.10631000  0.14915000  0.61192000  1.0
  C  C78  1  0.89369000  0.85085000  0.38809000  1.0
  C  C79  1  0.16703000  0.35534000  0.75052000  1.0
  C  C80  1  0.83297000  0.64466000  0.24948000  1.0
  C  C81  1  0.18592000  0.43801000  0.88078000  1.0
  C  C82  1  0.81408000  0.56199000  0.11922000  1.0
  C  C83  1  0.04182000  0.29128000  0.31164000  1.0
  C  C84  1  0.95817000  0.70873000  0.68836000  1.0
  C  C85  1  0.07209000  0.18767000  0.22354000  1.0
  C  C86  1  0.92790000  0.81233000  0.77645000  1.0
  C  C87  1  0.13221000  0.19094000  0.13246000  1.0
  C  C88  1  0.86779000  0.80907000  0.86754000  1.0
  C  C89  1  0.03718000  0.07889000  0.22342000  1.0
  C  C90  1  0.96281000  0.92112000  0.77658000  1.0
  S  S91  1  0.08739000  0.43045000  0.32740000  1.0
  S  S92  1  0.91261000  0.56956000  0.67260000  1.0
  S  S93  1  0.95157000  0.29566000  0.41843000  1.0
  S  S94  1  0.04843000  0.70434000  0.58157000  1.0
  N  N95  1  0.18037000  0.19478000  0.05613000  1.0
  N  N96  1  0.81964000  0.80523000  0.94386000  1.0
  N  N97  1  0.00731000  0.98862000  0.22428000  1.0
  N  N98  1  0.99268000  0.01138000  0.77571000  1.0
  O  O99  1  0.31211000  0.40129000  0.95533000  1.0
  O  O100  1  0.68789000  0.59871000  0.04467000  1.0
  O  O101  1  0.52537000  0.31607000  0.06796000  1.0
  O  O102  1  0.47463000  0.68393000  0.93204000  1.0
  O  O103  1  0.50155000  0.07757000  0.92344000  1.0
  O  O104  1  0.49845000  0.92243000  0.07657000  1.0
  O  O105  1  0.33566000  0.07289000  0.69772000  1.0
  O  O106  1  0.66435000  0.92711000  0.30228000  1.0
  O  O107  1  0.10803000  0.23819000  0.72836000  1.0
  O  O108  1  0.89198000  0.76181000  0.27164000  1.0
