# generated using pymatgen
data_ThH60(C3O)16
_symmetry_space_group_name_H-M   'P 1'
_cell_length_a   7.47880000
_cell_length_b   12.38475145
_cell_length_c   12.38391606
_cell_angle_alpha   84.77511512
_cell_angle_beta   72.42152264
_cell_angle_gamma   72.42889131
_symmetry_Int_Tables_number   1
_chemical_formula_structural   ThH60(C3O)16
_chemical_formula_sum   'Th1 H60 C48 O16'
_cell_volume   1042.45639793
_cell_formula_units_Z   1
loop_
 _symmetry_equiv_pos_site_id
 _symmetry_equiv_pos_as_xyz
  1  'x, y, z'
loop_
 _atom_site_type_symbol
 _atom_site_label
 _atom_site_symmetry_multiplicity
 _atom_site_fract_x
 _atom_site_fract_y
 _atom_site_fract_z
 _atom_site_occupancy
  Th  Th0  1  0.21090000  0.00002000  0.00002000  1.0
  H  H1  1  0.06026000  0.32448000  0.95897000  1.0
  H  H2  1  0.34410000  0.67546000  0.04106000  1.0
  H  H3  1  0.38481000  0.95899000  0.67553000  1.0
  H  H4  1  0.01934000  0.04112000  0.32446000  1.0
  H  H5  1  0.64007000  0.20438000  0.05201000  1.0
  H  H6  1  0.89684000  0.79555000  0.94788000  1.0
  H  H7  1  0.84444000  0.05206000  0.79570000  1.0
  H  H8  1  0.69211000  0.94799000  0.20440000  1.0
  H  H9  1  0.50607000  0.12420000  0.15034000  1.0
  H  H10  1  0.78084000  0.87577000  0.84963000  1.0
  H  H11  1  0.63025000  0.15042000  0.87591000  1.0
  H  H12  1  0.65648000  0.84970000  0.12414000  1.0
  H  H13  1  0.48258000  0.41546000  0.02652000  1.0
  H  H14  1  0.92489000  0.58465000  0.97348000  1.0
  H  H15  1  0.89805000  0.02655000  0.58460000  1.0
  H  H16  1  0.50921000  0.97348000  0.41540000  1.0
  H  H17  1  0.24048000  0.48133000  0.10932000  1.0
  H  H18  1  0.83135000  0.51867000  0.89084000  1.0
  H  H19  1  0.72172000  0.10929000  0.51875000  1.0
  H  H20  1  0.34988000  0.89075000  0.48131000  1.0
  H  H21  1  0.48506000  0.52584000  0.18231000  1.0
  H  H22  1  0.19340000  0.47412000  0.81774000  1.0
  H  H23  1  0.01077000  0.18232000  0.47415000  1.0
  H  H24  1  0.66736000  0.81771000  0.52580000  1.0
  H  H25  1  0.17025000  0.51352000  0.32052000  1.0
  H  H26  1  0.00442000  0.48642000  0.67957000  1.0
  H  H27  1  0.68357000  0.32051000  0.48661000  1.0
  H  H28  1  0.49066000  0.67964000  0.51344000  1.0
  H  H29  1  0.36276000  0.46675000  0.38483000  1.0
  H  H30  1  0.21455000  0.53309000  0.61519000  1.0
  H  H31  1  0.82939000  0.38483000  0.53332000  1.0
  H  H32  1  0.74742000  0.61521000  0.46678000  1.0
  H  H33  1  0.15989000  0.33214000  0.42680000  1.0
  H  H34  1  0.91901000  0.66770000  0.57319000  1.0
  H  H35  1  0.49190000  0.42677000  0.66803000  1.0
  H  H36  1  0.58671000  0.57324000  0.33206000  1.0
  H  H37  1  0.43273000  0.15552000  0.36333000  1.0
  H  H38  1  0.95189000  0.84437000  0.63653000  1.0
  H  H39  1  0.58835000  0.36333000  0.84463000  1.0
  H  H40  1  0.79631000  0.63661000  0.15543000  1.0
  H  H41  1  0.51670000  0.25656000  0.40965000  1.0
  H  H42  1  0.18317000  0.74329000  0.59024000  1.0
  H  H43  1  0.77331000  0.40963000  0.74347000  1.0
  H  H44  1  0.92638000  0.59041000  0.25659000  1.0
  H  H45  1  0.71055000  0.37186000  0.26507000  1.0
  H  H46  1  0.34773000  0.62806000  0.73485000  1.0
  H  H47  1  0.08230000  0.26516000  0.62811000  1.0
  H  H48  1  0.97565000  0.73492000  0.37181000  1.0
  H  H49  1  0.75879000  0.34990000  0.11814000  1.0
  H  H50  1  0.22715000  0.65011000  0.88179000  1.0
  H  H51  1  0.10881000  0.11820000  0.65005000  1.0
  H  H52  1  0.87709000  0.88187000  0.34989000  1.0
  H  H53  1  0.04801000  0.36675000  0.25215000  1.0
  H  H54  1  0.66714000  0.63316000  0.74792000  1.0
  H  H55  1  0.41482000  0.25207000  0.63330000  1.0
  H  H56  1  0.30017000  0.74790000  0.36669000  1.0
  H  H57  1  0.15542000  0.22020000  0.27080000  1.0
  H  H58  1  0.64669000  0.77972000  0.72922000  1.0
  H  H59  1  0.37554000  0.27075000  0.77991000  1.0
  H  H60  1  0.42627000  0.72925000  0.22011000  1.0
  C  C61  1  0.61162000  0.23494000  0.22693000  1.0
  C  C62  1  0.07370000  0.76501000  0.77299000  1.0
  C  C63  1  0.84660000  0.22692000  0.76509000  1.0
  C  C64  1  0.83858000  0.77311000  0.23485000  1.0
  C  C65  1  0.53114000  0.20788000  0.13517000  1.0
  C  C66  1  0.87445000  0.79208000  0.86476000  1.0
  C  C67  1  0.73900000  0.13520000  0.79220000  1.0
  C  C68  1  0.66631000  0.86486000  0.20785000  1.0
  C  C69  1  0.33908000  0.29903000  0.13467000  1.0
  C  C70  1  0.77305000  0.70093000  0.86533000  1.0
  C  C71  1  0.63805000  0.13467000  0.70108000  1.0
  C  C72  1  0.47378000  0.86537000  0.29900000  1.0
  C  C73  1  0.37641000  0.41580000  0.11055000  1.0
  C  C74  1  0.90303000  0.58422000  0.88949000  1.0
  C  C75  1  0.79215000  0.11054000  0.58428000  1.0
  C  C76  1  0.48705000  0.88947000  0.41576000  1.0
  C  C77  1  0.45695000  0.44306000  0.20178000  1.0
  C  C78  1  0.10204000  0.55692000  0.79824000  1.0
  C  C79  1  0.89995000  0.20178000  0.55699000  1.0
  C  C80  1  0.65883000  0.79824000  0.44298000  1.0
  C  C81  1  0.30694000  0.44639000  0.31864000  1.0
  C  C82  1  0.07220000  0.55354000  0.68138000  1.0
  C  C83  1  0.75322000  0.31864000  0.55371000  1.0
  C  C84  1  0.62555000  0.68142000  0.44631000  1.0
  C  C85  1  0.26789000  0.33045000  0.34334000  1.0
  C  C86  1  0.94191000  0.66946000  0.65662000  1.0
  C  C87  1  0.59826000  0.34333000  0.66969000  1.0
  C  C88  1  0.61126000  0.65669000  0.33035000  1.0
  C  C89  1  0.45935000  0.23886000  0.34342000  1.0
  C  C90  1  0.04193000  0.76104000  0.65649000  1.0
  C  C91  1  0.69826000  0.34340000  0.76125000  1.0
  C  C92  1  0.80288000  0.65661000  0.23879000  1.0
  C  C93  1  0.64939000  0.35248000  0.20107000  1.0
  C  C94  1  0.20322000  0.64749000  0.79888000  1.0
  C  C95  1  0.00190000  0.20109000  0.64752000  1.0
  C  C96  1  0.85058000  0.79896000  0.35241000  1.0
  C  C97  1  0.18635000  0.30254000  0.25291000  1.0
  C  C98  1  0.74205000  0.69739000  0.74712000  1.0
  C  C99  1  0.48884000  0.25287000  0.69757000  1.0
  C  C100  1  0.43930000  0.74714000  0.30246000  1.0
  C  C101  1  0.80810000  0.14879000  0.22319000  1.0
  C  C102  1  0.18000000  0.85130000  0.77678000  1.0
  C  C103  1  0.95693000  0.22316000  0.85125000  1.0
  C  C104  1  0.03130000  0.77684000  0.14866000  1.0
  C  C105  1  0.25274000  0.26962000  0.04945000  1.0
  C  C106  1  0.57205000  0.73037000  0.95060000  1.0
  C  C107  1  0.52239000  0.04941000  0.73050000  1.0
  C  C108  1  0.30226000  0.95061000  0.26956000  1.0
  O  O109  1  0.92846000  0.11830000  0.12528000  1.0
  O  O110  1  0.17187000  0.88180000  0.87468000  1.0
  O  O111  1  0.04681000  0.12529000  0.88170000  1.0
  O  O112  1  0.05379000  0.87476000  0.11832000  1.0
  O  O113  1  0.84528000  0.11524000  0.31585000  1.0
  O  O114  1  0.27610000  0.88499000  0.68411000  1.0
  O  O115  1  0.96042000  0.31584000  0.88486000  1.0
  O  O116  1  0.16104000  0.68421000  0.11495000  1.0
  O  O117  1  0.30118000  0.16946000  0.01466000  1.0
  O  O118  1  0.48520000  0.83057000  0.98518000  1.0
  O  O119  1  0.47064000  0.01460000  0.83062000  1.0
  O  O120  1  0.31590000  0.98536000  0.16939000  1.0
  O  O121  1  0.12483000  0.35153000  0.01682000  1.0
  O  O122  1  0.49363000  0.64838000  0.98341000  1.0
  O  O123  1  0.47653000  0.01675000  0.64851000  1.0
  O  O124  1  0.14169000  0.98324000  0.35149000  1.0
