# generated using pymatgen
data_CaH4C5N2O5
_symmetry_space_group_name_H-M   'P 1'
_cell_length_a   6.40065000
_cell_length_b   9.85196000
_cell_length_c   10.89180000
_cell_angle_alpha   89.99990000
_cell_angle_beta   104.02400000
_cell_angle_gamma   90.00000000
_symmetry_Int_Tables_number   1
_chemical_formula_structural   CaH4C5N2O5
_chemical_formula_sum   'Ca4 H16 C20 N8 O20'
_cell_volume   666.35413766
_cell_formula_units_Z   4
loop_
 _symmetry_equiv_pos_site_id
 _symmetry_equiv_pos_as_xyz
  1  'x, y, z'
loop_
 _atom_site_type_symbol
 _atom_site_label
 _atom_site_symmetry_multiplicity
 _atom_site_fract_x
 _atom_site_fract_y
 _atom_site_fract_z
 _atom_site_occupancy
  Ca  Ca0  1  0.91179000  0.55628000  0.82805000  1.0
  Ca  Ca1  1  0.58821000  0.05628000  0.67195000  1.0
  Ca  Ca2  1  0.08821000  0.44372000  0.17195000  1.0
  Ca  Ca3  1  0.41179000  0.94372000  0.32805000  1.0
  H  H4  1  0.46384000  0.62473000  0.88705000  1.0
  H  H5  1  0.03616000  0.12472000  0.61294000  1.0
  H  H6  1  0.53616000  0.37528000  0.11295000  1.0
  H  H7  1  0.96384000  0.87528000  0.38705000  1.0
  H  H8  1  0.64072000  0.60579000  0.01789000  1.0
  H  H9  1  0.85928000  0.10579000  0.48211000  1.0
  H  H10  1  0.35928000  0.39421000  0.98211000  1.0
  H  H11  1  0.14072000  0.89421000  0.51789000  1.0
  H  H12  1  0.21196000  0.68515000  0.44487000  1.0
  H  H13  1  0.28804000  0.18515000  0.05514000  1.0
  H  H14  1  0.78804000  0.31485000  0.55514000  1.0
  H  H15  1  0.71196000  0.81486000  0.94486000  1.0
  H  H16  1  0.23839000  0.60044000  0.66880000  1.0
  H  H17  1  0.26161000  0.10044000  0.83120000  1.0
  H  H18  1  0.76162000  0.39956000  0.33120000  1.0
  H  H19  1  0.73838000  0.89956000  0.16880000  1.0
  C  C20  1  0.26548000  0.32441000  0.71355000  1.0
  C  C21  1  0.23452000  0.82441000  0.78645000  1.0
  C  C22  1  0.73451000  0.67558000  0.28645000  1.0
  C  C23  1  0.76548000  0.17559000  0.21355000  1.0
  C  C24  1  0.27231000  0.39799000  0.59644000  1.0
  C  C25  1  0.22769000  0.89799000  0.90356000  1.0
  C  C26  1  0.72769000  0.60201000  0.40356000  1.0
  C  C27  1  0.77231000  0.10201000  0.09644000  1.0
  C  C28  1  0.30836000  0.23237000  0.40799000  1.0
  C  C29  1  0.19164000  0.73237000  0.09201000  1.0
  C  C30  1  0.69165000  0.76763000  0.59201000  1.0
  C  C31  1  0.80836000  0.26763000  0.90799000  1.0
  C  C32  1  0.23348000  0.57950000  0.47368000  1.0
  C  C33  1  0.26652000  0.07950000  0.02632000  1.0
  C  C34  1  0.76653000  0.42050000  0.52632000  1.0
  C  C35  1  0.73347000  0.92050000  0.97368000  1.0
  C  C36  1  0.27550000  0.36094000  0.47255000  1.0
  C  C37  1  0.22450000  0.86094000  0.02745000  1.0
  C  C38  1  0.72450000  0.63906000  0.52745000  1.0
  C  C39  1  0.77550000  0.13906000  0.97255000  1.0
  N  N40  1  0.24699000  0.47565000  0.39785000  1.0
  N  N41  1  0.25301000  0.97565000  0.10215000  1.0
  N  N42  1  0.75301000  0.52435000  0.60215000  1.0
  N  N43  1  0.74699000  0.02436000  0.89785000  1.0
  N  N44  1  0.24682000  0.53684000  0.59242000  1.0
  N  N45  1  0.25318000  0.03684000  0.90757000  1.0
  N  N46  1  0.75318000  0.46316000  0.40758000  1.0
  N  N47  1  0.74682000  0.96316000  0.09242000  1.0
  O  O48  1  0.22619000  0.39194000  0.80447000  1.0
  O  O49  1  0.27381000  0.89194000  0.69552000  1.0
  O  O50  1  0.77381000  0.60806000  0.19553000  1.0
  O  O51  1  0.72619000  0.10806000  0.30448000  1.0
  O  O52  1  0.25076000  0.23099000  0.28819000  1.0
  O  O53  1  0.24924000  0.73099000  0.21181000  1.0
  O  O54  1  0.74924000  0.76901000  0.71181000  1.0
  O  O55  1  0.75076000  0.26901000  0.78819000  1.0
  O  O56  1  0.39929000  0.13087000  0.47306000  1.0
  O  O57  1  0.10071000  0.63087000  0.02694000  1.0
  O  O58  1  0.60071000  0.86913000  0.52694000  1.0
  O  O59  1  0.89929000  0.36913000  0.97306000  1.0
  O  O60  1  0.29172000  0.19471000  0.71346000  1.0
  O  O61  1  0.20829000  0.69472000  0.78654000  1.0
  O  O62  1  0.70828000  0.80529000  0.28654000  1.0
  O  O63  1  0.79171000  0.30528000  0.21346000  1.0
  O  O64  1  0.61752000  0.60729000  0.92506000  1.0
  O  O65  1  0.88248000  0.10729000  0.57494000  1.0
  O  O66  1  0.38248000  0.39271000  0.07494000  1.0
  O  O67  1  0.11752000  0.89271000  0.42506000  1.0
