# generated using pymatgen
data_Tb2H13C21N3O14
_symmetry_space_group_name_H-M   'P 1'
_cell_length_a   8.98892000
_cell_length_b   8.98892000
_cell_length_c   14.91050000
_cell_angle_alpha   89.02020000
_cell_angle_beta   89.02020000
_cell_angle_gamma   76.87220000
_symmetry_Int_Tables_number   1
_chemical_formula_structural   Tb2H13C21N3O14
_chemical_formula_sum   'Tb4 H26 C42 N6 O28'
_cell_volume   1173.01314091
_cell_formula_units_Z   2
loop_
 _symmetry_equiv_pos_site_id
 _symmetry_equiv_pos_as_xyz
  1  'x, y, z'
loop_
 _atom_site_type_symbol
 _atom_site_label
 _atom_site_symmetry_multiplicity
 _atom_site_fract_x
 _atom_site_fract_y
 _atom_site_fract_z
 _atom_site_occupancy
  Tb  Tb0  1  0.46573000  0.81109000  0.95844000  1.0
  Tb  Tb1  1  0.18890000  0.53427000  0.54156000  1.0
  Tb  Tb2  1  0.53427000  0.18891000  0.04156000  1.0
  Tb  Tb3  1  0.81109000  0.46573000  0.45844000  1.0
  H  H4  1  0.15043000  0.38561000  0.14975000  1.0
  H  H5  1  0.61439000  0.84957000  0.35025000  1.0
  H  H6  1  0.84957000  0.61439000  0.85025000  1.0
  H  H7  1  0.38561000  0.15043000  0.64976000  1.0
  H  H8  1  0.02614000  0.20293000  0.16061000  1.0
  H  H9  1  0.79707000  0.97386000  0.33939000  1.0
  H  H10  1  0.97386000  0.79707000  0.83939000  1.0
  H  H11  1  0.20293000  0.02614000  0.66061000  1.0
  H  H12  1  0.72366000  0.68064000  0.17673000  1.0
  H  H13  1  0.31936000  0.27634000  0.32327000  1.0
  H  H14  1  0.27634000  0.31936000  0.82327000  1.0
  H  H15  1  0.68064000  0.72366000  0.67673000  1.0
  H  H16  1  0.24972000  0.75028000  0.25000000  1.0
  H  H17  1  0.75028000  0.24972000  0.75000000  1.0
  H  H18  1  0.06122000  0.81109000  0.00124000  1.0
  H  H19  1  0.18891000  0.93878000  0.49876000  1.0
  H  H20  1  0.93879000  0.18891000  0.99876000  1.0
  H  H21  1  0.81109000  0.06121000  0.50124000  1.0
  H  H22  1  0.29355000  0.82169000  0.79305000  1.0
  H  H23  1  0.17831000  0.70645000  0.70695000  1.0
  H  H24  1  0.70645000  0.17831000  0.20695000  1.0
  H  H25  1  0.82169000  0.29355000  0.29305000  1.0
  H  H26  1  0.44802000  0.86270000  0.75714000  1.0
  H  H27  1  0.13730000  0.55198000  0.74286000  1.0
  H  H28  1  0.55198000  0.13730000  0.24287000  1.0
  H  H29  1  0.86270000  0.44802000  0.25713000  1.0
  C  C30  1  0.76740000  0.90984000  0.06497000  1.0
  C  C31  1  0.09016000  0.23260000  0.43503000  1.0
  C  C32  1  0.23261000  0.09017000  0.93503000  1.0
  C  C33  1  0.90983000  0.76739000  0.56496000  1.0
  C  C34  1  0.07380000  0.49395000  0.13101000  1.0
  C  C35  1  0.50605000  0.92620000  0.36899000  1.0
  C  C36  1  0.92620000  0.50605000  0.86899000  1.0
  C  C37  1  0.49395000  0.07380000  0.63101000  1.0
  C  C38  1  0.12218000  0.58965000  0.06718000  1.0
  C  C39  1  0.41035000  0.87782000  0.43282000  1.0
  C  C40  1  0.87782000  0.41035000  0.93282000  1.0
  C  C41  1  0.58965000  0.12218000  0.56718000  1.0
  C  C42  1  0.02864000  0.10014000  0.20088000  1.0
  C  C43  1  0.89986000  0.97136000  0.29912000  1.0
  C  C44  1  0.97136000  0.89986000  0.79912000  1.0
  C  C45  1  0.10014000  0.02864000  0.70088000  1.0
  C  C46  1  0.83746000  0.65843000  0.14590000  1.0
  C  C47  1  0.34157000  0.16254000  0.35410000  1.0
  C  C48  1  0.16255000  0.34157000  0.85410000  1.0
  C  C49  1  0.65843000  0.83745000  0.64590000  1.0
  C  C50  1  0.15625000  0.97790000  0.19841000  1.0
  C  C51  1  0.02210000  0.84375000  0.30159000  1.0
  C  C52  1  0.84375000  0.02209000  0.80159000  1.0
  C  C53  1  0.97790000  0.15625000  0.69841000  1.0
  C  C54  1  0.29022000  0.98287000  0.13782000  1.0
  C  C55  1  0.01714000  0.70978000  0.36218000  1.0
  C  C56  1  0.70978000  0.01715000  0.86218000  1.0
  C  C57  1  0.98286000  0.29022000  0.63782000  1.0
  C  C58  1  0.15219000  0.84781000  0.25000000  1.0
  C  C59  1  0.84781000  0.15219000  0.75000000  1.0
  C  C60  1  0.02432000  0.73015000  0.04698000  1.0
  C  C61  1  0.26985000  0.97568000  0.45302000  1.0
  C  C62  1  0.97568000  0.26985000  0.95302000  1.0
  C  C63  1  0.73015000  0.02432000  0.54698000  1.0
  C  C64  1  0.87807000  0.76351000  0.08552000  1.0
  C  C65  1  0.23649000  0.12193000  0.41447000  1.0
  C  C66  1  0.12193000  0.23649000  0.91448000  1.0
  C  C67  1  0.76351000  0.87807000  0.58552000  1.0
  C  C68  1  0.27400000  0.53842000  0.01988000  1.0
  C  C69  1  0.46158000  0.72600000  0.48012000  1.0
  C  C70  1  0.72601000  0.46157000  0.98013000  1.0
  C  C71  1  0.53843000  0.27399000  0.51988000  1.0
  N  N72  1  0.90284000  0.09715000  0.25000000  1.0
  N  N73  1  0.09715000  0.90285000  0.75000000  1.0
  N  N74  1  0.93509000  0.52854000  0.17056000  1.0
  N  N75  1  0.47145000  0.06491000  0.32944000  1.0
  N  N76  1  0.06491000  0.47146000  0.82944000  1.0
  N  N77  1  0.52855000  0.93510000  0.67056000  1.0
  O  O78  1  0.81144000  0.03232000  0.05696000  1.0
  O  O79  1  0.96768000  0.18856000  0.44303000  1.0
  O  O80  1  0.18856000  0.96767000  0.94304000  1.0
  O  O81  1  0.03232000  0.81144000  0.55696000  1.0
  O  O82  1  0.62422000  0.90817000  0.05871000  1.0
  O  O83  1  0.09183000  0.37578000  0.44129000  1.0
  O  O84  1  0.37578000  0.09184000  0.94129000  1.0
  O  O85  1  0.90816000  0.62422000  0.55871000  1.0
  O  O86  1  0.32870000  0.10973000  0.12710000  1.0
  O  O87  1  0.89027000  0.67130000  0.37290000  1.0
  O  O88  1  0.67129000  0.89027000  0.87290000  1.0
  O  O89  1  0.10973000  0.32870000  0.62710000  1.0
  O  O90  1  0.35102000  0.85744000  0.10000000  1.0
  O  O91  1  0.14256000  0.64898000  0.40000000  1.0
  O  O92  1  0.64898000  0.14256000  0.90000000  1.0
  O  O93  1  0.85744000  0.35102000  0.60000000  1.0
  O  O94  1  0.40264000  0.80953000  0.80831000  1.0
  O  O95  1  0.19047000  0.59736000  0.69169000  1.0
  O  O96  1  0.59736000  0.19048000  0.19170000  1.0
  O  O97  1  0.80952000  0.40264000  0.30831000  1.0
  O  O98  1  0.34443000  0.40079000  0.03388000  1.0
  O  O99  1  0.59921000  0.65557000  0.46612000  1.0
  O  O100  1  0.65557000  0.59922000  0.96612000  1.0
  O  O101  1  0.40078000  0.34443000  0.53388000  1.0
  O  O102  1  0.31935000  0.63129000  0.96729000  1.0
  O  O103  1  0.36871000  0.68065000  0.53271000  1.0
  O  O104  1  0.68066000  0.36872000  0.03271000  1.0
  O  O105  1  0.63128000  0.31934000  0.46729000  1.0
