# generated using pymatgen
data_ZnH12C14(N4Cl)2
_symmetry_space_group_name_H-M   'P 1'
_cell_length_a   6.78652000
_cell_length_b   8.88426000
_cell_length_c   13.93250000
_cell_angle_alpha   100.86800000
_cell_angle_beta   102.01500000
_cell_angle_gamma   94.47340000
_symmetry_Int_Tables_number   1
_chemical_formula_structural   ZnH12C14(N4Cl)2
_chemical_formula_sum   'Zn2 H24 C28 N16 Cl4'
_cell_volume   800.86244817
_cell_formula_units_Z   2
loop_
 _symmetry_equiv_pos_site_id
 _symmetry_equiv_pos_as_xyz
  1  'x, y, z'
loop_
 _atom_site_type_symbol
 _atom_site_label
 _atom_site_symmetry_multiplicity
 _atom_site_fract_x
 _atom_site_fract_y
 _atom_site_fract_z
 _atom_site_occupancy
  Zn  Zn0  1  0.24488000  0.10929000  0.36215000  1.0
  Zn  Zn1  1  0.75512000  0.89071000  0.63786000  1.0
  H  H2  1  0.93591000  0.31251000  0.47383000  1.0
  H  H3  1  0.06408000  0.68749000  0.52617000  1.0
  H  H4  1  0.07815000  0.31033000  0.19410000  1.0
  H  H5  1  0.92185000  0.68967000  0.80590000  1.0
  H  H6  1  0.82629000  0.66280000  0.25653000  1.0
  H  H7  1  0.17371000  0.33720000  0.74346000  1.0
  H  H8  1  0.92104000  0.55210000  0.15974000  1.0
  H  H9  1  0.07896000  0.44790000  0.84026000  1.0
  H  H10  1  0.39844000  0.60632000  0.53386000  1.0
  H  H11  1  0.60156000  0.39368000  0.46614000  1.0
  H  H12  1  0.70065000  0.90661000  0.39621000  1.0
  H  H13  1  0.29935000  0.09339000  0.60379000  1.0
  H  H14  1  0.20268000  0.96860000  0.84210000  1.0
  H  H15  1  0.79732000  0.03140000  0.15790000  1.0
  H  H16  1  0.53985000  0.10295000  0.93726000  1.0
  H  H17  1  0.46015000  0.89705000  0.06274000  1.0
  H  H18  1  0.90505000  0.30667000  0.00855000  1.0
  H  H19  1  0.09495000  0.69333000  0.99145000  1.0
  H  H20  1  0.27482000  0.73649000  0.21252000  1.0
  H  H21  1  0.72518000  0.26351000  0.78748000  1.0
  H  H22  1  0.53481000  0.78979000  0.21763000  1.0
  H  H23  1  0.46518000  0.21021000  0.78238000  1.0
  H  H24  1  0.88618000  0.06399000  0.87987000  1.0
  H  H25  1  0.11382000  0.93601000  0.12013000  1.0
  C  C26  1  0.94082000  0.34097000  0.40185000  1.0
  C  C27  1  0.05918000  0.65903000  0.59815000  1.0
  C  C28  1  0.01498000  0.33546000  0.25962000  1.0
  C  C29  1  0.98502000  0.66453000  0.74038000  1.0
  C  C30  1  0.81745000  0.54715000  0.21045000  1.0
  C  C31  1  0.18255000  0.45285000  0.78955000  1.0
  C  C32  1  0.42642000  0.54582000  0.16395000  1.0
  C  C33  1  0.57358000  0.45418000  0.83605000  1.0
  C  C34  1  0.23385000  0.34251000  0.04469000  1.0
  C  C35  1  0.76615000  0.65749000  0.95531000  1.0
  C  C36  1  0.44589000  0.65895000  0.47686000  1.0
  C  C37  1  0.55411000  0.34105000  0.52314000  1.0
  C  C38  1  0.60677000  0.48048000  0.14930000  1.0
  C  C39  1  0.39323000  0.51953000  0.85070000  1.0
  C  C40  1  0.60181000  0.81474000  0.40987000  1.0
  C  C41  1  0.39819000  0.18526000  0.59013000  1.0
  C  C42  1  0.41546000  0.28226000  0.02644000  1.0
  C  C43  1  0.58454000  0.71775000  0.97356000  1.0
  C  C44  1  0.21256000  0.07225000  0.89984000  1.0
  C  C45  1  0.78744000  0.92775000  0.10016000  1.0
  C  C46  1  0.40110000  0.14694000  0.95187000  1.0
  C  C47  1  0.59890000  0.85305000  0.04813000  1.0
  C  C48  1  0.04201000  0.26178000  0.99159000  1.0
  C  C49  1  0.95799000  0.73822000  0.00841000  1.0
  C  C50  1  0.42744000  0.70123000  0.23084000  1.0
  C  C51  1  0.57256000  0.29877000  0.76916000  1.0
  C  C52  1  0.03277000  0.12817000  0.92082000  1.0
  C  C53  1  0.96723000  0.87183000  0.07918000  1.0
  N  N54  1  0.04622000  0.26627000  0.33775000  1.0
  N  N55  1  0.95377000  0.73373000  0.66225000  1.0
  N  N56  1  0.84713000  0.45209000  0.36741000  1.0
  N  N57  1  0.15287000  0.54791000  0.63258000  1.0
  N  N58  1  0.89664000  0.44660000  0.27692000  1.0
  N  N59  1  0.10336000  0.55340000  0.72308000  1.0
  N  N60  1  0.37705000  0.60518000  0.37928000  1.0
  N  N61  1  0.62295000  0.39481000  0.62072000  1.0
  N  N62  1  0.47897000  0.70504000  0.33813000  1.0
  N  N63  1  0.52103000  0.29496000  0.66187000  1.0
  N  N64  1  0.58533000  0.78750000  0.49920000  1.0
  N  N65  1  0.41467000  0.21250000  0.50080000  1.0
  N  N66  1  0.24496000  0.47676000  0.11255000  1.0
  N  N67  1  0.75504000  0.52324000  0.88745000  1.0
  N  N68  1  0.60002000  0.35407000  0.08056000  1.0
  N  N69  1  0.39998000  0.64593000  0.91944000  1.0
  Cl  Cl70  1  0.07710000  0.88867000  0.37249000  1.0
  Cl  Cl71  1  0.92290000  0.11133000  0.62751000  1.0
  Cl  Cl72  1  0.43668000  0.11031000  0.24888000  1.0
  Cl  Cl73  1  0.56332000  0.88969000  0.75112000  1.0
