# generated using pymatgen
data_AlH9C15N2ClO5
_symmetry_space_group_name_H-M   'P 1'
_cell_length_a   6.64636000
_cell_length_b   16.94430000
_cell_length_c   17.74970000
_cell_angle_alpha   86.62260000
_cell_angle_beta   79.86040000
_cell_angle_gamma   83.26690000
_symmetry_Int_Tables_number   1
_chemical_formula_structural   AlH9C15N2ClO5
_chemical_formula_sum   'Al2 H18 C30 N4 Cl2 O10'
_cell_volume   1952.64511592
_cell_formula_units_Z   2
loop_
 _symmetry_equiv_pos_site_id
 _symmetry_equiv_pos_as_xyz
  1  'x, y, z'
loop_
 _atom_site_type_symbol
 _atom_site_label
 _atom_site_symmetry_multiplicity
 _atom_site_fract_x
 _atom_site_fract_y
 _atom_site_fract_z
 _atom_site_occupancy
  Al  Al0  1  0.50271000  0.50768000  0.49726000  1.0
  Al  Al1  1  0.00329000  0.50482000  0.49710000  1.0
  H  H2  1  0.75252000  0.59644000  0.44483000  1.0
  H  H3  1  0.26672000  0.41311000  0.54216000  1.0
  H  H4  1  0.13199000  0.27004000  0.44682000  1.0
  H  H5  1  0.19643000  0.12120000  0.44671000  1.0
  H  H6  1  0.56589000  0.10746000  0.55196000  1.0
  H  H7  1  0.37489000  0.90086000  0.55583000  1.0
  H  H8  1  0.83663000  0.89319000  0.45351000  1.0
  H  H9  1  0.90165000  0.74452000  0.45513000  1.0
  H  H10  1  0.66081000  0.52490000  0.26449000  1.0
  H  H11  1  0.73552000  0.52454000  0.12123000  1.0
  H  H12  1  0.14201000  0.44400000  0.12322000  1.0
  H  H13  1  0.87383000  0.46881000  0.87785000  1.0
  H  H14  1  0.32904000  0.55970000  0.72441000  1.0
  H  H15  1  0.24098000  0.55391000  0.86743000  1.0
  H  H16  1  0.98383000  0.45223000  0.32754000  1.0
  H  H17  1  0.92371000  0.42655000  0.24168000  1.0
  H  H18  1  0.04831000  0.48050000  0.67309000  1.0
  H  H19  1  0.11525000  0.46047000  0.76408000  1.0
  C  C20  1  0.32630000  0.49374000  0.35840000  1.0
  C  C21  1  0.20375000  0.65007000  0.50077000  1.0
  C  C22  1  0.68002000  0.51491000  0.63588000  1.0
  C  C23  1  0.79628000  0.36174000  0.49811000  1.0
  C  C24  1  0.81662000  0.27295000  0.50052000  1.0
  C  C25  1  0.00990000  0.23332000  0.47013000  1.0
  C  C26  1  0.04625000  0.15118000  0.46992000  1.0
  C  C27  1  0.88457000  0.10590000  0.50023000  1.0
  C  C28  1  0.68953000  0.14357000  0.52894000  1.0
  C  C29  1  0.65628000  0.22629000  0.53067000  1.0
  C  C30  1  0.27258000  0.86608000  0.53329000  1.0
  C  C31  1  0.10310000  0.90533000  0.50443000  1.0
  C  C32  1  0.96737000  0.86178000  0.47597000  1.0
  C  C33  1  0.00446000  0.77964000  0.47689000  1.0
  C  C34  1  0.17367000  0.73856000  0.50550000  1.0
  C  C35  1  0.30625000  0.78321000  0.53517000  1.0
  C  C36  1  0.36286000  0.48537000  0.27470000  1.0
  C  C37  1  0.55045000  0.50593000  0.23242000  1.0
  C  C38  1  0.59263000  0.50579000  0.15331000  1.0
  C  C39  1  0.44122000  0.48458000  0.11329000  1.0
  C  C40  1  0.25671000  0.46118000  0.15437000  1.0
  C  C41  1  0.21245000  0.46093000  0.23514000  1.0
  C  C42  1  0.47511000  0.49069000  0.03214000  1.0
  C  C43  1  0.50830000  0.49971000  0.96247000  1.0
  C  C44  1  0.55293000  0.50829000  0.88151000  1.0
  C  C45  1  0.75427000  0.48898000  0.84397000  1.0
  C  C46  1  0.80758000  0.49309000  0.76324000  1.0
  C  C47  1  0.64640000  0.51672000  0.71995000  1.0
  C  C48  1  0.44611000  0.53917000  0.75918000  1.0
  C  C49  1  0.39637000  0.53568000  0.83816000  1.0
  N  N50  1  0.90260000  0.02190000  0.50337000  1.0
  N  N51  1  0.08303000  0.98930000  0.50539000  1.0
  N  N52  1  0.03263000  0.43539000  0.27271000  1.0
  N  N53  1  0.00602000  0.47214000  0.73061000  1.0
  Cl  Cl54  1  0.41377000  0.26512000  0.57477000  1.0
  Cl  Cl55  1  0.50830000  0.73954000  0.57792000  1.0
  O  O56  1  0.48130000  0.49483000  0.39159000  1.0
  O  O57  1  0.04252000  0.61518000  0.50433000  1.0
  O  O58  1  0.86713000  0.50367000  0.60064000  1.0
  O  O59  1  0.61751000  0.39879000  0.50274000  1.0
  O  O60  1  0.52363000  0.52199000  0.60221000  1.0
  O  O61  1  0.96240000  0.39439000  0.49072000  1.0
  O  O62  1  0.13821000  0.50176000  0.39283000  1.0
  O  O63  1  0.38661000  0.61606000  0.49129000  1.0
  O  O64  1  0.76055000  0.54077000  0.46129000  1.0
  O  O65  1  0.24779000  0.47040000  0.53252000  1.0
