# generated using pymatgen
data_ZnH4C13N3O8
_symmetry_space_group_name_H-M   'P 1'
_cell_length_a   9.99097000
_cell_length_b   10.92930000
_cell_length_c   11.75630000
_cell_angle_alpha   86.65580000
_cell_angle_beta   89.87330000
_cell_angle_gamma   86.64810000
_symmetry_Int_Tables_number   1
_chemical_formula_structural   ZnH4C13N3O8
_chemical_formula_sum   'Zn2 H8 C26 N6 O16'
_cell_volume   1279.34172123
_cell_formula_units_Z   2
loop_
 _symmetry_equiv_pos_site_id
 _symmetry_equiv_pos_as_xyz
  1  'x, y, z'
loop_
 _atom_site_type_symbol
 _atom_site_label
 _atom_site_symmetry_multiplicity
 _atom_site_fract_x
 _atom_site_fract_y
 _atom_site_fract_z
 _atom_site_occupancy
  Zn  Zn0  1  0.63975000  0.49308000  0.49522000  1.0
  Zn  Zn1  1  0.35145000  0.50279000  0.49292000  1.0
  H  H2  1  0.91522000  0.85175000  0.68037000  1.0
  H  H3  1  0.31367000  0.89931000  0.40796000  1.0
  H  H4  1  0.26346000  0.32627000  0.64928000  1.0
  H  H5  1  0.90365000  0.25223000  0.83517000  1.0
  H  H6  1  0.76528000  0.37869000  0.69123000  1.0
  H  H7  1  0.77206000  0.19007000  0.50612000  1.0
  H  H8  1  0.69824000  0.76096000  0.64312000  1.0
  H  H9  1  0.12211000  0.59743000  0.34768000  1.0
  C  C10  1  0.51777000  0.26403000  0.47034000  1.0
  C  C11  1  0.48197000  0.47695000  0.71344000  1.0
  C  C12  1  0.47736000  0.73112000  0.51103000  1.0
  C  C13  1  0.49680000  0.52394000  0.27609000  1.0
  C  C14  1  0.48881000  0.48474000  0.83492000  1.0
  C  C15  1  0.49446000  0.49639000  0.93767000  1.0
  C  C16  1  0.49834000  0.50889000  0.05097000  1.0
  C  C17  1  0.49973000  0.51948000  0.15393000  1.0
  C  C18  1  0.75371000  0.09737000  0.53766000  1.0
  C  C19  1  0.85553000  0.02292000  0.58712000  1.0
  C  C20  1  0.83510000  0.90355000  0.63293000  1.0
  C  C21  1  0.71453000  0.85434000  0.61246000  1.0
  C  C22  1  0.61129000  0.92108000  0.54702000  1.0
  C  C23  1  0.62700000  0.04993000  0.51951000  1.0
  C  C24  1  0.52009000  0.12574000  0.46653000  1.0
  C  C25  1  0.41242000  0.06697000  0.42533000  1.0
  C  C26  1  0.39935000  0.94050000  0.44398000  1.0
  C  C27  1  0.49479000  0.86727000  0.50532000  1.0
  C  C28  1  0.15600000  0.34208000  0.65959000  1.0
  C  C29  1  0.09015000  0.28502000  0.74842000  1.0
  C  C30  1  0.95002000  0.29850000  0.76196000  1.0
  C  C31  1  0.87377000  0.36786000  0.68156000  1.0
  C  C32  1  0.93615000  0.42856000  0.58793000  1.0
  C  C33  1  0.08021000  0.41833000  0.57952000  1.0
  C  C34  1  0.07127000  0.54796000  0.41678000  1.0
  C  C35  1  0.93013000  0.55547000  0.42558000  1.0
  N  N36  1  0.14418000  0.48170000  0.49394000  1.0
  N  N37  1  0.86153000  0.49914000  0.50695000  1.0
  N  N38  1  0.31033000  0.13450000  0.35077000  1.0
  N  N39  1  0.86027000  0.63993000  0.33826000  1.0
  N  N40  1  0.98971000  0.07019000  0.58964000  1.0
  N  N41  1  0.17032000  0.20341000  0.83141000  1.0
  O  O42  1  0.62510000  0.31797000  0.44778000  1.0
  O  O43  1  0.40866000  0.31458000  0.50444000  1.0
  O  O44  1  0.58755000  0.43707000  0.66295000  1.0
  O  O45  1  0.37078000  0.51155000  0.66578000  1.0
  O  O46  1  0.57969000  0.66126000  0.54096000  1.0
  O  O47  1  0.36480000  0.69374000  0.48253000  1.0
  O  O48  1  0.60618000  0.54306000  0.32565000  1.0
  O  O49  1  0.38362000  0.50676000  0.32284000  1.0
  O  O50  1  0.19745000  0.09344000  0.34906000  1.0
  O  O51  1  0.34661000  0.22406000  0.29162000  1.0
  O  O52  1  0.88722000  0.61906000  0.23856000  1.0
  O  O53  1  0.78973000  0.72560000  0.37372000  1.0
  O  O54  1  0.01083000  0.16259000  0.52710000  1.0
  O  O55  1  0.07491000  0.01492000  0.65368000  1.0
  O  O56  1  0.29324000  0.19587000  0.81815000  1.0
  O  O57  1  0.10759000  0.14885000  0.90764000  1.0
