# generated using pymatgen
data_ZnH21C22BrN9O4
_symmetry_space_group_name_H-M   'P 1'
_cell_length_a   16.47390000
_cell_length_b   17.76390000
_cell_length_c   17.92270000
_cell_angle_alpha   90.76470000
_cell_angle_beta   90.76440000
_cell_angle_gamma   97.55690000
_symmetry_Int_Tables_number   1
_chemical_formula_structural   ZnH21C22BrN9O4
_chemical_formula_sum   'Zn2 H42 C44 Br2 N18 O8'
_cell_volume   5198.29227982
_cell_formula_units_Z   2
loop_
 _symmetry_equiv_pos_site_id
 _symmetry_equiv_pos_as_xyz
  1  'x, y, z'
loop_
 _atom_site_type_symbol
 _atom_site_label
 _atom_site_symmetry_multiplicity
 _atom_site_fract_x
 _atom_site_fract_y
 _atom_site_fract_z
 _atom_site_occupancy
  Zn  Zn0  1  0.40869000  0.49094000  0.50246000  1.0
  Zn  Zn1  1  0.58885000  0.50872000  0.49685000  1.0
  H  H2  1  0.99129000  0.50595000  0.58152000  1.0
  H  H3  1  0.00777000  0.49798000  0.41221000  1.0
  H  H4  1  0.42769000  0.00545000  0.44809000  1.0
  H  H5  1  0.57405000  0.99626000  0.55442000  1.0
  H  H6  1  0.38562000  0.52148000  0.73399000  1.0
  H  H7  1  0.38350000  0.52762000  0.87335000  1.0
  H  H8  1  0.62844000  0.46631000  0.88017000  1.0
  H  H9  1  0.37443000  0.52832000  0.11315000  1.0
  H  H10  1  0.61375000  0.48501000  0.26897000  1.0
  H  H11  1  0.62529000  0.48446000  0.13094000  1.0
  H  H12  1  0.66572000  0.58839000  0.61133000  1.0
  H  H13  1  0.76036000  0.63924000  0.62802000  1.0
  H  H14  1  0.94965000  0.60138000  0.61198000  1.0
  H  H15  1  0.86680000  0.59213000  0.66598000  1.0
  H  H16  1  0.64725000  0.43930000  0.38668000  1.0
  H  H17  1  0.70645000  0.36968000  0.39560000  1.0
  H  H18  1  0.91913000  0.39421000  0.42074000  1.0
  H  H19  1  0.83196000  0.38765000  0.36772000  1.0
  H  H20  1  0.14077000  0.57815000  0.64610000  1.0
  H  H21  1  0.14028000  0.64203000  0.58017000  1.0
  H  H22  1  0.35197000  0.57939000  0.59722000  1.0
  H  H23  1  0.26856000  0.61748000  0.62249000  1.0
  H  H24  1  0.06684000  0.42158000  0.35349000  1.0
  H  H25  1  0.14397000  0.36727000  0.35429000  1.0
  H  H26  1  0.33322000  0.38586000  0.41995000  1.0
  H  H27  1  0.26992000  0.40211000  0.34937000  1.0
  H  H28  1  0.34400000  0.30445000  0.51688000  1.0
  H  H29  1  0.30226000  0.22049000  0.55225000  1.0
  H  H30  1  0.33028000  0.04957000  0.53101000  1.0
  H  H31  1  0.28859000  0.12158000  0.49054000  1.0
  H  H32  1  0.63971000  0.33384000  0.51335000  1.0
  H  H33  1  0.68456000  0.25996000  0.47699000  1.0
  H  H34  1  0.63657000  0.07447000  0.48008000  1.0
  H  H35  1  0.68792000  0.15868000  0.51086000  1.0
  H  H36  1  0.35476000  0.91979000  0.46730000  1.0
  H  H37  1  0.31371000  0.83682000  0.50441000  1.0
  H  H38  1  0.35756000  0.66751000  0.48544000  1.0
  H  H39  1  0.32374000  0.73959000  0.43966000  1.0
  H  H40  1  0.66476000  0.95379000  0.48890000  1.0
  H  H41  1  0.70613000  0.87307000  0.47939000  1.0
  H  H42  1  0.65502000  0.69234000  0.50481000  1.0
  H  H43  1  0.69876000  0.77589000  0.54358000  1.0
  C  C44  1  0.49386000  0.35139000  0.50315000  1.0
  C  C45  1  0.48908000  0.50112000  0.35417000  1.0
  C  C46  1  0.50278000  0.64738000  0.49889000  1.0
  C  C47  1  0.50430000  0.49784000  0.64494000  1.0
  C  C48  1  0.75197000  0.46844000  0.44958000  1.0
  C  C49  1  0.83668000  0.46475000  0.45359000  1.0
  C  C50  1  0.88356000  0.50682000  0.51044000  1.0
  C  C51  1  0.84450000  0.55361000  0.55840000  1.0
  C  C52  1  0.76006000  0.55754000  0.54869000  1.0
  C  C53  1  0.97058000  0.50303000  0.52330000  1.0
  C  C54  1  0.02771000  0.49917000  0.47069000  1.0
  C  C55  1  0.15400000  0.44823000  0.43719000  1.0
  C  C56  1  0.11478000  0.49572000  0.48462000  1.0
  C  C57  1  0.16087000  0.53666000  0.54242000  1.0
  C  C58  1  0.24464000  0.52949000  0.55034000  1.0
  C  C59  1  0.23798000  0.44327000  0.44914000  1.0
  C  C60  1  0.49122000  0.26807000  0.50664000  1.0
  C  C61  1  0.56531000  0.23400000  0.50844000  1.0
  C  C62  1  0.56240000  0.15424000  0.50705000  1.0
  C  C63  1  0.48649000  0.10731000  0.49945000  1.0
  C  C64  1  0.41330000  0.14079000  0.50056000  1.0
  C  C65  1  0.41455000  0.21996000  0.50688000  1.0
  C  C66  1  0.47835000  0.02534000  0.48653000  1.0
  C  C67  1  0.52443000  0.97458000  0.51546000  1.0
  C  C68  1  0.58616000  0.85704000  0.50398000  1.0
  C  C69  1  0.51427000  0.89236000  0.50403000  1.0
  C  C70  1  0.43726000  0.84611000  0.49769000  1.0
  C  C71  1  0.43331000  0.76633000  0.49340000  1.0
  C  C72  1  0.50610000  0.73091000  0.49818000  1.0
  C  C73  1  0.58336000  0.77748000  0.50285000  1.0
  C  C74  1  0.50846000  0.49488000  0.72848000  1.0
  C  C75  1  0.43894000  0.51109000  0.76715000  1.0
  C  C76  1  0.43753000  0.51398000  0.84439000  1.0
  C  C77  1  0.50651000  0.49883000  0.88635000  1.0
  C  C78  1  0.57569000  0.48005000  0.84841000  1.0
  C  C79  1  0.57640000  0.47862000  0.77075000  1.0
  C  C80  1  0.50589000  0.50158000  0.96524000  1.0
  C  C81  1  0.50401000  0.50395000  0.03330000  1.0
  C  C82  1  0.50017000  0.50556000  0.11204000  1.0
  C  C83  1  0.42713000  0.51843000  0.14715000  1.0
  C  C84  1  0.42165000  0.51820000  0.22462000  1.0
  C  C85  1  0.48854000  0.50516000  0.27037000  1.0
  C  C86  1  0.56144000  0.49396000  0.23397000  1.0
  C  C87  1  0.56809000  0.49383000  0.15708000  1.0
  Br  Br88  1  0.67150000  0.44807000  0.72579000  1.0
  Br  Br89  1  0.31754000  0.53739000  0.26124000  1.0
  N  N90  1  0.71501000  0.51381000  0.49650000  1.0
  N  N91  1  0.28206000  0.48383000  0.50405000  1.0
  N  N92  1  0.72245000  0.60779000  0.59117000  1.0
  N  N93  1  0.88786000  0.60120000  0.61317000  1.0
  N  N94  1  0.70587000  0.42691000  0.39332000  1.0
  N  N95  1  0.87245000  0.42094000  0.40100000  1.0
  N  N96  1  0.12379000  0.58597000  0.59204000  1.0
  N  N97  1  0.29064000  0.56893000  0.60695000  1.0
  N  N98  1  0.10977000  0.39966000  0.38454000  1.0
  N  N99  1  0.27463000  0.39299000  0.40522000  1.0
  N  N100  1  0.33844000  0.24685000  0.51214000  1.0
  N  N101  1  0.33806000  0.09325000  0.49464000  1.0
  N  N102  1  0.64293000  0.27672000  0.51310000  1.0
  N  N103  1  0.63542000  0.12208000  0.51192000  1.0
  N  N104  1  0.36329000  0.87726000  0.50245000  1.0
  N  N105  1  0.35414000  0.72448000  0.48601000  1.0
  N  N106  1  0.66430000  0.89993000  0.50734000  1.0
  N  N107  1  0.65887000  0.75003000  0.50439000  1.0
  O  O108  1  0.42792000  0.37960000  0.48533000  1.0
  O  O109  1  0.56150000  0.39436000  0.51686000  1.0
  O  O110  1  0.55572000  0.48689000  0.38499000  1.0
  O  O111  1  0.42492000  0.51115000  0.38892000  1.0
  O  O112  1  0.56647000  0.61756000  0.48054000  1.0
  O  O113  1  0.43590000  0.60679000  0.51870000  1.0
  O  O114  1  0.43525000  0.47513000  0.61459000  1.0
  O  O115  1  0.56861000  0.52520000  0.61096000  1.0
