# generated using pymatgen
data_CdH44C60N6(O3F4)2
_symmetry_space_group_name_H-M   'P 1'
_cell_length_a   13.44130000
_cell_length_b   13.44130000
_cell_length_c   16.91360000
_cell_angle_alpha   111.16200000
_cell_angle_beta   111.16200000
_cell_angle_gamma   90.96770000
_symmetry_Int_Tables_number   1
_chemical_formula_structural   CdH44C60N6(O3F4)2
_chemical_formula_sum   'Cd2 H88 C120 N12 O12 F16'
_cell_volume   2619.16187257
_cell_formula_units_Z   2
loop_
 _symmetry_equiv_pos_site_id
 _symmetry_equiv_pos_as_xyz
  1  'x, y, z'
loop_
 _atom_site_type_symbol
 _atom_site_label
 _atom_site_symmetry_multiplicity
 _atom_site_fract_x
 _atom_site_fract_y
 _atom_site_fract_z
 _atom_site_occupancy
  Cd  Cd0  1  0.37429000  0.62571000  0.25000000  1.0
  Cd  Cd1  1  0.62571000  0.37429000  0.75000000  1.0
  H  H2  1  0.15771000  0.51505000  0.06035000  1.0
  H  H3  1  0.48496000  0.84229000  0.43965000  1.0
  H  H4  1  0.84229000  0.48495000  0.93965000  1.0
  H  H5  1  0.51505000  0.15771000  0.56035000  1.0
  H  H6  1  0.33127000  0.82634000  0.19195000  1.0
  H  H7  1  0.17366000  0.66873000  0.30805000  1.0
  H  H8  1  0.66873000  0.17366000  0.80805000  1.0
  H  H9  1  0.82634000  0.33127000  0.69195000  1.0
  H  H10  1  0.01104000  0.56641000  0.94779000  1.0
  H  H11  1  0.43359000  0.98895000  0.55221000  1.0
  H  H12  1  0.98895000  0.43359000  0.05222000  1.0
  H  H13  1  0.56641000  0.01104000  0.44779000  1.0
  H  H14  1  0.19268000  0.89116000  0.08700000  1.0
  H  H15  1  0.10885000  0.80732000  0.41300000  1.0
  H  H16  1  0.80732000  0.10885000  0.91300000  1.0
  H  H17  1  0.89115000  0.19268000  0.58700000  1.0
  H  H18  1  0.92069000  0.72547000  0.93166000  1.0
  H  H19  1  0.27453000  0.07931000  0.56834000  1.0
  H  H20  1  0.07931000  0.27453000  0.06834000  1.0
  H  H21  1  0.72547000  0.92069000  0.43166000  1.0
  H  H22  1  0.00438000  0.73162000  0.87452000  1.0
  H  H23  1  0.26839000  0.99561000  0.62548000  1.0
  H  H24  1  0.99562000  0.26839000  0.12548000  1.0
  H  H25  1  0.73161000  0.00439000  0.37452000  1.0
  H  H26  1  0.47875000  0.62680000  0.45576000  1.0
  H  H27  1  0.37320000  0.52125000  0.04424000  1.0
  H  H28  1  0.52125000  0.37320000  0.54424000  1.0
  H  H29  1  0.62680000  0.47875000  0.95576000  1.0
  H  H30  1  0.60986000  0.58708000  0.26182000  1.0
  H  H31  1  0.41292000  0.39015000  0.23817000  1.0
  H  H32  1  0.39015000  0.41292000  0.73818000  1.0
  H  H33  1  0.58708000  0.60986000  0.76182000  1.0
  H  H34  1  0.66032000  0.63944000  0.57709000  1.0
  H  H35  1  0.36056000  0.33968000  0.92291000  1.0
  H  H36  1  0.33968000  0.36056000  0.42291000  1.0
  H  H37  1  0.63944000  0.66032000  0.07709000  1.0
  H  H38  1  0.79559000  0.59974000  0.37367000  1.0
  H  H39  1  0.40026000  0.20441000  0.12633000  1.0
  H  H40  1  0.20441000  0.40026000  0.62633000  1.0
  H  H41  1  0.59975000  0.79559000  0.87367000  1.0
  H  H42  1  0.84642000  0.62969000  0.61885000  1.0
  H  H43  1  0.37031000  0.15358000  0.88115000  1.0
  H  H44  1  0.15358000  0.37031000  0.38115000  1.0
  H  H45  1  0.62969000  0.84642000  0.11885000  1.0
  H  H46  1  0.89285000  0.72657000  0.58607000  1.0
  H  H47  1  0.27343000  0.10715000  0.91393000  1.0
  H  H48  1  0.10715000  0.27343000  0.41393000  1.0
  H  H49  1  0.72657000  0.89285000  0.08607000  1.0
  H  H50  1  0.30390000  0.26137000  0.25100000  1.0
  H  H51  1  0.73863000  0.69611000  0.24900000  1.0
  H  H52  1  0.69610000  0.73863000  0.74899000  1.0
  H  H53  1  0.26137000  0.30390000  0.75100000  1.0
  H  H54  1  0.12058000  0.20120000  0.23256000  1.0
  H  H55  1  0.79880000  0.87942000  0.26744000  1.0
  H  H56  1  0.87942000  0.79880000  0.76744000  1.0
  H  H57  1  0.20120000  0.12058000  0.73256000  1.0
  H  H58  1  0.08049000  0.03727000  0.25942000  1.0
  H  H59  1  0.96273000  0.91951000  0.24058000  1.0
  H  H60  1  0.91951000  0.96273000  0.74058000  1.0
  H  H61  1  0.03727000  0.08049000  0.75942000  1.0
  H  H62  1  0.22861000  0.93577000  0.30767000  1.0
  H  H63  1  0.06423000  0.77139000  0.19233000  1.0
  H  H64  1  0.77139000  0.06423000  0.69233000  1.0
  H  H65  1  0.93578000  0.22861000  0.80767000  1.0
  H  H66  1  0.41355000  0.99482000  0.32384000  1.0
  H  H67  1  0.00518000  0.58645000  0.17616000  1.0
  H  H68  1  0.58645000  0.00518000  0.67616000  1.0
  H  H69  1  0.99482000  0.41355000  0.82384000  1.0
  H  H70  1  0.48131000  0.33822000  0.37193000  1.0
  H  H71  1  0.66178000  0.51870000  0.12807000  1.0
  H  H72  1  0.51869000  0.66178000  0.62807000  1.0
  H  H73  1  0.33823000  0.48130000  0.87193000  1.0
  H  H74  1  0.66859000  0.39990000  0.39705000  1.0
  H  H75  1  0.60010000  0.33141000  0.10295000  1.0
  H  H76  1  0.33141000  0.60010000  0.60295000  1.0
  H  H77  1  0.39990000  0.66859000  0.89705000  1.0
  H  H78  1  0.77832000  0.26656000  0.33890000  1.0
  H  H79  1  0.73344000  0.22168000  0.16110000  1.0
  H  H80  1  0.22168000  0.73344000  0.66110000  1.0
  H  H81  1  0.26656000  0.77832000  0.83890000  1.0
  H  H82  1  0.69716000  0.07061000  0.25401000  1.0
  H  H83  1  0.92939000  0.30284000  0.24599000  1.0
  H  H84  1  0.30284000  0.92939000  0.74599000  1.0
  H  H85  1  0.07061000  0.69717000  0.75401000  1.0
  H  H86  1  0.51196000  0.00835000  0.23224000  1.0
  H  H87  1  0.99165000  0.48804000  0.26776000  1.0
  H  H88  1  0.48804000  0.99165000  0.76776000  1.0
  H  H89  1  0.00835000  0.51196000  0.73225000  1.0
  C  C90  1  0.16231000  0.59746000  0.06325000  1.0
  C  C91  1  0.40254000  0.83769000  0.43675000  1.0
  C  C92  1  0.83769000  0.40254000  0.93675000  1.0
  C  C93  1  0.59746000  0.16231000  0.56325000  1.0
  C  C94  1  0.25907000  0.77114000  0.13676000  1.0
  C  C95  1  0.22887000  0.74093000  0.36324000  1.0
  C  C96  1  0.74093000  0.22887000  0.86324000  1.0
  C  C97  1  0.77114000  0.25907000  0.63676000  1.0
  C  C98  1  0.08096000  0.62653000  0.00135000  1.0
  C  C99  1  0.37347000  0.91904000  0.49865000  1.0
  C  C100  1  0.91904000  0.37347000  0.99865000  1.0
  C  C101  1  0.62653000  0.08096000  0.50135000  1.0
  C  C102  1  0.18095000  0.80662000  0.07750000  1.0
  C  C103  1  0.19338000  0.81904000  0.42249000  1.0
  C  C104  1  0.81904000  0.19338000  0.92250000  1.0
  C  C105  1  0.80662000  0.18095000  0.57750000  1.0
  C  C106  1  0.08850000  0.73391000  0.00855000  1.0
  C  C107  1  0.26610000  0.91150000  0.49145000  1.0
  C  C108  1  0.91150000  0.26610000  0.99146000  1.0
  C  C109  1  0.73390000  0.08850000  0.50855000  1.0
  C  C110  1  0.99889000  0.76576000  0.94209000  1.0
  C  C111  1  0.23424000  0.00111000  0.55791000  1.0
  C  C112  1  0.00111000  0.23424000  0.05791000  1.0
  C  C113  1  0.76576000  0.99889000  0.44209000  1.0
  C  C114  1  0.99962000  0.88545000  0.97101000  1.0
  C  C115  1  0.11455000  0.00038000  0.52899000  1.0
  C  C116  1  0.00038000  0.11455000  0.02899000  1.0
  C  C117  1  0.88545000  0.99961000  0.47101000  1.0
  C  C118  1  0.95339000  0.94089000  0.03253000  1.0
  C  C119  1  0.05911000  0.04661000  0.46747000  1.0
  C  C120  1  0.04661000  0.05911000  0.96747000  1.0
  C  C121  1  0.94089000  0.95339000  0.53253000  1.0
  C  C122  1  0.95388000  0.05186000  0.06094000  1.0
  C  C123  1  0.94814000  0.04612000  0.43906000  1.0
  C  C124  1  0.04612000  0.94814000  0.93907000  1.0
  C  C125  1  0.05186000  0.95388000  0.56094000  1.0
  C  C126  1  0.55180000  0.62274000  0.44137000  1.0
  C  C127  1  0.37726000  0.44820000  0.05863000  1.0
  C  C128  1  0.44820000  0.37726000  0.55864000  1.0
  C  C129  1  0.62274000  0.55180000  0.94136000  1.0
  C  C130  1  0.62507000  0.60032000  0.33295000  1.0
  C  C131  1  0.39968000  0.37494000  0.16705000  1.0
  C  C132  1  0.37494000  0.39968000  0.66705000  1.0
  C  C133  1  0.60032000  0.62506000  0.83295000  1.0
  C  C134  1  0.65258000  0.63027000  0.50840000  1.0
  C  C135  1  0.36973000  0.34742000  0.99160000  1.0
  C  C136  1  0.34742000  0.36973000  0.49160000  1.0
  C  C137  1  0.63027000  0.65258000  0.00840000  1.0
  C  C138  1  0.72853000  0.60785000  0.39606000  1.0
  C  C139  1  0.39215000  0.27147000  0.10394000  1.0
  C  C140  1  0.27147000  0.39215000  0.60394000  1.0
  C  C141  1  0.60785000  0.72853000  0.89606000  1.0
  C  C142  1  0.74412000  0.62550000  0.48680000  1.0
  C  C143  1  0.37450000  0.25588000  0.01320000  1.0
  C  C144  1  0.25588000  0.37450000  0.51319000  1.0
  C  C145  1  0.62550000  0.74412000  0.98680000  1.0
  C  C146  1  0.85514000  0.64172000  0.56067000  1.0
  C  C147  1  0.35828000  0.14486000  0.93933000  1.0
  C  C148  1  0.14486000  0.35828000  0.43933000  1.0
  C  C149  1  0.64172000  0.85514000  0.06067000  1.0
  C  C150  1  0.92854000  0.56901000  0.52856000  1.0
  C  C151  1  0.43098000  0.07146000  0.97144000  1.0
  C  C152  1  0.07146000  0.43098000  0.47144000  1.0
  C  C153  1  0.56901000  0.92854000  0.02856000  1.0
  C  C154  1  0.93025000  0.46665000  0.53181000  1.0
  C  C155  1  0.53335000  0.06975000  0.96819000  1.0
  C  C156  1  0.06975000  0.53335000  0.46819000  1.0
  C  C157  1  0.46665000  0.93024000  0.03181000  1.0
  C  C158  1  0.00040000  0.40032000  0.50490000  1.0
  C  C159  1  0.59967000  0.99960000  0.99510000  1.0
  C  C160  1  0.99960000  0.59967000  0.49510000  1.0
  C  C161  1  0.40032000  0.00040000  0.00490000  1.0
  C  C162  1  0.37199000  0.13172000  0.28776000  1.0
  C  C163  1  0.86828000  0.62801000  0.21224000  1.0
  C  C164  1  0.62801000  0.86828000  0.71224000  1.0
  C  C165  1  0.13172000  0.37200000  0.78777000  1.0
  C  C166  1  0.28793000  0.18894000  0.26230000  1.0
  C  C167  1  0.81106000  0.71208000  0.23770000  1.0
  C  C168  1  0.71207000  0.81106000  0.73770000  1.0
  C  C169  1  0.18894000  0.28793000  0.76230000  1.0
  C  C170  1  0.18374000  0.15455000  0.25151000  1.0
  C  C171  1  0.84545000  0.81626000  0.24849000  1.0
  C  C172  1  0.81626000  0.84545000  0.74849000  1.0
  C  C173  1  0.15455000  0.18374000  0.75151000  1.0
  C  C174  1  0.16176000  0.06297000  0.26688000  1.0
  C  C175  1  0.93703000  0.83824000  0.23311000  1.0
  C  C176  1  0.83824000  0.93703000  0.73311000  1.0
  C  C177  1  0.06297000  0.16176000  0.76689000  1.0
  C  C178  1  0.24486000  0.00612000  0.29367000  1.0
  C  C179  1  0.99388000  0.75514000  0.20633000  1.0
  C  C180  1  0.75514000  0.99388000  0.70633000  1.0
  C  C181  1  0.00612000  0.24486000  0.79367000  1.0
  C  C182  1  0.34887000  0.03959000  0.30320000  1.0
  C  C183  1  0.96040000  0.65113000  0.19680000  1.0
  C  C184  1  0.65113000  0.96041000  0.69680000  1.0
  C  C185  1  0.03960000  0.34887000  0.80320000  1.0
  C  C186  1  0.48283000  0.16882000  0.30012000  1.0
  C  C187  1  0.83118000  0.51717000  0.19988000  1.0
  C  C188  1  0.51717000  0.83118000  0.69988000  1.0
  C  C189  1  0.16882000  0.48283000  0.80012000  1.0
  C  C190  1  0.52848000  0.27931000  0.34577000  1.0
  C  C191  1  0.72069000  0.47153000  0.15422000  1.0
  C  C192  1  0.47152000  0.72069000  0.65423000  1.0
  C  C193  1  0.27931000  0.52848000  0.84577000  1.0
  C  C194  1  0.63415000  0.31415000  0.36000000  1.0
  C  C195  1  0.68585000  0.36585000  0.14000000  1.0
  C  C196  1  0.36585000  0.68585000  0.64000000  1.0
  C  C197  1  0.31415000  0.63415000  0.86000000  1.0
  C  C198  1  0.69570000  0.23937000  0.32769000  1.0
  C  C199  1  0.76063000  0.30430000  0.17231000  1.0
  C  C200  1  0.30430000  0.76063000  0.67231000  1.0
  C  C201  1  0.23937000  0.69570000  0.82770000  1.0
  C  C202  1  0.65044000  0.12965000  0.28063000  1.0
  C  C203  1  0.87035000  0.34956000  0.21937000  1.0
  C  C204  1  0.34956000  0.87035000  0.71937000  1.0
  C  C205  1  0.12965000  0.65044000  0.78063000  1.0
  C  C206  1  0.54537000  0.09445000  0.26765000  1.0
  C  C207  1  0.90555000  0.45463000  0.23235000  1.0
  C  C208  1  0.45463000  0.90555000  0.73235000  1.0
  C  C209  1  0.09445000  0.54537000  0.76765000  1.0
  N  N210  1  0.25008000  0.66883000  0.13112000  1.0
  N  N211  1  0.33117000  0.74991000  0.36887000  1.0
  N  N212  1  0.74991000  0.33117000  0.86888000  1.0
  N  N213  1  0.66883000  0.25009000  0.63112000  1.0
  N  N214  1  0.53824000  0.60970000  0.35525000  1.0
  N  N215  1  0.39030000  0.46176000  0.14474000  1.0
  N  N216  1  0.46176000  0.39030000  0.64475000  1.0
  N  N217  1  0.60970000  0.53824000  0.85525000  1.0
  N  N218  1  0.53813000  0.77959000  0.23368000  1.0
  N  N219  1  0.22041000  0.46187000  0.26632000  1.0
  N  N220  1  0.46187000  0.22041000  0.76632000  1.0
  N  N221  1  0.77959000  0.53813000  0.73368000  1.0
  O  O222  1  0.49183000  0.80568000  0.29124000  1.0
  O  O223  1  0.19432000  0.50817000  0.20876000  1.0
  O  O224  1  0.50817000  0.19432000  0.70876000  1.0
  O  O225  1  0.80568000  0.49183000  0.79124000  1.0
  O  O226  1  0.51491000  0.68327000  0.17397000  1.0
  O  O227  1  0.31673000  0.48509000  0.32603000  1.0
  O  O228  1  0.48509000  0.31673000  0.82603000  1.0
  O  O229  1  0.68327000  0.51491000  0.67397000  1.0
  O  O230  1  0.60521000  0.84935000  0.23793000  1.0
  O  O231  1  0.15065000  0.39479000  0.26207000  1.0
  O  O232  1  0.39479000  0.15065000  0.76207000  1.0
  O  O233  1  0.84935000  0.60521000  0.73793000  1.0
  F  F234  1  0.90629000  0.88482000  0.06615000  1.0
  F  F235  1  0.11518000  0.09370000  0.43384000  1.0
  F  F236  1  0.09371000  0.11519000  0.93385000  1.0
  F  F237  1  0.88482000  0.90629000  0.56615000  1.0
  F  F238  1  0.91029000  0.09999000  0.12352000  1.0
  F  F239  1  0.90001000  0.08971000  0.37648000  1.0
  F  F240  1  0.08971000  0.90001000  0.87648000  1.0
  F  F241  1  0.09999000  0.91029000  0.62352000  1.0
  F  F242  1  0.86296000  0.43051000  0.56284000  1.0
  F  F243  1  0.56949000  0.13704000  0.93716000  1.0
  F  F244  1  0.13704000  0.56949000  0.43716000  1.0
  F  F245  1  0.43051000  0.86295000  0.06284000  1.0
  F  F246  1  0.99950000  0.30289000  0.51236000  1.0
  F  F247  1  0.69711000  0.00050000  0.98764000  1.0
  F  F248  1  0.00050000  0.69711000  0.48764000  1.0
  F  F249  1  0.30289000  0.99950000  0.01236000  1.0
