# generated using pymatgen
data_CuH8C4(NO2)4
_symmetry_space_group_name_H-M   'P 1'
_cell_length_a   7.48298000
_cell_length_b   8.30741000
_cell_length_c   8.30742000
_cell_angle_alpha   87.70090000
_cell_angle_beta   73.78550000
_cell_angle_gamma   73.78500000
_symmetry_Int_Tables_number   1
_chemical_formula_structural   CuH8C4(NO2)4
_chemical_formula_sum   'Cu2 H16 C8 N8 O16'
_cell_volume   475.75477392
_cell_formula_units_Z   2
loop_
 _symmetry_equiv_pos_site_id
 _symmetry_equiv_pos_as_xyz
  1  'x, y, z'
loop_
 _atom_site_type_symbol
 _atom_site_label
 _atom_site_symmetry_multiplicity
 _atom_site_fract_x
 _atom_site_fract_y
 _atom_site_fract_z
 _atom_site_occupancy
  Cu  Cu0  1  0.50000000  0.00000000  0.50000000  1.0
  Cu  Cu1  1  0.00000000  0.50000000  0.00000000  1.0
  H  H2  1  0.25001000  0.62120000  0.37879000  1.0
  H  H3  1  0.74999000  0.37879000  0.62122000  1.0
  H  H4  1  0.25000000  0.19828000  0.80172000  1.0
  H  H5  1  0.75001000  0.80172000  0.19827000  1.0
  H  H6  1  0.46943000  0.32551000  0.31168000  1.0
  H  H7  1  0.03056000  0.68832000  0.67450000  1.0
  H  H8  1  0.53057000  0.67450000  0.68832000  1.0
  H  H9  1  0.96943000  0.31168000  0.32550000  1.0
  H  H10  1  0.50995000  0.90965000  0.80300000  1.0
  H  H11  1  0.99004000  0.19701000  0.09036000  1.0
  H  H12  1  0.49005000  0.09035000  0.19700000  1.0
  H  H13  1  0.00996000  0.80299000  0.90964000  1.0
  H  H14  1  0.69333000  0.98251000  0.73168000  1.0
  H  H15  1  0.80667000  0.26832000  0.01749000  1.0
  H  H16  1  0.30667000  0.01749000  0.26832000  1.0
  H  H17  1  0.19333000  0.73168000  0.98251000  1.0
  C  C18  1  0.24998000  0.52672000  0.47329000  1.0
  C  C19  1  0.75001000  0.47328000  0.52672000  1.0
  C  C20  1  0.25000000  0.29242000  0.70759000  1.0
  C  C21  1  0.75001000  0.70758000  0.29241000  1.0
  C  C22  1  0.36989000  0.36406000  0.43584000  1.0
  C  C23  1  0.13012000  0.56414000  0.63593000  1.0
  C  C24  1  0.63012000  0.63593000  0.56416000  1.0
  C  C25  1  0.86988000  0.43586000  0.36407000  1.0
  N  N26  1  0.36565000  0.24671000  0.55237000  1.0
  N  N27  1  0.13434000  0.44765000  0.75329000  1.0
  N  N28  1  0.63435000  0.75330000  0.44764000  1.0
  N  N29  1  0.86566000  0.55236000  0.24671000  1.0
  N  N30  1  0.04161000  0.00482000  0.68561000  1.0
  N  N31  1  0.45838000  0.31440000  0.99518000  1.0
  N  N32  1  0.95839000  0.99518000  0.31439000  1.0
  N  N33  1  0.54162000  0.68560000  0.00482000  1.0
  O  O34  1  0.55900000  0.99275000  0.72521000  1.0
  O  O35  1  0.94100000  0.27479000  0.00725000  1.0
  O  O36  1  0.44100000  0.00725000  0.27479000  1.0
  O  O37  1  0.05900000  0.72521000  0.99275000  1.0
  O  O38  1  0.21658000  0.92678000  0.67455000  1.0
  O  O39  1  0.28342000  0.32546000  0.07321000  1.0
  O  O40  1  0.78342000  0.07322000  0.32546000  1.0
  O  O41  1  0.71659000  0.67454000  0.92678000  1.0
  O  O42  1  0.90941000  0.94273000  0.77913000  1.0
  O  O43  1  0.59058000  0.22087000  0.05726000  1.0
  O  O44  1  0.09059000  0.05727000  0.22087000  1.0
  O  O45  1  0.40942000  0.77913000  0.94274000  1.0
  O  O46  1  0.99532000  0.13591000  0.61080000  1.0
  O  O47  1  0.50466000  0.38921000  0.86409000  1.0
  O  O48  1  0.00468000  0.86408000  0.38920000  1.0
  O  O49  1  0.49534000  0.61079000  0.13591000  1.0
