# generated using pymatgen
data_ZnH8C11Br2NO4
_symmetry_space_group_name_H-M   'P 1'
_cell_length_a   9.65209000
_cell_length_b   10.99130000
_cell_length_c   11.05960000
_cell_angle_alpha   90.32910000
_cell_angle_beta   90.87800000
_cell_angle_gamma   110.19400000
_symmetry_Int_Tables_number   1
_chemical_formula_structural   ZnH8C11Br2NO4
_chemical_formula_sum   'Zn2 H16 C22 Br4 N2 O8'
_cell_volume   1100.97284932
_cell_formula_units_Z   2
loop_
 _symmetry_equiv_pos_site_id
 _symmetry_equiv_pos_as_xyz
  1  'x, y, z'
loop_
 _atom_site_type_symbol
 _atom_site_label
 _atom_site_symmetry_multiplicity
 _atom_site_fract_x
 _atom_site_fract_y
 _atom_site_fract_z
 _atom_site_occupancy
  Zn  Zn0  1  0.65338000  0.53529000  0.51157000  1.0
  Zn  Zn1  1  0.34430000  0.46547000  0.50119000  1.0
  H  H2  1  0.21201000  0.61996000  0.63138000  1.0
  H  H3  1  0.61952000  0.25809000  0.70825000  1.0
  H  H4  1  0.76794000  0.95044000  0.41593000  1.0
  H  H5  1  0.60868000  0.95227000  0.33621000  1.0
  H  H6  1  0.69462000  0.07667000  0.44464000  1.0
  H  H7  1  0.21952000  0.04996000  0.44166000  1.0
  H  H8  1  0.35667000  0.01431000  0.35860000  1.0
  H  H9  1  0.27983000  0.91976000  0.48613000  1.0
  H  H10  1  0.78452000  0.38000000  0.37982000  1.0
  H  H11  1  0.31819000  0.32559000  0.12590000  1.0
  H  H12  1  0.67607000  0.66969000  0.88796000  1.0
  H  H13  1  0.46282000  0.91269000  0.79953000  1.0
  H  H14  1  0.30567000  0.84759000  0.70543000  1.0
  H  H15  1  0.43389000  0.76390000  0.72070000  1.0
  H  H16  1  0.62028000  0.11549000  0.78476000  1.0
  H  H17  1  0.74372000  0.17831000  0.66628000  1.0
  C  C18  1  0.50287000  0.50232000  0.27066000  1.0
  C  C19  1  0.57230000  0.89075000  0.52186000  1.0
  C  C20  1  0.51995000  0.07616000  0.60790000  1.0
  C  C21  1  0.50744000  0.93703000  0.60975000  1.0
  C  C22  1  0.39680000  0.40104000  0.07331000  1.0
  C  C23  1  0.59760000  0.59450000  0.94086000  1.0
  C  C24  1  0.39088000  0.39424000  0.94747000  1.0
  C  C25  1  0.60405000  0.60075000  0.06656000  1.0
  C  C26  1  0.49074000  0.49197000  0.87921000  1.0
  C  C27  1  0.50325000  0.50383000  0.13476000  1.0
  C  C28  1  0.42371000  0.85986000  0.71376000  1.0
  C  C29  1  0.49067000  0.49622000  0.74339000  1.0
  C  C30  1  0.63055000  0.16302000  0.69639000  1.0
  C  C31  1  0.66618000  0.97302000  0.42488000  1.0
  C  C32  1  0.31535000  0.01838000  0.45040000  1.0
  C  C33  1  0.44697000  0.25170000  0.51657000  1.0
  C  C34  1  0.55632000  0.75046000  0.51511000  1.0
  C  C35  1  0.11591000  0.56668000  0.57601000  1.0
  C  C36  1  0.88086000  0.43343000  0.43503000  1.0
  C  C37  1  0.98525000  0.59465000  0.57713000  1.0
  C  C38  1  0.01199000  0.40616000  0.43315000  1.0
  C  C39  1  0.43235000  0.11266000  0.52982000  1.0
  Br  Br40  1  0.97356000  0.72948000  0.67674000  1.0
  Br  Br41  1  0.02377000  0.27253000  0.33201000  1.0
  Br  Br42  1  0.24898000  0.24467000  0.87425000  1.0
  Br  Br43  1  0.74872000  0.74772000  0.14113000  1.0
  N  N44  1  0.86914000  0.52768000  0.50737000  1.0
  N  N45  1  0.12801000  0.47284000  0.50331000  1.0
  O  O46  1  0.62394000  0.51483000  0.32480000  1.0
  O  O47  1  0.36666000  0.46843000  0.68907000  1.0
  O  O48  1  0.37885000  0.48538000  0.31874000  1.0
  O  O49  1  0.61730000  0.53130000  0.69545000  1.0
  O  O50  1  0.57724000  0.33563000  0.51917000  1.0
  O  O51  1  0.42616000  0.66714000  0.51818000  1.0
  O  O52  1  0.32889000  0.27779000  0.50003000  1.0
  O  O53  1  0.67403000  0.72354000  0.50307000  1.0
