# generated using pymatgen
data_ZnH6C8N5O2
_symmetry_space_group_name_H-M   'P 1'
_cell_length_a   6.03083000
_cell_length_b   10.93780000
_cell_length_c   14.24850000
_cell_angle_alpha   90.56350000
_cell_angle_beta   90.00000000
_cell_angle_gamma   89.99990000
_symmetry_Int_Tables_number   1
_chemical_formula_structural   ZnH6C8N5O2
_chemical_formula_sum   'Zn4 H24 C32 N20 O8'
_cell_volume   939.84277493
_cell_formula_units_Z   4
loop_
 _symmetry_equiv_pos_site_id
 _symmetry_equiv_pos_as_xyz
  1  'x, y, z'
loop_
 _atom_site_type_symbol
 _atom_site_label
 _atom_site_symmetry_multiplicity
 _atom_site_fract_x
 _atom_site_fract_y
 _atom_site_fract_z
 _atom_site_occupancy
  Zn  Zn0  1  0.98021000  0.45510000  0.83128000  1.0
  Zn  Zn1  1  0.48019000  0.04490000  0.16872000  1.0
  Zn  Zn2  1  0.01980000  0.54490000  0.16872000  1.0
  Zn  Zn3  1  0.51981000  0.95510000  0.83128000  1.0
  H  H4  1  0.45688000  0.65244000  0.93580000  1.0
  H  H5  1  0.95687000  0.84755000  0.06420000  1.0
  H  H6  1  0.54313000  0.34755000  0.06420000  1.0
  H  H7  1  0.04313000  0.15244000  0.93581000  1.0
  H  H8  1  0.62704000  0.76534000  0.98804000  1.0
  H  H9  1  0.12704000  0.73467000  0.01195000  1.0
  H  H10  1  0.37298000  0.23467000  0.01195000  1.0
  H  H11  1  0.87297000  0.26533000  0.98805000  1.0
  H  H12  1  0.95974000  0.35415000  0.62343000  1.0
  H  H13  1  0.45973000  0.14585000  0.37658000  1.0
  H  H14  1  0.04025000  0.64585000  0.37657000  1.0
  H  H15  1  0.54025000  0.85416000  0.62343000  1.0
  H  H16  1  0.17233000  0.37918000  0.47667000  1.0
  H  H17  1  0.67233000  0.12082000  0.52333000  1.0
  H  H18  1  0.82766000  0.62081000  0.52332000  1.0
  H  H19  1  0.32766000  0.87919000  0.47668000  1.0
  H  H20  1  0.64801000  0.59222000  0.63767000  1.0
  H  H21  1  0.14799000  0.90778000  0.36233000  1.0
  H  H22  1  0.35200000  0.40778000  0.36232000  1.0
  H  H23  1  0.85199000  0.09222000  0.63768000  1.0
  H  H24  1  0.41636000  0.55461000  0.77707000  1.0
  H  H25  1  0.91635000  0.94540000  0.22293000  1.0
  H  H26  1  0.58364000  0.44539000  0.22293000  1.0
  H  H27  1  0.08364000  0.05461000  0.77707000  1.0
  C  C28  1  0.73881000  0.70276000  0.85558000  1.0
  C  C29  1  0.23880000  0.79724000  0.14442000  1.0
  C  C30  1  0.26121000  0.29724000  0.14442000  1.0
  C  C31  1  0.76120000  0.20276000  0.85558000  1.0
  C  C32  1  0.63081000  0.67969000  0.94761000  1.0
  C  C33  1  0.13080000  0.82031000  0.05238000  1.0
  C  C34  1  0.36921000  0.32032000  0.05239000  1.0
  C  C35  1  0.86920000  0.17968000  0.94761000  1.0
  C  C36  1  0.73657000  0.57831000  0.00519000  1.0
  C  C37  1  0.23657000  0.92171000  0.99482000  1.0
  C  C38  1  0.26346000  0.42171000  0.99482000  1.0
  C  C39  1  0.76343000  0.07831000  0.00519000  1.0
  C  C40  1  0.11495000  0.40553000  0.62315000  1.0
  C  C41  1  0.61494000  0.09447000  0.37686000  1.0
  C  C42  1  0.88505000  0.59446000  0.37685000  1.0
  C  C43  1  0.38505000  0.90554000  0.62315000  1.0
  C  C44  1  0.23583000  0.42083000  0.54105000  1.0
  C  C45  1  0.73582000  0.07917000  0.45895000  1.0
  C  C46  1  0.76417000  0.57915000  0.45895000  1.0
  C  C47  1  0.26417000  0.92084000  0.54106000  1.0
  C  C48  1  0.43249000  0.49006000  0.54266000  1.0
  C  C49  1  0.93248000  0.00992000  0.45733000  1.0
  C  C50  1  0.56752000  0.50991000  0.45732000  1.0
  C  C51  1  0.06750000  0.99008000  0.54268000  1.0
  C  C52  1  0.49625000  0.53945000  0.62970000  1.0
  C  C53  1  0.99624000  0.96054000  0.37030000  1.0
  C  C54  1  0.50376000  0.46053000  0.37029000  1.0
  C  C55  1  0.00375000  0.03946000  0.62971000  1.0
  C  C56  1  0.36719000  0.51878000  0.70856000  1.0
  C  C57  1  0.86719000  0.98122000  0.29144000  1.0
  C  C58  1  0.63280000  0.48121000  0.29143000  1.0
  C  C59  1  0.13281000  0.01878000  0.70857000  1.0
  N  N60  1  0.87635000  0.62846000  0.80759000  1.0
  N  N61  1  0.37634000  0.87153000  0.19241000  1.0
  N  N62  1  0.12366000  0.37153000  0.19240000  1.0
  N  N63  1  0.62366000  0.12847000  0.80760000  1.0
  N  N64  1  0.92883000  0.68654000  0.72632000  1.0
  N  N65  1  0.42881000  0.81345000  0.27368000  1.0
  N  N66  1  0.07117000  0.31345000  0.27367000  1.0
  N  N67  1  0.57117000  0.18655000  0.72633000  1.0
  N  N68  1  0.82694000  0.79118000  0.72501000  1.0
  N  N69  1  0.32692000  0.70881000  0.27499000  1.0
  N  N70  1  0.17306000  0.20882000  0.27499000  1.0
  N  N71  1  0.67306000  0.29118000  0.72501000  1.0
  N  N72  1  0.70702000  0.80442000  0.80497000  1.0
  N  N73  1  0.20702000  0.69557000  0.19502000  1.0
  N  N74  1  0.29298000  0.19558000  0.19502000  1.0
  N  N75  1  0.79299000  0.30442000  0.80498000  1.0
  N  N76  1  0.17855000  0.45368000  0.70610000  1.0
  N  N77  1  0.67856000  0.04631000  0.29390000  1.0
  N  N78  1  0.82144000  0.54631000  0.29389000  1.0
  N  N79  1  0.32145000  0.95369000  0.70611000  1.0
  O  O80  1  0.78043000  0.47701000  0.96679000  1.0
  O  O81  1  0.28040000  0.02299000  0.03321000  1.0
  O  O82  1  0.21963000  0.52300000  0.03321000  1.0
  O  O83  1  0.71960000  0.97700000  0.96679000  1.0
  O  O84  1  0.76696000  0.60457000  0.09211000  1.0
  O  O85  1  0.26695000  0.89544000  0.90788000  1.0
  O  O86  1  0.23305000  0.39544000  0.90789000  1.0
  O  O87  1  0.73304000  0.10456000  0.09211000  1.0
