# generated using pymatgen
data_HgH20C26(BrN3)2
_symmetry_space_group_name_H-M   'P 1'
_cell_length_a   7.02638000
_cell_length_b   9.09810000
_cell_length_c   21.50950000
_cell_angle_alpha   92.26950000
_cell_angle_beta   90.00000000
_cell_angle_gamma   112.71500000
_symmetry_Int_Tables_number   1
_chemical_formula_structural   HgH20C26(BrN3)2
_chemical_formula_sum   'Hg2 H40 C52 Br4 N12'
_cell_volume   1267.21066938
_cell_formula_units_Z   2
loop_
 _symmetry_equiv_pos_site_id
 _symmetry_equiv_pos_as_xyz
  1  'x, y, z'
loop_
 _atom_site_type_symbol
 _atom_site_label
 _atom_site_symmetry_multiplicity
 _atom_site_fract_x
 _atom_site_fract_y
 _atom_site_fract_z
 _atom_site_occupancy
  Hg  Hg0  1  0.40266000  0.99992000  0.24995000  1.0
  Hg  Hg1  1  0.59734000  0.00008000  0.75004000  1.0
  H  H2  1  0.02135000  0.87236000  0.33647000  1.0
  H  H3  1  0.14866000  0.12712000  0.16360000  1.0
  H  H4  1  0.97865000  0.12764000  0.66353000  1.0
  H  H5  1  0.85134000  0.87289000  0.83640000  1.0
  H  H6  1  0.76700000  0.93271000  0.39898000  1.0
  H  H7  1  0.83420000  0.06700000  0.10103000  1.0
  H  H8  1  0.23301000  0.06729000  0.60103000  1.0
  H  H9  1  0.16580000  0.93300000  0.89897000  1.0
  H  H10  1  0.10166000  0.43240000  0.35807000  1.0
  H  H11  1  0.66870000  0.56722000  0.14191000  1.0
  H  H12  1  0.89834000  0.56759000  0.64193000  1.0
  H  H13  1  0.33130000  0.43279000  0.85809000  1.0
  H  H14  1  0.33590000  0.34533000  0.29506000  1.0
  H  H15  1  0.99000000  0.65407000  0.20490000  1.0
  H  H16  1  0.66410000  0.65466000  0.70494000  1.0
  H  H17  1  0.01000000  0.34594000  0.79510000  1.0
  H  H18  1  0.75679000  0.40618000  0.52420000  1.0
  H  H19  1  0.34977000  0.59352000  0.97571000  1.0
  H  H20  1  0.24322000  0.59382000  0.47580000  1.0
  H  H21  1  0.65024000  0.40648000  0.02429000  1.0
  H  H22  1  0.73009000  0.67128000  0.52154000  1.0
  H  H23  1  0.05817000  0.32839000  0.97845000  1.0
  H  H24  1  0.26990000  0.32872000  0.47846000  1.0
  H  H25  1  0.94183000  0.67161000  0.02155000  1.0
  H  H26  1  0.70526000  0.65133000  0.32908000  1.0
  H  H27  1  0.05393000  0.34843000  0.17089000  1.0
  H  H28  1  0.29473000  0.34866000  0.67092000  1.0
  H  H29  1  0.94606000  0.65157000  0.82911000  1.0
  H  H30  1  0.74456000  0.39076000  0.32282000  1.0
  H  H31  1  0.35380000  0.60897000  0.17709000  1.0
  H  H32  1  0.25544000  0.60924000  0.67718000  1.0
  H  H33  1  0.64620000  0.39103000  0.82291000  1.0
  H  H34  1  0.36905000  0.11114000  0.41398000  1.0
  H  H35  1  0.25810000  0.88886000  0.08604000  1.0
  H  H36  1  0.63096000  0.88886000  0.58602000  1.0
  H  H37  1  0.74189000  0.11114000  0.91395000  1.0
  H  H38  1  0.87908000  0.09129000  0.51922000  1.0
  H  H39  1  0.78747000  0.90846000  0.98061000  1.0
  H  H40  1  0.12093000  0.90871000  0.48078000  1.0
  H  H41  1  0.21252000  0.09154000  0.01939000  1.0
  C  C42  1  0.03175000  0.99505000  0.34195000  1.0
  C  C43  1  0.03645000  0.00443000  0.15805000  1.0
  C  C44  1  0.96825000  0.00494000  0.65805000  1.0
  C  C45  1  0.96355000  0.99557000  0.84195000  1.0
  C  C46  1  0.88943000  0.03019000  0.37733000  1.0
  C  C47  1  0.85909000  0.96942000  0.12263000  1.0
  C  C48  1  0.11057000  0.96980000  0.62267000  1.0
  C  C49  1  0.14092000  0.03058000  0.87737000  1.0
  C  C50  1  0.91038000  0.19040000  0.38526000  1.0
  C  C51  1  0.71977000  0.80926000  0.11466000  1.0
  C  C52  1  0.08962000  0.80960000  0.61474000  1.0
  C  C53  1  0.28023000  0.19075000  0.88534000  1.0
  C  C54  1  0.07519000  0.30629000  0.35464000  1.0
  C  C55  1  0.76846000  0.69330000  0.14532000  1.0
  C  C56  1  0.92480000  0.69371000  0.64536000  1.0
  C  C57  1  0.23154000  0.30671000  0.85468000  1.0
  C  C58  1  0.20792000  0.25829000  0.31937000  1.0
  C  C59  1  0.94912000  0.74118000  0.18061000  1.0
  C  C60  1  0.79208000  0.74170000  0.68063000  1.0
  C  C61  1  0.05088000  0.25883000  0.81939000  1.0
  C  C62  1  0.75966000  0.37964000  0.42346000  1.0
  C  C63  1  0.37968000  0.62011000  0.07645000  1.0
  C  C64  1  0.24033000  0.62036000  0.57654000  1.0
  C  C65  1  0.62033000  0.37989000  0.92355000  1.0
  C  C66  1  0.75134000  0.45885000  0.47994000  1.0
  C  C67  1  0.29184000  0.54089000  0.01999000  1.0
  C  C68  1  0.24867000  0.54115000  0.52006000  1.0
  C  C69  1  0.70816000  0.45911000  0.98001000  1.0
  C  C70  1  0.73414000  0.60609000  0.47812000  1.0
  C  C71  1  0.12755000  0.39358000  0.02185000  1.0
  C  C72  1  0.26586000  0.39391000  0.52188000  1.0
  C  C73  1  0.87246000  0.60642000  0.97815000  1.0
  C  C74  1  0.72429000  0.59625000  0.37162000  1.0
  C  C75  1  0.12783000  0.40348000  0.12833000  1.0
  C  C76  1  0.27571000  0.40375000  0.62838000  1.0
  C  C77  1  0.87217000  0.59652000  0.87167000  1.0
  C  C78  1  0.74521000  0.45023000  0.36791000  1.0
  C  C79  1  0.29480000  0.54950000  0.13201000  1.0
  C  C80  1  0.25479000  0.54977000  0.63208000  1.0
  C  C81  1  0.70520000  0.45050000  0.86799000  1.0
  C  C82  1  0.63769000  0.11299000  0.46272000  1.0
  C  C83  1  0.52465000  0.88682000  0.03722000  1.0
  C  C84  1  0.36231000  0.88701000  0.53728000  1.0
  C  C85  1  0.47534000  0.11318000  0.96278000  1.0
  C  C86  1  0.42509000  0.06332000  0.45229000  1.0
  C  C87  1  0.36198000  0.93671000  0.04773000  1.0
  C  C88  1  0.57491000  0.93668000  0.54771000  1.0
  C  C89  1  0.63802000  0.06329000  0.95227000  1.0
  C  C90  1  0.71327000  0.04996000  0.51059000  1.0
  C  C91  1  0.66311000  0.94986000  0.98930000  1.0
  C  C92  1  0.28673000  0.95004000  0.48941000  1.0
  C  C93  1  0.33688000  0.05014000  0.01070000  1.0
  Br  Br94  1  0.36215000  0.74427000  0.30203000  1.0
  Br  Br95  1  0.61857000  0.25532000  0.19789000  1.0
  Br  Br96  1  0.63784000  0.25572000  0.69796000  1.0
  Br  Br97  1  0.38143000  0.74468000  0.80211000  1.0
  N  N98  1  0.19010000  0.10571000  0.31334000  1.0
  N  N99  1  0.08404000  0.89372000  0.18664000  1.0
  N  N100  1  0.80989000  0.89428000  0.68666000  1.0
  N  N101  1  0.91596000  0.10628000  0.81336000  1.0
  N  N102  1  0.77598000  0.22936000  0.42334000  1.0
  N  N103  1  0.54645000  0.77032000  0.07655000  1.0
  N  N104  1  0.22401000  0.77064000  0.57666000  1.0
  N  N105  1  0.45355000  0.22968000  0.92345000  1.0
  N  N106  1  0.72020000  0.67552000  0.42538000  1.0
  N  N107  1  0.04430000  0.32416000  0.07461000  1.0
  N  N108  1  0.27980000  0.32448000  0.57462000  1.0
  N  N109  1  0.95570000  0.67584000  0.92539000  1.0
