# generated using pymatgen
data_GdH6C6SNO8
_symmetry_space_group_name_H-M   'P 1'
_cell_length_a   6.38821000
_cell_length_b   7.69792000
_cell_length_c   20.33500000
_cell_angle_alpha   89.99970000
_cell_angle_beta   89.99980000
_cell_angle_gamma   73.89400000
_symmetry_Int_Tables_number   1
_chemical_formula_structural   GdH6C6SNO8
_chemical_formula_sum   'Gd4 H24 C24 S4 N4 O32'
_cell_volume   960.74292873
_cell_formula_units_Z   4
loop_
 _symmetry_equiv_pos_site_id
 _symmetry_equiv_pos_as_xyz
  1  'x, y, z'
loop_
 _atom_site_type_symbol
 _atom_site_label
 _atom_site_symmetry_multiplicity
 _atom_site_fract_x
 _atom_site_fract_y
 _atom_site_fract_z
 _atom_site_occupancy
  Gd  Gd0  1  0.30793000  0.14928000  0.57075000  1.0
  Gd  Gd1  1  0.19207000  0.85073000  0.07075000  1.0
  Gd  Gd2  1  0.69207000  0.85073000  0.42925000  1.0
  Gd  Gd3  1  0.80794000  0.14927000  0.92925000  1.0
  H  H4  1  0.56178000  0.51653000  0.66727000  1.0
  H  H5  1  0.93821000  0.48348000  0.16727000  1.0
  H  H6  1  0.43820000  0.48348000  0.33273000  1.0
  H  H7  1  0.06179000  0.51651000  0.83273000  1.0
  H  H8  1  0.63904000  0.30800000  0.76522000  1.0
  H  H9  1  0.86095000  0.69201000  0.26522000  1.0
  H  H10  1  0.36095000  0.69201000  0.23478000  1.0
  H  H11  1  0.13905000  0.30798000  0.73478000  1.0
  H  H12  1  0.41517000  0.96558000  0.80379000  1.0
  H  H13  1  0.08483000  0.03442000  0.30379000  1.0
  H  H14  1  0.58483000  0.03442000  0.19621000  1.0
  H  H15  1  0.91517000  0.96557000  0.69621000  1.0
  H  H16  1  0.50382000  0.73772000  0.89640000  1.0
  H  H17  1  0.99617000  0.26229000  0.39640000  1.0
  H  H18  1  0.49618000  0.26229000  0.10360000  1.0
  H  H19  1  0.00382000  0.73771000  0.60360000  1.0
  H  H20  1  0.39128000  0.31115000  0.44379000  1.0
  H  H21  1  0.10873000  0.68886000  0.94379000  1.0
  H  H22  1  0.60872000  0.68886000  0.55621000  1.0
  H  H23  1  0.89127000  0.31114000  0.05621000  1.0
  H  H24  1  0.25316000  0.48550000  0.48547000  1.0
  H  H25  1  0.24684000  0.51450000  0.98547000  1.0
  H  H26  1  0.74684000  0.51450000  0.51453000  1.0
  H  H27  1  0.75316000  0.48550000  0.01453000  1.0
  C  C28  1  0.43137000  0.89362000  0.67328000  1.0
  C  C29  1  0.06863000  0.10638000  0.17328000  1.0
  C  C30  1  0.56862000  0.10639000  0.32672000  1.0
  C  C31  1  0.93138000  0.89360000  0.82672000  1.0
  C  C32  1  0.48130000  0.75971000  0.72805000  1.0
  C  C33  1  0.01870000  0.24029000  0.22805000  1.0
  C  C34  1  0.51870000  0.24029000  0.27195000  1.0
  C  C35  1  0.98130000  0.75971000  0.77195000  1.0
  C  C36  1  0.54532000  0.57321000  0.71676000  1.0
  C  C37  1  0.95467000  0.42680000  0.21676000  1.0
  C  C38  1  0.45467000  0.42680000  0.28324000  1.0
  C  C39  1  0.04533000  0.57320000  0.78324000  1.0
  C  C40  1  0.58813000  0.45467000  0.76945000  1.0
  C  C41  1  0.91186000  0.54534000  0.26944000  1.0
  C  C42  1  0.41186000  0.54533000  0.23056000  1.0
  C  C43  1  0.08814000  0.45465000  0.73055000  1.0
  C  C44  1  0.46293000  0.82167000  0.79304000  1.0
  C  C45  1  0.03708000  0.17834000  0.29304000  1.0
  C  C46  1  0.53707000  0.17834000  0.20696000  1.0
  C  C47  1  0.96292000  0.82166000  0.70696000  1.0
  C  C48  1  0.50911000  0.70096000  0.84468000  1.0
  C  C49  1  0.99089000  0.29905000  0.34468000  1.0
  C  C50  1  0.49090000  0.29905000  0.15532000  1.0
  C  C51  1  0.00911000  0.70095000  0.65532000  1.0
  S  S52  1  0.78620000  0.16766000  0.55719000  1.0
  S  S53  1  0.71381000  0.83234000  0.05719000  1.0
  S  S54  1  0.21380000  0.83234000  0.44281000  1.0
  S  S55  1  0.28620000  0.16766000  0.94281000  1.0
  N  N56  1  0.57026000  0.51982000  0.83221000  1.0
  N  N57  1  0.92973000  0.48019000  0.33221000  1.0
  N  N58  1  0.42973000  0.48019000  0.16779000  1.0
  N  N59  1  0.07026000  0.51981000  0.66779000  1.0
  O  O60  1  0.45585000  0.83927000  0.61349000  1.0
  O  O61  1  0.04415000  0.16072000  0.11348000  1.0
  O  O62  1  0.54414000  0.16073000  0.38651000  1.0
  O  O63  1  0.95586000  0.83927000  0.88652000  1.0
  O  O64  1  0.36206000  0.06142000  0.68669000  1.0
  O  O65  1  0.13794000  0.93858000  0.18669000  1.0
  O  O66  1  0.63795000  0.93858000  0.31331000  1.0
  O  O67  1  0.86206000  0.06141000  0.81331000  1.0
  O  O68  1  0.60871000  0.40931000  0.88240000  1.0
  O  O69  1  0.89128000  0.59069000  0.38240000  1.0
  O  O70  1  0.39128000  0.59070000  0.11760000  1.0
  O  O71  1  0.10871000  0.40931000  0.61760000  1.0
  O  O72  1  0.84810000  0.28803000  0.50945000  1.0
  O  O73  1  0.65191000  0.71197000  0.00945000  1.0
  O  O74  1  0.15190000  0.71197000  0.49055000  1.0
  O  O75  1  0.34809000  0.28803000  0.99055000  1.0
  O  O76  1  0.98560000  0.06283000  0.59224000  1.0
  O  O77  1  0.51442000  0.93717000  0.09224000  1.0
  O  O78  1  0.01440000  0.93717000  0.40776000  1.0
  O  O79  1  0.48560000  0.06283000  0.90776000  1.0
  O  O80  1  0.61457000  0.26353000  0.60445000  1.0
  O  O81  1  0.88544000  0.73647000  0.10445000  1.0
  O  O82  1  0.38542000  0.73648000  0.39555000  1.0
  O  O83  1  0.11458000  0.26352000  0.89555000  1.0
  O  O84  1  0.68308000  0.03568000  0.52324000  1.0
  O  O85  1  0.81692000  0.96432000  0.02324000  1.0
  O  O86  1  0.31692000  0.96432000  0.47676000  1.0
  O  O87  1  0.18309000  0.03568000  0.97676000  1.0
  O  O88  1  0.30668000  0.35115000  0.48441000  1.0
  O  O89  1  0.19333000  0.64885000  0.98441000  1.0
  O  O90  1  0.69332000  0.64885000  0.51559000  1.0
  O  O91  1  0.80668000  0.35115000  0.01559000  1.0
