# generated using pymatgen
data_BaP2H15C6N(ClO4)2
_symmetry_space_group_name_H-M   'P 1'
_cell_length_a   6.14636000
_cell_length_b   8.58091000
_cell_length_c   28.86640000
_cell_angle_alpha   98.39460000
_cell_angle_beta   90.00000000
_cell_angle_gamma   90.00000000
_symmetry_Int_Tables_number   1
_chemical_formula_structural   BaP2H15C6N(ClO4)2
_chemical_formula_sum   'Ba4 P8 H60 C24 N4 Cl8 O32'
_cell_volume   1506.14183456
_cell_formula_units_Z   4
loop_
 _symmetry_equiv_pos_site_id
 _symmetry_equiv_pos_as_xyz
  1  'x, y, z'
loop_
 _atom_site_type_symbol
 _atom_site_label
 _atom_site_symmetry_multiplicity
 _atom_site_fract_x
 _atom_site_fract_y
 _atom_site_fract_z
 _atom_site_occupancy
  Ba  Ba0  1  0.82233000  0.83352000  0.95283000  1.0
  Ba  Ba1  1  0.32233000  0.66648000  0.54717000  1.0
  Ba  Ba2  1  0.17767000  0.16648000  0.04717000  1.0
  Ba  Ba3  1  0.67767000  0.33352000  0.45283000  1.0
  P  P4  1  0.34106000  0.10340000  0.92594000  1.0
  P  P5  1  0.84105000  0.39660000  0.57405000  1.0
  P  P6  1  0.65894000  0.89660000  0.07406000  1.0
  P  P7  1  0.15894000  0.60340000  0.42594000  1.0
  P  P8  1  0.30646000  0.75936000  0.87232000  1.0
  P  P9  1  0.80647000  0.74064000  0.62768000  1.0
  P  P10  1  0.69354000  0.24064000  0.12768000  1.0
  P  P11  1  0.19354000  0.25936000  0.37232000  1.0
  H  H12  1  0.74378000  0.45058000  0.98430000  1.0
  H  H13  1  0.24379000  0.04942000  0.51570000  1.0
  H  H14  1  0.25621000  0.54942000  0.01570000  1.0
  H  H15  1  0.75621000  0.95058000  0.48430000  1.0
  H  H16  1  0.58462000  0.49395000  0.94569000  1.0
  H  H17  1  0.08461000  0.00605000  0.55431000  1.0
  H  H18  1  0.41538000  0.50605000  0.05431000  1.0
  H  H19  1  0.91538000  0.99395000  0.44569000  1.0
  H  H20  1  0.29209000  0.78203000  0.01246000  1.0
  H  H21  1  0.79209000  0.71798000  0.48754000  1.0
  H  H22  1  0.70790000  0.21798000  0.98754000  1.0
  H  H23  1  0.20790000  0.28203000  0.51246000  1.0
  H  H24  1  0.30045000  0.70297000  0.95995000  1.0
  H  H25  1  0.80045000  0.79703000  0.54005000  1.0
  H  H26  1  0.69955000  0.29703000  0.04005000  1.0
  H  H27  1  0.19955000  0.20297000  0.45995000  1.0
  H  H28  1  0.31831000  0.67807000  0.75288000  1.0
  H  H29  1  0.81832000  0.82193000  0.74712000  1.0
  H  H30  1  0.68169000  0.32193000  0.24712000  1.0
  H  H31  1  0.18169000  0.17807000  0.25288000  1.0
  H  H32  1  0.08647000  0.67945000  0.79032000  1.0
  H  H33  1  0.58648000  0.82055000  0.70968000  1.0
  H  H34  1  0.91353000  0.32055000  0.20968000  1.0
  H  H35  1  0.41352000  0.17945000  0.29032000  1.0
  H  H36  1  0.13496000  0.39549000  0.79470000  1.0
  H  H37  1  0.63497000  0.10451000  0.70530000  1.0
  H  H38  1  0.86503000  0.60451000  0.20530000  1.0
  H  H39  1  0.36504000  0.89549000  0.29470000  1.0
  H  H40  1  0.12730000  0.42342000  0.73454000  1.0
  H  H41  1  0.62731000  0.07658000  0.76546000  1.0
  H  H42  1  0.87270000  0.57658000  0.26546000  1.0
  H  H43  1  0.37270000  0.92342000  0.23454000  1.0
  H  H44  1  0.71806000  0.34060000  0.78984000  1.0
  H  H45  1  0.21807000  0.15939000  0.71016000  1.0
  H  H46  1  0.28194000  0.65939000  0.21016000  1.0
  H  H47  1  0.78194000  0.84060000  0.28984000  1.0
  H  H48  1  0.48527000  0.34363000  0.82759000  1.0
  H  H49  1  0.98529000  0.15637000  0.67241000  1.0
  H  H50  1  0.51472000  0.65637000  0.17241000  1.0
  H  H51  1  0.01472000  0.84363000  0.32759000  1.0
  H  H52  1  0.68950000  0.59102000  0.84890000  1.0
  H  H53  1  0.18951000  0.90897000  0.65110000  1.0
  H  H54  1  0.31050000  0.40897000  0.15110000  1.0
  H  H55  1  0.81050000  0.09103000  0.34890000  1.0
  H  H56  1  0.69143000  0.62643000  0.78967000  1.0
  H  H57  1  0.19144000  0.87356000  0.71033000  1.0
  H  H58  1  0.30856000  0.37356000  0.21033000  1.0
  H  H59  1  0.80856000  0.12643000  0.28967000  1.0
  H  H60  1  0.99869000  0.26981000  0.89661000  1.0
  H  H61  1  0.49869000  0.23019000  0.60339000  1.0
  H  H62  1  0.00131000  0.73019000  0.10339000  1.0
  H  H63  1  0.50131000  0.76981000  0.39660000  1.0
  H  H64  1  0.15250000  0.42958000  0.87907000  1.0
  H  H65  1  0.65250000  0.07042000  0.62093000  1.0
  H  H66  1  0.84750000  0.57042000  0.12093000  1.0
  H  H67  1  0.34750000  0.92958000  0.37907000  1.0
  H  H68  1  0.08364000  0.42999000  0.93940000  1.0
  H  H69  1  0.58363000  0.07001000  0.56060000  1.0
  H  H70  1  0.91636000  0.57001000  0.06060000  1.0
  H  H71  1  0.41637000  0.92999000  0.43940000  1.0
  C  C72  1  0.37264000  0.97162000  0.86849000  1.0
  C  C73  1  0.87264000  0.52838000  0.63151000  1.0
  C  C74  1  0.62736000  0.02838000  0.13151000  1.0
  C  C75  1  0.12737000  0.47162000  0.36849000  1.0
  C  C76  1  0.24549000  0.62470000  0.78183000  1.0
  C  C77  1  0.74550000  0.87530000  0.71817000  1.0
  C  C78  1  0.75451000  0.37530000  0.21817000  1.0
  C  C79  1  0.25451000  0.12470000  0.28183000  1.0
  C  C80  1  0.22064000  0.44829000  0.76710000  1.0
  C  C81  1  0.72064000  0.05171000  0.73290000  1.0
  C  C82  1  0.77936000  0.55171000  0.23290000  1.0
  C  C83  1  0.27936000  0.94829000  0.26710000  1.0
  C  C84  1  0.56235000  0.39925000  0.79947000  1.0
  C  C85  1  0.06236000  0.10075000  0.70053000  1.0
  C  C86  1  0.43765000  0.60075000  0.20053000  1.0
  C  C87  1  0.93765000  0.89925000  0.29947000  1.0
  C  C88  1  0.59700000  0.57427000  0.81609000  1.0
  C  C89  1  0.09701000  0.92573000  0.68391000  1.0
  C  C90  1  0.40300000  0.42573000  0.18391000  1.0
  C  C91  1  0.90300000  0.07427000  0.31609000  1.0
  C  C92  1  0.12797000  0.35612000  0.90662000  1.0
  C  C93  1  0.62797000  0.14388000  0.59338000  1.0
  C  C94  1  0.87203000  0.64388000  0.09338000  1.0
  C  C95  1  0.37203000  0.85612000  0.40662000  1.0
  N  N96  1  0.38601000  0.65320000  0.82309000  1.0
  N  N97  1  0.88602000  0.84680000  0.67691000  1.0
  N  N98  1  0.61398000  0.34680000  0.17691000  1.0
  N  N99  1  0.11398000  0.15320000  0.32309000  1.0
  Cl  Cl100  1  0.65393000  0.98068000  0.85152000  1.0
  Cl  Cl101  1  0.15393000  0.51932000  0.64847000  1.0
  Cl  Cl102  1  0.34607000  0.01932000  0.14848000  1.0
  Cl  Cl103  1  0.84608000  0.48068000  0.35152000  1.0
  Cl  Cl104  1  0.20479000  0.03643000  0.82436000  1.0
  Cl  Cl105  1  0.70479000  0.46357000  0.67564000  1.0
  Cl  Cl106  1  0.79521000  0.96357000  0.17564000  1.0
  Cl  Cl107  1  0.29522000  0.53643000  0.32436000  1.0
  O  O108  1  0.70737000  0.53512000  0.96513000  1.0
  O  O109  1  0.20737000  0.96488000  0.53487000  1.0
  O  O110  1  0.29263000  0.46488000  0.03487000  1.0
  O  O111  1  0.79263000  0.03512000  0.46513000  1.0
  O  O112  1  0.20875000  0.70874000  0.98881000  1.0
  O  O113  1  0.70875000  0.79126000  0.51119000  1.0
  O  O114  1  0.79125000  0.29126000  0.01119000  1.0
  O  O115  1  0.29125000  0.20874000  0.48882000  1.0
  O  O116  1  0.42858000  0.37382000  0.75823000  1.0
  O  O117  1  0.92859000  0.12618000  0.74176000  1.0
  O  O118  1  0.57142000  0.62618000  0.24176000  1.0
  O  O119  1  0.07142000  0.87381000  0.25824000  1.0
  O  O120  1  0.54626000  0.08952000  0.95402000  1.0
  O  O121  1  0.04624000  0.41049000  0.54598000  1.0
  O  O122  1  0.45373000  0.91048000  0.04598000  1.0
  O  O123  1  0.95374000  0.58952000  0.45402000  1.0
  O  O124  1  0.13008000  0.06420000  0.94877000  1.0
  O  O125  1  0.63006000  0.43580000  0.55123000  1.0
  O  O126  1  0.86992000  0.93580000  0.05123000  1.0
  O  O127  1  0.36992000  0.56420000  0.44877000  1.0
  O  O128  1  0.33463000  0.27904000  0.91298000  1.0
  O  O129  1  0.83462000  0.22096000  0.58702000  1.0
  O  O130  1  0.66537000  0.72096000  0.08702000  1.0
  O  O131  1  0.16537000  0.77904000  0.41298000  1.0
  O  O132  1  0.45035000  0.71957000  0.91195000  1.0
  O  O133  1  0.95035000  0.78043000  0.58805000  1.0
  O  O134  1  0.54964000  0.28043000  0.08805000  1.0
  O  O135  1  0.04965000  0.21957000  0.41195000  1.0
  O  O136  1  0.06339000  0.74937000  0.87759000  1.0
  O  O137  1  0.56339000  0.75064000  0.62241000  1.0
  O  O138  1  0.93661000  0.25063000  0.12241000  1.0
  O  O139  1  0.43662000  0.24936000  0.37759000  1.0
