# generated using pymatgen
data_AgH6C6NO2
_symmetry_space_group_name_H-M   'P 1'
_cell_length_a   3.80814000
_cell_length_b   12.75500000
_cell_length_c   13.43030000
_cell_angle_alpha   89.99910000
_cell_angle_beta   89.99920000
_cell_angle_gamma   94.48940000
_symmetry_Int_Tables_number   1
_chemical_formula_structural   AgH6C6NO2
_chemical_formula_sum   'Ag4 H24 C24 N4 O8'
_cell_volume   650.34610874
_cell_formula_units_Z   4
loop_
 _symmetry_equiv_pos_site_id
 _symmetry_equiv_pos_as_xyz
  1  'x, y, z'
loop_
 _atom_site_type_symbol
 _atom_site_label
 _atom_site_symmetry_multiplicity
 _atom_site_fract_x
 _atom_site_fract_y
 _atom_site_fract_z
 _atom_site_occupancy
  Ag  Ag0  1  0.88652000  0.06778000  0.37622000  1.0
  Ag  Ag1  1  0.11342000  0.43222000  0.87623000  1.0
  Ag  Ag2  1  0.11346000  0.93222000  0.62378000  1.0
  Ag  Ag3  1  0.88655000  0.56778000  0.12378000  1.0
  H  H4  1  0.66468000  0.10475000  0.15908000  1.0
  H  H5  1  0.33534000  0.39525000  0.65908000  1.0
  H  H6  1  0.33532000  0.89525000  0.84091000  1.0
  H  H7  1  0.66468000  0.60476000  0.34091000  1.0
  H  H8  1  0.26797000  0.13369000  0.09851000  1.0
  H  H9  1  0.73203000  0.36631000  0.59850000  1.0
  H  H10  1  0.73202000  0.86631000  0.90149000  1.0
  H  H11  1  0.26797000  0.63369000  0.40149000  1.0
  H  H12  1  0.65154000  0.21870000  0.07996000  1.0
  H  H13  1  0.34847000  0.28130000  0.57996000  1.0
  H  H14  1  0.34845000  0.78130000  0.92004000  1.0
  H  H15  1  0.65154000  0.71870000  0.42004000  1.0
  H  H16  1  0.06390000  0.43809000  0.43280000  1.0
  H  H17  1  0.93614000  0.06191000  0.93280000  1.0
  H  H18  1  0.93613000  0.56191000  0.56721000  1.0
  H  H19  1  0.06389000  0.93809000  0.06720000  1.0
  H  H20  1  0.01576000  0.29880000  0.40797000  1.0
  H  H21  1  0.98428000  0.20120000  0.90796000  1.0
  H  H22  1  0.98427000  0.70120000  0.59204000  1.0
  H  H23  1  0.01574000  0.79880000  0.09203000  1.0
  H  H24  1  0.43734000  0.36410000  0.40864000  1.0
  H  H25  1  0.56269000  0.13590000  0.90865000  1.0
  H  H26  1  0.56268000  0.63590000  0.59135000  1.0
  H  H27  1  0.43733000  0.86410000  0.09135000  1.0
  C  C28  1  0.40412000  0.23099000  0.22442000  1.0
  C  C29  1  0.59587000  0.26901000  0.72442000  1.0
  C  C30  1  0.59584000  0.76900000  0.77558000  1.0
  C  C31  1  0.40414000  0.73100000  0.27559000  1.0
  C  C32  1  0.24681000  0.32932000  0.20606000  1.0
  C  C33  1  0.75320000  0.17067000  0.70606000  1.0
  C  C34  1  0.75318000  0.67066000  0.79394000  1.0
  C  C35  1  0.24681000  0.82934000  0.29394000  1.0
  C  C36  1  0.12459000  0.39840000  0.28085000  1.0
  C  C37  1  0.87542000  0.10160000  0.78084000  1.0
  C  C38  1  0.87539000  0.60160000  0.71916000  1.0
  C  C39  1  0.12459000  0.89840000  0.21915000  1.0
  C  C40  1  0.50765000  0.16856000  0.13515000  1.0
  C  C41  1  0.49236000  0.33144000  0.63514000  1.0
  C  C42  1  0.49234000  0.83144000  0.86485000  1.0
  C  C43  1  0.50765000  0.66856000  0.36486000  1.0
  C  C44  1  0.16232000  0.37382000  0.38944000  1.0
  C  C45  1  0.83771000  0.12618000  0.88944000  1.0
  C  C46  1  0.83769000  0.62618000  0.61056000  1.0
  C  C47  1  0.16232000  0.87383000  0.11057000  1.0
  C  C48  1  0.20765000  0.35815000  0.10634000  1.0
  C  C49  1  0.79236000  0.14185000  0.60633000  1.0
  C  C50  1  0.79234000  0.64185000  0.89367000  1.0
  C  C51  1  0.20764000  0.85815000  0.39367000  1.0
  N  N52  1  0.17596000  0.37917000  0.02199000  1.0
  N  N53  1  0.82397000  0.12082000  0.52199000  1.0
  N  N54  1  0.82396000  0.62082000  0.97801000  1.0
  N  N55  1  0.17601000  0.87919000  0.47802000  1.0
  O  O56  1  0.44603000  0.19636000  0.31083000  1.0
  O  O57  1  0.55397000  0.30364000  0.81083000  1.0
  O  O58  1  0.55396000  0.80364000  0.68917000  1.0
  O  O59  1  0.44604000  0.69637000  0.18918000  1.0
  O  O60  1  0.97838000  0.48184000  0.26024000  1.0
  O  O61  1  0.02165000  0.01816000  0.76024000  1.0
  O  O62  1  0.02163000  0.51816000  0.73976000  1.0
  O  O63  1  0.97836000  0.98184000  0.23976000  1.0
