# generated using pymatgen
data_Zn2H24C45N2O15
_symmetry_space_group_name_H-M   'P 1'
_cell_length_a   16.49000000
_cell_length_b   17.89520000
_cell_length_c   33.19650000
_cell_angle_alpha   90.24050000
_cell_angle_beta   89.78950000
_cell_angle_gamma   89.91850000
_symmetry_Int_Tables_number   1
_chemical_formula_structural   Zn2H24C45N2O15
_chemical_formula_sum   'Zn4 H48 C90 N4 O30'
_cell_volume   9795.85399590
_cell_formula_units_Z   2
loop_
 _symmetry_equiv_pos_site_id
 _symmetry_equiv_pos_as_xyz
  1  'x, y, z'
loop_
 _atom_site_type_symbol
 _atom_site_label
 _atom_site_symmetry_multiplicity
 _atom_site_fract_x
 _atom_site_fract_y
 _atom_site_fract_z
 _atom_site_occupancy
  Zn  Zn0  1  0.58386000  0.49912000  0.50077000  1.0
  Zn  Zn1  1  0.41557000  0.50104000  0.50028000  1.0
  Zn  Zn2  1  0.41619000  0.50145000  0.96137000  1.0
  Zn  Zn3  1  0.58443000  0.50307000  0.96184000  1.0
  H  H4  1  0.28932000  0.58289000  0.54524000  1.0
  H  H5  1  0.13669000  0.58895000  0.54823000  1.0
  H  H6  1  0.28468000  0.41844000  0.45683000  1.0
  H  H7  1  0.71507000  0.58262000  0.54349000  1.0
  H  H8  1  0.70961000  0.41726000  0.45561000  1.0
  H  H9  1  0.86222000  0.41123000  0.45224000  1.0
  H  H10  1  0.63156000  0.73477000  0.50075000  1.0
  H  H11  1  0.63627000  0.87472000  0.50010000  1.0
  H  H12  1  0.37087000  0.74187000  0.50043000  1.0
  H  H13  1  0.62984000  0.25759000  0.50007000  1.0
  H  H14  1  0.36919000  0.26613000  0.49987000  1.0
  H  H15  1  0.36360000  0.12619000  0.49967000  1.0
  H  H16  1  0.37091000  0.50107000  0.62783000  1.0
  H  H17  1  0.62765000  0.50012000  0.62699000  1.0
  H  H18  1  0.62903000  0.50177000  0.83424000  1.0
  H  H19  1  0.37227000  0.50118000  0.83512000  1.0
  H  H20  1  0.36828000  0.50288000  0.08823000  1.0
  H  H21  1  0.36308000  0.50234000  0.16371000  1.0
  H  H22  1  0.62896000  0.50235000  0.09183000  1.0
  H  H23  1  0.37101000  0.50003000  0.37034000  1.0
  H  H24  1  0.63170000  0.50038000  0.37391000  1.0
  H  H25  1  0.63685000  0.50118000  0.29843000  1.0
  H  H26  1  0.71034000  0.58500000  0.91709000  1.0
  H  H27  1  0.86295000  0.59129000  0.91417000  1.0
  H  H28  1  0.71575000  0.42122000  0.00514000  1.0
  H  H29  1  0.28487000  0.58455000  0.91864000  1.0
  H  H30  1  0.29059000  0.41997000  0.00620000  1.0
  H  H31  1  0.13797000  0.41426000  0.00958000  1.0
  H  H32  1  0.36823000  0.73757000  0.96087000  1.0
  H  H33  1  0.36392000  0.87758000  0.96100000  1.0
  H  H34  1  0.62897000  0.74344000  0.96121000  1.0
  H  H35  1  0.37036000  0.26003000  0.96173000  1.0
  H  H36  1  0.63102000  0.26793000  0.96170000  1.0
  H  H37  1  0.63662000  0.12794000  0.96149000  1.0
  H  H38  1  0.06839000  0.41325000  0.45337000  1.0
  H  H39  1  0.93136000  0.58690000  0.54712000  1.0
  H  H40  1  0.37189000  0.94080000  0.49978000  1.0
  H  H41  1  0.62750000  0.05865000  0.49991000  1.0
  H  H42  1  0.62722000  0.50181000  0.19907000  1.0
  H  H43  1  0.37274000  0.50117000  0.26310000  1.0
  H  H44  1  0.93203000  0.41642000  0.00866000  1.0
  H  H45  1  0.06859000  0.58929000  0.91510000  1.0
  H  H46  1  0.62840000  0.94240000  0.96104000  1.0
  H  H47  1  0.37267000  0.06112000  0.96127000  1.0
  H  H48  1  0.28617000  0.50022000  0.80059000  1.0
  H  H49  1  0.28574000  0.49757000  0.66292000  1.0
  H  H50  1  0.71426000  0.49804000  0.79913000  1.0
  H  H51  1  0.71367000  0.49934000  0.66149000  1.0
  C  C52  1  0.49923000  0.64676000  0.50120000  1.0
  C  C53  1  0.49915000  0.50079000  0.57971000  1.0
  C  C54  1  0.50228000  0.35341000  0.49987000  1.0
  C  C55  1  0.49872000  0.49941000  0.42147000  1.0
  C  C56  1  0.50055000  0.64895000  0.96087000  1.0
  C  C57  1  0.50081000  0.50197000  0.88239000  1.0
  C  C58  1  0.49791000  0.35556000  0.96207000  1.0
  C  C59  1  0.50123000  0.50215000  0.04069000  1.0
  C  C60  1  0.25134000  0.54754000  0.52633000  1.0
  C  C61  1  0.16746000  0.55053000  0.52773000  1.0
  C  C62  1  0.12208000  0.50345000  0.50228000  1.0
  C  C63  1  0.16481000  0.45447000  0.47606000  1.0
  C  C64  1  0.24961000  0.45509000  0.47664000  1.0
  C  C65  1  0.03656000  0.50278000  0.50167000  1.0
  C  C66  1  0.96282000  0.49744000  0.49860000  1.0
  C  C67  1  0.87729000  0.49682000  0.49810000  1.0
  C  C68  1  0.83479000  0.54592000  0.52437000  1.0
  C  C69  1  0.75001000  0.54549000  0.52387000  1.0
  C  C70  1  0.74781000  0.45269000  0.47436000  1.0
  C  C71  1  0.83168000  0.44972000  0.47278000  1.0
  C  C72  1  0.50119000  0.73057000  0.50086000  1.0
  C  C73  1  0.57613000  0.76785000  0.50070000  1.0
  C  C74  1  0.57847000  0.84523000  0.50027000  1.0
  C  C75  1  0.50602000  0.88728000  0.50005000  1.0
  C  C76  1  0.43057000  0.84898000  0.50018000  1.0
  C  C77  1  0.42871000  0.77117000  0.50054000  1.0
  C  C78  1  0.50461000  0.96608000  0.49974000  1.0
  C  C79  1  0.49480000  0.03410000  0.49962000  1.0
  C  C80  1  0.49374000  0.11291000  0.49961000  1.0
  C  C81  1  0.56945000  0.15079000  0.49971000  1.0
  C  C82  1  0.57182000  0.22859000  0.49979000  1.0
  C  C83  1  0.49960000  0.26962000  0.49975000  1.0
  C  C84  1  0.42441000  0.23276000  0.49972000  1.0
  C  C85  1  0.42157000  0.15538000  0.49964000  1.0
  C  C86  1  0.42593000  0.50095000  0.64607000  1.0
  C  C87  1  0.42454000  0.50087000  0.68834000  1.0
  C  C88  1  0.34992000  0.50065000  0.71077000  1.0
  C  C89  1  0.57286000  0.50054000  0.64559000  1.0
  C  C90  1  0.57480000  0.50073000  0.68783000  1.0
  C  C91  1  0.64972000  0.50053000  0.70974000  1.0
  C  C92  1  0.57399000  0.50159000  0.81602000  1.0
  C  C93  1  0.57534000  0.50126000  0.77374000  1.0
  C  C94  1  0.64995000  0.50065000  0.75130000  1.0
  C  C95  1  0.42706000  0.50143000  0.81652000  1.0
  C  C96  1  0.42507000  0.50137000  0.77427000  1.0
  C  C97  1  0.35013000  0.50099000  0.75234000  1.0
  C  C98  1  0.49925000  0.50077000  0.62489000  1.0
  C  C99  1  0.49981000  0.50096000  0.70976000  1.0
  C  C100  1  0.50068000  0.50166000  0.83721000  1.0
  C  C101  1  0.50006000  0.50124000  0.75233000  1.0
  C  C102  1  0.49871000  0.50219000  0.08587000  1.0
  C  C103  1  0.42360000  0.50240000  0.10602000  1.0
  C  C104  1  0.42097000  0.50218000  0.14775000  1.0
  C  C105  1  0.49330000  0.50186000  0.17033000  1.0
  C  C106  1  0.56889000  0.50191000  0.14962000  1.0
  C  C107  1  0.57103000  0.50208000  0.10768000  1.0
  C  C108  1  0.49471000  0.50157000  0.21279000  1.0
  C  C109  1  0.50519000  0.50130000  0.24938000  1.0
  C  C110  1  0.50663000  0.50078000  0.29183000  1.0
  C  C111  1  0.43104000  0.50045000  0.31255000  1.0
  C  C112  1  0.42893000  0.49998000  0.35449000  1.0
  C  C113  1  0.50127000  0.49977000  0.37629000  1.0
  C  C114  1  0.57638000  0.50016000  0.35613000  1.0
  C  C115  1  0.57897000  0.50069000  0.31441000  1.0
  C  C116  1  0.74848000  0.54986000  0.93593000  1.0
  C  C117  1  0.83234000  0.55298000  0.93456000  1.0
  C  C118  1  0.87794000  0.50617000  0.95992000  1.0
  C  C119  1  0.83542000  0.45737000  0.98603000  1.0
  C  C120  1  0.75063000  0.45783000  0.98544000  1.0
  C  C121  1  0.96347000  0.50559000  0.96054000  1.0
  C  C122  1  0.03725000  0.50029000  0.96348000  1.0
  C  C123  1  0.12278000  0.49958000  0.96394000  1.0
  C  C124  1  0.16521000  0.54835000  0.93776000  1.0
  C  C125  1  0.25000000  0.54767000  0.93820000  1.0
  C  C126  1  0.25235000  0.45533000  0.98753000  1.0
  C  C127  1  0.16848000  0.45255000  0.98913000  1.0
  C  C128  1  0.49861000  0.73277000  0.96091000  1.0
  C  C129  1  0.42375000  0.77039000  0.96088000  1.0
  C  C130  1  0.42163000  0.84779000  0.96100000  1.0
  C  C131  1  0.49420000  0.88948000  0.96113000  1.0
  C  C132  1  0.56955000  0.85083000  0.96105000  1.0
  C  C133  1  0.57121000  0.77301000  0.96102000  1.0
  C  C134  1  0.49574000  0.96825000  0.96135000  1.0
  C  C135  1  0.50548000  0.03623000  0.96146000  1.0
  C  C136  1  0.50647000  0.11500000  0.96164000  1.0
  C  C137  1  0.43078000  0.15310000  0.96170000  1.0
  C  C138  1  0.42841000  0.23092000  0.96186000  1.0
  C  C139  1  0.50064000  0.27174000  0.96196000  1.0
  C  C140  1  0.57581000  0.23466000  0.96181000  1.0
  C  C141  1  0.57864000  0.15727000  0.96166000  1.0
  N  N142  1  0.29084000  0.50055000  0.50118000  1.0
  N  N143  1  0.70856000  0.49983000  0.49952000  1.0
  N  N144  1  0.70919000  0.50296000  0.96096000  1.0
  N  N145  1  0.29152000  0.50219000  0.96246000  1.0
  O  O146  1  0.56749000  0.61330000  0.50168000  1.0
  O  O147  1  0.42989000  0.61540000  0.50087000  1.0
  O  O148  1  0.43047000  0.50235000  0.56227000  1.0
  O  O149  1  0.56806000  0.49918000  0.56219000  1.0
  O  O150  1  0.43427000  0.38743000  0.50000000  1.0
  O  O151  1  0.57187000  0.38422000  0.49989000  1.0
  O  O152  1  0.56684000  0.49854000  0.43949000  1.0
  O  O153  1  0.42924000  0.50010000  0.43837000  1.0
  O  O154  1  0.43232000  0.61560000  0.96049000  1.0
  O  O155  1  0.56991000  0.61744000  0.96128000  1.0
  O  O156  1  0.56949000  0.50358000  0.89984000  1.0
  O  O157  1  0.43191000  0.50054000  0.89993000  1.0
  O  O158  1  0.56590000  0.38945000  0.96206000  1.0
  O  O159  1  0.42831000  0.38649000  0.96211000  1.0
  O  O160  1  0.43311000  0.50140000  0.02266000  1.0
  O  O161  1  0.57069000  0.50291000  0.02377000  1.0
  O  O162  1  0.12713000  0.40706000  0.45041000  1.0
  O  O163  1  0.87262000  0.59327000  0.54999000  1.0
  O  O164  1  0.35909000  0.88729000  0.49995000  1.0
  O  O165  1  0.64068000  0.11208000  0.49976000  1.0
  O  O166  1  0.64023000  0.50172000  0.17021000  1.0
  O  O167  1  0.35971000  0.50062000  0.29196000  1.0
  O  O168  1  0.87330000  0.41024000  0.01161000  1.0
  O  O169  1  0.12732000  0.59560000  0.91226000  1.0
  O  O170  1  0.64112000  0.88884000  0.96103000  1.0
  O  O171  1  0.35953000  0.11460000  0.96157000  1.0
  O  O172  1  0.27663000  0.50081000  0.77166000  1.0
  O  O173  1  0.27622000  0.50017000  0.69186000  1.0
  O  O174  1  0.72366000  0.50031000  0.77018000  1.0
  O  O175  1  0.72320000  0.50014000  0.69042000  1.0
