# generated using pymatgen
data_CdH10C9N2Cl2O3
_symmetry_space_group_name_H-M   'P 1'
_cell_length_a   6.99700000
_cell_length_b   12.69050000
_cell_length_c   14.11150000
_cell_angle_alpha   89.99990000
_cell_angle_beta   85.93320000
_cell_angle_gamma   89.99990000
_symmetry_Int_Tables_number   1
_chemical_formula_structural   CdH10C9N2Cl2O3
_chemical_formula_sum   'Cd4 H40 C36 N8 Cl8 O12'
_cell_volume   1249.88159880
_cell_formula_units_Z   4
loop_
 _symmetry_equiv_pos_site_id
 _symmetry_equiv_pos_as_xyz
  1  'x, y, z'
loop_
 _atom_site_type_symbol
 _atom_site_label
 _atom_site_symmetry_multiplicity
 _atom_site_fract_x
 _atom_site_fract_y
 _atom_site_fract_z
 _atom_site_occupancy
  Cd  Cd0  1  0.16119000  0.84027000  0.27665000  1.0
  Cd  Cd1  1  0.33881000  0.34027000  0.72335000  1.0
  Cd  Cd2  1  0.83881000  0.15973000  0.72335000  1.0
  Cd  Cd3  1  0.66119000  0.65973000  0.27665000  1.0
  H  H4  1  0.53438000  0.22246000  0.47236000  1.0
  H  H5  1  0.96562000  0.72246000  0.52764000  1.0
  H  H6  1  0.46562000  0.77754000  0.52764000  1.0
  H  H7  1  0.03438000  0.27754000  0.47236000  1.0
  H  H8  1  0.51608000  0.99485000  0.24468000  1.0
  H  H9  1  0.98392000  0.49485000  0.75532000  1.0
  H  H10  1  0.48391000  0.00515000  0.75532000  1.0
  H  H11  1  0.01609000  0.50515000  0.24468000  1.0
  H  H12  1  0.13204000  0.96555000  0.48022000  1.0
  H  H13  1  0.36796000  0.46555000  0.51978000  1.0
  H  H14  1  0.86796000  0.03445000  0.51978000  1.0
  H  H15  1  0.63204000  0.53445000  0.48022000  1.0
  H  H16  1  0.83050000  0.91742000  0.15112000  1.0
  H  H17  1  0.66950000  0.41743000  0.84887000  1.0
  H  H18  1  0.16950000  0.08257000  0.84887000  1.0
  H  H19  1  0.33050000  0.58257000  0.15112000  1.0
  H  H20  1  0.94024000  0.21977000  0.11531000  1.0
  H  H21  1  0.55973000  0.71976000  0.88469000  1.0
  H  H22  1  0.05973000  0.78024000  0.88469000  1.0
  H  H23  1  0.44027000  0.28024000  0.11531000  1.0
  H  H24  1  0.99120000  0.17992000  0.99476000  1.0
  H  H25  1  0.50879000  0.67991000  0.00524000  1.0
  H  H26  1  0.00879000  0.82009000  0.00524000  1.0
  H  H27  1  0.49121000  0.32009000  0.99476000  1.0
  H  H28  1  0.14206000  0.13698000  0.08574000  1.0
  H  H29  1  0.35793000  0.63697000  0.91426000  1.0
  H  H30  1  0.85793000  0.86303000  0.91425000  1.0
  H  H31  1  0.64208000  0.36303000  0.08575000  1.0
  H  H32  1  0.61648000  0.98622000  0.07022000  1.0
  H  H33  1  0.88352000  0.48622000  0.92978000  1.0
  H  H34  1  0.38352000  0.01378000  0.92978000  1.0
  H  H35  1  0.11648000  0.51378000  0.07022000  1.0
  H  H36  1  0.69298000  0.07558000  0.97631000  1.0
  H  H37  1  0.80701000  0.57558000  0.02368000  1.0
  H  H38  1  0.30701000  0.92442000  0.02368000  1.0
  H  H39  1  0.19299000  0.42442000  0.97632000  1.0
  H  H40  1  0.59908000  0.12526000  0.08872000  1.0
  H  H41  1  0.90091000  0.62526000  0.91128000  1.0
  H  H42  1  0.40091000  0.87474000  0.91128000  1.0
  H  H43  1  0.09909000  0.37474000  0.08872000  1.0
  C  C44  1  0.23547000  0.14600000  0.58047000  1.0
  C  C45  1  0.26454000  0.64600000  0.41953000  1.0
  C  C46  1  0.76454000  0.85400000  0.41953000  1.0
  C  C47  1  0.73547000  0.35400000  0.58047000  1.0
  C  C48  1  0.32145000  0.10032000  0.48780000  1.0
  C  C49  1  0.17856000  0.60032000  0.51220000  1.0
  C  C50  1  0.67855000  0.89968000  0.51220000  1.0
  C  C51  1  0.82145000  0.39968000  0.48780000  1.0
  C  C52  1  0.47520000  0.15298000  0.44025000  1.0
  C  C53  1  0.02480000  0.65298000  0.55976000  1.0
  C  C54  1  0.52480000  0.84702000  0.55975000  1.0
  C  C55  1  0.97520000  0.34702000  0.44024000  1.0
  C  C56  1  0.54799000  0.11486000  0.35283000  1.0
  C  C57  1  0.95201000  0.61486000  0.64717000  1.0
  C  C58  1  0.45201000  0.88514000  0.64717000  1.0
  C  C59  1  0.04799000  0.38514000  0.35283000  1.0
  C  C60  1  0.46463000  0.02679000  0.31349000  1.0
  C  C61  1  0.03538000  0.52679000  0.68651000  1.0
  C  C62  1  0.53537000  0.97321000  0.68651000  1.0
  C  C63  1  0.96463000  0.47321000  0.31349000  1.0
  C  C64  1  0.24898000  0.01073000  0.44541000  1.0
  C  C65  1  0.25102000  0.51073000  0.55459000  1.0
  C  C66  1  0.75102000  0.98927000  0.55459000  1.0
  C  C67  1  0.74898000  0.48927000  0.44541000  1.0
  C  C68  1  0.93661000  0.98142000  0.13899000  1.0
  C  C69  1  0.56338000  0.48142000  0.86101000  1.0
  C  C70  1  0.06338000  0.01858000  0.86101000  1.0
  C  C71  1  0.43662000  0.51858000  0.13899000  1.0
  C  C72  1  0.99498000  0.15478000  0.06916000  1.0
  C  C73  1  0.50500000  0.65478000  0.93084000  1.0
  C  C74  1  0.00500000  0.84522000  0.93084000  1.0
  C  C75  1  0.49500000  0.34522000  0.06916000  1.0
  C  C76  1  0.68547000  0.06223000  0.05342000  1.0
  C  C77  1  0.81452000  0.56223000  0.94658000  1.0
  C  C78  1  0.31452000  0.93777000  0.94658000  1.0
  C  C79  1  0.18548000  0.43777000  0.05342000  1.0
  N  N80  1  0.31761000  0.97628000  0.35952000  1.0
  N  N81  1  0.18239000  0.47628000  0.64048000  1.0
  N  N82  1  0.68239000  0.02372000  0.64048000  1.0
  N  N83  1  0.81762000  0.52372000  0.35952000  1.0
  N  N84  1  0.87715000  0.06161000  0.08698000  1.0
  N  N85  1  0.62285000  0.56161000  0.91301000  1.0
  N  N86  1  0.12284000  0.93839000  0.91302000  1.0
  N  N87  1  0.37716000  0.43839000  0.08698000  1.0
  Cl  Cl88  1  0.73788000  0.17803000  0.29215000  1.0
  Cl  Cl89  1  0.76212000  0.67803000  0.70785000  1.0
  Cl  Cl90  1  0.26211000  0.82197000  0.70785000  1.0
  Cl  Cl91  1  0.23789000  0.32197000  0.29215000  1.0
  Cl  Cl92  1  0.48821000  0.79756000  0.17372000  1.0
  Cl  Cl93  1  0.01178000  0.29756000  0.82628000  1.0
  Cl  Cl94  1  0.51179000  0.20244000  0.82628000  1.0
  Cl  Cl95  1  0.98822000  0.70245000  0.17372000  1.0
  O  O96  1  0.11373000  0.09184000  0.63005000  1.0
  O  O97  1  0.38628000  0.59184000  0.36995000  1.0
  O  O98  1  0.88627000  0.90816000  0.36995000  1.0
  O  O99  1  0.61373000  0.40816000  0.63005000  1.0
  O  O100  1  0.29410000  0.23846000  0.59717000  1.0
  O  O101  1  0.20590000  0.73846000  0.40283000  1.0
  O  O102  1  0.70590000  0.76154000  0.40283000  1.0
  O  O103  1  0.79410000  0.26154000  0.59717000  1.0
  O  O104  1  0.09963000  0.97708000  0.17075000  1.0
  O  O105  1  0.40037000  0.47708000  0.82924000  1.0
  O  O106  1  0.90036000  0.02292000  0.82924000  1.0
  O  O107  1  0.59964000  0.52292000  0.17076000  1.0
