# generated using pymatgen
data_FeNiH6C12(N4Cl)2
_symmetry_space_group_name_H-M   'P 1'
_cell_length_a   6.72319000
_cell_length_b   7.13613000
_cell_length_c   8.85420886
_cell_angle_alpha   110.00995510
_cell_angle_beta   112.30095643
_cell_angle_gamma   90.00500000
_symmetry_Int_Tables_number   1
_chemical_formula_structural   FeNiH6C12(N4Cl)2
_chemical_formula_sum   'Fe1 Ni1 H6 C12 N8 Cl2'
_cell_volume   365.15524553
_cell_formula_units_Z   1
loop_
 _symmetry_equiv_pos_site_id
 _symmetry_equiv_pos_as_xyz
  1  'x, y, z'
loop_
 _atom_site_type_symbol
 _atom_site_label
 _atom_site_symmetry_multiplicity
 _atom_site_fract_x
 _atom_site_fract_y
 _atom_site_fract_z
 _atom_site_occupancy
  Fe  Fe0  1  0.00000000  0.00000000  0.00000000  1.0
  Ni  Ni1  1  0.50000000  0.50000000  0.00000000  1.0
  H  H2  1  0.11475000  0.43032000  0.22972000  1.0
  H  H3  1  0.88525000  0.56968000  0.77028000  1.0
  H  H4  1  0.32159000  0.08530000  0.64215000  1.0
  H  H5  1  0.67841000  0.91470000  0.35785000  1.0
  H  H6  1  0.15629000  0.88817000  0.31197000  1.0
  H  H7  1  0.84371000  0.11183000  0.68803000  1.0
  C  C8  1  0.67969000  0.30619000  0.98232000  1.0
  C  C9  1  0.69756000  0.69373000  0.01771000  1.0
  C  C10  1  0.32031000  0.69382000  0.01768000  1.0
  C  C11  1  0.30243000  0.30628000  0.98229000  1.0
  C  C12  1  0.16038000  0.35184000  0.32078000  1.0
  C  C13  1  0.83963000  0.64816000  0.67922000  1.0
  C  C14  1  0.25139000  0.45339000  0.50268000  1.0
  C  C15  1  0.74861000  0.54661000  0.49732000  1.0
  C  C16  1  0.27419000  0.16024000  0.54793000  1.0
  C  C17  1  0.72581000  0.83976000  0.45207000  1.0
  C  C18  1  0.18420000  0.05184000  0.36794000  1.0
  C  C19  1  0.81580000  0.94816000  0.63206000  1.0
  N  N20  1  0.12697000  0.14861000  0.25367000  1.0
  N  N21  1  0.87303000  0.85139000  0.74633000  1.0
  N  N22  1  0.79186000  0.18020000  0.97800000  1.0
  N  N23  1  0.81395000  0.81986000  0.02209000  1.0
  N  N24  1  0.20815000  0.81979000  0.02200000  1.0
  N  N25  1  0.18605000  0.18014000  0.97791000  1.0
  N  N26  1  0.30866000  0.36230000  0.61689000  1.0
  N  N27  1  0.69134000  0.63770000  0.38311000  1.0
  Cl  Cl28  1  0.29340000  0.71401000  0.58696000  1.0
  Cl  Cl29  1  0.70660000  0.28599000  0.41304000  1.0
