# generated using pymatgen
data_MnH20C20(NO4)2
_symmetry_space_group_name_H-M   'P 1'
_cell_length_a   5.60956000
_cell_length_b   7.97350000
_cell_length_c   11.17030000
_cell_angle_alpha   106.92100000
_cell_angle_beta   97.59680000
_cell_angle_gamma   98.41460000
_symmetry_Int_Tables_number   1
_chemical_formula_structural   MnH20C20(NO4)2
_chemical_formula_sum   'Mn1 H20 C20 N2 O8'
_cell_volume   464.71298750
_cell_formula_units_Z   1
loop_
 _symmetry_equiv_pos_site_id
 _symmetry_equiv_pos_as_xyz
  1  'x, y, z'
loop_
 _atom_site_type_symbol
 _atom_site_label
 _atom_site_symmetry_multiplicity
 _atom_site_fract_x
 _atom_site_fract_y
 _atom_site_fract_z
 _atom_site_occupancy
  Mn  Mn0  1  0.50000000  0.49999000  0.99999000  1.0
  H  H1  1  0.03099000  0.36637000  0.06096000  1.0
  H  H2  1  0.96901000  0.63363000  0.93904000  1.0
  H  H3  1  0.24664000  0.25198000  0.05613000  1.0
  H  H4  1  0.75336000  0.74801000  0.94387000  1.0
  H  H5  1  0.75459000  0.05838000  0.24409000  1.0
  H  H6  1  0.24539000  0.94162000  0.75592000  1.0
  H  H7  1  0.91188000  0.04972000  0.11483000  1.0
  H  H8  1  0.08812000  0.95028000  0.88519000  1.0
  H  H9  1  0.63596000  0.26380000  0.37990000  1.0
  H  H10  1  0.36404000  0.73621000  0.62012000  1.0
  H  H11  1  0.37663000  0.52978000  0.40842000  1.0
  H  H12  1  0.62337000  0.47023000  0.59159000  1.0
  H  H13  1  0.82462000  0.64377000  0.27496000  1.0
  H  H14  1  0.17541000  0.35622000  0.72504000  1.0
  H  H15  1  0.83636000  0.84599000  0.49031000  1.0
  H  H16  1  0.16367000  0.15401000  0.50968000  1.0
  H  H17  1  0.17711000  0.99451000  0.33674000  1.0
  H  H18  1  0.82290000  0.00550000  0.66325000  1.0
  H  H19  1  0.19055000  0.78302000  0.12993000  1.0
  H  H20  1  0.80942000  0.21697000  0.87005000  1.0
  C  C21  1  0.64393000  0.21802000  0.12773000  1.0
  C  C22  1  0.35607000  0.78198000  0.87228000  1.0
  C  C23  1  0.83921000  0.13863000  0.19032000  1.0
  C  C24  1  0.16079000  0.86138000  0.80969000  1.0
  C  C25  1  0.01118000  0.38202000  0.38080000  1.0
  C  C26  1  0.98879000  0.61800000  0.61920000  1.0
  C  C27  1  0.79720000  0.36527000  0.43208000  1.0
  C  C28  1  0.20278000  0.63475000  0.56794000  1.0
  C  C29  1  0.21132000  0.51802000  0.44896000  1.0
  C  C30  1  0.78869000  0.48196000  0.55106000  1.0
  C  C31  1  0.68394000  0.72405000  0.29316000  1.0
  C  C32  1  0.31607000  0.27593000  0.70683000  1.0
  C  C33  1  0.68885000  0.83923000  0.41427000  1.0
  C  C34  1  0.31117000  0.16076000  0.58573000  1.0
  C  C35  1  0.50314000  0.93943000  0.43609000  1.0
  C  C36  1  0.49688000  0.06056000  0.56389000  1.0
  C  C37  1  0.32352000  0.91854000  0.33007000  1.0
  C  C38  1  0.67647000  0.08145000  0.66991000  1.0
  C  C39  1  0.33129000  0.80035000  0.21203000  1.0
  C  C40  1  0.66869000  0.19964000  0.78795000  1.0
  N  N41  1  0.50706000  0.70249000  0.19276000  1.0
  N  N42  1  0.49294000  0.29751000  0.80723000  1.0
  O  O43  1  0.72263000  0.35611000  0.09597000  1.0
  O  O44  1  0.27738000  0.64388000  0.90402000  1.0
  O  O45  1  0.42405000  0.14181000  0.11037000  1.0
  O  O46  1  0.57596000  0.85819000  0.88964000  1.0
  O  O47  1  0.04607000  0.26928000  0.26801000  1.0
  O  O48  1  0.95394000  0.73073000  0.73200000  1.0
  O  O49  1  0.16573000  0.33302000  0.01524000  1.0
  O  O50  1  0.83427000  0.66698000  0.98476000  1.0
