# generated using pymatgen
data_Tb2H29C33NO17
_symmetry_space_group_name_H-M   'P 1'
_cell_length_a   12.43590000
_cell_length_b   13.69390000
_cell_length_c   27.73750000
_cell_angle_alpha   104.28400000
_cell_angle_beta   96.10130000
_cell_angle_gamma   96.38010000
_symmetry_Int_Tables_number   1
_chemical_formula_structural   Tb2H29C33NO17
_chemical_formula_sum   'Tb8 H116 C132 N4 O68'
_cell_volume   4505.14963786
_cell_formula_units_Z   4
loop_
 _symmetry_equiv_pos_site_id
 _symmetry_equiv_pos_as_xyz
  1  'x, y, z'
loop_
 _atom_site_type_symbol
 _atom_site_label
 _atom_site_symmetry_multiplicity
 _atom_site_fract_x
 _atom_site_fract_y
 _atom_site_fract_z
 _atom_site_occupancy
  Tb  Tb0  1  0.86561000  0.41830000  0.44788000  1.0
  Tb  Tb1  1  0.13439000  0.58171000  0.55212000  1.0
  Tb  Tb2  1  0.45112000  0.03019000  0.58402000  1.0
  Tb  Tb3  1  0.54887000  0.96980000  0.41598000  1.0
  Tb  Tb4  1  0.02923000  0.07824000  0.93909000  1.0
  Tb  Tb5  1  0.97077000  0.92176000  0.06091000  1.0
  Tb  Tb6  1  0.52861000  0.61243000  0.08281000  1.0
  Tb  Tb7  1  0.47138000  0.38757000  0.91719000  1.0
  H  H8  1  0.73736000  0.75048000  0.47864000  1.0
  H  H9  1  0.26264000  0.24952000  0.52136000  1.0
  H  H10  1  0.73135000  0.97211000  0.61785000  1.0
  H  H11  1  0.26865000  0.02789000  0.38216000  1.0
  H  H12  1  0.92783000  0.72845000  0.61299000  1.0
  H  H13  1  0.07219000  0.27157000  0.38701000  1.0
  H  H14  1  0.02061000  0.82871000  0.67769000  1.0
  H  H15  1  0.97939000  0.17129000  0.32231000  1.0
  H  H16  1  0.07886000  0.89815000  0.76934000  1.0
  H  H17  1  0.92116000  0.10185000  0.23066000  1.0
  H  H18  1  0.79044000  0.04187000  0.78329000  1.0
  H  H19  1  0.20958000  0.95815000  0.21671000  1.0
  H  H20  1  0.72834000  0.97152000  0.69196000  1.0
  H  H21  1  0.27168000  0.02848000  0.30804000  1.0
  H  H22  1  0.72889000  0.30303000  0.55979000  1.0
  H  H23  1  0.27111000  0.69696000  0.44021000  1.0
  H  H24  1  0.03802000  0.39733000  0.65301000  1.0
  H  H25  1  0.96198000  0.60266000  0.34699000  1.0
  H  H26  1  0.79578000  0.18149000  0.68742000  1.0
  H  H27  1  0.20423000  0.81849000  0.31257000  1.0
  H  H28  1  0.96736000  0.12021000  0.70566000  1.0
  H  H29  1  0.03265000  0.87979000  0.29433000  1.0
  H  H30  1  0.11013000  0.10945000  0.77323000  1.0
  H  H31  1  0.88988000  0.89054000  0.22677000  1.0
  H  H32  1  0.20433000  0.43345000  0.81021000  1.0
  H  H33  1  0.79567000  0.56655000  0.18979000  1.0
  H  H34  1  0.06269000  0.44589000  0.74270000  1.0
  H  H35  1  0.93731000  0.55411000  0.25730000  1.0
  H  H36  1  0.75473000  0.68548000  0.94497000  1.0
  H  H37  1  0.24527000  0.31452000  0.05502000  1.0
  H  H38  1  0.53863000  0.60983000  0.80551000  1.0
  H  H39  1  0.46137000  0.39017000  0.19449000  1.0
  H  H40  1  0.77705000  0.88194000  0.84672000  1.0
  H  H41  1  0.22294000  0.11807000  0.15328000  1.0
  H  H42  1  0.60610000  0.93220000  0.80755000  1.0
  H  H43  1  0.39390000  0.06781000  0.19245000  1.0
  H  H44  1  0.52828000  0.96856000  0.72803000  1.0
  H  H45  1  0.47173000  0.03144000  0.27197000  1.0
  H  H46  1  0.52332000  0.65667000  0.64847000  1.0
  H  H47  1  0.47666000  0.34332000  0.35154000  1.0
  H  H48  1  0.60066000  0.61901000  0.72733000  1.0
  H  H49  1  0.39932000  0.38099000  0.27267000  1.0
  H  H50  1  0.72590000  0.22773000  0.98213000  1.0
  H  H51  1  0.27411000  0.77227000  0.01787000  1.0
  H  H52  1  0.85339000  0.16760000  0.12015000  1.0
  H  H53  1  0.14661000  0.83239000  0.87985000  1.0
  H  H54  1  0.67746000  0.42406000  0.12293000  1.0
  H  H55  1  0.32254000  0.57594000  0.87707000  1.0
  H  H56  1  0.62925000  0.37268000  0.19156000  1.0
  H  H57  1  0.37075000  0.62730000  0.80844000  1.0
  H  H58  1  0.65255000  0.40010000  0.28497000  1.0
  H  H59  1  0.34744000  0.59989000  0.71503000  1.0
  H  H60  1  0.97232000  0.31216000  0.28191000  1.0
  H  H61  1  0.02769000  0.68784000  0.71809000  1.0
  H  H62  1  0.95162000  0.28587000  0.18906000  1.0
  H  H63  1  0.04839000  0.71414000  0.81094000  1.0
  H  H64  1  0.49806000  0.22907000  0.70138000  1.0
  H  H65  1  0.50193000  0.77094000  0.29862000  1.0
  H  H66  1  0.22711000  0.36573000  0.68856000  1.0
  H  H67  1  0.77289000  0.63428000  0.31144000  1.0
  H  H68  1  0.25499000  0.27961000  0.63261000  1.0
  H  H69  1  0.74500000  0.72040000  0.36739000  1.0
  H  H70  1  0.31148000  0.41152000  0.64852000  1.0
  H  H71  1  0.68851000  0.58849000  0.35148000  1.0
  H  H72  1  0.37480000  0.41236000  0.76479000  1.0
  H  H73  1  0.62519000  0.58765000  0.23521000  1.0
  H  H74  1  0.45982000  0.47133000  0.72892000  1.0
  H  H75  1  0.54017000  0.52866000  0.27109000  1.0
  H  H76  1  0.50442000  0.37348000  0.75528000  1.0
  H  H77  1  0.49557000  0.62652000  0.24472000  1.0
  H  H78  1  0.06243000  0.32402000  0.01347000  1.0
  H  H79  1  0.93757000  0.67599000  0.98653000  1.0
  H  H80  1  0.11674000  0.57569000  0.01087000  1.0
  H  H81  1  0.88326000  0.42431000  0.98914000  1.0
  H  H82  1  0.23288000  0.51427000  0.02272000  1.0
  H  H83  1  0.76712000  0.48574000  0.97729000  1.0
  H  H84  1  0.11079000  0.48597000  0.04793000  1.0
  H  H85  1  0.88920000  0.51403000  0.95207000  1.0
  H  H86  1  0.08500000  0.51178000  0.91965000  1.0
  H  H87  1  0.91504000  0.48822000  0.08035000  1.0
  H  H88  1  0.06808000  0.37641000  0.89250000  1.0
  H  H89  1  0.93195000  0.62359000  0.10751000  1.0
  H  H90  1  0.20106000  0.44582000  0.91596000  1.0
  H  H91  1  0.79895000  0.55418000  0.08405000  1.0
  H  H92  1  0.65020000  0.46579000  0.46137000  1.0
  H  H93  1  0.34979000  0.53420000  0.53863000  1.0
  H  H94  1  0.61513000  0.34771000  0.43407000  1.0
  H  H95  1  0.38487000  0.65229000  0.56592000  1.0
  H  H96  1  0.75505000  0.20829000  0.45723000  1.0
  H  H97  1  0.24494000  0.79171000  0.54277000  1.0
  H  H98  1  0.81958000  0.18478000  0.41126000  1.0
  H  H99  1  0.18041000  0.81522000  0.58874000  1.0
  H  H100  1  0.38961000  0.84050000  0.49424000  1.0
  H  H101  1  0.61038000  0.15950000  0.50576000  1.0
  H  H102  1  0.41367000  0.81557000  0.54864000  1.0
  H  H103  1  0.58633000  0.18443000  0.45136000  1.0
  H  H104  1  0.24448000  0.05284000  0.62061000  1.0
  H  H105  1  0.75551000  0.94717000  0.37939000  1.0
  H  H106  1  0.22083000  0.00695000  0.56316000  1.0
  H  H107  1  0.77917000  0.99305000  0.43684000  1.0
  H  H108  1  0.25354000  0.08012000  0.93740000  1.0
  H  H109  1  0.74647000  0.91988000  0.06260000  1.0
  H  H110  1  0.23202000  0.14186000  0.89677000  1.0
  H  H111  1  0.76798000  0.85814000  0.10323000  1.0
  H  H112  1  0.32310000  0.67927000  0.08834000  1.0
  H  H113  1  0.67689000  0.32073000  0.91166000  1.0
  H  H114  1  0.31695000  0.63764000  0.13604000  1.0
  H  H115  1  0.68305000  0.36236000  0.86397000  1.0
  H  H116  1  0.62030000  0.81880000  0.13163000  1.0
  H  H117  1  0.37970000  0.18119000  0.86837000  1.0
  H  H118  1  0.48970000  0.82244000  0.12864000  1.0
  H  H119  1  0.51030000  0.17756000  0.87136000  1.0
  H  H120  1  0.64141000  0.62840000  0.99279000  1.0
  H  H121  1  0.35859000  0.37161000  0.00721000  1.0
  H  H122  1  0.68679000  0.73589000  0.03493000  1.0
  H  H123  1  0.31321000  0.26412000  0.96507000  1.0
  C  C124  1  0.83532000  0.73043000  0.54359000  1.0
  C  C125  1  0.16467000  0.26957000  0.45641000  1.0
  C  C126  1  0.76505000  0.78042000  0.51873000  1.0
  C  C127  1  0.23494000  0.21958000  0.48127000  1.0
  C  C128  1  0.72935000  0.86797000  0.54595000  1.0
  C  C129  1  0.27065000  0.13204000  0.45405000  1.0
  C  C130  1  0.76182000  0.90411000  0.59774000  1.0
  C  C131  1  0.23818000  0.09590000  0.40226000  1.0
  C  C132  1  0.83454000  0.85584000  0.62301000  1.0
  C  C133  1  0.16546000  0.14416000  0.37699000  1.0
  C  C134  1  0.87178000  0.76890000  0.59500000  1.0
  C  C135  1  0.12822000  0.23111000  0.40499000  1.0
  C  C136  1  0.87022000  0.89578000  0.67766000  1.0
  C  C137  1  0.12978000  0.10423000  0.32235000  1.0
  C  C138  1  0.96895000  0.87504000  0.70040000  1.0
  C  C139  1  0.03105000  0.12496000  0.29959000  1.0
  C  C140  1  0.00214000  0.91357000  0.75181000  1.0
  C  C141  1  0.99788000  0.08644000  0.24819000  1.0
  C  C142  1  0.93808000  0.97420000  0.78189000  1.0
  C  C143  1  0.06192000  0.02581000  0.21811000  1.0
  C  C144  1  0.83971000  0.99480000  0.75959000  1.0
  C  C145  1  0.16031000  0.00521000  0.24041000  1.0
  C  C146  1  0.80611000  0.95596000  0.70832000  1.0
  C  C147  1  0.19390000  0.04405000  0.29168000  1.0
  C  C148  1  0.86952000  0.63431000  0.51489000  1.0
  C  C149  1  0.13048000  0.36569000  0.48512000  1.0
  C  C150  1  0.65437000  0.92116000  0.51950000  1.0
  C  C151  1  0.34562000  0.07884000  0.48050000  1.0
  C  C152  1  0.97475000  0.01833000  0.83662000  1.0
  C  C153  1  0.02525000  0.98167000  0.16338000  1.0
  C  C154  1  0.75039000  0.23647000  0.62291000  1.0
  C  C155  1  0.24961000  0.76352000  0.37709000  1.0
  C  C156  1  0.78308000  0.29863000  0.59244000  1.0
  C  C157  1  0.21693000  0.70135000  0.40755000  1.0
  C  C158  1  0.88698000  0.35590000  0.60364000  1.0
  C  C159  1  0.11302000  0.64408000  0.39636000  1.0
  C  C160  1  0.95712000  0.35243000  0.64573000  1.0
  C  C161  1  0.04288000  0.64755000  0.35426000  1.0
  C  C162  1  0.92636000  0.28963000  0.67644000  1.0
  C  C163  1  0.07364000  0.71036000  0.32355000  1.0
  C  C164  1  0.82244000  0.23118000  0.66442000  1.0
  C  C165  1  0.17757000  0.76880000  0.33557000  1.0
  C  C166  1  0.00537000  0.28364000  0.71898000  1.0
  C  C167  1  0.99463000  0.71636000  0.28101000  1.0
  C  C168  1  0.01851000  0.18928000  0.72868000  1.0
  C  C169  1  0.98150000  0.81071000  0.27132000  1.0
  C  C170  1  0.09835000  0.18264000  0.76633000  1.0
  C  C171  1  0.90165000  0.81735000  0.23366000  1.0
  C  C172  1  0.16637000  0.27026000  0.79563000  1.0
  C  C173  1  0.83363000  0.72974000  0.20437000  1.0
  C  C174  1  0.15218000  0.36518000  0.78708000  1.0
  C  C175  1  0.84783000  0.63482000  0.21292000  1.0
  C  C176  1  0.07286000  0.37175000  0.74912000  1.0
  C  C177  1  0.92714000  0.62824000  0.25087000  1.0
  C  C178  1  0.64002000  0.17428000  0.61093000  1.0
  C  C179  1  0.35998000  0.82571000  0.38907000  1.0
  C  C180  1  0.92546000  0.41715000  0.56902000  1.0
  C  C181  1  0.07454000  0.58284000  0.43097000  1.0
  C  C182  1  0.25396000  0.26112000  0.83447000  1.0
  C  C183  1  0.74604000  0.73887000  0.16553000  1.0
  C  C184  1  0.77543000  0.78901000  0.89903000  1.0
  C  C185  1  0.22456000  0.21099000  0.10097000  1.0
  C  C186  1  0.72571000  0.70227000  0.90995000  1.0
  C  C187  1  0.27428000  0.29773000  0.09005000  1.0
  C  C188  1  0.64069000  0.63791000  0.87630000  1.0
  C  C189  1  0.35930000  0.36209000  0.12370000  1.0
  C  C190  1  0.60526000  0.66078000  0.83134000  1.0
  C  C191  1  0.39474000  0.33922000  0.16867000  1.0
  C  C192  1  0.65171000  0.74934000  0.82016000  1.0
  C  C193  1  0.34829000  0.25067000  0.17984000  1.0
  C  C194  1  0.73769000  0.81333000  0.85454000  1.0
  C  C195  1  0.26230000  0.18668000  0.14546000  1.0
  C  C196  1  0.60820000  0.77291000  0.77312000  1.0
  C  C197  1  0.39180000  0.22710000  0.22688000  1.0
  C  C198  1  0.58790000  0.87159000  0.77268000  1.0
  C  C199  1  0.41210000  0.12841000  0.22732000  1.0
  C  C200  1  0.54399000  0.89207000  0.72852000  1.0
  C  C201  1  0.45601000  0.10794000  0.27148000  1.0
  C  C202  1  0.52067000  0.81491000  0.68344000  1.0
  C  C203  1  0.47933000  0.18508000  0.31655000  1.0
  C  C204  1  0.54078000  0.71633000  0.68358000  1.0
  C  C205  1  0.45921000  0.28368000  0.31642000  1.0
  C  C206  1  0.58341000  0.69567000  0.72786000  1.0
  C  C207  1  0.41657000  0.30433000  0.27214000  1.0
  C  C208  1  0.86915000  0.85361000  0.93596000  1.0
  C  C209  1  0.13084000  0.14639000  0.06404000  1.0
  C  C210  1  0.58784000  0.54724000  0.88932000  1.0
  C  C211  1  0.41216000  0.45276000  0.11068000  1.0
  C  C212  1  0.47944000  0.83888000  0.63553000  1.0
  C  C213  1  0.52055000  0.16112000  0.36446000  1.0
  C  C214  1  0.69303000  0.33084000  0.04997000  1.0
  C  C215  1  0.30697000  0.66917000  0.95003000  1.0
  C  C216  1  0.73742000  0.24822000  0.02299000  1.0
  C  C217  1  0.26258000  0.75178000  0.97701000  1.0
  C  C218  1  0.79534000  0.19049000  0.04859000  1.0
  C  C219  1  0.20466000  0.80951000  0.95141000  1.0
  C  C220  1  0.81058000  0.21585000  0.10101000  1.0
  C  C221  1  0.18941000  0.78415000  0.89899000  1.0
  C  C222  1  0.77044000  0.30128000  0.12865000  1.0
  C  C223  1  0.22957000  0.69872000  0.87135000  1.0
  C  C224  1  0.71060000  0.35787000  0.10260000  1.0
  C  C225  1  0.28939000  0.64212000  0.89740000  1.0
  C  C226  1  0.78817000  0.32656000  0.18397000  1.0
  C  C227  1  0.21183000  0.67344000  0.81603000  1.0
  C  C228  1  0.70535000  0.36157000  0.21156000  1.0
  C  C229  1  0.29466000  0.63842000  0.78844000  1.0
  C  C230  1  0.71770000  0.37656000  0.26335000  1.0
  C  C231  1  0.28229000  0.62342000  0.73665000  1.0
  C  C232  1  0.81305000  0.35682000  0.28867000  1.0
  C  C233  1  0.18695000  0.64318000  0.71133000  1.0
  C  C234  1  0.89771000  0.32559000  0.26171000  1.0
  C  C235  1  0.10229000  0.67441000  0.73829000  1.0
  C  C236  1  0.88556000  0.31088000  0.20987000  1.0
  C  C237  1  0.11444000  0.68912000  0.79013000  1.0
  C  C238  1  0.62783000  0.38942000  0.02213000  1.0
  C  C239  1  0.37218000  0.61059000  0.97787000  1.0
  C  C240  1  0.84466000  0.10317000  0.01999000  1.0
  C  C241  1  0.15534000  0.89683000  0.98002000  1.0
  C  C242  1  0.82235000  0.36688000  0.34379000  1.0
  C  C243  1  0.17766000  0.63313000  0.65621000  1.0
  C  C244  1  0.42347000  0.23565000  0.67775000  1.0
  C  C245  1  0.57652000  0.76436000  0.32225000  1.0
  C  C246  1  0.28862000  0.34615000  0.66358000  1.0
  C  C247  1  0.71136000  0.65386000  0.33642000  1.0
  C  C248  1  0.43352000  0.39923000  0.73780000  1.0
  C  C249  1  0.56647000  0.60076000  0.26220000  1.0
  C  C250  1  0.06664000  0.32941000  0.97463000  1.0
  C  C251  1  0.93336000  0.67059000  0.02537000  1.0
  C  C252  1  0.14333000  0.50439000  0.01547000  1.0
  C  C253  1  0.85666000  0.49561000  0.98453000  1.0
  C  C254  1  0.11490000  0.44024000  0.92176000  1.0
  C  C255  1  0.88514000  0.55976000  0.07825000  1.0
  N  N256  1  0.38370000  0.32289000  0.69211000  1.0
  N  N257  1  0.61629000  0.67711000  0.30789000  1.0
  N  N258  1  0.10246000  0.42239000  0.97063000  1.0
  N  N259  1  0.89756000  0.57761000  0.02938000  1.0
  O  O260  1  0.96277000  0.61289000  0.52862000  1.0
  O  O261  1  0.03723000  0.38712000  0.47138000  1.0
  O  O262  1  0.80289000  0.57732000  0.47805000  1.0
  O  O263  1  0.19710000  0.42269000  0.52196000  1.0
  O  O264  1  0.58183000  0.96294000  0.54252000  1.0
  O  O265  1  0.41816000  0.03706000  0.45749000  1.0
  O  O266  1  0.66551000  0.92166000  0.47427000  1.0
  O  O267  1  0.33448000  0.07834000  0.52573000  1.0
  O  O268  1  0.06526000  0.99902000  0.85672000  1.0
  O  O269  1  0.93475000  0.00097000  0.14328000  1.0
  O  O270  1  0.91538000  0.07448000  0.86317000  1.0
  O  O271  1  0.08465000  0.92551000  0.13683000  1.0
  O  O272  1  0.61001000  0.12124000  0.64056000  1.0
  O  O273  1  0.38999000  0.87875000  0.35943000  1.0
  O  O274  1  0.57598000  0.17243000  0.57100000  1.0
  O  O275  1  0.42401000  0.82756000  0.42900000  1.0
  O  O276  1  0.85969000  0.41135000  0.52983000  1.0
  O  O277  1  0.14031000  0.58865000  0.47017000  1.0
  O  O278  1  0.02052000  0.46770000  0.58131000  1.0
  O  O279  1  0.97948000  0.53230000  0.41869000  1.0
  O  O280  1  0.26266000  0.17322000  0.84136000  1.0
  O  O281  1  0.73733000  0.82678000  0.15863000  1.0
  O  O282  1  0.31852000  0.34223000  0.85867000  1.0
  O  O283  1  0.68148000  0.65777000  0.14133000  1.0
  O  O284  1  0.92324000  0.92375000  0.92263000  1.0
  O  O285  1  0.07676000  0.07625000  0.07737000  1.0
  O  O286  1  0.88845000  0.83241000  0.97793000  1.0
  O  O287  1  0.11155000  0.16759000  0.02207000  1.0
  O  O288  1  0.51657000  0.48204000  0.85747000  1.0
  O  O289  1  0.48342000  0.51797000  0.14254000  1.0
  O  O290  1  0.61472000  0.53452000  0.93335000  1.0
  O  O291  1  0.38528000  0.46549000  0.06665000  1.0
  O  O292  1  0.46346000  0.93103000  0.63838000  1.0
  O  O293  1  0.53653000  0.06897000  0.36162000  1.0
  O  O294  1  0.46465000  0.76958000  0.59451000  1.0
  O  O295  1  0.53534000  0.23041000  0.40549000  1.0
  O  O296  1  0.59975000  0.47219000  0.04604000  1.0
  O  O297  1  0.40026000  0.52781000  0.95396000  1.0
  O  O298  1  0.60335000  0.35364000  0.97464000  1.0
  O  O299  1  0.39665000  0.64636000  0.02537000  1.0
  O  O300  1  0.84853000  0.02631000  0.03791000  1.0
  O  O301  1  0.15147000  0.97369000  0.96209000  1.0
  O  O302  1  0.88077000  0.11375000  0.98027000  1.0
  O  O303  1  0.11923000  0.88624000  0.01973000  1.0
  O  O304  1  0.75973000  0.42015000  0.36947000  1.0
  O  O305  1  0.24026000  0.57984000  0.63053000  1.0
  O  O306  1  0.89296000  0.32260000  0.36418000  1.0
  O  O307  1  0.10705000  0.67740000  0.63582000  1.0
  O  O308  1  0.66978000  0.39808000  0.45920000  1.0
  O  O309  1  0.33022000  0.60191000  0.54079000  1.0
  O  O310  1  0.81197000  0.23827000  0.44063000  1.0
  O  O311  1  0.18803000  0.76173000  0.55937000  1.0
  O  O312  1  0.38204000  0.16416000  0.63999000  1.0
  O  O313  1  0.61796000  0.83585000  0.36001000  1.0
  O  O314  1  0.37165000  0.85643000  0.52911000  1.0
  O  O315  1  0.62834000  0.14357000  0.47089000  1.0
  O  O316  1  0.24746000  0.99088000  0.59445000  1.0
  O  O317  1  0.75253000  0.00913000  0.40555000  1.0
  O  O318  1  0.03968000  0.25286000  0.93803000  1.0
  O  O319  1  0.96032000  0.74715000  0.06197000  1.0
  O  O320  1  0.22725000  0.14230000  0.93248000  1.0
  O  O321  1  0.77275000  0.85770000  0.06752000  1.0
  O  O322  1  0.36273000  0.68113000  0.12117000  1.0
  O  O323  1  0.63727000  0.31887000  0.87884000  1.0
  O  O324  1  0.54577000  0.79554000  0.10947000  1.0
  O  O325  1  0.45423000  0.20446000  0.89053000  1.0
  O  O326  1  0.64598000  0.66652000  0.02852000  1.0
  O  O327  1  0.35401000  0.33348000  0.97147000  1.0
