# generated using pymatgen
data_H12RuC22SN4(ClO3)2
_symmetry_space_group_name_H-M   'P 1'
_cell_length_a   10.69130000
_cell_length_b   15.45130000
_cell_length_c   16.90470000
_cell_angle_alpha   85.82760000
_cell_angle_beta   86.69000000
_cell_angle_gamma   77.55740000
_symmetry_Int_Tables_number   1
_chemical_formula_structural   H12RuC22SN4(ClO3)2
_chemical_formula_sum   'H48 Ru4 C88 S4 N16 Cl8 O24'
_cell_volume   2717.20737262
_cell_formula_units_Z   4
loop_
 _symmetry_equiv_pos_site_id
 _symmetry_equiv_pos_as_xyz
  1  'x, y, z'
loop_
 _atom_site_type_symbol
 _atom_site_label
 _atom_site_symmetry_multiplicity
 _atom_site_fract_x
 _atom_site_fract_y
 _atom_site_fract_z
 _atom_site_occupancy
  H  H0  1  0.61066000  0.87665000  0.66342000  1.0
  H  H1  1  0.38963000  0.12328000  0.33616000  1.0
  H  H2  1  0.65453000  0.86378000  0.56030000  1.0
  H  H3  1  0.34619000  0.13608000  0.43938000  1.0
  H  H4  1  0.77231000  0.82499000  0.63358000  1.0
  H  H5  1  0.22816000  0.17499000  0.36633000  1.0
  H  H6  1  0.71475000  0.78624000  0.76106000  1.0
  H  H7  1  0.28534000  0.21406000  0.23877000  1.0
  H  H8  1  0.63954000  0.54946000  0.88698000  1.0
  H  H9  1  0.36008000  0.45113000  0.11311000  1.0
  H  H10  1  0.56308000  0.50396000  0.76363000  1.0
  H  H11  1  0.43732000  0.49621000  0.23645000  1.0
  H  H12  1  0.86033000  0.64846000  0.57583000  1.0
  H  H13  1  0.14061000  0.35182000  0.42446000  1.0
  H  H14  1  0.89523000  0.54430000  0.52934000  1.0
  H  H15  1  0.10525000  0.45591000  0.47110000  1.0
  H  H16  1  0.83647000  0.64435000  0.47201000  1.0
  H  H17  1  0.16407000  0.35592000  0.52837000  1.0
  H  H18  1  0.86141000  0.77608000  0.49188000  1.0
  H  H19  1  0.13932000  0.22404000  0.50810000  1.0
  H  H20  1  0.14433000  0.92396000  0.40380000  1.0
  H  H21  1  0.85687000  0.07575000  0.59609000  1.0
  H  H22  1  0.31359000  0.78531000  0.41510000  1.0
  H  H23  1  0.68742000  0.21437000  0.58496000  1.0
  H  H24  1  0.16377000  0.86210000  0.04092000  1.0
  H  H25  1  0.83554000  0.13702000  0.95872000  1.0
  H  H26  1  0.10485000  0.95472000  0.97431000  1.0
  H  H27  1  0.89481000  0.04444000  0.02517000  1.0
  H  H28  1  0.13752000  0.84435000  0.93982000  1.0
  H  H29  1  0.86165000  0.15476000  0.05986000  1.0
  H  H30  1  0.13454000  0.72610000  0.03280000  1.0
  H  H31  1  0.86404000  0.27319000  0.96709000  1.0
  H  H32  1  0.84623000  0.58911000  0.13377000  1.0
  H  H33  1  0.15154000  0.41127000  0.86677000  1.0
  H  H34  1  0.68057000  0.72883000  0.11515000  1.0
  H  H35  1  0.31779000  0.27169000  0.88502000  1.0
  H  H36  1  0.25019000  0.63912000  0.94269000  1.0
  H  H37  1  0.74903000  0.36115000  0.05695000  1.0
  H  H38  1  0.37751000  0.62110000  0.01079000  1.0
  H  H39  1  0.62146000  0.37905000  0.98910000  1.0
  H  H40  1  0.41077000  0.58915000  0.91020000  1.0
  H  H41  1  0.58862000  0.41094000  0.08979000  1.0
  H  H42  1  0.27994000  0.66001000  0.80927000  1.0
  H  H43  1  0.72015000  0.33996000  0.19046000  1.0
  H  H44  1  0.31806000  0.87858000  0.64326000  1.0
  H  H45  1  0.68237000  0.12123000  0.35645000  1.0
  H  H46  1  0.41085000  0.94833000  0.74842000  1.0
  H  H47  1  0.58919000  0.05159000  0.25138000  1.0
  Ru  Ru48  1  0.56159000  0.53759000  0.45729000  1.0
  Ru  Ru49  1  0.43917000  0.46209000  0.54276000  1.0
  Ru  Ru50  1  0.43865000  0.97202000  0.05007000  1.0
  Ru  Ru51  1  0.56053000  0.02836000  0.94969000  1.0
  C  C52  1  0.69774000  0.68223000  0.34602000  1.0
  C  C53  1  0.30283000  0.31751000  0.65400000  1.0
  C  C54  1  0.73428000  0.75944000  0.31278000  1.0
  C  C55  1  0.26584000  0.24041000  0.68714000  1.0
  C  C56  1  0.63164000  0.83512000  0.31363000  1.0
  C  C57  1  0.36816000  0.16455000  0.68599000  1.0
  C  C58  1  0.86168000  0.76115000  0.28610000  1.0
  C  C59  1  0.13846000  0.23875000  0.71385000  1.0
  C  C60  1  0.90102000  0.84020000  0.25433000  1.0
  C  C61  1  0.09896000  0.15970000  0.74546000  1.0
  C  C62  1  0.03310000  0.84246000  0.22985000  1.0
  C  C63  1  0.96692000  0.15759000  0.77010000  1.0
  C  C64  1  0.13605000  0.76573000  0.23367000  1.0
  C  C65  1  0.86423000  0.23447000  0.76664000  1.0
  C  C66  1  0.09706000  0.68692000  0.26554000  1.0
  C  C67  1  0.90329000  0.31324000  0.73471000  1.0
  C  C68  1  0.96499000  0.68433000  0.28982000  1.0
  C  C69  1  0.03533000  0.31565000  0.71022000  1.0
  C  C70  1  0.29785000  0.84507000  0.17225000  1.0
  C  C71  1  0.70196000  0.15527000  0.82794000  1.0
  C  C72  1  0.26239000  0.76760000  0.20516000  1.0
  C  C73  1  0.73811000  0.23276000  0.79567000  1.0
  C  C74  1  0.36483000  0.69245000  0.19929000  1.0
  C  C75  1  0.63673000  0.30828000  0.80307000  1.0
  C  C76  1  0.55642000  0.58207000  0.62072000  1.0
  C  C77  1  0.44427000  0.41776000  0.37926000  1.0
  C  C78  1  0.59775000  0.61744000  0.69115000  1.0
  C  C79  1  0.40276000  0.38258000  0.30877000  1.0
  C  C80  1  0.64026000  0.69855000  0.68990000  1.0
  C  C81  1  0.36021000  0.30150000  0.30994000  1.0
  C  C82  1  0.67040000  0.83367000  0.62052000  1.0
  C  C83  1  0.33016000  0.16625000  0.37918000  1.0
  C  C84  1  0.68337000  0.72402000  0.75964000  1.0
  C  C85  1  0.31677000  0.27625000  0.24022000  1.0
  C  C86  1  0.68319000  0.66968000  0.82924000  1.0
  C  C87  1  0.31668000  0.33076000  0.17071000  1.0
  C  C88  1  0.63936000  0.59073000  0.83203000  1.0
  C  C89  1  0.36052000  0.40970000  0.16799000  1.0
  C  C90  1  0.59648000  0.56585000  0.76292000  1.0
  C  C91  1  0.40384000  0.43434000  0.23707000  1.0
  C  C92  1  0.29444000  0.62607000  0.47220000  1.0
  C  C93  1  0.70625000  0.37363000  0.52783000  1.0
  C  C94  1  0.18577000  0.70218000  0.46073000  1.0
  C  C95  1  0.81497000  0.29762000  0.53926000  1.0
  C  C96  1  0.05605000  0.69873000  0.48137000  1.0
  C  C97  1  0.94465000  0.30124000  0.51866000  1.0
  C  C98  1  0.89673000  0.61491000  0.52143000  1.0
  C  C99  1  0.10393000  0.38526000  0.47888000  1.0
  C  C100  1  0.96098000  0.77709000  0.47602000  1.0
  C  C101  1  0.03976000  0.22291000  0.52389000  1.0
  C  C102  1  0.99436000  0.85687000  0.44912000  1.0
  C  C103  1  0.00657000  0.14305000  0.55072000  1.0
  C  C104  1  0.12034000  0.86129000  0.42554000  1.0
  C  C105  1  0.88066000  0.13850000  0.57437000  1.0
  C  C106  1  0.21409000  0.78367000  0.43177000  1.0
  C  C107  1  0.78684000  0.21607000  0.56820000  1.0
  C  C108  1  0.70428000  0.88028000  0.04206000  1.0
  C  C109  1  0.29477000  0.12000000  0.95772000  1.0
  C  C110  1  0.81141000  0.80565000  0.06114000  1.0
  C  C111  1  0.18736000  0.19444000  0.93873000  1.0
  C  C112  1  0.94157000  0.80617000  0.03927000  1.0
  C  C113  1  0.05728000  0.19356000  0.96056000  1.0
  C  C114  1  0.10274000  0.88519000  0.99037000  1.0
  C  C115  1  0.89660000  0.11403000  0.00924000  1.0
  C  C116  1  0.03453000  0.72734000  0.04922000  1.0
  C  C117  1  0.96401000  0.27225000  0.95079000  1.0
  C  C118  1  0.99795000  0.65019000  0.08102000  1.0
  C  C119  1  0.00026000  0.34962000  0.91924000  1.0
  C  C120  1  0.87205000  0.64955000  0.10742000  1.0
  C  C121  1  0.12608000  0.35061000  0.89289000  1.0
  C  C122  1  0.78045000  0.72777000  0.09736000  1.0
  C  C123  1  0.21796000  0.27253000  0.90277000  1.0
  C  C124  1  0.44107000  0.89415000  0.89888000  1.0
  C  C125  1  0.55842000  0.10608000  0.10094000  1.0
  C  C126  1  0.39481000  0.84546000  0.83885000  1.0
  C  C127  1  0.60496000  0.15460000  0.16100000  1.0
  C  C128  1  0.35893000  0.76275000  0.85677000  1.0
  C  C129  1  0.64082000  0.23732000  0.14308000  1.0
  C  C130  1  0.35246000  0.63810000  0.94882000  1.0
  C  C131  1  0.64678000  0.36207000  0.05103000  1.0
  C  C132  1  0.30690000  0.72381000  0.79780000  1.0
  C  C133  1  0.69310000  0.27618000  0.20199000  1.0
  C  C134  1  0.29139000  0.76686000  0.72240000  1.0
  C  C135  1  0.70879000  0.23306000  0.27736000  1.0
  C  C136  1  0.32987000  0.84686000  0.70277000  1.0
  C  C137  1  0.67037000  0.15303000  0.29698000  1.0
  C  C138  1  0.38217000  0.88499000  0.76146000  1.0
  C  C139  1  0.61780000  0.11497000  0.23834000  1.0
  S  S140  1  0.90696000  0.98884000  0.20752000  1.0
  S  S141  1  0.09274000  0.01108000  0.79219000  1.0
  S  S142  1  0.09202000  0.53782000  0.31012000  1.0
  S  S143  1  0.90870000  0.46228000  0.69004000  1.0
  N  N144  1  0.65976000  0.62199000  0.37711000  1.0
  N  N145  1  0.34146000  0.37750000  0.62296000  1.0
  N  N146  1  0.54113000  0.89309000  0.31879000  1.0
  N  N147  1  0.45840000  0.10643000  0.68053000  1.0
  N  N148  1  0.82107000  0.92005000  0.24382000  1.0
  N  N149  1  0.17873000  0.07977000  0.75582000  1.0
  N  N150  1  0.04709000  0.92396000  0.20216000  1.0
  N  N151  1  0.95273000  0.07612000  0.79777000  1.0
  N  N152  1  0.17758000  0.60725000  0.27532000  1.0
  N  N153  1  0.82297000  0.39301000  0.72499000  1.0
  N  N154  1  0.95151000  0.60224000  0.31612000  1.0
  N  N155  1  0.04904000  0.39767000  0.68385000  1.0
  N  N156  1  0.33713000  0.90473000  0.14110000  1.0
  N  N157  1  0.66190000  0.09576000  0.85872000  1.0
  N  N158  1  0.45605000  0.63648000  0.18790000  1.0
  N  N159  1  0.54658000  0.36460000  0.81585000  1.0
  Cl  Cl160  1  0.73667000  0.70207000  0.91454000  1.0
  Cl  Cl161  1  0.26268000  0.29858000  0.08547000  1.0
  Cl  Cl162  1  0.87509000  0.95265000  0.44465000  1.0
  Cl  Cl163  1  0.12601000  0.04737000  0.55509000  1.0
  Cl  Cl164  1  0.11213000  0.55209000  0.08762000  1.0
  Cl  Cl165  1  0.88577000  0.44755000  0.91274000  1.0
  Cl  Cl166  1  0.22320000  0.71871000  0.65165000  1.0
  Cl  Cl167  1  0.77733000  0.28113000  0.34801000  1.0
  O  O168  1  0.60112000  0.60162000  0.55103000  1.0
  O  O169  1  0.39970000  0.39807000  0.44895000  1.0
  O  O170  1  0.47957000  0.52827000  0.63325000  1.0
  O  O171  1  0.52110000  0.47156000  0.36677000  1.0
  O  O172  1  0.63408000  0.74946000  0.62084000  1.0
  O  O173  1  0.36651000  0.25044000  0.37891000  1.0
  O  O174  1  0.40214000  0.63256000  0.43662000  1.0
  O  O175  1  0.59859000  0.36710000  0.56344000  1.0
  O  O176  1  0.28193000  0.55859000  0.51893000  1.0
  O  O177  1  0.71878000  0.44111000  0.48111000  1.0
  O  O178  1  0.02872000  0.61891000  0.50404000  1.0
  O  O179  1  0.97194000  0.38113000  0.49620000  1.0
  O  O180  1  0.59760000  0.88208000  0.08198000  1.0
  O  O181  1  0.40144000  0.11834000  0.91783000  1.0
  O  O182  1  0.71703000  0.93726000  0.98442000  1.0
  O  O183  1  0.28213000  0.06296000  0.01534000  1.0
  O  O184  1  0.97067000  0.88385000  0.01101000  1.0
  O  O185  1  0.02855000  0.11566000  0.98851000  1.0
  O  O186  1  0.39791000  0.88918000  0.97114000  1.0
  O  O187  1  0.60144000  0.11115000  0.02866000  1.0
  O  O188  1  0.51913000  0.94422000  0.87430000  1.0
  O  O189  1  0.48022000  0.05609000  0.12547000  1.0
  O  O190  1  0.37994000  0.72436000  0.93084000  1.0
  O  O191  1  0.61968000  0.27569000  0.06903000  1.0
