# generated using pymatgen
data_ZnH9C19(NO2)5
_symmetry_space_group_name_H-M   'P 1'
_cell_length_a   12.99860000
_cell_length_b   16.07490000
_cell_length_c   17.28120000
_cell_angle_alpha   84.88040000
_cell_angle_beta   88.57470000
_cell_angle_gamma   83.95680000
_symmetry_Int_Tables_number   1
_chemical_formula_structural   ZnH9C19(NO2)5
_chemical_formula_sum   'Zn2 H18 C38 N10 O20'
_cell_volume   3576.09857986
_cell_formula_units_Z   2
loop_
 _symmetry_equiv_pos_site_id
 _symmetry_equiv_pos_as_xyz
  1  'x, y, z'
loop_
 _atom_site_type_symbol
 _atom_site_label
 _atom_site_symmetry_multiplicity
 _atom_site_fract_x
 _atom_site_fract_y
 _atom_site_fract_z
 _atom_site_occupancy
  Zn  Zn0  1  0.49916000  0.59108000  0.49641000  1.0
  Zn  Zn1  1  0.50085000  0.40892000  0.50359000  1.0
  H  H2  1  0.18972000  0.42188000  0.45135000  1.0
  H  H3  1  0.81029000  0.57810000  0.54866000  1.0
  H  H4  1  0.03010000  0.35770000  0.41711000  1.0
  H  H5  1  0.96990000  0.64228000  0.58290000  1.0
  H  H6  1  0.38219000  0.58024000  0.74679000  1.0
  H  H7  1  0.61781000  0.41977000  0.25320000  1.0
  H  H8  1  0.38710000  0.57581000  0.89224000  1.0
  H  H9  1  0.61289000  0.42420000  0.10776000  1.0
  H  H10  1  0.36208000  0.62228000  0.10621000  1.0
  H  H11  1  0.63790000  0.37773000  0.89380000  1.0
  H  H12  1  0.55928000  0.89982000  0.39719000  1.0
  H  H13  1  0.44070000  0.10018000  0.60280000  1.0
  H  H14  1  0.60093000  0.13660000  0.38266000  1.0
  H  H15  1  0.39909000  0.86339000  0.61734000  1.0
  H  H16  1  0.57966000  0.29237000  0.39801000  1.0
  H  H17  1  0.42036000  0.70763000  0.60200000  1.0
  H  H18  1  0.60250000  0.73998000  0.26512000  1.0
  H  H19  1  0.39749000  0.26003000  0.73488000  1.0
  C  C20  1  0.49627000  0.50999000  0.34864000  1.0
  C  C21  1  0.50374000  0.49002000  0.65136000  1.0
  C  C22  1  0.69786000  0.47118000  0.49411000  1.0
  C  C23  1  0.30215000  0.52881000  0.50589000  1.0
  C  C24  1  0.18700000  0.52949000  0.51441000  1.0
  C  C25  1  0.81300000  0.47050000  0.48560000  1.0
  C  C26  1  0.98339000  0.40614000  0.44649000  1.0
  C  C27  1  0.01662000  0.59383000  0.55352000  1.0
  C  C28  1  0.87723000  0.40871000  0.44817000  1.0
  C  C29  1  0.12278000  0.59129000  0.55184000  1.0
  C  C30  1  0.85983000  0.53084000  0.51992000  1.0
  C  C31  1  0.14018000  0.46915000  0.48009000  1.0
  C  C32  1  0.96837000  0.53190000  0.51859000  1.0
  C  C33  1  0.03164000  0.46807000  0.48141000  1.0
  C  C34  1  0.49058000  0.51536000  0.26159000  1.0
  C  C35  1  0.50942000  0.48464000  0.73841000  1.0
  C  C36  1  0.56103000  0.46276000  0.22025000  1.0
  C  C37  1  0.43897000  0.53724000  0.77974000  1.0
  C  C38  1  0.55894000  0.46546000  0.13983000  1.0
  C  C39  1  0.44105000  0.53455000  0.86017000  1.0
  C  C40  1  0.48557000  0.52211000  0.09845000  1.0
  C  C41  1  0.51441000  0.47789000  0.90155000  1.0
  C  C42  1  0.41764000  0.57756000  0.13834000  1.0
  C  C43  1  0.58233000  0.42244000  0.86167000  1.0
  C  C44  1  0.42027000  0.57256000  0.21893000  1.0
  C  C45  1  0.57972000  0.42744000  0.78108000  1.0
  C  C46  1  0.46060000  0.22772000  0.55890000  1.0
  C  C47  1  0.53940000  0.77228000  0.44109000  1.0
  C  C48  1  0.47035000  0.14118000  0.55587000  1.0
  C  C49  1  0.52963000  0.85882000  0.44412000  1.0
  C  C50  1  0.51848000  0.10781000  0.49035000  1.0
  C  C51  1  0.48151000  0.89219000  0.50964000  1.0
  C  C52  1  0.56034000  0.16161000  0.43282000  1.0
  C  C53  1  0.43966000  0.83838000  0.56718000  1.0
  C  C54  1  0.54828000  0.24746000  0.44093000  1.0
  C  C55  1  0.45173000  0.75253000  0.55907000  1.0
  C  C56  1  0.59992000  0.73451000  0.37487000  1.0
  C  C57  1  0.40006000  0.26550000  0.62512000  1.0
  N  N58  1  0.47356000  0.52856000  0.01706000  1.0
  N  N59  1  0.52641000  0.47145000  0.98294000  1.0
  N  N60  1  0.49758000  0.28025000  0.50189000  1.0
  N  N61  1  0.50243000  0.71976000  0.49811000  1.0
  N  N62  1  0.53014000  0.02110000  0.47908000  1.0
  N  N63  1  0.46985000  0.97890000  0.52092000  1.0
  N  N64  1  0.16805000  0.65210000  0.59661000  1.0
  N  N65  1  0.83196000  0.34788000  0.40339000  1.0
  N  N66  1  0.34128000  0.62747000  0.25853000  1.0
  N  N67  1  0.65872000  0.37253000  0.74147000  1.0
  O  O68  1  0.49357000  0.57919000  0.37921000  1.0
  O  O69  1  0.50642000  0.42082000  0.62080000  1.0
  O  O70  1  0.50581000  0.43650000  0.38250000  1.0
  O  O71  1  0.49423000  0.56351000  0.61750000  1.0
  O  O72  1  0.64889000  0.54271000  0.50118000  1.0
  O  O73  1  0.35112000  0.45729000  0.49881000  1.0
  O  O74  1  0.65979000  0.40152000  0.49584000  1.0
  O  O75  1  0.34022000  0.59847000  0.50418000  1.0
  O  O76  1  0.23154000  0.62293000  0.64688000  1.0
  O  O77  1  0.13654000  0.72729000  0.58330000  1.0
  O  O78  1  0.76844000  0.37706000  0.35313000  1.0
  O  O79  1  0.86350000  0.27269000  0.41669000  1.0
  O  O80  1  0.33145000  0.70284000  0.23471000  1.0
  O  O81  1  0.28877000  0.59378000  0.31059000  1.0
  O  O82  1  0.66856000  0.29716000  0.76531000  1.0
  O  O83  1  0.71122000  0.40622000  0.68941000  1.0
  O  O84  1  0.67694000  0.68507000  0.38346000  1.0
  O  O85  1  0.56008000  0.76679000  0.30554000  1.0
  O  O86  1  0.32304000  0.31493000  0.61653000  1.0
  O  O87  1  0.43991000  0.23323000  0.69445000  1.0
