# generated using pymatgen
data_CuH16C20N2O5F4
_symmetry_space_group_name_H-M   'P 1'
_cell_length_a   7.47222000
_cell_length_b   11.66300000
_cell_length_c   11.66300000
_cell_angle_alpha   97.41620000
_cell_angle_beta   99.27910000
_cell_angle_gamma   99.28090000
_symmetry_Int_Tables_number   1
_chemical_formula_structural   CuH16C20N2O5F4
_chemical_formula_sum   'Cu2 H32 C40 N4 O10 F8'
_cell_volume   977.35235827
_cell_formula_units_Z   2
loop_
 _symmetry_equiv_pos_site_id
 _symmetry_equiv_pos_as_xyz
  1  'x, y, z'
loop_
 _atom_site_type_symbol
 _atom_site_label
 _atom_site_symmetry_multiplicity
 _atom_site_fract_x
 _atom_site_fract_y
 _atom_site_fract_z
 _atom_site_occupancy
  Cu  Cu0  1  0.21632000  0.44690000  0.69215000  1.0
  Cu  Cu1  1  0.71632000  0.69215000  0.44690000  1.0
  H  H2  1  0.98886000  0.42009000  0.12568000  1.0
  H  H3  1  0.48887000  0.12567000  0.42009000  1.0
  H  H4  1  0.17809000  0.81705000  0.07650000  1.0
  H  H5  1  0.67808000  0.07651000  0.81704000  1.0
  H  H6  1  0.09276000  0.82593000  0.52540000  1.0
  H  H7  1  0.59275000  0.52539000  0.82592000  1.0
  H  H8  1  0.33487000  0.83126000  0.55803000  1.0
  H  H9  1  0.83486000  0.55802000  0.83125000  1.0
  H  H10  1  0.86241000  0.22439000  0.17703000  1.0
  H  H11  1  0.36241000  0.17702000  0.22439000  1.0
  H  H12  1  0.17273000  0.68912000  0.71179000  1.0
  H  H13  1  0.67273000  0.71179000  0.68913000  1.0
  H  H14  1  0.13972000  0.84914000  0.86394000  1.0
  H  H15  1  0.63972000  0.86395000  0.84914000  1.0
  H  H16  1  0.28145000  0.47147000  0.95802000  1.0
  H  H17  1  0.78145000  0.95801000  0.47147000  1.0
  H  H18  1  0.03898000  0.02778000  0.87128000  1.0
  H  H19  1  0.53899000  0.87128000  0.02777000  1.0
  H  H20  1  0.20196000  0.56999000  0.28273000  1.0
  H  H21  1  0.70195000  0.28272000  0.56999000  1.0
  H  H22  1  0.18160000  0.15267000  0.48384000  1.0
  H  H23  1  0.68161000  0.48383000  0.15267000  1.0
  H  H24  1  0.94738000  0.18338000  0.37762000  1.0
  H  H25  1  0.44737000  0.37760000  0.18338000  1.0
  H  H26  1  0.20342000  0.75384000  0.34342000  1.0
  H  H27  1  0.70341000  0.34341000  0.75383000  1.0
  H  H28  1  0.36985000  0.88426000  0.36094000  1.0
  H  H29  1  0.86984000  0.36094000  0.88425000  1.0
  H  H30  1  0.13031000  0.89058000  0.32804000  1.0
  H  H31  1  0.63030000  0.32803000  0.89057000  1.0
  H  H32  1  0.25695000  0.62438000  0.12356000  1.0
  H  H33  1  0.75696000  0.12356000  0.62437000  1.0
  C  C34  1  0.21630000  0.15890000  0.66936000  1.0
  C  C35  1  0.71630000  0.66935000  0.15890000  1.0
  C  C36  1  0.27583000  0.17468000  0.89818000  1.0
  C  C37  1  0.77584000  0.89818000  0.17467000  1.0
  C  C38  1  0.02731000  0.40018000  0.21417000  1.0
  C  C39  1  0.52731000  0.21416000  0.40019000  1.0
  C  C40  1  0.19321000  0.74916000  0.00730000  1.0
  C  C41  1  0.69321000  0.00730000  0.74916000  1.0
  C  C42  1  0.19643000  0.46223000  0.41624000  1.0
  C  C43  1  0.69643000  0.41623000  0.46223000  1.0
  C  C44  1  0.13024000  0.35061000  0.44363000  1.0
  C  C45  1  0.63024000  0.44363000  0.35061000  1.0
  C  C46  1  0.21129000  0.03037000  0.65030000  1.0
  C  C47  1  0.71129000  0.65030000  0.03036000  1.0
  C  C48  1  0.22599000  0.86647000  0.50661000  1.0
  C  C49  1  0.72598000  0.50661000  0.86646000  1.0
  C  C50  1  0.95767000  0.29094000  0.24251000  1.0
  C  C51  1  0.45767000  0.24250000  0.29095000  1.0
  C  C52  1  0.19105000  0.67881000  0.80409000  1.0
  C  C53  1  0.69105000  0.80409000  0.67882000  1.0
  C  C54  1  0.17140000  0.76760000  0.89048000  1.0
  C  C55  1  0.67140000  0.89049000  0.76761000  1.0
  C  C56  1  0.25190000  0.55718000  0.94252000  1.0
  C  C57  1  0.75190000  0.94252000  0.55718000  1.0
  C  C58  1  0.10955000  0.10391000  0.93729000  1.0
  C  C59  1  0.60956000  0.93729000  0.10389000  1.0
  C  C60  1  0.14433000  0.48393000  0.30112000  1.0
  C  C61  1  0.64432000  0.30111000  0.48393000  1.0
  C  C62  1  0.22840000  0.22419000  0.78167000  1.0
  C  C63  1  0.72840000  0.78167000  0.22419000  1.0
  C  C64  1  0.19245000  0.21249000  0.56593000  1.0
  C  C65  1  0.69245000  0.56593000  0.21249000  1.0
  C  C66  1  0.32730000  0.55958000  0.49997000  1.0
  C  C67  1  0.82729000  0.49998000  0.55957000  1.0
  C  C68  1  0.00804000  0.26710000  0.35579000  1.0
  C  C69  1  0.50803000  0.35578000  0.26711000  1.0
  C  C70  1  0.23261000  0.84847000  0.37686000  1.0
  C  C71  1  0.73260000  0.37685000  0.84846000  1.0
  C  C72  1  0.23579000  0.64230000  0.03353000  1.0
  C  C73  1  0.73580000  0.03353000  0.64230000  1.0
  N  N74  1  0.18128000  0.32221000  0.55730000  1.0
  N  N75  1  0.68128000  0.55730000  0.32221000  1.0
  N  N76  1  0.22922000  0.57499000  0.82969000  1.0
  N  N77  1  0.72922000  0.82969000  0.57499000  1.0
  O  O78  1  0.25404000  0.99337000  0.54490000  1.0
  O  O79  1  0.75404000  0.54490000  0.99336000  1.0
  O  O80  1  0.16593000  0.96234000  0.71735000  1.0
  O  O81  1  0.66593000  0.71734000  0.96234000  1.0
  O  O82  1  0.20959000  0.33096000  0.80090000  1.0
  O  O83  1  0.70959000  0.80090000  0.33095000  1.0
  O  O84  1  0.34830000  0.56081000  0.61235000  1.0
  O  O85  1  0.84829000  0.61234000  0.56081000  1.0
  O  O86  1  0.41246000  0.64097000  0.45733000  1.0
  O  O87  1  0.91246000  0.45733000  0.64097000  1.0
  F  F88  1  0.40939000  0.10682000  0.89288000  1.0
  F  F89  1  0.90939000  0.89287000  0.10681000  1.0
  F  F90  1  0.35142000  0.26873000  0.98702000  1.0
  F  F91  1  0.85144000  0.98701000  0.26872000  1.0
  F  F92  1  0.98833000  0.17838000  0.95771000  1.0
  F  F93  1  0.48835000  0.95771000  0.17837000  1.0
  F  F94  1  0.17061000  0.06701000  0.04157000  1.0
  F  F95  1  0.67064000  0.04156000  0.06700000  1.0
