# generated using pymatgen
data_Zn3H28C30(NO6)2
_symmetry_space_group_name_H-M   'P 1'
_cell_length_a   9.02533000
_cell_length_b   9.12106000
_cell_length_c   19.70250000
_cell_angle_alpha   95.48600000
_cell_angle_beta   97.73770000
_cell_angle_gamma   117.90200000
_symmetry_Int_Tables_number   1
_chemical_formula_structural   Zn3H28C30(NO6)2
_chemical_formula_sum   'Zn3 H28 C30 N2 O12'
_cell_volume   1396.82970468
_cell_formula_units_Z   1
loop_
 _symmetry_equiv_pos_site_id
 _symmetry_equiv_pos_as_xyz
  1  'x, y, z'
loop_
 _atom_site_type_symbol
 _atom_site_label
 _atom_site_symmetry_multiplicity
 _atom_site_fract_x
 _atom_site_fract_y
 _atom_site_fract_z
 _atom_site_occupancy
  Zn  Zn0  1  0.31209000  0.44133000  0.77383000  1.0
  Zn  Zn1  1  0.43875000  0.61600000  0.93647000  1.0
  Zn  Zn2  1  0.56732000  0.79090000  0.09931000  1.0
  H  H3  1  0.37547000  0.98604000  0.83941000  1.0
  H  H4  1  0.48502000  0.06659000  0.77176000  1.0
  H  H5  1  0.77816000  0.07638000  0.77264000  1.0
  H  H6  1  0.85763000  0.99646000  0.83790000  1.0
  H  H7  1  0.84757000  0.46121000  0.89410000  1.0
  H  H8  1  0.77591000  0.35773000  0.80553000  1.0
  H  H9  1  0.03549000  0.77122000  0.97880000  1.0
  H  H10  1  0.10468000  0.87440000  0.06739000  1.0
  H  H11  1  0.50273000  0.25053000  0.03397000  1.0
  H  H12  1  0.39338000  0.16871000  0.10155000  1.0
  H  H13  1  0.09846000  0.15248000  0.10012000  1.0
  H  H14  1  0.01646000  0.23123000  0.03519000  1.0
  H  H15  1  0.00249000  0.16590000  0.68717000  1.0
  H  H16  1  0.87645000  0.04326000  0.56174000  1.0
  H  H17  1  0.32303000  0.45673000  0.51477000  1.0
  H  H18  1  0.42763000  0.56453000  0.64421000  1.0
  H  H19  1  0.10976000  0.25865000  0.41905000  1.0
  H  H20  1  0.79326000  0.96487000  0.45324000  1.0
  H  H21  1  0.58358000  0.76204000  0.35910000  1.0
  H  H22  1  0.46767000  0.65910000  0.22974000  1.0
  H  H23  1  0.87708000  0.06947000  0.18413000  1.0
  H  H24  1  0.01252000  0.18893000  0.30913000  1.0
  H  H25  1  0.61409000  0.95193000  0.89688000  1.0
  H  H26  1  0.89115000  0.22899000  0.92890000  1.0
  H  H27  1  0.60452000  0.22564000  0.92710000  1.0
  H  H28  1  0.98790000  0.00135000  0.94373000  1.0
  H  H29  1  0.26130000  0.27997000  0.97598000  1.0
  H  H30  1  0.27698000  0.00889000  0.94632000  1.0
  C  C31  1  0.50360000  0.33477000  0.85719000  1.0
  C  C32  1  0.59726000  0.23566000  0.87163000  1.0
  C  C33  1  0.50318000  0.05795000  0.82730000  1.0
  C  C34  1  0.60610000  0.96553000  0.84198000  1.0
  C  C35  1  0.51220000  0.78981000  0.79845000  1.0
  C  C36  1  0.78665000  0.06540000  0.82794000  1.0
  C  C37  1  0.88106000  0.24091000  0.87355000  1.0
  C  C38  1  0.06340000  0.34685000  0.86330000  1.0
  C  C39  1  0.78118000  0.33687000  0.85978000  1.0
  C  C40  1  0.81522000  0.88217000  0.00905000  1.0
  C  C41  1  0.99753000  0.98903000  0.99903000  1.0
  C  C42  1  0.09964000  0.89538000  0.01316000  1.0
  C  C43  1  0.28381000  0.99903000  0.00181000  1.0
  C  C44  1  0.37842000  0.90080000  0.01651000  1.0
  C  C45  1  0.37521000  0.17679000  0.04595000  1.0
  C  C46  1  0.26965000  0.26658000  0.03092000  1.0
  C  C47  1  0.36187000  0.44231000  0.07436000  1.0
  C  C48  1  0.08957000  0.16425000  0.04489000  1.0
  C  C49  1  0.06854000  0.22461000  0.64665000  1.0
  C  C50  1  0.99990000  0.15812000  0.57655000  1.0
  C  C51  1  0.08961000  0.23996000  0.52630000  1.0
  C  C52  1  0.24774000  0.38772000  0.55118000  1.0
  C  C53  1  0.30846000  0.44792000  0.62231000  1.0
  C  C54  1  0.02608000  0.18104000  0.45150000  1.0
  C  C55  1  0.87589000  0.04301000  0.42063000  1.0
  C  C56  1  0.80903000  0.98503000  0.34598000  1.0
  C  C57  1  0.65286000  0.83462000  0.32206000  1.0
  C  C58  1  0.58606000  0.77691000  0.25114000  1.0
  C  C59  1  0.81694000  0.00708000  0.22518000  1.0
  C  C60  1  0.89128000  0.07149000  0.29505000  1.0
  N  N61  1  0.22011000  0.36758000  0.66930000  1.0
  N  N62  1  0.66676000  0.86215000  0.20345000  1.0
  O  O63  1  0.45319000  0.33292000  0.79259000  1.0
  O  O64  1  0.48325000  0.41248000  0.90854000  1.0
  O  O65  1  0.51171000  0.76266000  0.73534000  1.0
  O  O66  1  0.42658000  0.66639000  0.83120000  1.0
  O  O67  1  0.09118000  0.31596000  0.80262000  1.0
  O  O68  1  0.17170000  0.45789000  0.91401000  1.0
  O  O69  1  0.70592000  0.77366000  0.95789000  1.0
  O  O70  1  0.78844000  0.91062000  0.07015000  1.0
  O  O71  1  0.39418000  0.81902000  0.96516000  1.0
  O  O72  1  0.43304000  0.90643000  0.08112000  1.0
  O  O73  1  0.44874000  0.56572000  0.04187000  1.0
  O  O74  1  0.36045000  0.46920000  0.13729000  1.0
