# generated using pymatgen
data_CuH12C12N5ClO4
_symmetry_space_group_name_H-M   'P 1'
_cell_length_a   7.54171000
_cell_length_b   9.52645000
_cell_length_c   10.05780000
_cell_angle_alpha   87.66760000
_cell_angle_beta   88.58490000
_cell_angle_gamma   84.93840000
_symmetry_Int_Tables_number   1
_chemical_formula_structural   CuH12C12N5ClO4
_chemical_formula_sum   'Cu2 H24 C24 N10 Cl2 O8'
_cell_volume   719.03400497
_cell_formula_units_Z   2
loop_
 _symmetry_equiv_pos_site_id
 _symmetry_equiv_pos_as_xyz
  1  'x, y, z'
loop_
 _atom_site_type_symbol
 _atom_site_label
 _atom_site_symmetry_multiplicity
 _atom_site_fract_x
 _atom_site_fract_y
 _atom_site_fract_z
 _atom_site_occupancy
  Cu  Cu0  1  0.84160000  0.30868000  0.20276000  1.0
  Cu  Cu1  1  0.15841000  0.69131000  0.79723000  1.0
  H  H2  1  0.34390000  0.27548000  0.54065000  1.0
  H  H3  1  0.65610000  0.72456000  0.45934000  1.0
  H  H4  1  0.21001000  0.30561000  0.04059000  1.0
  H  H5  1  0.79000000  0.69437000  0.95941000  1.0
  H  H6  1  0.59400000  0.04646000  0.26975000  1.0
  H  H7  1  0.40600000  0.95353000  0.73027000  1.0
  H  H8  1  0.41449000  0.04067000  0.37768000  1.0
  H  H9  1  0.58550000  0.95934000  0.62233000  1.0
  H  H10  1  0.40704000  0.88143000  0.19748000  1.0
  H  H11  1  0.59295000  0.11856000  0.80254000  1.0
  H  H12  1  0.40487000  0.02735000  0.08125000  1.0
  H  H13  1  0.59513000  0.97264000  0.91876000  1.0
  H  H14  1  0.22259000  0.01422000  0.19821000  1.0
  H  H15  1  0.77741000  0.98579000  0.80180000  1.0
  H  H16  1  0.27380000  0.25240000  0.28709000  1.0
  H  H17  1  0.72621000  0.74760000  0.71291000  1.0
  H  H18  1  0.58464000  0.36882000  0.68080000  1.0
  H  H19  1  0.41538000  0.63124000  0.31917000  1.0
  H  H20  1  0.86343000  0.40778000  0.50282000  1.0
  H  H21  1  0.13658000  0.59225000  0.49714000  1.0
  H  H22  1  0.73043000  0.37523000  0.89475000  1.0
  H  H23  1  0.26957000  0.62473000  0.10525000  1.0
  H  H24  1  0.36524000  0.38559000  0.83065000  1.0
  H  H25  1  0.63476000  0.61439000  0.16934000  1.0
  C  C26  1  0.36603000  0.99377000  0.18223000  1.0
  C  C27  1  0.63397000  0.00623000  0.81779000  1.0
  C  C28  1  0.41832000  0.23200000  0.26858000  1.0
  C  C29  1  0.58169000  0.76799000  0.73141000  1.0
  C  C30  1  0.51938000  0.29333000  0.37484000  1.0
  C  C31  1  0.48062000  0.70668000  0.62515000  1.0
  C  C32  1  0.59749000  0.35013000  0.57567000  1.0
  C  C33  1  0.40251000  0.64992000  0.42430000  1.0
  C  C34  1  0.73490000  0.36957000  0.48651000  1.0
  C  C35  1  0.26511000  0.63046000  0.51346000  1.0
  C  C36  1  0.46447000  0.28664000  0.13238000  1.0
  C  C37  1  0.53553000  0.71334000  0.86761000  1.0
  C  C38  1  0.61448000  0.34786000  0.95360000  1.0
  C  C39  1  0.38552000  0.65210000  0.04640000  1.0
  C  C40  1  0.43721000  0.35386000  0.92055000  1.0
  C  C41  1  0.56279000  0.64612000  0.07945000  1.0
  C  C42  1  0.99792000  0.10554000  0.02338000  1.0
  C  C43  1  0.00211000  0.89444000  0.97662000  1.0
  C  C44  1  0.89599000  0.98565000  0.07113000  1.0
  C  C45  1  0.10404000  0.01432000  0.92889000  1.0
  C  C46  1  0.00530000  0.07120000  0.41816000  1.0
  C  C47  1  0.99466000  0.92882000  0.58188000  1.0
  C  C48  1  0.86227000  0.00126000  0.49059000  1.0
  C  C49  1  0.13770000  0.99878000  0.50944000  1.0
  N  N50  1  0.46330000  0.30278000  0.50375000  1.0
  N  N51  1  0.53671000  0.69725000  0.49624000  1.0
  N  N52  1  0.68435000  0.33373000  0.36257000  1.0
  N  N53  1  0.31564000  0.66628000  0.63740000  1.0
  N  N54  1  0.62897000  0.30539000  0.08599000  1.0
  N  N55  1  0.37103000  0.69458000  0.91399000  1.0
  N  N56  1  0.34600000  0.31519000  0.03371000  1.0
  N  N57  1  0.65400000  0.68479000  0.96628000  1.0
  N  N58  1  0.45748000  0.07206000  0.28008000  1.0
  N  N59  1  0.54252000  0.92792000  0.71994000  1.0
  Cl  Cl60  1  0.01394000  0.49702000  0.24095000  1.0
  Cl  Cl61  1  0.98606000  0.50297000  0.75904000  1.0
  O  O62  1  0.00008000  0.23384000  0.05083000  1.0
  O  O63  1  0.99992000  0.76613000  0.94918000  1.0
  O  O64  1  0.77319000  0.96758000  0.15300000  1.0
  O  O65  1  0.22682000  0.03240000  0.84701000  1.0
  O  O66  1  0.02253000  0.15579000  0.32040000  1.0
  O  O67  1  0.97746000  0.84421000  0.67961000  1.0
  O  O68  1  0.69607000  0.99931000  0.48203000  1.0
  O  O69  1  0.30389000  0.00072000  0.51799000  1.0
