# generated using pymatgen
data_Zn4H29C44I6N16F5
_symmetry_space_group_name_H-M   'P 1'
_cell_length_a   14.59650000
_cell_length_b   15.01550000
_cell_length_c   15.15460000
_cell_angle_alpha   112.09870000
_cell_angle_beta   110.61290000
_cell_angle_gamma   104.34400000
_symmetry_Int_Tables_number   1
_chemical_formula_structural   Zn4H29C44I6N16F5
_chemical_formula_sum   'Zn4 H29 C44 I6 N16 F5'
_cell_volume   2588.90908290
_cell_formula_units_Z   1
loop_
 _symmetry_equiv_pos_site_id
 _symmetry_equiv_pos_as_xyz
  1  'x, y, z'
loop_
 _atom_site_type_symbol
 _atom_site_label
 _atom_site_symmetry_multiplicity
 _atom_site_fract_x
 _atom_site_fract_y
 _atom_site_fract_z
 _atom_site_occupancy
  Zn  Zn0  1  0.85810000  0.49766000  0.86794000  1.0
  Zn  Zn1  1  0.12822000  0.49099000  0.14361000  1.0
  Zn  Zn2  1  0.97798000  0.62875000  0.13600000  1.0
  Zn  Zn3  1  0.99820000  0.35521000  0.87314000  1.0
  H  H4  1  0.79750000  0.68381000  0.82252000  1.0
  H  H5  1  0.33039000  0.41242000  0.19028000  1.0
  H  H6  1  0.99063000  0.66666667  0.84013000  1.0
  H  H7  1  0.14790000  0.23364000  0.83518000  1.0
  H  H8  1  0.93277000  0.84418000  0.17483000  1.0
  H  H9  1  0.64885000  0.32888000  0.60445000  1.0
  H  H10  1  0.20328000  0.53206000  0.39592000  1.0
  H  H11  1  0.81084000  0.47662000  0.17063000  1.0
  H  H12  1  0.79799000  0.15880000  0.82168000  1.0
  H  H13  1  0.63032000  0.31993000  0.81578000  1.0
  H  H14  1  0.24094000  0.57496000  0.71996000  1.0
  H  H15  1  0.26952000  0.71044000  0.79353000  1.0
  H  H16  1  0.25833000  0.73139000  0.64463000  1.0
  H  H17  1  0.25614000  0.60420000  0.58569000  1.0
  H  H18  1  0.02051000  0.42644000  0.60191000  1.0
  H  H19  1  0.12403000  0.76705000  0.76052000  1.0
  H  H20  1  0.09207000  0.75863000  0.59329000  1.0
  H  H21  1  0.96380000  0.64861000  0.52545000  1.0
  H  H22  1  0.93258000  0.48656000  0.57854000  1.0
  H  H23  1  0.46692000  0.24050000  0.83226000  1.0
  H  H24  1  0.59796000  0.35169000  0.08354000  1.0
  H  H25  1  0.30535000  0.20832000  0.84286000  1.0
  H  H26  1  0.49894000  0.83559000  0.33264000  1.0
  H  H27  1  0.65719000  0.99044000  0.46986000  1.0
  H  H28  1  0.54506000  0.12870000  0.42401000  1.0
  H  H29  1  0.90295000  0.15171000  0.16181000  1.0
  H  H30  1  0.78442000  0.02350000  0.90937000  1.0
  H  H31  1  0.87023000  0.98357000  0.15505000  1.0
  H  H32  1  0.82983000  0.89427000  0.91900000  1.0
  C  C33  1  0.83237000  0.70791000  0.90875000  1.0
  C  C34  1  0.27145000  0.37327000  0.10393000  1.0
  C  C35  1  0.19176000  0.78129000  0.18397000  1.0
  C  C36  1  0.11070000  0.50916000  0.81900000  1.0
  C  C37  1  0.28246000  0.68674000  0.16216000  1.0
  C  C38  1  0.02693000  0.61190000  0.84046000  1.0
  C  C39  1  0.17897000  0.28220000  0.92250000  1.0
  C  C40  1  0.89978000  0.78939000  0.08816000  1.0
  C  C41  1  0.85477000  0.80314000  0.99798000  1.0
  C  C42  1  0.27537000  0.30670000  0.01202000  1.0
  C  C43  1  0.29704000  0.79399000  0.20354000  1.0
  C  C44  1  0.08839000  0.58408000  0.79074000  1.0
  C  C45  1  0.70922000  0.29947000  0.62670000  1.0
  C  C46  1  0.15079000  0.56924000  0.37462000  1.0
  C  C47  1  0.78191000  0.44837000  0.08414000  1.0
  C  C48  1  0.85184000  0.21443000  0.90919000  1.0
  C  C49  1  0.94799000  0.29637000  0.08730000  1.0
  C  C50  1  0.68901000  0.36832000  0.90296000  1.0
  C  C51  1  0.80378000  0.20680000  0.63596000  1.0
  C  C52  1  0.04028000  0.64549000  0.36166000  1.0
  C  C53  1  0.70303000  0.19803000  0.56584000  1.0
  C  C54  1  0.09725000  0.61110000  0.42857000  1.0
  C  C55  1  0.67850000  0.37146000  0.99321000  1.0
  C  C56  1  0.86848000  0.19511000  0.99657000  1.0
  C  C57  1  0.21306000  0.63516000  0.71499000  1.0
  C  C58  1  0.21428000  0.64720000  0.61843000  1.0
  C  C59  1  0.01399000  0.49394000  0.59297000  1.0
  C  C60  1  0.06475000  0.68721000  0.68871000  1.0
  C  C61  1  0.09762000  0.60154000  0.70168000  1.0
  C  C62  1  0.09708000  0.60616000  0.52612000  1.0
  C  C63  1  0.02774000  0.49066000  0.49619000  1.0
  C  C64  1  0.05121000  0.67920000  0.58033000  1.0
  C  C65  1  0.47949000  0.26746000  0.91524000  1.0
  C  C66  1  0.58378000  0.32628000  0.00042000  1.0
  C  C67  1  0.38074000  0.24895000  0.92100000  1.0
  C  C68  1  0.36797000  0.29049000  0.00996000  1.0
  C  C69  1  0.49494000  0.90910000  0.33886000  1.0
  C  C70  1  0.39540000  0.89351000  0.27028000  1.0
  C  C71  1  0.59172000  0.00553000  0.42511000  1.0
  C  C72  1  0.60862000  0.10927000  0.46463000  1.0
  C  C73  1  0.86190000  0.08087000  0.08014000  1.0
  C  C74  1  0.83161000  0.09419000  0.99192000  1.0
  C  C75  1  0.85490000  0.98237000  0.07845000  1.0
  C  C76  1  0.84289000  0.89469000  0.99486000  1.0
  I  I77  1  0.87784000  0.10417000  0.62090000  1.0
  I  I78  1  0.94019000  0.72335000  0.36648000  1.0
  I  I79  1  0.10326000  0.38110000  0.45466000  1.0
  I  I80  1  0.86497000  0.41534000  0.35228000  1.0
  I  I81  1  0.19485000  0.42174000  0.77815000  1.0
  I  I82  1  0.39297000  0.62891000  0.14087000  1.0
  N  N83  1  0.86066000  0.64315000  0.94286000  1.0
  N  N84  1  0.18154000  0.38917000  0.07105000  1.0
  N  N85  1  0.12297000  0.67997000  0.13934000  1.0
  N  N86  1  0.06449000  0.49300000  0.87803000  1.0
  N  N87  1  0.17953000  0.61975000  0.12621000  1.0
  N  N88  1  0.01195000  0.55638000  0.89087000  1.0
  N  N89  1  0.12422000  0.33216000  0.95820000  1.0
  N  N90  1  0.90335000  0.69440000  0.05477000  1.0
  N  N91  1  0.80292000  0.36088000  0.72333000  1.0
  N  N92  1  0.12630000  0.57608000  0.28379000  1.0
  N  N93  1  0.84662000  0.48867000  0.05051000  1.0
  N  N94  1  0.91718000  0.31674000  0.94685000  1.0
  N  N95  1  0.97725000  0.36808000  0.05895000  1.0
  N  N96  1  0.78949000  0.43916000  0.93910000  1.0
  N  N97  1  0.86184000  0.30288000  0.72879000  1.0
  N  N98  1  0.05751000  0.62394000  0.27580000  1.0
  F  F99  1  0.99803000  0.32436000  0.19340000  1.0
  F  F100  1  0.96274000  0.67377000  0.68485000  1.0
  F  F101  1  0.15797000  0.85799000  0.20876000  1.0
  F  F102  1  0.45673000  0.34176000  0.11347000  1.0
  F  F103  1  0.37811000  0.97933000  0.27025000  1.0
