# generated using pymatgen
data_Al6H19C70N3O29
_symmetry_space_group_name_H-M   'P 1'
_cell_length_a   11.18830000
_cell_length_b   11.82880000
_cell_length_c   27.13920000
_cell_angle_alpha   81.53780000
_cell_angle_beta   81.77800000
_cell_angle_gamma   65.79170000
_symmetry_Int_Tables_number   1
_chemical_formula_structural   Al6H19C70N3O29
_chemical_formula_sum   'Al6 H19 C70 N3 O29'
_cell_volume   3226.56562736
_cell_formula_units_Z   1
loop_
 _symmetry_equiv_pos_site_id
 _symmetry_equiv_pos_as_xyz
  1  'x, y, z'
loop_
 _atom_site_type_symbol
 _atom_site_label
 _atom_site_symmetry_multiplicity
 _atom_site_fract_x
 _atom_site_fract_y
 _atom_site_fract_z
 _atom_site_occupancy
  Al  Al0  1  0.39189000  0.39832000  0.51376000  1.0
  Al  Al1  1  0.66984000  0.42427000  0.49464000  1.0
  Al  Al2  1  0.42330000  0.65984000  0.49848000  1.0
  Al  Al3  1  0.94360000  0.93751000  0.98040000  1.0
  Al  Al4  1  0.91180000  0.67615000  0.99780000  1.0
  Al  Al5  1  0.66572000  0.91183000  0.99472000  1.0
  H  H6  1  0.30513000  0.78771000  0.19621000  1.0
  H  H7  1  0.28009000  0.45513000  0.21938000  1.0
  H  H8  1  0.06309000  0.54904000  0.29155000  1.0
  H  H9  1  0.54040000  0.03403000  0.24272000  1.0
  H  H10  1  0.75755000  0.97302000  0.29826000  1.0
  H  H11  1  0.42588000  0.27480000  0.27883000  1.0
  H  H12  1  0.61341000  0.98351000  0.74631000  1.0
  H  H13  1  0.45249000  0.98053000  0.75349000  1.0
  H  H14  1  0.49957000  0.06894000  0.70054000  1.0
  H  H15  1  0.55574000  0.36607000  0.19465000  1.0
  H  H16  1  0.88688000  0.06508000  0.21418000  1.0
  H  H17  1  0.45707000  0.75881000  0.78319000  1.0
  H  H18  1  0.77430000  0.43930000  0.78842000  1.0
  H  H19  1  0.90980000  0.54059000  0.71025000  1.0
  H  H20  1  0.82172000  0.76072000  0.75867000  1.0
  H  H21  1  0.08755000  0.88113000  0.26860000  1.0
  H  H22  1  0.41617000  0.56953000  0.26254000  1.0
  H  H23  1  0.26533000  0.29437000  0.55826000  1.0
  H  H24  1  0.04292000  0.06754000  0.93745000  1.0
  C  C25  1  0.61692000  0.28196000  0.43657000  1.0
  C  C26  1  0.17904000  0.67003000  0.19376000  1.0
  C  C27  1  0.11841000  0.60078000  0.27039000  1.0
  C  C28  1  0.61987000  0.62749000  0.41738000  1.0
  C  C29  1  0.19230000  0.66510000  0.29439000  1.0
  C  C30  1  0.23876000  0.54934000  0.23096000  1.0
  C  C31  1  0.31374000  0.61273000  0.25368000  1.0
  C  C32  1  0.15983000  0.67729000  0.14296000  1.0
  C  C33  1  0.20515000  0.65809000  0.34590000  1.0
  C  C34  1  0.71258000  0.05971000  0.27467000  1.0
  C  C35  1  0.59083000  0.09476000  0.24481000  1.0
  C  C36  1  0.63777000  0.67342000  0.26873000  1.0
  C  C37  1  0.68448000  0.10000000  0.10408000  1.0
  C  C38  1  0.63873000  0.23692000  0.38828000  1.0
  C  C39  1  0.78432000  0.11015000  0.22899000  1.0
  C  C40  1  0.26914000  0.61471000  0.43889000  1.0
  C  C41  1  0.66287000  0.14537000  0.19778000  1.0
  C  C42  1  0.72218000  0.24361000  0.24792000  1.0
  C  C43  1  0.64903000  0.19227000  0.29533000  1.0
  C  C44  1  0.59910000  0.27850000  0.21808000  1.0
  C  C45  1  0.52803000  0.22727000  0.26388000  1.0
  C  C46  1  0.67184000  0.12237000  0.14739000  1.0
  C  C47  1  0.63817000  0.66428000  0.31849000  1.0
  C  C48  1  0.64385000  0.21557000  0.34528000  1.0
  C  C49  1  0.63333000  0.76851000  0.72320000  1.0
  C  C50  1  0.55792000  0.71263000  0.76674000  1.0
  C  C51  1  0.68972000  0.68096000  0.89119000  1.0
  C  C52  1  0.61880000  0.28047000  0.57875000  1.0
  C  C53  1  0.66869000  0.63304000  0.60130000  1.0
  C  C54  1  0.76051000  0.71272000  0.75275000  1.0
  C  C55  1  0.68383000  0.65692000  0.79673000  1.0
  C  C56  1  0.80981000  0.59008000  0.72678000  1.0
  C  C57  1  0.68544000  0.64610000  0.69579000  1.0
  C  C58  1  0.63846000  0.65416000  0.36417000  1.0
  C  C59  1  0.73564000  0.53366000  0.76961000  1.0
  C  C60  1  0.60873000  0.58953000  0.74049000  1.0
  C  C61  1  0.68598000  0.66724000  0.84783000  1.0
  C  C62  1  0.67930000  0.63949000  0.64478000  1.0
  C  C63  1  0.10495000  0.69925000  0.86255000  1.0
  C  C64  1  0.63885000  0.61220000  0.55472000  1.0
  C  C65  1  0.12237000  0.68632000  0.81770000  1.0
  C  C66  1  0.13965000  0.67425000  0.76863000  1.0
  C  C67  1  0.15588000  0.66465000  0.72329000  1.0
  C  C68  1  0.18048000  0.65239000  0.67420000  1.0
  C  C69  1  0.13233000  0.78638000  0.25747000  1.0
  C  C70  1  0.20747000  0.64078000  0.62933000  1.0
  C  C71  1  0.69125000  0.11827000  0.86406000  1.0
  C  C72  1  0.68763000  0.14600000  0.81872000  1.0
  C  C73  1  0.68346000  0.17219000  0.76911000  1.0
  C  C74  1  0.67854000  0.19197000  0.72335000  1.0
  C  C75  1  0.66686000  0.21356000  0.67405000  1.0
  C  C76  1  0.26500000  0.61438000  0.57936000  1.0
  C  C77  1  0.65217000  0.23403000  0.62919000  1.0
  C  C78  1  0.07376000  0.71633000  0.05373000  1.0
  C  C79  1  0.69713000  0.71981000  0.07451000  1.0
  C  C80  1  0.25243000  0.73424000  0.21799000  1.0
  C  C81  1  0.71750000  0.05219000  0.05601000  1.0
  C  C82  1  0.06024000  0.72770000  0.91334000  1.0
  C  C83  1  0.71156000  0.70993000  0.93765000  1.0
  C  C84  1  0.71504000  0.06397000  0.91458000  1.0
  C  C85  1  0.66317000  0.69511000  0.12688000  1.0
  C  C86  1  0.65013000  0.68679000  0.17280000  1.0
  C  C87  1  0.64006000  0.67936000  0.22286000  1.0
  C  C88  1  0.79140000  0.31986000  0.25046000  1.0
  C  C89  1  0.53426000  0.98415000  0.72629000  1.0
  C  C90  1  0.52987000  0.52639000  0.73270000  1.0
  C  C91  1  0.13182000  0.68830000  0.10030000  1.0
  C  C92  1  0.92366000  0.78284000  0.22261000  1.0
  C  C93  1  0.22266000  0.64572000  0.38998000  1.0
  C  C94  1  0.05618000  0.72317000  0.23469000  1.0
  N  N95  1  0.84902000  0.38140000  0.25331000  1.0
  N  N96  1  0.46477000  0.47541000  0.72561000  1.0
  N  N97  1  0.81562000  0.83496000  0.21170000  1.0
  O  O98  1  0.29077000  0.50591000  0.45915000  1.0
  O  O99  1  0.61844000  0.81965000  0.05191000  1.0
  O  O100  1  0.62757000  0.03294000  0.03775000  1.0
  O  O101  1  0.50912000  0.29573000  0.46192000  1.0
  O  O102  1  0.82316000  0.04890000  0.92923000  1.0
  O  O103  1  0.03932000  0.83559000  0.92313000  1.0
  O  O104  1  0.04016000  0.64128000  0.94370000  1.0
  O  O105  1  0.81468000  0.63317000  0.95830000  1.0
  O  O106  1  0.63116000  0.81307000  0.95382000  1.0
  O  O107  1  0.62599000  0.03056000  0.93963000  1.0
  O  O108  1  0.83928000  0.84057000  0.99064000  1.0
  O  O109  1  0.71738000  0.51256000  0.53520000  1.0
  O  O110  1  0.70836000  0.30955000  0.44896000  1.0
  O  O111  1  0.70329000  0.52664000  0.43724000  1.0
  O  O112  1  0.51616000  0.70390000  0.43987000  1.0
  O  O113  1  0.29057000  0.69917000  0.45686000  1.0
  O  O114  1  0.28027000  0.51155000  0.56569000  1.0
  O  O115  1  0.50308000  0.30337000  0.56982000  1.0
  O  O116  1  0.70891000  0.29941000  0.54775000  1.0
  O  O117  1  0.58260000  0.88155000  0.69603000  1.0
  O  O118  1  0.53204000  0.69095000  0.53738000  1.0
  O  O119  1  0.30116000  0.69775000  0.55377000  1.0
  O  O120  1  0.49614000  0.49545000  0.50228000  1.0
  O  O121  1  0.83330000  0.02870000  0.03615000  1.0
  O  O122  1  0.05639000  0.82072000  0.02980000  1.0
  O  O123  1  0.03877000  0.63333000  0.04177000  1.0
  O  O124  1  0.80669000  0.64350000  0.05566000  1.0
  O  O125  1  0.29936000  0.30752000  0.52409000  1.0
  O  O126  1  0.04158000  0.02322000  0.97029000  1.0
