# generated using pymatgen
data_NdZnH12C15N2O13
_symmetry_space_group_name_H-M   'P 1'
_cell_length_a   9.71166000
_cell_length_b   10.72570000
_cell_length_c   10.97680000
_cell_angle_alpha   80.34790000
_cell_angle_beta   72.32310000
_cell_angle_gamma   75.62860000
_symmetry_Int_Tables_number   1
_chemical_formula_structural   NdZnH12C15N2O13
_chemical_formula_sum   'Nd2 Zn2 H24 C30 N4 O26'
_cell_volume   1050.02439918
_cell_formula_units_Z   2
loop_
 _symmetry_equiv_pos_site_id
 _symmetry_equiv_pos_as_xyz
  1  'x, y, z'
loop_
 _atom_site_type_symbol
 _atom_site_label
 _atom_site_symmetry_multiplicity
 _atom_site_fract_x
 _atom_site_fract_y
 _atom_site_fract_z
 _atom_site_occupancy
  Nd  Nd0  1  0.17816000  0.19692000  0.03397000  1.0
  Nd  Nd1  1  0.82183000  0.80308000  0.96603000  1.0
  Zn  Zn2  1  0.30487000  0.36439000  0.60963000  1.0
  Zn  Zn3  1  0.69513000  0.63561000  0.39037000  1.0
  H  H4  1  0.52692000  0.23118000  0.36519000  1.0
  H  H5  1  0.47308000  0.76882000  0.63481000  1.0
  H  H6  1  0.75056000  0.04938000  0.32813000  1.0
  H  H7  1  0.24944000  0.95062000  0.67186000  1.0
  H  H8  1  0.82520000  0.92272000  0.52165000  1.0
  H  H9  1  0.17481000  0.07729000  0.47835000  1.0
  H  H10  1  0.78858000  0.26524000  0.49256000  1.0
  H  H11  1  0.21142000  0.73476000  0.50744000  1.0
  H  H12  1  0.83919000  0.16878000  0.70544000  1.0
  H  H13  1  0.16081000  0.83122000  0.29456000  1.0
  H  H14  1  0.06574000  0.20241000  0.74839000  1.0
  H  H15  1  0.93426000  0.79760000  0.25162000  1.0
  H  H16  1  0.90925000  0.41655000  0.98073000  1.0
  H  H17  1  0.09075000  0.58346000  0.01927000  1.0
  H  H18  1  0.04791000  0.42007000  0.86057000  1.0
  H  H19  1  0.95209000  0.57993000  0.13943000  1.0
  H  H20  1  0.25562000  0.42949000  0.11276000  1.0
  H  H21  1  0.74438000  0.57051000  0.88724000  1.0
  H  H22  1  0.36982000  0.40625000  0.97725000  1.0
  H  H23  1  0.63018000  0.59374000  0.02274000  1.0
  H  H24  1  0.35365000  0.53582000  0.72236000  1.0
  H  H25  1  0.64636000  0.46419000  0.27765000  1.0
  H  H26  1  0.52087000  0.50607000  0.63206000  1.0
  H  H27  1  0.47914000  0.49393000  0.36794000  1.0
  C  C28  1  0.56414000  0.17310000  0.44526000  1.0
  C  C29  1  0.43586000  0.82690000  0.55474000  1.0
  C  C30  1  0.68730000  0.07090000  0.42577000  1.0
  C  C31  1  0.31271000  0.92910000  0.57423000  1.0
  C  C32  1  0.72761000  0.00093000  0.53301000  1.0
  C  C33  1  0.27239000  0.99908000  0.46699000  1.0
  C  C34  1  0.64346000  0.03108000  0.65702000  1.0
  C  C35  1  0.35654000  0.96892000  0.34298000  1.0
  C  C36  1  0.52159000  0.13480000  0.66756000  1.0
  C  C37  1  0.47840000  0.86520000  0.33244000  1.0
  C  C38  1  0.69092000  0.95370000  0.77108000  1.0
  C  C39  1  0.30908000  0.04630000  0.22892000  1.0
  C  C40  1  0.41851000  0.17278000  0.79481000  1.0
  C  C41  1  0.58149000  0.82722000  0.20519000  1.0
  C  C42  1  0.10979000  0.35672000  0.45743000  1.0
  C  C43  1  0.89022000  0.64328000  0.54257000  1.0
  C  C44  1  0.98666000  0.34178000  0.42465000  1.0
  C  C45  1  0.01334000  0.65822000  0.57535000  1.0
  C  C46  1  0.88628000  0.27570000  0.51570000  1.0
  C  C47  1  0.11372000  0.72430000  0.48430000  1.0
  C  C48  1  0.91238000  0.22398000  0.63350000  1.0
  C  C49  1  0.08762000  0.77603000  0.36650000  1.0
  C  C50  1  0.03848000  0.24125000  0.65836000  1.0
  C  C51  1  0.96151000  0.75875000  0.34164000  1.0
  C  C52  1  0.22347000  0.43051000  0.36958000  1.0
  C  C53  1  0.77654000  0.56949000  0.63042000  1.0
  C  C54  1  0.96221000  0.38696000  0.29420000  1.0
  C  C55  1  0.03780000  0.61304000  0.70580000  1.0
  C  C56  1  0.06083000  0.98063000  0.93720000  1.0
  C  C57  1  0.93917000  0.01937000  0.06280000  1.0
  N  N58  1  0.48539000  0.20473000  0.56332000  1.0
  N  N59  1  0.51461000  0.79527000  0.43668000  1.0
  N  N60  1  0.13263000  0.30681000  0.57257000  1.0
  N  N61  1  0.86737000  0.69319000  0.42743000  1.0
  O  O62  1  0.76820000  0.00159000  0.81910000  1.0
  O  O63  1  0.23180000  0.99840000  0.18090000  1.0
  O  O64  1  0.66328000  0.84182000  0.80640000  1.0
  O  O65  1  0.33672000  0.15818000  0.19360000  1.0
  O  O66  1  0.44013000  0.11268000  0.89787000  1.0
  O  O67  1  0.55987000  0.88731000  0.10213000  1.0
  O  O68  1  0.30510000  0.26631000  0.79327000  1.0
  O  O69  1  0.69490000  0.73368000  0.20673000  1.0
  O  O70  1  0.32173000  0.44588000  0.41983000  1.0
  O  O71  1  0.67827000  0.55412000  0.58017000  1.0
  O  O72  1  0.21465000  0.47394000  0.25880000  1.0
  O  O73  1  0.78536000  0.52606000  0.74120000  1.0
  O  O74  1  0.02496000  0.30925000  0.21045000  1.0
  O  O75  1  0.97503000  0.69075000  0.78955000  1.0
  O  O76  1  0.87499000  0.49425000  0.27611000  1.0
  O  O77  1  0.12502000  0.50575000  0.72389000  1.0
  O  O78  1  0.16152000  0.04578000  0.89626000  1.0
  O  O79  1  0.83847000  0.95422000  0.10375000  1.0
  O  O80  1  0.04995000  0.88858000  0.88493000  1.0
  O  O81  1  0.95005000  0.11142000  0.11508000  1.0
  O  O82  1  0.00259000  0.36329000  0.93621000  1.0
  O  O83  1  0.99741000  0.63671000  0.06379000  1.0
  O  O84  1  0.26578000  0.41287000  0.02285000  1.0
  O  O85  1  0.73422000  0.58713000  0.97715000  1.0
  O  O86  1  0.41662000  0.49750000  0.64482000  1.0
  O  O87  1  0.58338000  0.50250000  0.35519000  1.0
