# generated using pymatgen
data_H16RhC22N(ClO3)2
_symmetry_space_group_name_H-M   'P 1'
_cell_length_a   9.39866000
_cell_length_b   12.27730000
_cell_length_c   12.30480000
_cell_angle_alpha   91.03970000
_cell_angle_beta   98.07310000
_cell_angle_gamma   108.03770000
_symmetry_Int_Tables_number   1
_chemical_formula_structural   H16RhC22N(ClO3)2
_chemical_formula_sum   'H32 Rh2 C44 N2 Cl4 O12'
_cell_volume   1333.82444662
_cell_formula_units_Z   2
loop_
 _symmetry_equiv_pos_site_id
 _symmetry_equiv_pos_as_xyz
  1  'x, y, z'
loop_
 _atom_site_type_symbol
 _atom_site_label
 _atom_site_symmetry_multiplicity
 _atom_site_fract_x
 _atom_site_fract_y
 _atom_site_fract_z
 _atom_site_occupancy
  H  H0  1  0.94449000  0.55148000  0.40167000  1.0
  H  H1  1  0.05551000  0.44851000  0.59830000  1.0
  H  H2  1  0.88171000  0.47647000  0.26781000  1.0
  H  H3  1  0.11824000  0.52350000  0.73215000  1.0
  H  H4  1  0.00010000  0.42861000  0.37076000  1.0
  H  H5  1  0.99988000  0.57135000  0.62920000  1.0
  H  H6  1  0.73033000  0.57599000  0.31641000  1.0
  H  H7  1  0.26973000  0.42403000  0.68362000  1.0
  H  H8  1  0.25970000  0.46739000  0.35179000  1.0
  H  H9  1  0.74032000  0.53263000  0.64826000  1.0
  H  H10  1  0.28536000  0.28527000  0.42553000  1.0
  H  H11  1  0.71466000  0.71476000  0.57449000  1.0
  H  H12  1  0.03423000  0.91267000  0.06649000  1.0
  H  H13  1  0.96577000  0.08733000  0.93353000  1.0
  H  H14  1  0.07588000  0.79536000  0.00294000  1.0
  H  H15  1  0.92411000  0.20464000  0.99707000  1.0
  H  H16  1  0.14707000  0.93793000  0.95770000  1.0
  H  H17  1  0.85290000  0.06207000  0.04229000  1.0
  H  H18  1  0.29131000  0.83574000  0.91791000  1.0
  H  H19  1  0.70870000  0.16428000  0.08207000  1.0
  H  H20  1  0.74405000  0.83354000  0.03262000  1.0
  H  H21  1  0.25592000  0.16646000  0.96736000  1.0
  H  H22  1  0.72597000  0.90745000  0.21915000  1.0
  H  H23  1  0.27402000  0.09253000  0.78085000  1.0
  H  H24  1  0.83019000  0.19626000  0.39407000  1.0
  H  H25  1  0.16983000  0.80373000  0.60594000  1.0
  H  H26  1  0.93974000  0.24865000  0.22304000  1.0
  H  H27  1  0.06025000  0.75132000  0.77697000  1.0
  H  H28  1  0.12041000  0.15342000  0.16448000  1.0
  H  H29  1  0.87958000  0.84656000  0.83550000  1.0
  H  H30  1  0.19737000  0.01319000  0.28084000  1.0
  H  H31  1  0.80266000  0.98682000  0.71912000  1.0
  Rh  Rh32  1  0.63713000  0.02748000  0.51563000  1.0
  Rh  Rh33  1  0.36286000  0.97252000  0.48438000  1.0
  C  C34  1  0.52062000  0.21201000  0.45325000  1.0
  C  C35  1  0.47935000  0.78799000  0.54673000  1.0
  C  C36  1  0.52134000  0.32642000  0.41528000  1.0
  C  C37  1  0.47865000  0.67358000  0.58471000  1.0
  C  C38  1  0.64941000  0.40982000  0.38459000  1.0
  C  C39  1  0.35059000  0.59018000  0.61541000  1.0
  C  C40  1  0.90867000  0.46681000  0.35648000  1.0
  C  C41  1  0.09129000  0.53315000  0.64350000  1.0
  C  C42  1  0.63436000  0.51120000  0.34117000  1.0
  C  C43  1  0.36565000  0.48881000  0.65884000  1.0
  C  C44  1  0.49442000  0.53011000  0.32950000  1.0
  C  C45  1  0.50560000  0.46992000  0.67054000  1.0
  C  C46  1  0.36756000  0.45048000  0.36050000  1.0
  C  C47  1  0.63246000  0.54956000  0.63954000  1.0
  C  C48  1  0.38309000  0.34992000  0.40242000  1.0
  C  C49  1  0.61691000  0.65011000  0.59758000  1.0
  C  C50  1  0.49520000  0.94546000  0.29200000  1.0
  C  C51  1  0.50481000  0.05454000  0.70802000  1.0
  C  C52  1  0.49815000  0.90951000  0.17665000  1.0
  C  C53  1  0.50186000  0.09049000  0.82335000  1.0
  C  C54  1  0.37314000  0.88894000  0.09085000  1.0
  C  C55  1  0.62686000  0.11107000  0.90915000  1.0
  C  C56  1  0.11962000  0.88750000  0.02926000  1.0
  C  C57  1  0.88039000  0.11251000  0.97076000  1.0
  C  C58  1  0.38388000  0.84923000  0.98564000  1.0
  C  C59  1  0.61611000  0.15077000  0.01437000  1.0
  C  C60  1  0.51689000  0.82978000  0.96627000  1.0
  C  C61  1  0.48309000  0.17022000  0.03373000  1.0
  C  C62  1  0.64175000  0.85044000  0.04897000  1.0
  C  C63  1  0.35823000  0.14956000  0.95103000  1.0
  C  C64  1  0.63078000  0.89100000  0.15262000  1.0
  C  C65  1  0.36923000  0.10901000  0.84738000  1.0
  C  C66  1  0.95070000  0.07489000  0.43592000  1.0
  C  C67  1  0.04930000  0.92509000  0.56406000  1.0
  C  C68  1  0.91016000  0.15694000  0.36844000  1.0
  C  C69  1  0.08985000  0.84307000  0.63157000  1.0
  C  C70  1  0.97098000  0.18483000  0.27342000  1.0
  C  C71  1  0.02904000  0.81516000  0.72658000  1.0
  C  C72  1  0.07268000  0.13081000  0.24000000  1.0
  C  C73  1  0.92731000  0.86918000  0.75999000  1.0
  C  C74  1  0.11715000  0.05332000  0.30451000  1.0
  C  C75  1  0.88286000  0.94668000  0.69548000  1.0
  C  C76  1  0.06170000  0.02590000  0.40578000  1.0
  C  C77  1  0.93832000  0.97408000  0.59420000  1.0
  N  N78  1  0.88498000  0.04456000  0.52735000  1.0
  N  N79  1  0.11502000  0.95541000  0.47264000  1.0
  Cl  Cl80  1  0.47892000  0.65559000  0.27541000  1.0
  Cl  Cl81  1  0.52111000  0.34445000  0.72462000  1.0
  Cl  Cl82  1  0.52690000  0.77974000  0.83620000  1.0
  Cl  Cl83  1  0.47308000  0.22025000  0.16381000  1.0
  O  O84  1  0.64595000  0.19163000  0.48117000  1.0
  O  O85  1  0.35402000  0.80836000  0.51883000  1.0
  O  O86  1  0.38887000  0.13926000  0.45326000  1.0
  O  O87  1  0.61111000  0.86074000  0.54672000  1.0
  O  O88  1  0.78345000  0.38746000  0.39642000  1.0
  O  O89  1  0.21654000  0.61254000  0.60356000  1.0
  O  O90  1  0.62460000  0.98517000  0.35303000  1.0
  O  O91  1  0.37541000  0.01485000  0.64698000  1.0
  O  O92  1  0.36713000  0.93151000  0.32389000  1.0
  O  O93  1  0.63288000  0.06846000  0.67614000  1.0
  O  O94  1  0.24763000  0.91135000  0.11391000  1.0
  O  O95  1  0.75237000  0.08866000  0.88609000  1.0
