# generated using pymatgen
data_CoH18C20S2(N4O)2
_symmetry_space_group_name_H-M   'P 1'
_cell_length_a   9.02962000
_cell_length_b   10.47620000
_cell_length_c   13.49600000
_cell_angle_alpha   70.76720000
_cell_angle_beta   76.28820000
_cell_angle_gamma   67.39880000
_symmetry_Int_Tables_number   1
_chemical_formula_structural   CoH18C20S2(N4O)2
_chemical_formula_sum   'Co2 H36 C40 S4 N16 O4'
_cell_volume   1103.87378262
_cell_formula_units_Z   2
loop_
 _symmetry_equiv_pos_site_id
 _symmetry_equiv_pos_as_xyz
  1  'x, y, z'
loop_
 _atom_site_type_symbol
 _atom_site_label
 _atom_site_symmetry_multiplicity
 _atom_site_fract_x
 _atom_site_fract_y
 _atom_site_fract_z
 _atom_site_occupancy
  Co  Co0  1  0.50000000  0.00000000  0.50000000  1.0
  Co  Co1  1  0.00000000  0.50000000  0.50000000  1.0
  H  H2  1  0.86615000  0.42754000  0.05026000  1.0
  H  H3  1  0.13385000  0.57246000  0.94974000  1.0
  H  H4  1  0.36671000  0.88541000  0.03409000  1.0
  H  H5  1  0.63330000  0.11459000  0.96591000  1.0
  H  H6  1  0.93246000  0.29295000  0.91979000  1.0
  H  H7  1  0.06754000  0.70705000  0.08021000  1.0
  H  H8  1  0.12031000  0.32507000  0.88504000  1.0
  H  H9  1  0.87970000  0.67493000  0.11497000  1.0
  H  H10  1  0.89306000  0.45676000  0.20914000  1.0
  H  H11  1  0.10694000  0.54324000  0.79086000  1.0
  H  H12  1  0.06479000  0.29781000  0.22649000  1.0
  H  H13  1  0.93521000  0.70219000  0.77351000  1.0
  H  H14  1  0.81079000  0.17435000  0.15733000  1.0
  H  H15  1  0.18920000  0.82565000  0.84267000  1.0
  H  H16  1  0.63742000  0.04343000  0.27980000  1.0
  H  H17  1  0.36258000  0.95657000  0.72019000  1.0
  H  H18  1  0.66249000  0.17942000  0.52934000  1.0
  H  H19  1  0.33751000  0.82058000  0.47066000  1.0
  H  H20  1  0.83501000  0.32137000  0.41506000  1.0
  H  H21  1  0.16498000  0.67863000  0.58494000  1.0
  H  H22  1  0.42783000  0.75823000  0.91146000  1.0
  H  H23  1  0.57218000  0.24177000  0.08854000  1.0
  H  H24  1  0.61802000  0.78503000  0.87167000  1.0
  H  H25  1  0.38198000  0.21498000  0.12833000  1.0
  H  H26  1  0.40365000  0.94170000  0.17994000  1.0
  H  H27  1  0.59635000  0.05830000  0.82006000  1.0
  H  H28  1  0.57490000  0.78085000  0.20441000  1.0
  H  H29  1  0.42510000  0.21915000  0.79559000  1.0
  H  H30  1  0.53264000  0.54225000  0.29631000  1.0
  H  H31  1  0.46736000  0.45775000  0.70369000  1.0
  H  H32  1  0.34698000  0.41997000  0.42136000  1.0
  H  H33  1  0.65302000  0.58003000  0.57864000  1.0
  H  H34  1  0.95781000  0.79975000  0.38560000  1.0
  H  H35  1  0.04219000  0.20024000  0.61440000  1.0
  H  H36  1  0.12797000  0.93764000  0.25813000  1.0
  H  H37  1  0.87203000  0.06236000  0.74187000  1.0
  C  C38  1  0.31666000  0.24243000  0.60371000  1.0
  C  C39  1  0.68334000  0.75757000  0.39629000  1.0
  C  C40  1  0.18173000  0.25559000  0.39887000  1.0
  C  C41  1  0.81827000  0.74441000  0.60114000  1.0
  C  C42  1  0.14270000  0.11098000  0.92081000  1.0
  C  C43  1  0.85729000  0.88901000  0.07920000  1.0
  C  C44  1  0.05758000  0.25124000  0.93870000  1.0
  C  C45  1  0.94242000  0.74876000  0.06130000  1.0
  C  C46  1  0.06642000  0.24226000  0.05320000  1.0
  C  C47  1  0.93358000  0.75774000  0.94680000  1.0
  C  C48  1  0.94306000  0.34647000  0.20183000  1.0
  C  C49  1  0.05694000  0.65353000  0.79817000  1.0
  C  C50  1  0.83746000  0.26242000  0.27449000  1.0
  C  C51  1  0.16253000  0.73758000  0.72551000  1.0
  C  C52  1  0.78035000  0.18154000  0.23863000  1.0
  C  C53  1  0.21965000  0.81846000  0.76137000  1.0
  C  C54  1  0.68311000  0.10605000  0.30719000  1.0
  C  C55  1  0.31689000  0.89395000  0.69281000  1.0
  C  C56  1  0.69689000  0.18270000  0.44600000  1.0
  C  C57  1  0.30310000  0.81730000  0.55400000  1.0
  C  C58  1  0.79387000  0.26142000  0.38139000  1.0
  C  C59  1  0.20613000  0.73858000  0.61860000  1.0
  C  C60  1  0.63053000  0.57260000  0.90854000  1.0
  C  C61  1  0.36948000  0.42740000  0.09146000  1.0
  C  C62  1  0.55405000  0.71322000  0.92750000  1.0
  C  C63  1  0.44595000  0.28679000  0.07250000  1.0
  C  C64  1  0.56748000  0.70616000  0.04056000  1.0
  C  C65  1  0.43253000  0.29384000  0.95944000  1.0
  C  C66  1  0.45122000  0.82724000  0.18357000  1.0
  C  C67  1  0.54878000  0.17276000  0.81643000  1.0
  C  C68  1  0.34486000  0.75036000  0.26487000  1.0
  C  C69  1  0.65514000  0.24964000  0.73513000  1.0
  C  C70  1  0.40561000  0.60337000  0.31328000  1.0
  C  C71  1  0.59439000  0.39663000  0.68672000  1.0
  C  C72  1  0.30294000  0.53425000  0.38339000  1.0
  C  C73  1  0.69706000  0.46575000  0.61661000  1.0
  C  C74  1  0.08533000  0.74651000  0.36305000  1.0
  C  C75  1  0.91467000  0.25349000  0.63694000  1.0
  C  C76  1  0.18121000  0.82253000  0.29220000  1.0
  C  C77  1  0.81879000  0.17747000  0.70780000  1.0
  S  S78  1  0.19856000  0.37966000  0.64739000  1.0
  S  S79  1  0.80144000  0.62033000  0.35261000  1.0
  S  S80  1  0.29558000  0.11710000  0.35562000  1.0
  S  S81  1  0.70442000  0.88290000  0.64438000  1.0
  N  N82  1  0.39707000  0.14510000  0.56720000  1.0
  N  N83  1  0.60293000  0.85490000  0.43279000  1.0
  N  N84  1  0.10055000  0.35457000  0.43332000  1.0
  N  N85  1  0.89945000  0.64544000  0.56668000  1.0
  N  N86  1  0.64043000  0.10600000  0.40994000  1.0
  N  N87  1  0.35956000  0.89400000  0.59006000  1.0
  N  N88  1  0.95676000  0.35057000  0.09164000  1.0
  N  N89  1  0.04324000  0.64943000  0.90836000  1.0
  N  N90  1  0.21546000  0.99555000  0.91194000  1.0
  N  N91  1  0.78453000  0.00445000  0.08807000  1.0
  N  N92  1  0.14398000  0.60375000  0.40763000  1.0
  N  N93  1  0.85602000  0.39625000  0.59237000  1.0
  N  N94  1  0.45753000  0.81473000  0.07778000  1.0
  N  N95  1  0.54247000  0.18526000  0.92222000  1.0
  N  N96  1  0.69456000  0.45816000  0.89577000  1.0
  N  N97  1  0.30544000  0.54185000  0.10423000  1.0
  O  O98  1  0.17048000  0.14159000  0.10457000  1.0
  O  O99  1  0.82952000  0.85840000  0.89543000  1.0
  O  O100  1  0.67725000  0.60909000  0.08971000  1.0
  O  O101  1  0.32276000  0.39091000  0.91030000  1.0
