# generated using pymatgen
data_KH6C6S2NO5
_symmetry_space_group_name_H-M   'P 1'
_cell_length_a   6.87115000
_cell_length_b   11.49610000
_cell_length_c   13.03010000
_cell_angle_alpha   89.99990000
_cell_angle_beta   89.99990000
_cell_angle_gamma   73.52600000
_symmetry_Int_Tables_number   1
_chemical_formula_structural   KH6C6S2NO5
_chemical_formula_sum   'K4 H24 C24 S8 N4 O20'
_cell_volume   987.01329702
_cell_formula_units_Z   4
loop_
 _symmetry_equiv_pos_site_id
 _symmetry_equiv_pos_as_xyz
  1  'x, y, z'
loop_
 _atom_site_type_symbol
 _atom_site_label
 _atom_site_symmetry_multiplicity
 _atom_site_fract_x
 _atom_site_fract_y
 _atom_site_fract_z
 _atom_site_occupancy
  K  K0  1  0.81384000  0.49163000  0.35927000  1.0
  K  K1  1  0.31383000  0.49163000  0.14073000  1.0
  K  K2  1  0.18616000  0.50837000  0.64073000  1.0
  K  K3  1  0.68616000  0.50837000  0.85927000  1.0
  H  H4  1  0.77601000  0.28237000  0.18940000  1.0
  H  H5  1  0.27601000  0.28237000  0.31060000  1.0
  H  H6  1  0.22399000  0.71763000  0.81060000  1.0
  H  H7  1  0.72399000  0.71763000  0.68940000  1.0
  H  H8  1  0.62531000  0.28155000  0.28000000  1.0
  H  H9  1  0.12531000  0.28155000  0.22000000  1.0
  H  H10  1  0.37468000  0.71845000  0.72000000  1.0
  H  H11  1  0.87468000  0.71845000  0.78000000  1.0
  H  H12  1  0.68213000  0.95635000  0.51516000  1.0
  H  H13  1  0.18212000  0.95635000  0.98484000  1.0
  H  H14  1  0.31788000  0.04365000  0.48484000  1.0
  H  H15  1  0.81787000  0.04365000  0.01516000  1.0
  H  H16  1  0.96403000  0.84694000  0.62824000  1.0
  H  H17  1  0.46403000  0.84694000  0.87176000  1.0
  H  H18  1  0.03597000  0.15306000  0.37176000  1.0
  H  H19  1  0.53597000  0.15306000  0.12824000  1.0
  H  H20  1  0.16230000  0.95900000  0.72710000  1.0
  H  H21  1  0.66231000  0.95900000  0.77290000  1.0
  H  H22  1  0.83770000  0.04100000  0.27290000  1.0
  H  H23  1  0.33770000  0.04100000  0.22710000  1.0
  H  H24  1  0.07861000  0.18492000  0.71540000  1.0
  H  H25  1  0.57861000  0.18492000  0.78460000  1.0
  H  H26  1  0.92139000  0.81508000  0.28461000  1.0
  H  H27  1  0.42139000  0.81508000  0.21540000  1.0
  C  C28  1  0.83197000  0.19524000  0.60941000  1.0
  C  C29  1  0.33197000  0.19524000  0.89059000  1.0
  C  C30  1  0.16803000  0.80476000  0.39059000  1.0
  C  C31  1  0.66803000  0.80476000  0.10941000  1.0
  C  C32  1  0.72073000  0.13224000  0.55409000  1.0
  C  C33  1  0.22072000  0.13224000  0.94591000  1.0
  C  C34  1  0.27928000  0.86776000  0.44591000  1.0
  C  C35  1  0.77927000  0.86776000  0.05409000  1.0
  C  C36  1  0.76471000  0.00670000  0.55991000  1.0
  C  C37  1  0.26471000  0.00670000  0.94009000  1.0
  C  C38  1  0.23529000  0.99330000  0.44009000  1.0
  C  C39  1  0.73529000  0.99330000  0.05991000  1.0
  C  C40  1  0.92518000  0.94555000  0.62330000  1.0
  C  C41  1  0.42518000  0.94555000  0.87670000  1.0
  C  C42  1  0.07482000  0.05445000  0.37670000  1.0
  C  C43  1  0.57482000  0.05445000  0.12330000  1.0
  C  C44  1  0.03671000  0.00874000  0.67915000  1.0
  C  C45  1  0.53671000  0.00874000  0.82085000  1.0
  C  C46  1  0.96329000  0.99126000  0.32085000  1.0
  C  C47  1  0.46329000  0.99126000  0.17915000  1.0
  C  C48  1  0.99126000  0.13509000  0.67316000  1.0
  C  C49  1  0.49126000  0.13509000  0.82684000  1.0
  C  C50  1  0.00874000  0.86491000  0.32684000  1.0
  C  C51  1  0.50874000  0.86491000  0.17316000  1.0
  S  S52  1  0.72822000  0.35495000  0.59302000  1.0
  S  S53  1  0.22822000  0.35495000  0.90698000  1.0
  S  S54  1  0.27178000  0.64505000  0.40698000  1.0
  S  S55  1  0.77178000  0.64505000  0.09302000  1.0
  S  S56  1  0.51777000  0.23417000  0.48592000  1.0
  S  S57  1  0.01777000  0.23417000  0.01408000  1.0
  S  S58  1  0.48223000  0.76583000  0.51408000  1.0
  S  S59  1  0.98223000  0.76583000  0.98592000  1.0
  N  N60  1  0.58684000  0.35529000  0.49466000  1.0
  N  N61  1  0.08683000  0.35529000  0.00534000  1.0
  N  N62  1  0.41316000  0.64471000  0.50534000  1.0
  N  N63  1  0.91317000  0.64471000  0.99466000  1.0
  O  O64  1  0.88137000  0.41444000  0.56595000  1.0
  O  O65  1  0.38137000  0.41444000  0.93405000  1.0
  O  O66  1  0.11863000  0.58556000  0.43405000  1.0
  O  O67  1  0.61863000  0.58556000  0.06595000  1.0
  O  O68  1  0.61234000  0.39971000  0.68609000  1.0
  O  O69  1  0.11234000  0.39971000  0.81391000  1.0
  O  O70  1  0.38766000  0.60029000  0.31391000  1.0
  O  O71  1  0.88766000  0.60029000  0.18609000  1.0
  O  O72  1  0.51994000  0.19915000  0.37720000  1.0
  O  O73  1  0.01994000  0.19915000  0.12281000  1.0
  O  O74  1  0.48007000  0.80085000  0.62280000  1.0
  O  O75  1  0.98006000  0.80085000  0.87719000  1.0
  O  O76  1  0.32905000  0.23875000  0.53868000  1.0
  O  O77  1  0.82905000  0.23875000  0.96132000  1.0
  O  O78  1  0.67095000  0.76125000  0.46132000  1.0
  O  O79  1  0.17095000  0.76125000  0.03868000  1.0
  O  O80  1  0.66078000  0.33392000  0.22789000  1.0
  O  O81  1  0.16078000  0.33392000  0.27211000  1.0
  O  O82  1  0.33922000  0.66608000  0.77211000  1.0
  O  O83  1  0.83922000  0.66608000  0.72789000  1.0
