# generated using pymatgen
data_CaH10(CO)6
_symmetry_space_group_name_H-M   'P 1'
_cell_length_a   6.88221000
_cell_length_b   11.24772194
_cell_length_c   13.74105465
_cell_angle_alpha   104.70937395
_cell_angle_beta   104.48088625
_cell_angle_gamma   107.81042171
_symmetry_Int_Tables_number   1
_chemical_formula_structural   CaH10(CO)6
_chemical_formula_sum   'Ca4 H40 C24 O24'
_cell_volume   915.38704183
_cell_formula_units_Z   4
loop_
 _symmetry_equiv_pos_site_id
 _symmetry_equiv_pos_as_xyz
  1  'x, y, z'
loop_
 _atom_site_type_symbol
 _atom_site_label
 _atom_site_symmetry_multiplicity
 _atom_site_fract_x
 _atom_site_fract_y
 _atom_site_fract_z
 _atom_site_occupancy
  Ca  Ca0  1  0.38497000  0.44190000  0.33858000  1.0
  Ca  Ca1  1  0.10471000  0.05808000  0.16145000  1.0
  Ca  Ca2  1  0.61503000  0.55810000  0.66142000  1.0
  Ca  Ca3  1  0.89528000  0.94192000  0.83855000  1.0
  H  H4  1  0.53206000  0.92421000  0.56934000  1.0
  H  H5  1  0.53926000  0.57589000  0.93096000  1.0
  H  H6  1  0.46794000  0.07579000  0.43066000  1.0
  H  H7  1  0.46074000  0.42411000  0.06904000  1.0
  H  H8  1  0.43952000  0.80535000  0.43420000  1.0
  H  H9  1  0.70075000  0.69482000  0.06605000  1.0
  H  H10  1  0.56048000  0.19465000  0.56580000  1.0
  H  H11  1  0.29925000  0.30518000  0.93395000  1.0
  H  H12  1  0.71712000  0.91350000  0.50130000  1.0
  H  H13  1  0.80303000  0.58659000  0.99886000  1.0
  H  H14  1  0.28288000  0.08650000  0.49870000  1.0
  H  H15  1  0.19697000  0.41341000  0.00114000  1.0
  H  H16  1  0.04973000  0.33503000  0.45559000  1.0
  H  H17  1  0.75932000  0.16488000  0.04444000  1.0
  H  H18  1  0.95026000  0.66496000  0.54441000  1.0
  H  H19  1  0.24068000  0.83512000  0.95556000  1.0
  H  H20  1  0.77648000  0.22383000  0.37228000  1.0
  H  H21  1  0.68058000  0.27613000  0.12781000  1.0
  H  H22  1  0.22352000  0.77617000  0.62772000  1.0
  H  H23  1  0.31941000  0.72387000  0.87219000  1.0
  H  H24  1  0.82347000  0.36157000  0.48540000  1.0
  H  H25  1  0.47682000  0.13840000  0.01475000  1.0
  H  H26  1  0.17653000  0.63843000  0.51460000  1.0
  H  H27  1  0.52318000  0.86160000  0.98525000  1.0
  H  H28  1  0.21097000  0.77908000  0.14265000  1.0
  H  H29  1  0.78958000  0.72110000  0.35760000  1.0
  H  H30  1  0.78902000  0.22091000  0.85734000  1.0
  H  H31  1  0.21042000  0.27890000  0.64240000  1.0
  H  H32  1  0.19967000  0.64323000  0.03832000  1.0
  H  H33  1  0.01831000  0.85700000  0.46191000  1.0
  H  H34  1  0.80032000  0.35677000  0.96168000  1.0
  H  H35  1  0.98169000  0.14300000  0.53809000  1.0
  H  H36  1  0.45538000  0.75331000  0.14417000  1.0
  H  H37  1  0.05819000  0.74689000  0.35603000  1.0
  H  H38  1  0.54462000  0.24669000  0.85583000  1.0
  H  H39  1  0.94183000  0.25312000  0.64398000  1.0
  H  H40  1  0.01307000  0.50474000  0.22783000  1.0
  H  H41  1  0.78076000  0.99536000  0.27230000  1.0
  H  H42  1  0.98694000  0.49527000  0.77218000  1.0
  H  H43  1  0.21924000  0.00464000  0.72770000  1.0
  C  C44  1  0.61725000  0.75427000  0.55900000  1.0
  C  C45  1  0.80442000  0.74575000  0.94107000  1.0
  C  C46  1  0.38274000  0.24573000  0.44100000  1.0
  C  C47  1  0.19558000  0.25425000  0.05893000  1.0
  C  C48  1  0.57064000  0.85484000  0.51300000  1.0
  C  C49  1  0.70352000  0.64526000  0.98722000  1.0
  C  C50  1  0.42936000  0.14516000  0.48700000  1.0
  C  C51  1  0.29648000  0.35474000  0.01278000  1.0
  C  C52  1  0.87247000  0.40990000  0.34919000  1.0
  C  C53  1  0.61369000  0.09007000  0.15095000  1.0
  C  C54  1  0.12753000  0.59010000  0.65081000  1.0
  C  C55  1  0.38631000  0.90993000  0.84905000  1.0
  C  C56  1  0.88389000  0.32887000  0.42118000  1.0
  C  C57  1  0.63413000  0.17109000  0.07893000  1.0
  C  C58  1  0.11611000  0.67113000  0.57882000  1.0
  C  C59  1  0.36587000  0.82891000  0.92108000  1.0
  C  C60  1  0.23679000  0.61671000  0.18971000  1.0
  C  C61  1  0.93052000  0.88338000  0.31045000  1.0
  C  C62  1  0.76325000  0.38329000  0.81031000  1.0
  C  C63  1  0.06949000  0.11662000  0.68955000  1.0
  C  C64  1  0.27986000  0.70361000  0.12468000  1.0
  C  C65  1  0.95185000  0.79660000  0.37555000  1.0
  C  C66  1  0.72013000  0.29639000  0.87531000  1.0
  C  C67  1  0.04815000  0.20340000  0.62445000  1.0
  O  O68  1  0.54941000  0.63190000  0.49845000  1.0
  O  O69  1  0.91966000  0.86811000  0.00156000  1.0
  O  O70  1  0.45058000  0.36810000  0.50155000  1.0
  O  O71  1  0.08033000  0.13189000  0.99844000  1.0
  O  O72  1  0.72468000  0.79116000  0.65902000  1.0
  O  O73  1  0.77443000  0.70883000  0.84098000  1.0
  O  O74  1  0.27532000  0.20884000  0.34098000  1.0
  O  O75  1  0.22557000  0.29117000  0.15902000  1.0
  O  O76  1  0.71271000  0.44301000  0.32572000  1.0
  O  O77  1  0.44429000  0.05697000  0.17446000  1.0
  O  O78  1  0.28729000  0.55699000  0.67428000  1.0
  O  O79  1  0.55571000  0.94302000  0.82554000  1.0
  O  O80  1  0.02841000  0.43993000  0.31208000  1.0
  O  O81  1  0.77662000  0.05999000  0.18799000  1.0
  O  O82  1  0.97159000  0.56007000  0.68792000  1.0
  O  O83  1  0.22338000  0.94001000  0.81201000  1.0
  O  O84  1  0.38578000  0.60516000  0.25470000  1.0
  O  O85  1  0.02585000  0.89470000  0.24528000  1.0
  O  O86  1  0.61419000  0.39483000  0.74528000  1.0
  O  O87  1  0.97415000  0.10530000  0.75472000  1.0
  O  O88  1  0.02720000  0.55386000  0.17284000  1.0
  O  O89  1  0.80087000  0.94639000  0.32740000  1.0
  O  O90  1  0.97279000  0.44614000  0.82716000  1.0
  O  O91  1  0.19912000  0.05361000  0.67260000  1.0
