# generated using pymatgen
data_HgH4C6NClO3
_symmetry_space_group_name_H-M   'P 1'
_cell_length_a   8.03799000
_cell_length_b   9.91689000
_cell_length_c   10.44580000
_cell_angle_alpha   106.14400000
_cell_angle_beta   90.00000000
_cell_angle_gamma   89.99990000
_symmetry_Int_Tables_number   1
_chemical_formula_structural   HgH4C6NClO3
_chemical_formula_sum   'Hg4 H16 C24 N4 Cl4 O12'
_cell_volume   799.81921397
_cell_formula_units_Z   4
loop_
 _symmetry_equiv_pos_site_id
 _symmetry_equiv_pos_as_xyz
  1  'x, y, z'
loop_
 _atom_site_type_symbol
 _atom_site_label
 _atom_site_symmetry_multiplicity
 _atom_site_fract_x
 _atom_site_fract_y
 _atom_site_fract_z
 _atom_site_occupancy
  Hg  Hg0  1  0.47670000  0.30193000  0.49756000  1.0
  Hg  Hg1  1  0.97670000  0.19807000  0.50244000  1.0
  Hg  Hg2  1  0.52330000  0.69807000  0.50244000  1.0
  Hg  Hg3  1  0.02330000  0.80193000  0.49756000  1.0
  H  H4  1  0.33605000  0.94623000  0.76127000  1.0
  H  H5  1  0.83605000  0.55377000  0.23873000  1.0
  H  H6  1  0.66395000  0.05377000  0.23873000  1.0
  H  H7  1  0.16395000  0.44623000  0.76127000  1.0
  H  H8  1  0.65840000  0.43685000  0.76187000  1.0
  H  H9  1  0.15840000  0.06315000  0.23813000  1.0
  H  H10  1  0.34160000  0.56315000  0.23813000  1.0
  H  H11  1  0.84160000  0.93685000  0.76187000  1.0
  H  H12  1  0.55494000  0.18368000  0.03098000  1.0
  H  H13  1  0.05494000  0.31632000  0.96902000  1.0
  H  H14  1  0.44506000  0.81632000  0.96902000  1.0
  H  H15  1  0.94506000  0.68368000  0.03098000  1.0
  H  H16  1  0.68967000  0.39757000  0.98810000  1.0
  H  H17  1  0.18967000  0.10243000  0.01190000  1.0
  H  H18  1  0.31033000  0.60243000  0.01190000  1.0
  H  H19  1  0.81033000  0.89757000  0.98810000  1.0
  C  C20  1  0.44095000  0.14279000  0.70741000  1.0
  C  C21  1  0.94095000  0.35721000  0.29259000  1.0
  C  C22  1  0.55905000  0.85721000  0.29259000  1.0
  C  C23  1  0.05905000  0.64279000  0.70741000  1.0
  C  C24  1  0.34413000  0.04745000  0.59509000  1.0
  C  C25  1  0.84413000  0.45255000  0.40491000  1.0
  C  C26  1  0.65587000  0.95255000  0.40491000  1.0
  C  C27  1  0.15587000  0.54745000  0.59509000  1.0
  C  C28  1  0.45613000  0.11272000  0.83169000  1.0
  C  C29  1  0.95613000  0.38728000  0.16831000  1.0
  C  C30  1  0.54388000  0.88728000  0.16831000  1.0
  C  C31  1  0.04387000  0.61272000  0.83169000  1.0
  C  C32  1  0.60202000  0.34709000  0.78583000  1.0
  C  C33  1  0.10202000  0.15290000  0.21417000  1.0
  C  C34  1  0.39798000  0.65291000  0.21417000  1.0
  C  C35  1  0.89798000  0.84709000  0.78583000  1.0
  C  C36  1  0.54492000  0.20643000  0.93500000  1.0
  C  C37  1  0.04492000  0.29356000  0.06500000  1.0
  C  C38  1  0.45508000  0.79357000  0.06500000  1.0
  C  C39  1  0.95508000  0.70644000  0.93500000  1.0
  C  C40  1  0.61816000  0.32348000  0.91110000  1.0
  C  C41  1  0.11816000  0.17652000  0.08890000  1.0
  C  C42  1  0.38184000  0.67652000  0.08890000  1.0
  C  C43  1  0.88184000  0.82348000  0.91110000  1.0
  N  N44  1  0.51364000  0.25913000  0.68929000  1.0
  N  N45  1  0.01364000  0.24087000  0.31071000  1.0
  N  N46  1  0.48636000  0.74087000  0.31071000  1.0
  N  N47  1  0.98636000  0.75913000  0.68929000  1.0
  Cl  Cl48  1  0.47434000  0.34427000  0.28885000  1.0
  Cl  Cl49  1  0.97434000  0.15573000  0.71115000  1.0
  Cl  Cl50  1  0.52566000  0.65572000  0.71115000  1.0
  Cl  Cl51  1  0.02566000  0.84428000  0.28885000  1.0
  O  O52  1  0.31626000  0.08296000  0.49019000  1.0
  O  O53  1  0.81626000  0.41704000  0.50981000  1.0
  O  O54  1  0.68374000  0.91704000  0.50981000  1.0
  O  O55  1  0.18374000  0.58296000  0.49019000  1.0
  O  O56  1  0.29469000  0.93138000  0.61520000  1.0
  O  O57  1  0.79469000  0.56861000  0.38480000  1.0
  O  O58  1  0.70531000  0.06862000  0.38480000  1.0
  O  O59  1  0.20531000  0.43138000  0.61520000  1.0
  O  O60  1  0.38572000  0.99830000  0.85276000  1.0
  O  O61  1  0.88572000  0.50170000  0.14724000  1.0
  O  O62  1  0.61428000  0.00170000  0.14724000  1.0
  O  O63  1  0.11428000  0.49830000  0.85276000  1.0
