# generated using pymatgen
data_Ni3H40C54(N6O7)2
_symmetry_space_group_name_H-M   'P 1'
_cell_length_a   9.99554000
_cell_length_b   12.37220000
_cell_length_c   13.31411610
_cell_angle_alpha   82.15998968
_cell_angle_beta   68.65753459
_cell_angle_gamma   73.60600000
_symmetry_Int_Tables_number   1
_chemical_formula_structural   Ni3H40C54(N6O7)2
_chemical_formula_sum   'Ni3 H40 C54 N12 O14'
_cell_volume   1470.20260780
_cell_formula_units_Z   1
loop_
 _symmetry_equiv_pos_site_id
 _symmetry_equiv_pos_as_xyz
  1  'x, y, z'
loop_
 _atom_site_type_symbol
 _atom_site_label
 _atom_site_symmetry_multiplicity
 _atom_site_fract_x
 _atom_site_fract_y
 _atom_site_fract_z
 _atom_site_occupancy
  Ni  Ni0  1  0.80548000  0.92138000  0.57846000  1.0
  Ni  Ni1  1  0.19451000  0.07861000  0.42154000  1.0
  Ni  Ni2  1  0.00000000  0.50000000  0.00001000  1.0
  H  H3  1  0.51975000  0.11842000  0.54524000  1.0
  H  H4  1  0.48024000  0.88158000  0.45476000  1.0
  H  H5  1  0.81455000  0.12481000  0.70402000  1.0
  H  H6  1  0.18544000  0.87519000  0.29597000  1.0
  H  H7  1  0.62414000  0.33877000  0.70674000  1.0
  H  H8  1  0.37584000  0.66123000  0.29326000  1.0
  H  H9  1  0.52265000  0.30776000  0.42420000  1.0
  H  H10  1  0.47736000  0.69224000  0.57579000  1.0
  H  H11  1  0.32324000  0.40761000  0.75473000  1.0
  H  H12  1  0.67675000  0.59238000  0.24527000  1.0
  H  H13  1  0.04348000  0.71978000  0.64108000  1.0
  H  H14  1  0.95651000  0.28022000  0.35892000  1.0
  H  H15  1  0.87979000  0.74476000  0.38728000  1.0
  H  H16  1  0.12020000  0.25523000  0.61272000  1.0
  H  H17  1  0.10205000  0.54612000  0.36833000  1.0
  H  H18  1  0.89794000  0.45388000  0.63167000  1.0
  H  H19  1  0.33342000  0.45985000  0.37508000  1.0
  H  H20  1  0.66660000  0.54015000  0.62491000  1.0
  H  H21  1  0.13568000  0.55772000  0.70857000  1.0
  H  H22  1  0.86432000  0.44228000  0.29142000  1.0
  H  H23  1  0.69852000  0.68966000  0.97798000  1.0
  H  H24  1  0.30147000  0.31034000  0.02204000  1.0
  H  H25  1  0.96577000  0.69060000  0.16009000  1.0
  H  H26  1  0.03423000  0.30941000  0.83991000  1.0
  H  H27  1  0.77661000  0.90561000  0.15863000  1.0
  H  H28  1  0.22340000  0.09440000  0.84136000  1.0
  H  H29  1  0.69587000  0.87212000  0.86048000  1.0
  H  H30  1  0.30413000  0.12788000  0.13953000  1.0
  H  H31  1  0.48695000  0.97536000  0.19159000  1.0
  H  H32  1  0.51307000  0.02464000  0.80842000  1.0
  H  H33  1  0.32334000  0.97965000  0.59814000  1.0
  H  H34  1  0.67667000  0.02034000  0.40186000  1.0
  H  H35  1  0.46954000  0.71399000  0.80999000  1.0
  H  H36  1  0.53046000  0.28601000  0.19002000  1.0
  H  H37  1  0.03185000  0.77603000  0.79435000  1.0
  H  H38  1  0.96816000  0.22397000  0.20564000  1.0
  H  H39  1  0.20290000  0.53890000  0.04593000  1.0
  H  H40  1  0.79712000  0.46110000  0.95407000  1.0
  H  H41  1  0.15989000  0.43382000  0.13034000  1.0
  H  H42  1  0.84011000  0.56618000  0.86967000  1.0
  C  C43  1  0.57798000  0.14684000  0.58738000  1.0
  C  C44  1  0.42201000  0.85315000  0.41262000  1.0
  C  C45  1  0.72447000  0.15491000  0.67249000  1.0
  C  C46  1  0.27553000  0.84509000  0.32750000  1.0
  C  C47  1  0.63167000  0.26072000  0.67451000  1.0
  C  C48  1  0.36833000  0.73927000  0.32548000  1.0
  C  C49  1  0.43337000  0.34633000  0.59246000  1.0
  C  C50  1  0.56661000  0.65366000  0.40754000  1.0
  C  C51  1  0.43598000  0.36218000  0.48596000  1.0
  C  C52  1  0.56401000  0.63783000  0.51404000  1.0
  C  C53  1  0.32689000  0.41903000  0.67131000  1.0
  C  C54  1  0.67310000  0.58097000  0.32869000  1.0
  C  C55  1  0.02633000  0.69909000  0.57118000  1.0
  C  C56  1  0.97368000  0.30091000  0.42881000  1.0
  C  C57  1  0.94778000  0.70966000  0.43716000  1.0
  C  C58  1  0.05221000  0.29034000  0.56284000  1.0
  C  C59  1  0.05850000  0.61178000  0.42626000  1.0
  C  C60  1  0.94150000  0.38823000  0.57374000  1.0
  C  C61  1  0.21996000  0.51903000  0.53815000  1.0
  C  C62  1  0.78004000  0.48097000  0.46184000  1.0
  C  C63  1  0.32954000  0.44822000  0.45861000  1.0
  C  C64  1  0.67046000  0.55179000  0.54139000  1.0
  C  C65  1  0.21991000  0.50484000  0.64434000  1.0
  C  C66  1  0.78007000  0.49516000  0.35566000  1.0
  C  C67  1  0.75140000  0.71643000  0.02479000  1.0
  C  C68  1  0.24861000  0.28357000  0.97521000  1.0
  C  C69  1  0.88252000  0.72236000  0.12199000  1.0
  C  C70  1  0.11747000  0.27765000  0.87802000  1.0
  C  C71  1  0.78958000  0.82821000  0.12258000  1.0
  C  C72  1  0.21042000  0.17180000  0.87743000  1.0
  C  C73  1  0.60240000  0.91379000  0.02979000  1.0
  C  C74  1  0.39760000  0.08621000  0.97021000  1.0
  C  C75  1  0.60923000  0.92661000  0.92228000  1.0
  C  C76  1  0.39078000  0.07338000  0.07772000  1.0
  C  C77  1  0.49428000  0.98675000  0.10749000  1.0
  C  C78  1  0.50572000  0.01325000  0.89250000  1.0
  C  C79  1  0.16380000  0.88646000  0.69298000  1.0
  C  C80  1  0.83620000  0.11354000  0.30702000  1.0
  C  C81  1  0.30183000  0.91175000  0.65830000  1.0
  C  C82  1  0.69817000  0.08826000  0.34170000  1.0
  C  C83  1  0.41317000  0.84803000  0.69822000  1.0
  C  C84  1  0.58683000  0.15197000  0.30178000  1.0
  C  C85  1  0.38423000  0.76214000  0.77715000  1.0
  C  C86  1  0.61578000  0.23786000  0.22285000  1.0
  C  C87  1  0.24753000  0.73491000  0.81041000  1.0
  C  C88  1  0.75248000  0.26508000  0.18959000  1.0
  C  C89  1  0.13829000  0.79727000  0.76809000  1.0
  C  C90  1  0.86173000  0.20272000  0.23191000  1.0
  C  C91  1  0.05035000  0.94793000  0.64159000  1.0
  C  C92  1  0.94965000  0.05208000  0.35842000  1.0
  C  C93  1  0.56514000  0.86701000  0.64973000  1.0
  C  C94  1  0.43485000  0.13298000  0.35027000  1.0
  C  C95  1  0.21645000  0.63775000  0.88848000  1.0
  C  C96  1  0.78355000  0.36225000  0.11152000  1.0
  N  N97  1  0.68983000  0.08469000  0.61840000  1.0
  N  N98  1  0.31016000  0.91530000  0.38161000  1.0
  N  N99  1  0.54002000  0.25509000  0.61923000  1.0
  N  N100  1  0.45998000  0.74490000  0.38076000  1.0
  N  N101  1  0.92956000  0.76309000  0.52749000  1.0
  N  N102  1  0.07044000  0.23691000  0.47250000  1.0
  N  N103  1  0.10793000  0.60537000  0.51248000  1.0
  N  N104  1  0.89207000  0.39464000  0.48752000  1.0
  N  N105  1  0.85757000  0.65329000  0.06076000  1.0
  N  N106  1  0.14243000  0.34672000  0.93926000  1.0
  N  N107  1  0.70742000  0.82359000  0.05968000  1.0
  N  N108  1  0.29259000  0.17641000  0.94032000  1.0
  O  O109  1  0.93356000  0.91148000  0.66957000  1.0
  O  O110  1  0.06644000  0.08851000  0.33044000  1.0
  O  O111  1  0.07564000  0.02960000  0.57586000  1.0
  O  O112  1  0.92436000  0.97039000  0.42414000  1.0
  O  O113  1  0.60886000  0.90245000  0.55116000  1.0
  O  O114  1  0.39113000  0.09756000  0.44884000  1.0
  O  O115  1  0.64906000  0.84891000  0.70621000  1.0
  O  O116  1  0.35095000  0.15109000  0.29378000  1.0
  O  O117  1  0.28897000  0.60466000  0.95273000  1.0
  O  O118  1  0.71105000  0.39535000  0.04726000  1.0
  O  O119  1  0.11539000  0.59628000  0.88323000  1.0
  O  O120  1  0.88460000  0.40372000  0.11678000  1.0
  O  O121  1  0.11800000  0.50788000  0.10385000  1.0
  O  O122  1  0.88201000  0.49213000  0.89616000  1.0
