# generated using pymatgen
data_CdH30C28N4O5
_symmetry_space_group_name_H-M   'P 1'
_cell_length_a   10.63030000
_cell_length_b   10.63030000
_cell_length_c   13.55220000
_cell_angle_alpha   102.84500000
_cell_angle_beta   102.84500000
_cell_angle_gamma   108.93100000
_symmetry_Int_Tables_number   1
_chemical_formula_structural   CdH30C28N4O5
_chemical_formula_sum   'Cd2 H60 C56 N8 O10'
_cell_volume   1338.44037548
_cell_formula_units_Z   2
loop_
 _symmetry_equiv_pos_site_id
 _symmetry_equiv_pos_as_xyz
  1  'x, y, z'
loop_
 _atom_site_type_symbol
 _atom_site_label
 _atom_site_symmetry_multiplicity
 _atom_site_fract_x
 _atom_site_fract_y
 _atom_site_fract_z
 _atom_site_occupancy
  Cd  Cd0  1  0.86698000  0.13302000  0.25000000  1.0
  Cd  Cd1  1  0.13302000  0.86698000  0.75000000  1.0
  H  H2  1  0.16946000  0.06769000  0.55278000  1.0
  H  H3  1  0.93230000  0.83054000  0.94722000  1.0
  H  H4  1  0.83054000  0.93230000  0.44721000  1.0
  H  H5  1  0.06770000  0.16946000  0.05278000  1.0
  H  H6  1  0.39889000  0.14333000  0.69687000  1.0
  H  H7  1  0.85667000  0.60110000  0.80313000  1.0
  H  H8  1  0.60110000  0.85667000  0.30313000  1.0
  H  H9  1  0.14333000  0.39889000  0.19687000  1.0
  H  H10  1  0.31802000  0.46110000  0.49228000  1.0
  H  H11  1  0.53890000  0.68198000  0.00773000  1.0
  H  H12  1  0.68198000  0.53890000  0.50772000  1.0
  H  H13  1  0.46110000  0.31802000  0.99227000  1.0
  H  H14  1  0.81553000  0.21608000  0.01140000  1.0
  H  H15  1  0.78392000  0.18447000  0.48860000  1.0
  H  H16  1  0.18447000  0.78392000  0.98860000  1.0
  H  H17  1  0.21608000  0.81553000  0.51140000  1.0
  H  H18  1  0.80007000  0.47145000  0.00377000  1.0
  H  H19  1  0.52855000  0.19993000  0.49622000  1.0
  H  H20  1  0.19993000  0.52855000  0.99622000  1.0
  H  H21  1  0.47145000  0.80007000  0.50377000  1.0
  H  H22  1  0.54666000  0.53850000  0.63707000  1.0
  H  H23  1  0.46150000  0.45335000  0.86294000  1.0
  H  H24  1  0.45334000  0.46150000  0.36293000  1.0
  H  H25  1  0.53850000  0.54666000  0.13707000  1.0
  H  H26  1  0.80644000  0.67128000  0.13237000  1.0
  H  H27  1  0.32872000  0.19356000  0.36763000  1.0
  H  H28  1  0.19356000  0.32872000  0.86763000  1.0
  H  H29  1  0.67128000  0.80644000  0.63237000  1.0
  H  H30  1  0.77527000  0.65325000  0.25220000  1.0
  H  H31  1  0.34675000  0.22473000  0.24780000  1.0
  H  H32  1  0.22473000  0.34675000  0.74780000  1.0
  H  H33  1  0.65325000  0.77527000  0.75220000  1.0
  H  H34  1  0.98396000  0.86782000  0.27418000  1.0
  H  H35  1  0.13218000  0.01604000  0.22582000  1.0
  H  H36  1  0.01604000  0.13218000  0.72582000  1.0
  H  H37  1  0.86782000  0.98396000  0.77418000  1.0
  H  H38  1  0.02302000  0.76858000  0.35385000  1.0
  H  H39  1  0.23142000  0.97698000  0.14615000  1.0
  H  H40  1  0.97698000  0.23142000  0.64615000  1.0
  H  H41  1  0.76858000  0.02302000  0.85385000  1.0
  H  H42  1  0.07418000  0.73473000  0.13710000  1.0
  H  H43  1  0.26527000  0.92582000  0.36290000  1.0
  H  H44  1  0.92582000  0.26527000  0.86290000  1.0
  H  H45  1  0.73473000  0.07418000  0.63710000  1.0
  H  H46  1  0.13300000  0.66542000  0.23622000  1.0
  H  H47  1  0.33458000  0.86700000  0.26378000  1.0
  H  H48  1  0.86700000  0.33458000  0.76378000  1.0
  H  H49  1  0.66542000  0.13300000  0.73622000  1.0
  H  H50  1  0.82004000  0.41706000  0.38115000  1.0
  H  H51  1  0.58295000  0.17996000  0.11885000  1.0
  H  H52  1  0.17996000  0.58294000  0.61885000  1.0
  H  H53  1  0.41706000  0.82004000  0.88115000  1.0
  H  H54  1  0.91634000  0.59086000  0.38718000  1.0
  H  H55  1  0.40914000  0.08366000  0.11282000  1.0
  H  H56  1  0.08366000  0.40914000  0.61282000  1.0
  H  H57  1  0.59086000  0.91634000  0.88718000  1.0
  H  H58  1  0.00096000  0.47112000  0.39473000  1.0
  H  H59  1  0.52888000  0.99904000  0.10527000  1.0
  H  H60  1  0.99904000  0.52888000  0.60527000  1.0
  H  H61  1  0.47112000  0.00096000  0.89473000  1.0
  C  C62  1  0.23160000  0.25920000  0.51294000  1.0
  C  C63  1  0.74080000  0.76840000  0.98707000  1.0
  C  C64  1  0.76840000  0.74080000  0.48707000  1.0
  C  C65  1  0.25920000  0.23160000  0.01293000  1.0
  C  C66  1  0.10008000  0.21358000  0.42197000  1.0
  C  C67  1  0.78642000  0.89992000  0.07803000  1.0
  C  C68  1  0.89992000  0.78641000  0.57803000  1.0
  C  C69  1  0.21358000  0.10008000  0.92197000  1.0
  C  C70  1  0.25392000  0.16930000  0.57023000  1.0
  C  C71  1  0.83070000  0.74608000  0.92977000  1.0
  C  C72  1  0.74608000  0.83069000  0.42977000  1.0
  C  C73  1  0.16931000  0.25392000  0.07023000  1.0
  C  C74  1  0.38156000  0.21107000  0.65031000  1.0
  C  C75  1  0.78893000  0.61844000  0.84969000  1.0
  C  C76  1  0.61844000  0.78893000  0.34969000  1.0
  C  C77  1  0.21107000  0.38156000  0.15031000  1.0
  C  C78  1  0.87036000  0.43378000  0.23895000  1.0
  C  C79  1  0.56622000  0.12964000  0.26105000  1.0
  C  C80  1  0.12964000  0.56622000  0.76105000  1.0
  C  C81  1  0.43378000  0.87036000  0.73895000  1.0
  C  C82  1  0.48534000  0.34382000  0.67282000  1.0
  C  C83  1  0.65618000  0.51466000  0.82718000  1.0
  C  C84  1  0.51466000  0.65618000  0.32718000  1.0
  C  C85  1  0.34382000  0.48534000  0.17282000  1.0
  C  C86  1  0.33706000  0.39287000  0.53782000  1.0
  C  C87  1  0.60714000  0.66294000  0.96218000  1.0
  C  C88  1  0.66294000  0.60713000  0.46218000  1.0
  C  C89  1  0.39286000  0.33706000  0.03782000  1.0
  C  C90  1  0.82859000  0.30654000  0.07488000  1.0
  C  C91  1  0.69347000  0.17141000  0.42512000  1.0
  C  C92  1  0.17141000  0.69346000  0.92512000  1.0
  C  C93  1  0.30653000  0.82859000  0.57488000  1.0
  C  C94  1  0.82047000  0.43133000  0.06985000  1.0
  C  C95  1  0.56867000  0.17953000  0.43015000  1.0
  C  C96  1  0.17953000  0.56867000  0.93015000  1.0
  C  C97  1  0.43133000  0.82048000  0.56985000  1.0
  C  C98  1  0.46356000  0.43570000  0.61764000  1.0
  C  C99  1  0.56430000  0.53644000  0.88237000  1.0
  C  C100  1  0.53644000  0.56430000  0.38236000  1.0
  C  C101  1  0.43570000  0.46356000  0.11763000  1.0
  C  C102  1  0.84850000  0.65225000  0.20648000  1.0
  C  C103  1  0.34775000  0.15150000  0.29352000  1.0
  C  C104  1  0.15150000  0.34775000  0.79352000  1.0
  C  C105  1  0.65225000  0.84850000  0.70648000  1.0
  C  C106  1  0.99372000  0.76702000  0.27024000  1.0
  C  C107  1  0.23298000  0.00627000  0.22976000  1.0
  C  C108  1  0.00627000  0.23298000  0.72976000  1.0
  C  C109  1  0.76702000  0.99373000  0.77024000  1.0
  C  C110  1  0.11010000  0.75581000  0.22432000  1.0
  C  C111  1  0.24419000  0.88990000  0.27568000  1.0
  C  C112  1  0.88990000  0.24419000  0.77568000  1.0
  C  C113  1  0.75581000  0.11010000  0.72432000  1.0
  C  C114  1  0.90381000  0.48177000  0.35694000  1.0
  C  C115  1  0.51823000  0.09619000  0.14306000  1.0
  C  C116  1  0.09618000  0.51823000  0.64306000  1.0
  C  C117  1  0.48177000  0.90381000  0.85694000  1.0
  N  N118  1  0.85959000  0.30931000  0.17994000  1.0
  N  N119  1  0.69069000  0.14041000  0.32006000  1.0
  N  N120  1  0.14041000  0.69069000  0.82006000  1.0
  N  N121  1  0.30931000  0.85959000  0.67993000  1.0
  N  N122  1  0.84635000  0.51031000  0.17388000  1.0
  N  N123  1  0.48969000  0.15365000  0.32612000  1.0
  N  N124  1  0.15365000  0.48969000  0.82612000  1.0
  N  N125  1  0.51031000  0.84635000  0.67388000  1.0
  O  O126  1  0.61464000  0.38536000  0.75000000  1.0
  O  O127  1  0.38536000  0.61464000  0.25000000  1.0
  O  O128  1  0.99857000  0.09720000  0.40311000  1.0
  O  O129  1  0.90280000  0.00143000  0.09689000  1.0
  O  O130  1  0.00143000  0.90280000  0.59689000  1.0
  O  O131  1  0.09720000  0.99857000  0.90311000  1.0
  O  O132  1  0.09594000  0.29304000  0.36395000  1.0
  O  O133  1  0.70696000  0.90407000  0.13605000  1.0
  O  O134  1  0.90406000  0.70695000  0.63605000  1.0
  O  O135  1  0.29304000  0.09594000  0.86395000  1.0
