# generated using pymatgen
data_ZnH3C2N5O3
_symmetry_space_group_name_H-M   'P 1'
_cell_length_a   6.57110000
_cell_length_b   8.69100000
_cell_length_c   10.25740000
_cell_angle_alpha   89.99980000
_cell_angle_beta   89.99980000
_cell_angle_gamma   85.28280000
_symmetry_Int_Tables_number   1
_chemical_formula_structural   ZnH3C2N5O3
_chemical_formula_sum   'Zn4 H12 C8 N20 O12'
_cell_volume   583.81003330
_cell_formula_units_Z   4
loop_
 _symmetry_equiv_pos_site_id
 _symmetry_equiv_pos_as_xyz
  1  'x, y, z'
loop_
 _atom_site_type_symbol
 _atom_site_label
 _atom_site_symmetry_multiplicity
 _atom_site_fract_x
 _atom_site_fract_y
 _atom_site_fract_z
 _atom_site_occupancy
  Zn  Zn0  1  0.23685000  0.70041000  0.69898000  1.0
  Zn  Zn1  1  0.26315000  0.29959000  0.19898000  1.0
  Zn  Zn2  1  0.76315000  0.29959000  0.30102000  1.0
  Zn  Zn3  1  0.73685000  0.70041000  0.80102000  1.0
  H  H4  1  0.47032000  0.90428000  0.74785000  1.0
  H  H5  1  0.02968000  0.09572000  0.24786000  1.0
  H  H6  1  0.52969000  0.09572000  0.25214000  1.0
  H  H7  1  0.97032000  0.90428000  0.75214000  1.0
  H  H8  1  0.17905000  0.24606000  0.46977000  1.0
  H  H9  1  0.32094000  0.75394000  0.96977000  1.0
  H  H10  1  0.82094000  0.75394000  0.53023000  1.0
  H  H11  1  0.67905000  0.24607000  0.03023000  1.0
  H  H12  1  0.20362000  0.33486000  0.62569000  1.0
  H  H13  1  0.29637000  0.66514000  0.12568000  1.0
  H  H14  1  0.79638000  0.66514000  0.37432000  1.0
  H  H15  1  0.70362000  0.33486000  0.87431000  1.0
  C  C16  1  0.24669000  0.46830000  0.46319000  1.0
  C  C17  1  0.25330000  0.53169000  0.96318000  1.0
  C  C18  1  0.75329000  0.53169000  0.53681000  1.0
  C  C19  1  0.74669000  0.46831000  0.03681000  1.0
  C  C20  1  0.29848000  0.69817000  0.41003000  1.0
  C  C21  1  0.20151000  0.30183000  0.91003000  1.0
  C  C22  1  0.70151000  0.30183000  0.58997000  1.0
  C  C23  1  0.79849000  0.69817000  0.08997000  1.0
  N  N24  1  0.26858000  0.60948000  0.51716000  1.0
  N  N25  1  0.23141000  0.39052000  0.01716000  1.0
  N  N26  1  0.73141000  0.39052000  0.48284000  1.0
  N  N27  1  0.76859000  0.60949000  0.98284000  1.0
  N  N28  1  0.26249000  0.47701000  0.33008000  1.0
  N  N29  1  0.23751000  0.52298000  0.83007000  1.0
  N  N30  1  0.73751000  0.52298000  0.66992000  1.0
  N  N31  1  0.76249000  0.47702000  0.16992000  1.0
  N  N32  1  0.29617000  0.62326000  0.29807000  1.0
  N  N33  1  0.20383000  0.37674000  0.79807000  1.0
  N  N34  1  0.70383000  0.37674000  0.70193000  1.0
  N  N35  1  0.79617000  0.62326000  0.20193000  1.0
  N  N36  1  0.21854000  0.33660000  0.52523000  1.0
  N  N37  1  0.28145000  0.66340000  0.02523000  1.0
  N  N38  1  0.78145000  0.66341000  0.47477000  1.0
  N  N39  1  0.71854000  0.33660000  0.97477000  1.0
  N  N40  1  0.32529000  0.85853000  0.41419000  1.0
  N  N41  1  0.17471000  0.14147000  0.91419000  1.0
  N  N42  1  0.67471000  0.14147000  0.58581000  1.0
  N  N43  1  0.82529000  0.85853000  0.08581000  1.0
  O  O44  1  0.37343000  0.92138000  0.31062000  1.0
  O  O45  1  0.12657000  0.07861000  0.81062000  1.0
  O  O46  1  0.62658000  0.07861000  0.68938000  1.0
  O  O47  1  0.87343000  0.92139000  0.18938000  1.0
  O  O48  1  0.29718000  0.92625000  0.52107000  1.0
  O  O49  1  0.20282000  0.07374000  0.02107000  1.0
  O  O50  1  0.70281000  0.07374000  0.47894000  1.0
  O  O51  1  0.79719000  0.92626000  0.97893000  1.0
  O  O52  1  0.45775000  0.80195000  0.78495000  1.0
  O  O53  1  0.04225000  0.19805000  0.28495000  1.0
  O  O54  1  0.54226000  0.19805000  0.21505000  1.0
  O  O55  1  0.95775000  0.80195000  0.71505000  1.0
