# generated using pymatgen
data_Zr3H14C33S5O26
_symmetry_space_group_name_H-M   'P 1'
_cell_length_a   16.40930000
_cell_length_b   16.41255558
_cell_length_c   16.43630000
_cell_angle_alpha   119.59169447
_cell_angle_beta   119.57580000
_cell_angle_gamma   89.00622292
_symmetry_Int_Tables_number   1
_chemical_formula_structural   Zr3H14C33S5O26
_chemical_formula_sum   'Zr6 H28 C66 S10 O52'
_cell_volume   3194.16524079
_cell_formula_units_Z   2
loop_
 _symmetry_equiv_pos_site_id
 _symmetry_equiv_pos_as_xyz
  1  'x, y, z'
loop_
 _atom_site_type_symbol
 _atom_site_label
 _atom_site_symmetry_multiplicity
 _atom_site_fract_x
 _atom_site_fract_y
 _atom_site_fract_z
 _atom_site_occupancy
  Zr  Zr0  1  0.40603000  0.89582000  0.79023000  1.0
  Zr  Zr1  1  0.60902000  0.09903000  0.21475000  1.0
  Zr  Zr2  1  0.39728000  0.88914000  0.99827000  1.0
  Zr  Zr3  1  0.61626000  0.10753000  0.00672000  1.0
  Zr  Zr4  1  0.61455000  0.89049000  0.00261000  1.0
  Zr  Zr5  1  0.39999000  0.10540000  0.00243000  1.0
  H  H6  1  0.42533000  0.74744000  0.83044000  1.0
  H  H7  1  0.75761000  0.07926000  0.17455000  1.0
  H  H8  1  0.41736000  0.07906000  0.16813000  1.0
  H  H9  1  0.42630000  0.08750000  0.83673000  1.0
  H  H10  1  0.16429000  0.65433000  0.51546000  1.0
  H  H11  1  0.85227000  0.33913000  0.48965000  1.0
  H  H12  1  0.35417000  0.29453000  0.15218000  1.0
  H  H13  1  0.68715000  0.72748000  0.85652000  1.0
  H  H14  1  0.77696000  0.81790000  0.14893000  1.0
  H  H15  1  0.21064000  0.15037000  0.85285000  1.0
  H  H16  1  0.03643000  0.76914000  0.92912000  1.0
  H  H17  1  0.80190000  0.08327000  0.85165000  1.0
  H  H18  1  0.41745000  0.70904000  0.14617000  1.0
  H  H19  1  0.73622000  0.47997000  0.07925000  1.0
  H  H20  1  0.74126000  0.08872000  0.51764000  1.0
  H  H21  1  0.41766000  0.76376000  0.48971000  1.0
  H  H22  1  0.96071000  0.42241000  0.67168000  1.0
  H  H23  1  0.06723000  0.51859000  0.74527000  1.0
  H  H24  1  0.95649000  0.54419000  0.72893000  1.0
  H  H25  1  0.13978000  0.66904000  0.82685000  1.0
  H  H26  1  0.11506000  0.76372000  0.80505000  1.0
  H  H27  1  0.01610000  0.66913000  0.75227000  1.0
  H  H28  1  0.08050000  0.54654000  0.33328000  1.0
  H  H29  1  0.98459000  0.43963000  0.25955000  1.0
  H  H30  1  0.95858000  0.55048000  0.27690000  1.0
  H  H31  1  0.83484000  0.36602000  0.17847000  1.0
  H  H32  1  0.74040000  0.38992000  0.20088000  1.0
  H  H33  1  0.83423000  0.48933000  0.25346000  1.0
  C  C34  1  0.52985000  0.73663000  0.73630000  1.0
  C  C35  1  0.76806000  0.97520000  0.26914000  1.0
  C  C36  1  0.50472000  0.27459000  0.27155000  1.0
  C  C37  1  0.23060000  0.00018000  0.73318000  1.0
  C  C38  1  0.23407000  0.74223000  0.72877000  1.0
  C  C39  1  0.51870000  0.00102000  0.73708000  1.0
  C  C40  1  0.76315000  0.27049000  0.27650000  1.0
  C  C41  1  0.50342000  0.98650000  0.26777000  1.0
  C  C42  1  0.50643000  0.72351000  0.99848000  1.0
  C  C43  1  0.23308000  0.00107000  0.99980000  1.0
  C  C44  1  0.50501000  0.27194000  0.00506000  1.0
  C  C45  1  0.78165000  0.99822000  0.00654000  1.0
  C  C46  1  0.44416000  0.42509000  0.35195000  1.0
  C  C47  1  0.60713000  0.60237000  0.65549000  1.0
  C  C48  1  0.51104000  0.37006000  0.35885000  1.0
  C  C49  1  0.53617000  0.65253000  0.64887000  1.0
  C  C50  1  0.57289000  0.51902000  0.54605000  1.0
  C  C51  1  0.48082000  0.50928000  0.46094000  1.0
  C  C52  1  0.90202000  0.89769000  0.34988000  1.0
  C  C53  1  0.07989000  0.06068000  0.65325000  1.0
  C  C54  1  0.85208000  0.96883000  0.35661000  1.0
  C  C55  1  0.13489000  0.99378000  0.64613000  1.0
  C  C56  1  0.99556000  0.02410000  0.54438000  1.0
  C  C57  1  0.98560000  0.93196000  0.45918000  1.0
  C  C58  1  0.10546000  0.94375000  0.02144000  1.0
  C  C59  1  0.91789000  0.06725000  0.00408000  1.0
  C  C60  1  0.14786000  0.00488000  0.00787000  1.0
  C  C61  1  0.87185000  0.00094000  0.00897000  1.0
  C  C62  1  0.00155000  0.04406000  0.00443000  1.0
  C  C63  1  0.01918000  0.96420000  0.01523000  1.0
  C  C64  1  0.43686000  0.58593000  0.99890000  1.0
  C  C65  1  0.56383000  0.40110000  0.98562000  1.0
  C  C66  1  0.50410000  0.63342000  0.99628000  1.0
  C  C67  1  0.50150000  0.35704000  0.99669000  1.0
  C  C68  1  0.54210000  0.48673000  0.99079000  1.0
  C  C69  1  0.46063000  0.50248000  0.99870000  1.0
  C  C70  1  0.07731000  0.62776000  0.65409000  1.0
  C  C71  1  0.11336000  0.62475000  0.52528000  1.0
  C  C72  1  0.02713000  0.55228000  0.43052000  1.0
  C  C73  1  0.96603000  0.50693000  0.44592000  1.0
  C  C74  1  0.87692000  0.42774000  0.35137000  1.0
  C  C75  1  0.88131000  0.39053000  0.47998000  1.0
  C  C76  1  0.95375000  0.47674000  0.57483000  1.0
  C  C77  1  0.99830000  0.53852000  0.55950000  1.0
  C  C78  1  0.13860000  0.66459000  0.63600000  1.0
  C  C79  1  0.84083000  0.36591000  0.36938000  1.0
  C  C80  1  0.57384000  0.05499000  0.47350000  1.0
  C  C81  1  0.45029000  0.93036000  0.53125000  1.0
  C  C82  1  0.50689000  0.98612000  0.35842000  1.0
  C  C83  1  0.51898000  0.99752000  0.64634000  1.0
  C  C84  1  0.47349000  0.94862000  0.46827000  1.0
  C  C85  1  0.55589000  0.03154000  0.53650000  1.0
  C  C86  1  0.34708000  0.41301000  0.25778000  1.0
  C  C87  1  0.70867000  0.62390000  0.75058000  1.0
  C  C88  1  0.87964000  0.79576000  0.25486000  1.0
  C  C89  1  0.09188000  0.15753000  0.74772000  1.0
  C  C90  1  0.15227000  0.87959000  0.05997000  1.0
  C  C91  1  0.89186000  0.15865000  0.01330000  1.0
  C  C92  1  0.34392000  0.60981000  0.98649000  1.0
  C  C93  1  0.63171000  0.35778000  0.95176000  1.0
  C  C94  1  0.64211000  0.15149000  0.52534000  1.0
  C  C95  1  0.35400000  0.86167000  0.47930000  1.0
  C  C96  1  0.98719000  0.49235000  0.68649000  1.0
  C  C97  1  0.08794000  0.68490000  0.76584000  1.0
  C  C98  1  0.01081000  0.51964000  0.31871000  1.0
  C  C99  1  0.81911000  0.41743000  0.23986000  1.0
  S  S100  1  0.61643000  0.42329000  0.49440000  1.0
  S  S101  1  0.43292000  0.60054000  0.51181000  1.0
  S  S102  1  0.90429000  0.07209000  0.49371000  1.0
  S  S103  1  0.08130000  0.88831000  0.51055000  1.0
  S  S104  1  0.08797000  0.09044000  0.99547000  1.0
  S  S105  1  0.93124000  0.91467000  0.01987000  1.0
  S  S106  1  0.59194000  0.57567000  0.98766000  1.0
  S  S107  1  0.41396000  0.41496000  0.00602000  1.0
  S  S108  1  0.41969000  0.89752000  0.32682000  1.0
  S  S109  1  0.60708000  0.08532000  0.67799000  1.0
  O  O110  1  0.45874000  0.77067000  0.70344000  1.0
  O  O111  1  0.73390000  0.04622000  0.30187000  1.0
  O  O112  1  0.56905000  0.23383000  0.30332000  1.0
  O  O113  1  0.27126000  0.93578000  0.70132000  1.0
  O  O114  1  0.27012000  0.77122000  0.83114000  1.0
  O  O115  1  0.58563000  0.06753000  0.83913000  1.0
  O  O116  1  0.73434000  0.23443000  0.17422000  1.0
  O  O117  1  0.43708000  0.91936000  0.16563000  1.0
  O  O118  1  0.57639000  0.75717000  0.99868000  1.0
  O  O119  1  0.26698000  0.07019000  0.99883000  1.0
  O  O120  1  0.43534000  0.23813000  0.00540000  1.0
  O  O121  1  0.74837000  0.92857000  0.00702000  1.0
  O  O122  1  0.26629000  0.92883000  0.99381000  1.0
  O  O123  1  0.57732000  0.23869000  0.01191000  1.0
  O  O124  1  0.74402000  0.06660000  0.00445000  1.0
  O  O125  1  0.43760000  0.76067000  0.99976000  1.0
  O  O126  1  0.27965000  0.77462000  0.70033000  1.0
  O  O127  1  0.56978000  0.05680000  0.30081000  1.0
  O  O128  1  0.73046000  0.22502000  0.30484000  1.0
  O  O129  1  0.44853000  0.93450000  0.70404000  1.0
  O  O130  1  0.26837000  0.07148000  0.83709000  1.0
  O  O131  1  0.59450000  0.76904000  0.84068000  1.0
  O  O132  1  0.73597000  0.91072000  0.16482000  1.0
  O  O133  1  0.43373000  0.23713000  0.16758000  1.0
  O  O134  1  0.44948000  0.06253000  0.88430000  1.0
  O  O135  1  0.44237000  0.05588000  0.12058000  1.0
  O  O136  1  0.68656000  0.05340000  0.12478000  1.0
  O  O137  1  0.45141000  0.81848000  0.88032000  1.0
  O  O138  1  0.54841000  0.94899000  0.08813000  1.0
  O  O139  1  0.55603000  0.95639000  0.91692000  1.0
  O  O140  1  0.54884000  0.12930000  0.09141000  1.0
  O  O141  1  0.37567000  0.95639000  0.91352000  1.0
  O  O142  1  0.30827000  0.33594000  0.15273000  1.0
  O  O143  1  0.30578000  0.47600000  0.28049000  1.0
  O  O144  1  0.74058000  0.69690000  0.85580000  1.0
  O  O145  1  0.76120000  0.57494000  0.72921000  1.0
  O  O146  1  0.80687000  0.76410000  0.14969000  1.0
  O  O147  1  0.92755000  0.74262000  0.27623000  1.0
  O  O148  1  0.16900000  0.19612000  0.85267000  1.0
  O  O149  1  0.02870000  0.19870000  0.72530000  1.0
  O  O150  1  0.09670000  0.78546000  0.99919000  1.0
  O  O151  1  0.23275000  0.91149000  0.14624000  1.0
  O  O152  1  0.82914000  0.15165000  0.91588000  1.0
  O  O153  1  0.92940000  0.23650000  0.10390000  1.0
  O  O154  1  0.34914000  0.67686000  0.08143000  1.0
  O  O155  1  0.26622000  0.56676000  0.89510000  1.0
  O  O156  1  0.72347000  0.41857000  0.01220000  1.0
  O  O157  1  0.60509000  0.27581000  0.86947000  1.0
  O  O158  1  0.73408000  0.15467000  0.54945000  1.0
  O  O159  1  0.61659000  0.22530000  0.55038000  1.0
  O  O160  1  0.35149000  0.77027000  0.45678000  1.0
  O  O161  1  0.27974000  0.88642000  0.45279000  1.0
