# generated using pymatgen
data_SrH9C9SNO5
_symmetry_space_group_name_H-M   'P 1'
_cell_length_a   5.98954000
_cell_length_b   11.37860000
_cell_length_c   17.11030000
_cell_angle_alpha   90.00080000
_cell_angle_beta   90.00050000
_cell_angle_gamma   88.05230000
_symmetry_Int_Tables_number   1
_chemical_formula_structural   SrH9C9SNO5
_chemical_formula_sum   'Sr4 H36 C36 S4 N4 O20'
_cell_volume   1165.43738610
_cell_formula_units_Z   4
loop_
 _symmetry_equiv_pos_site_id
 _symmetry_equiv_pos_as_xyz
  1  'x, y, z'
loop_
 _atom_site_type_symbol
 _atom_site_label
 _atom_site_symmetry_multiplicity
 _atom_site_fract_x
 _atom_site_fract_y
 _atom_site_fract_z
 _atom_site_occupancy
  Sr  Sr0  1  0.21761000  0.09852000  0.49936000  1.0
  Sr  Sr1  1  0.28239000  0.40148000  0.99936000  1.0
  Sr  Sr2  1  0.78240000  0.90149000  0.50065000  1.0
  Sr  Sr3  1  0.71759000  0.59852000  0.00064000  1.0
  H  H4  1  0.66086000  0.75410000  0.32138000  1.0
  H  H5  1  0.83913000  0.74589000  0.82138000  1.0
  H  H6  1  0.33915000  0.24589000  0.67861000  1.0
  H  H7  1  0.16087000  0.25410000  0.17861000  1.0
  H  H8  1  0.61025000  0.64217000  0.18653000  1.0
  H  H9  1  0.88975000  0.85782000  0.68653000  1.0
  H  H10  1  0.38974000  0.35783000  0.81347000  1.0
  H  H11  1  0.11025000  0.14217000  0.31347000  1.0
  H  H12  1  0.79104000  0.32470000  0.51418000  1.0
  H  H13  1  0.70898000  0.17530000  0.01417000  1.0
  H  H14  1  0.20896000  0.67530000  0.48583000  1.0
  H  H15  1  0.29103000  0.82470000  0.98582000  1.0
  H  H16  1  0.95509000  0.49663000  0.71122000  1.0
  H  H17  1  0.54493000  0.00338000  0.21122000  1.0
  H  H18  1  0.04492000  0.50337000  0.28878000  1.0
  H  H19  1  0.45508000  0.99663000  0.78878000  1.0
  H  H20  1  0.18205000  0.43904000  0.65280000  1.0
  H  H21  1  0.31796000  0.06097000  0.15280000  1.0
  H  H22  1  0.81795000  0.56096000  0.34720000  1.0
  H  H23  1  0.68204000  0.93904000  0.84720000  1.0
  H  H24  1  0.06743000  0.58431000  0.63560000  1.0
  H  H25  1  0.43258000  0.91570000  0.13560000  1.0
  H  H26  1  0.93257000  0.41569000  0.36440000  1.0
  H  H27  1  0.56742000  0.08431000  0.86440000  1.0
  H  H28  1  0.57694000  0.48955000  0.65840000  1.0
  H  H29  1  0.92306000  0.01045000  0.15841000  1.0
  H  H30  1  0.42304000  0.51045000  0.34160000  1.0
  H  H31  1  0.07694000  0.98955000  0.84159000  1.0
  H  H32  1  0.64168000  0.58705000  0.58052000  1.0
  H  H33  1  0.85833000  0.91296000  0.08052000  1.0
  H  H34  1  0.35832000  0.41295000  0.41948000  1.0
  H  H35  1  0.14166000  0.08704000  0.91948000  1.0
  H  H36  1  0.53888000  0.44349000  0.55983000  1.0
  H  H37  1  0.96112000  0.05651000  0.05983000  1.0
  H  H38  1  0.46111000  0.55652000  0.44017000  1.0
  H  H39  1  0.03888000  0.94348000  0.94017000  1.0
  C  C40  1  0.28493000  0.89544000  0.37814000  1.0
  C  C41  1  0.21506000  0.60457000  0.87814000  1.0
  C  C42  1  0.71509000  0.10457000  0.62185000  1.0
  C  C43  1  0.78492000  0.39543000  0.12186000  1.0
  C  C44  1  0.31538000  0.81636000  0.31020000  1.0
  C  C45  1  0.18461000  0.68364000  0.81020000  1.0
  C  C46  1  0.68461000  0.18364000  0.68980000  1.0
  C  C47  1  0.81538000  0.31635000  0.18980000  1.0
  C  C48  1  0.50772000  0.75457000  0.28716000  1.0
  C  C49  1  0.99228000  0.74543000  0.78716000  1.0
  C  C50  1  0.49228000  0.24543000  0.71284000  1.0
  C  C51  1  0.00772000  0.25457000  0.21284000  1.0
  C  C52  1  0.48033000  0.69509000  0.21559000  1.0
  C  C53  1  0.01968000  0.80490000  0.71559000  1.0
  C  C54  1  0.51966000  0.30490000  0.78441000  1.0
  C  C55  1  0.98033000  0.19510000  0.28441000  1.0
  C  C56  1  0.26784000  0.71305000  0.18450000  1.0
  C  C57  1  0.23218000  0.78695000  0.68450000  1.0
  C  C58  1  0.73216000  0.28695000  0.81550000  1.0
  C  C59  1  0.76784000  0.21305000  0.31550000  1.0
  C  C60  1  0.17995000  0.67456000  0.10773000  1.0
  C  C61  1  0.32006000  0.82543000  0.60773000  1.0
  C  C62  1  0.82003000  0.32543000  0.89227000  1.0
  C  C63  1  0.67996000  0.17458000  0.39227000  1.0
  C  C64  1  0.93060000  0.35622000  0.54994000  1.0
  C  C65  1  0.56940000  0.14377000  0.04994000  1.0
  C  C66  1  0.06936000  0.64378000  0.45006000  1.0
  C  C67  1  0.43060000  0.85623000  0.95006000  1.0
  C  C68  1  0.02878000  0.49401000  0.65242000  1.0
  C  C69  1  0.47123000  0.00600000  0.15243000  1.0
  C  C70  1  0.97122000  0.50599000  0.34758000  1.0
  C  C71  1  0.52877000  0.99401000  0.84758000  1.0
  C  C72  1  0.64433000  0.49429000  0.59881000  1.0
  C  C73  1  0.85570000  0.00571000  0.09881000  1.0
  C  C74  1  0.35567000  0.50571000  0.40119000  1.0
  C  C75  1  0.14431000  0.99429000  0.90119000  1.0
  S  S76  1  0.10084000  0.79976000  0.24471000  1.0
  S  S77  1  0.39917000  0.70024000  0.74472000  1.0
  S  S78  1  0.89917000  0.20024000  0.75529000  1.0
  S  S79  1  0.60084000  0.29976000  0.25528000  1.0
  N  N80  1  0.87127000  0.44476000  0.59783000  1.0
  N  N81  1  0.62875000  0.05524000  0.09784000  1.0
  N  N82  1  0.12873000  0.55523000  0.40217000  1.0
  N  N83  1  0.37125000  0.94477000  0.90216000  1.0
  O  O84  1  0.45858000  0.92625000  0.41478000  1.0
  O  O85  1  0.04141000  0.57376000  0.91478000  1.0
  O  O86  1  0.54145000  0.07376000  0.58522000  1.0
  O  O87  1  0.95857000  0.42625000  0.08522000  1.0
  O  O88  1  0.08791000  0.93274000  0.39534000  1.0
  O  O89  1  0.41208000  0.56725000  0.89534000  1.0
  O  O90  1  0.91211000  0.06727000  0.60466000  1.0
  O  O91  1  0.58791000  0.43274000  0.10466000  1.0
  O  O92  1  0.31818000  0.62568000  0.06023000  1.0
  O  O93  1  0.18183000  0.87433000  0.56023000  1.0
  O  O94  1  0.68180000  0.37432000  0.93977000  1.0
  O  O95  1  0.81819000  0.12569000  0.43977000  1.0
  O  O96  1  0.97337000  0.69605000  0.09442000  1.0
  O  O97  1  0.52665000  0.80395000  0.59443000  1.0
  O  O98  1  0.02662000  0.30395000  0.90558000  1.0
  O  O99  1  0.47337000  0.19605000  0.40557000  1.0
  O  O100  1  0.12322000  0.31014000  0.54479000  1.0
  O  O101  1  0.37678000  0.18985000  0.04478000  1.0
  O  O102  1  0.87677000  0.68985000  0.45522000  1.0
  O  O103  1  0.62322000  0.81015000  0.95521000  1.0
