# generated using pymatgen
data_LiH16C13NO5
_symmetry_space_group_name_H-M   'P 1'
_cell_length_a   5.36138000
_cell_length_b   10.38780000
_cell_length_c   11.60780000
_cell_angle_alpha   89.99890000
_cell_angle_beta   80.11910000
_cell_angle_gamma   89.99970000
_symmetry_Int_Tables_number   1
_chemical_formula_structural   LiH16C13NO5
_chemical_formula_sum   'Li2 H32 C26 N2 O10'
_cell_volume   636.88315020
_cell_formula_units_Z   2
loop_
 _symmetry_equiv_pos_site_id
 _symmetry_equiv_pos_as_xyz
  1  'x, y, z'
loop_
 _atom_site_type_symbol
 _atom_site_label
 _atom_site_symmetry_multiplicity
 _atom_site_fract_x
 _atom_site_fract_y
 _atom_site_fract_z
 _atom_site_occupancy
  Li  Li0  1  0.98415000  0.71354000  0.64138000  1.0
  Li  Li1  1  0.01586000  0.21355000  0.35863000  1.0
  H  H2  1  0.58378000  0.11342000  0.97223000  1.0
  H  H3  1  0.41618000  0.61344000  0.02777000  1.0
  H  H4  1  0.19702000  0.07765000  0.11691000  1.0
  H  H5  1  0.80294000  0.57768000  0.88308000  1.0
  H  H6  1  0.90387000  0.89600000  0.09057000  1.0
  H  H7  1  0.09610000  0.39603000  0.90941000  1.0
  H  H8  1  0.02136000  0.74423000  0.92342000  1.0
  H  H9  1  0.97862000  0.24426000  0.07657000  1.0
  H  H10  1  0.79279000  0.16140000  0.78472000  1.0
  H  H11  1  0.20719000  0.66141000  0.21529000  1.0
  H  H12  1  0.04074000  0.06053000  0.70971000  1.0
  H  H13  1  0.95925000  0.56054000  0.29031000  1.0
  H  H14  1  0.98015000  0.06620000  0.86664000  1.0
  H  H15  1  0.01983000  0.56621000  0.13338000  1.0
  H  H16  1  0.50499000  0.90437000  0.56764000  1.0
  H  H17  1  0.49504000  0.40436000  0.43235000  1.0
  H  H18  1  0.32414000  0.01234000  0.43503000  1.0
  H  H19  1  0.67588000  0.51233000  0.56497000  1.0
  H  H20  1  0.61541000  0.06550000  0.37065000  1.0
  H  H21  1  0.38462000  0.56550000  0.62935000  1.0
  H  H22  1  0.54283000  0.96675000  0.21347000  1.0
  H  H23  1  0.45720000  0.46676000  0.78653000  1.0
  H  H24  1  0.28795000  0.87785000  0.29419000  1.0
  H  H25  1  0.71207000  0.37783000  0.70581000  1.0
  H  H26  1  0.85372000  0.81275000  0.26489000  1.0
  H  H27  1  0.14630000  0.31276000  0.73512000  1.0
  H  H28  1  0.60480000  0.70746000  0.24482000  1.0
  H  H29  1  0.39519000  0.20746000  0.75519000  1.0
  H  H30  1  0.75928000  0.69969000  0.45505000  1.0
  H  H31  1  0.24073000  0.19970000  0.54496000  1.0
  H  H32  1  0.42608000  0.71927000  0.45797000  1.0
  H  H33  1  0.57394000  0.21925000  0.54204000  1.0
  C  C34  1  0.44219000  0.73817000  0.76353000  1.0
  C  C35  1  0.55781000  0.23817000  0.23647000  1.0
  C  C36  1  0.37021000  0.83894000  0.85624000  1.0
  C  C37  1  0.62978000  0.33896000  0.14376000  1.0
  C  C38  1  0.52691000  0.94631000  0.86758000  1.0
  C  C39  1  0.47305000  0.44632000  0.13241000  1.0
  C  C40  1  0.46282000  0.03144000  0.96189000  1.0
  C  C41  1  0.53714000  0.53145000  0.03810000  1.0
  C  C42  1  0.24158000  0.01150000  0.04321000  1.0
  C  C43  1  0.75838000  0.51152000  0.95677000  1.0
  C  C44  1  0.08084000  0.90883000  0.02995000  1.0
  C  C45  1  0.91914000  0.40887000  0.97004000  1.0
  C  C46  1  0.14565000  0.82397000  0.93639000  1.0
  C  C47  1  0.85434000  0.32401000  0.06361000  1.0
  C  C48  1  0.89414000  0.06954000  0.78732000  1.0
  C  C49  1  0.10583000  0.56956000  0.21270000  1.0
  C  C50  1  0.89444000  0.93924000  0.49103000  1.0
  C  C51  1  0.10556000  0.43923000  0.50896000  1.0
  C  C52  1  0.62244000  0.89737000  0.48063000  1.0
  C  C53  1  0.37760000  0.39736000  0.51937000  1.0
  C  C54  1  0.48686000  0.90512000  0.28985000  1.0
  C  C55  1  0.51315000  0.40511000  0.71015000  1.0
  C  C56  1  0.65422000  0.78836000  0.29731000  1.0
  C  C57  1  0.34578000  0.28835000  0.70269000  1.0
  C  C58  1  0.61387000  0.76178000  0.42875000  1.0
  C  C59  1  0.38616000  0.26177000  0.57126000  1.0
  N  N60  1  0.50630000  0.98180000  0.39824000  1.0
  N  N61  1  0.49372000  0.48180000  0.60175000  1.0
  O  O62  1  0.66939000  0.70149000  0.73973000  1.0
  O  O63  1  0.33063000  0.20149000  0.26026000  1.0
  O  O64  1  0.26423000  0.68950000  0.71677000  1.0
  O  O65  1  0.73578000  0.18952000  0.28324000  1.0
  O  O66  1  0.73026000  0.96250000  0.78112000  1.0
  O  O67  1  0.26971000  0.46252000  0.21888000  1.0
  O  O68  1  0.02282000  0.85963000  0.53830000  1.0
  O  O69  1  0.97719000  0.35964000  0.46170000  1.0
  O  O70  1  0.97432000  0.04901000  0.45225000  1.0
  O  O71  1  0.02572000  0.54902000  0.54774000  1.0
