# generated using pymatgen
data_BiH12C18(NO2)3
_symmetry_space_group_name_H-M   'P 1'
_cell_length_a   7.74667000
_cell_length_b   10.95200000
_cell_length_c   11.15530000
_cell_angle_alpha   63.56600000
_cell_angle_beta   89.99970000
_cell_angle_gamma   89.99980000
_symmetry_Int_Tables_number   1
_chemical_formula_structural   BiH12C18(NO2)3
_chemical_formula_sum   'Bi2 H24 C36 N6 O12'
_cell_volume   847.48104837
_cell_formula_units_Z   2
loop_
 _symmetry_equiv_pos_site_id
 _symmetry_equiv_pos_as_xyz
  1  'x, y, z'
loop_
 _atom_site_type_symbol
 _atom_site_label
 _atom_site_symmetry_multiplicity
 _atom_site_fract_x
 _atom_site_fract_y
 _atom_site_fract_z
 _atom_site_occupancy
  Bi  Bi0  1  0.74000000  0.47833000  0.46029000  1.0
  Bi  Bi1  1  0.23999000  0.52167000  0.53971000  1.0
  H  H2  1  0.49791000  0.94547000  0.65541000  1.0
  H  H3  1  0.99791000  0.05453000  0.34459000  1.0
  H  H4  1  0.77978000  0.82071000  0.68494000  1.0
  H  H5  1  0.27978000  0.17928000  0.31506000  1.0
  H  H6  1  0.05756000  0.95886000  0.64413000  1.0
  H  H7  1  0.55756000  0.04113000  0.35588000  1.0
  H  H8  1  0.03736000  0.20695000  0.56771000  1.0
  H  H9  1  0.53736000  0.79305000  0.43229000  1.0
  H  H10  1  0.50193000  0.89859000  0.97877000  1.0
  H  H11  1  0.00193000  0.10141000  0.02124000  1.0
  H  H12  1  0.78809000  0.99910000  0.87085000  1.0
  H  H13  1  0.28809000  0.00090000  0.12915000  1.0
  H  H14  1  0.06056000  0.88491000  0.99462000  1.0
  H  H15  1  0.56057000  0.11509000  0.00538000  1.0
  H  H16  1  0.03647000  0.68831000  0.21802000  1.0
  H  H17  1  0.53647000  0.31169000  0.78198000  1.0
  H  H18  1  0.99593000  0.34198000  0.08487000  1.0
  H  H19  1  0.49593000  0.65801000  0.91512000  1.0
  H  H20  1  0.71764000  0.31379000  0.98405000  1.0
  H  H21  1  0.21764000  0.68621000  0.01594000  1.0
  H  H22  1  0.43645000  0.34197000  0.08694000  1.0
  H  H23  1  0.93645000  0.65803000  0.91306000  1.0
  H  H24  1  0.44923000  0.40086000  0.27789000  1.0
  H  H25  1  0.94922000  0.59914000  0.72211000  1.0
  C  C26  1  0.62109000  0.13883000  0.59404000  1.0
  C  C27  1  0.12109000  0.86117000  0.40595000  1.0
  C  C28  1  0.62142000  0.99813000  0.63667000  1.0
  C  C29  1  0.12142000  0.00187000  0.36333000  1.0
  C  C30  1  0.77847000  0.93027000  0.65346000  1.0
  C  C31  1  0.27847000  0.06973000  0.34655000  1.0
  C  C32  1  0.93045000  0.00565000  0.63024000  1.0
  C  C33  1  0.43045000  0.99435000  0.36976000  1.0
  C  C34  1  0.92006000  0.14618000  0.58717000  1.0
  C  C35  1  0.42006000  0.85382000  0.41283000  1.0
  C  C36  1  0.45240000  0.21458000  0.57631000  1.0
  C  C37  1  0.95239000  0.78542000  0.42369000  1.0
  C  C38  1  0.62213000  0.74707000  0.15513000  1.0
  C  C39  1  0.12212000  0.25293000  0.84487000  1.0
  C  C40  1  0.62435000  0.85636000  0.02727000  1.0
  C  C41  1  0.12434000  0.14364000  0.97274000  1.0
  C  C42  1  0.78257000  0.90983000  0.96762000  1.0
  C  C43  1  0.28257000  0.09017000  0.03238000  1.0
  C  C44  1  0.93322000  0.84822000  0.03615000  1.0
  C  C45  1  0.43322000  0.15178000  0.96385000  1.0
  C  C46  1  0.92041000  0.73731000  0.16232000  1.0
  C  C47  1  0.42040000  0.26269000  0.83768000  1.0
  C  C48  1  0.45267000  0.69441000  0.22676000  1.0
  C  C49  1  0.95266000  0.30559000  0.77325000  1.0
  C  C50  1  0.86815000  0.38675000  0.23072000  1.0
  C  C51  1  0.36815000  0.61325000  0.76928000  1.0
  C  C52  1  0.87130000  0.35326000  0.12390000  1.0
  C  C53  1  0.37129000  0.64674000  0.87610000  1.0
  C  C54  1  0.71582000  0.33736000  0.06926000  1.0
  C  C55  1  0.21582000  0.66264000  0.93073000  1.0
  C  C56  1  0.56159000  0.35345000  0.12519000  1.0
  C  C57  1  0.06159000  0.64655000  0.87481000  1.0
  C  C58  1  0.56726000  0.38624000  0.23249000  1.0
  C  C59  1  0.06726000  0.61376000  0.76751000  1.0
  C  C60  1  0.03449000  0.40912000  0.28982000  1.0
  C  C61  1  0.53448000  0.59088000  0.71018000  1.0
  N  N62  1  0.76842000  0.21154000  0.56804000  1.0
  N  N63  1  0.26842000  0.78846000  0.43196000  1.0
  N  N64  1  0.76806000  0.68859000  0.22105000  1.0
  N  N65  1  0.26805000  0.31141000  0.77895000  1.0
  N  N66  1  0.71787000  0.40282000  0.28285000  1.0
  N  N67  1  0.21787000  0.59718000  0.71715000  1.0
  O  O68  1  0.31478000  0.14959000  0.60533000  1.0
  O  O69  1  0.81478000  0.85041000  0.39467000  1.0
  O  O70  1  0.46670000  0.34583000  0.53166000  1.0
  O  O71  1  0.96670000  0.65417000  0.46834000  1.0
  O  O72  1  0.31509000  0.74611000  0.16829000  1.0
  O  O73  1  0.81509000  0.25389000  0.83171000  1.0
  O  O74  1  0.46558000  0.59871000  0.34780000  1.0
  O  O75  1  0.96558000  0.40129000  0.65220000  1.0
  O  O76  1  0.17395000  0.39239000  0.24444000  1.0
  O  O77  1  0.67395000  0.60762000  0.75556000  1.0
  O  O78  1  0.01702000  0.44600000  0.38506000  1.0
  O  O79  1  0.51702000  0.55400000  0.61494000  1.0
