# generated using pymatgen
data_HoH9C14(NO5)2
_symmetry_space_group_name_H-M   'P 1'
_cell_length_a   9.07407000
_cell_length_b   9.16470000
_cell_length_c   9.52719000
_cell_angle_alpha   86.20730000
_cell_angle_beta   85.69130000
_cell_angle_gamma   85.68150000
_symmetry_Int_Tables_number   1
_chemical_formula_structural   HoH9C14(NO5)2
_chemical_formula_sum   'Ho2 H18 C28 N4 O20'
_cell_volume   786.35050974
_cell_formula_units_Z   2
loop_
 _symmetry_equiv_pos_site_id
 _symmetry_equiv_pos_as_xyz
  1  'x, y, z'
loop_
 _atom_site_type_symbol
 _atom_site_label
 _atom_site_symmetry_multiplicity
 _atom_site_fract_x
 _atom_site_fract_y
 _atom_site_fract_z
 _atom_site_occupancy
  Ho  Ho0  1  0.13651000  0.08620000  0.85720000  1.0
  Ho  Ho1  1  0.86349000  0.91380000  0.14279000  1.0
  H  H2  1  0.87415000  0.63419000  0.62987000  1.0
  H  H3  1  0.12586000  0.36581000  0.37014000  1.0
  H  H4  1  0.18386000  0.01665000  0.55697000  1.0
  H  H5  1  0.81614000  0.98334000  0.44303000  1.0
  H  H6  1  0.03270000  0.96720000  0.62613000  1.0
  H  H7  1  0.96730000  0.03280000  0.37386000  1.0
  H  H8  1  0.20508000  0.29862000  0.05264000  1.0
  H  H9  1  0.79492000  0.70137000  0.94735000  1.0
  H  H10  1  0.10148000  0.37405000  0.94462000  1.0
  H  H11  1  0.89852000  0.62594000  0.05539000  1.0
  H  H12  1  0.52773000  0.43550000  0.58041000  1.0
  H  H13  1  0.47226000  0.56450000  0.41959000  1.0
  H  H14  1  0.75613000  0.29931000  0.66776000  1.0
  H  H15  1  0.24387000  0.70069000  0.33223000  1.0
  H  H16  1  0.60476000  0.53506000  0.80398000  1.0
  H  H17  1  0.39524000  0.46494000  0.19602000  1.0
  H  H18  1  0.34579000  0.50884000  0.91863000  1.0
  H  H19  1  0.65421000  0.49116000  0.08136000  1.0
  C  C20  1  0.23624000  0.34062000  0.62950000  1.0
  C  C21  1  0.76375000  0.65938000  0.37051000  1.0
  C  C22  1  0.38588000  0.26724000  0.66718000  1.0
  C  C23  1  0.61412000  0.73276000  0.33282000  1.0
  C  C24  1  0.52157000  0.32831000  0.63553000  1.0
  C  C25  1  0.47842000  0.67169000  0.36447000  1.0
  C  C26  1  0.64905000  0.25147000  0.68153000  1.0
  C  C27  1  0.35095000  0.74853000  0.31847000  1.0
  C  C28  1  0.64108000  0.11063000  0.74714000  1.0
  C  C29  1  0.35892000  0.88937000  0.25286000  1.0
  C  C30  1  0.50293000  0.04881000  0.75844000  1.0
  C  C31  1  0.49707000  0.95119000  0.24156000  1.0
  C  C32  1  0.47407000  0.89306000  0.79817000  1.0
  C  C33  1  0.52593000  0.10694000  0.20183000  1.0
  C  C34  1  0.57332000  0.76903000  0.77415000  1.0
  C  C35  1  0.42668000  0.23097000  0.22585000  1.0
  C  C36  1  0.52803000  0.63024000  0.82090000  1.0
  C  C37  1  0.47197000  0.36976000  0.17910000  1.0
  C  C38  1  0.38659000  0.61504000  0.88393000  1.0
  C  C39  1  0.61341000  0.38496000  0.11606000  1.0
  C  C40  1  0.29279000  0.74160000  0.89623000  1.0
  C  C41  1  0.70721000  0.25840000  0.10377000  1.0
  C  C42  1  0.13734000  0.73535000  0.96343000  1.0
  C  C43  1  0.86266000  0.26466000  0.03657000  1.0
  C  C44  1  0.77397000  0.04096000  0.81708000  1.0
  C  C45  1  0.22602000  0.95905000  0.18291000  1.0
  C  C46  1  0.71464000  0.77339000  0.68389000  1.0
  C  C47  1  0.28536000  0.22661000  0.31611000  1.0
  N  N48  1  0.37903000  0.13156000  0.72865000  1.0
  N  N49  1  0.62097000  0.86844000  0.27135000  1.0
  N  N50  1  0.33578000  0.87541000  0.85407000  1.0
  N  N51  1  0.66422000  0.12459000  0.14593000  1.0
  O  O52  1  0.12307000  0.27937000  0.68882000  1.0
  O  O53  1  0.87693000  0.72063000  0.31119000  1.0
  O  O54  1  0.23537000  0.44724000  0.54022000  1.0
  O  O55  1  0.76462000  0.55276000  0.45978000  1.0
  O  O56  1  0.05547000  0.85804000  0.95656000  1.0
  O  O57  1  0.94454000  0.14196000  0.04345000  1.0
  O  O58  1  0.09897000  0.61820000  0.02389000  1.0
  O  O59  1  0.90104000  0.38180000  0.97611000  1.0
  O  O60  1  0.73647000  0.86563000  0.58655000  1.0
  O  O61  1  0.26352000  0.13436000  0.41345000  1.0
  O  O62  1  0.81110000  0.65965000  0.71542000  1.0
  O  O63  1  0.18891000  0.34035000  0.28459000  1.0
  O  O64  1  0.90006000  0.08100000  0.76940000  1.0
  O  O65  1  0.09994000  0.91901000  0.23060000  1.0
  O  O66  1  0.74909000  0.95391000  0.92417000  1.0
  O  O67  1  0.25091000  0.04609000  0.07583000  1.0
  O  O68  1  0.13951000  0.95612000  0.63602000  1.0
  O  O69  1  0.86049000  0.04388000  0.36398000  1.0
  O  O70  1  0.19705000  0.31345000  0.95109000  1.0
  O  O71  1  0.80295000  0.68655000  0.04890000  1.0
