# generated using pymatgen
data_Cu4H6C6N9Cl3O
_symmetry_space_group_name_H-M   'P 1'
_cell_length_a   6.03729000
_cell_length_b   11.50630000
_cell_length_c   11.50630000
_cell_angle_alpha   60.00000000
_cell_angle_beta   89.99990000
_cell_angle_gamma   90.00000000
_symmetry_Int_Tables_number   1
_chemical_formula_structural   Cu4H6C6N9Cl3O
_chemical_formula_sum   'Cu8 H12 C12 N18 Cl6 O2'
_cell_volume   692.21986036
_cell_formula_units_Z   2
loop_
 _symmetry_equiv_pos_site_id
 _symmetry_equiv_pos_as_xyz
  1  'x, y, z'
loop_
 _atom_site_type_symbol
 _atom_site_label
 _atom_site_symmetry_multiplicity
 _atom_site_fract_x
 _atom_site_fract_y
 _atom_site_fract_z
 _atom_site_occupancy
  Cu  Cu0  1  0.75000000  0.57008000  0.85984000  1.0
  Cu  Cu1  1  0.75000000  0.85984000  0.57008000  1.0
  Cu  Cu2  1  0.75000000  0.57008000  0.57008000  1.0
  Cu  Cu3  1  0.25000000  0.14016000  0.42992000  1.0
  Cu  Cu4  1  0.25000000  0.42992000  0.42992000  1.0
  Cu  Cu5  1  0.25000000  0.42992000  0.14016000  1.0
  Cu  Cu6  1  0.75000000  1.00000000  0.00001000  1.0
  Cu  Cu7  1  0.25000000  0.00000000  0.00000000  1.0
  H  H8  1  0.75000000  0.69037000  0.05795000  1.0
  H  H9  1  0.75000000  0.05795000  0.25169000  1.0
  H  H10  1  0.75000000  0.25169000  0.69036000  1.0
  H  H11  1  0.25000000  0.94205000  0.74831000  1.0
  H  H12  1  0.25000000  0.74832000  0.30963000  1.0
  H  H13  1  0.25000000  0.74831000  0.94206000  1.0
  H  H14  1  0.75000000  0.69037000  0.25168000  1.0
  H  H15  1  0.75000000  0.05795000  0.69037000  1.0
  H  H16  1  0.25000000  0.30963000  0.94205000  1.0
  H  H17  1  0.25000000  0.30963000  0.74832000  1.0
  H  H18  1  0.25000000  0.94205000  0.30963000  1.0
  H  H19  1  0.75000000  0.25169000  0.05795000  1.0
  C  C20  1  0.75000000  0.76748000  0.95321000  1.0
  C  C21  1  0.75001000  0.95321000  0.27932000  1.0
  C  C22  1  0.75000000  0.27931000  0.76748000  1.0
  C  C23  1  0.25000000  0.04679000  0.72068000  1.0
  C  C24  1  0.25000000  0.72069000  0.23252000  1.0
  C  C25  1  0.25000000  0.72069000  0.04679000  1.0
  C  C26  1  0.75000000  0.76748000  0.27931000  1.0
  C  C27  1  0.75000000  0.95321000  0.76748000  1.0
  C  C28  1  0.25000000  0.23252000  0.04679000  1.0
  C  C29  1  0.25000000  0.23252000  0.72069000  1.0
  C  C30  1  0.25000000  0.04678000  0.23253000  1.0
  C  C31  1  0.75000000  0.27931000  0.95321000  1.0
  N  N32  1  0.75000000  0.73791000  0.85515000  1.0
  N  N33  1  0.75000000  0.85515000  0.40694000  1.0
  N  N34  1  0.75000000  0.40695000  0.73791000  1.0
  N  N35  1  0.25000000  0.14485000  0.59305000  1.0
  N  N36  1  0.25000000  0.59305000  0.26210000  1.0
  N  N37  1  0.25000000  0.59306000  0.14485000  1.0
  N  N38  1  0.75000000  0.73791000  0.40694000  1.0
  N  N39  1  0.75000000  0.85515000  0.73791000  1.0
  N  N40  1  0.25000000  0.26209000  0.14485000  1.0
  N  N41  1  0.25000000  0.26209000  0.59305000  1.0
  N  N42  1  0.25000000  0.14485000  0.26209000  1.0
  N  N43  1  0.75000000  0.40695000  0.85514000  1.0
  N  N44  1  0.75000000  0.90225000  0.90226000  1.0
  N  N45  1  0.75000000  0.90225000  0.19550000  1.0
  N  N46  1  0.75000000  0.19550000  0.90225000  1.0
  N  N47  1  0.25000000  0.09775000  0.80450000  1.0
  N  N48  1  0.25000000  0.80450000  0.09775000  1.0
  N  N49  1  0.25000000  0.09774000  0.09775000  1.0
  Cl  Cl50  1  0.75001000  0.45361000  0.09279000  1.0
  Cl  Cl51  1  0.75000000  0.09280000  0.45360000  1.0
  Cl  Cl52  1  0.75000000  0.45362000  0.45361000  1.0
  Cl  Cl53  1  0.25000000  0.90722000  0.54638000  1.0
  Cl  Cl54  1  0.25000000  0.54639000  0.54639000  1.0
  Cl  Cl55  1  0.25000000  0.54640000  0.90720000  1.0
  O  O56  1  0.75000000  0.66666667  0.66666667  1.0
  O  O57  1  0.25000000  0.33333333  0.33333333  1.0
