# generated using pymatgen
data_Cu3H10(CN2)10
_symmetry_space_group_name_H-M   'P 1'
_cell_length_a   8.11659000
_cell_length_b   10.62330000
_cell_length_c   11.60850000
_cell_angle_alpha   90.00210000
_cell_angle_beta   90.13550000
_cell_angle_gamma   90.65150000
_symmetry_Int_Tables_number   1
_chemical_formula_structural   Cu3H10(CN2)10
_chemical_formula_sum   'Cu6 H20 C20 N40'
_cell_volume   1000.87506168
_cell_formula_units_Z   2
loop_
 _symmetry_equiv_pos_site_id
 _symmetry_equiv_pos_as_xyz
  1  'x, y, z'
loop_
 _atom_site_type_symbol
 _atom_site_label
 _atom_site_symmetry_multiplicity
 _atom_site_fract_x
 _atom_site_fract_y
 _atom_site_fract_z
 _atom_site_occupancy
  Cu  Cu0  1  0.16202000  0.92732000  0.38354000  1.0
  Cu  Cu1  1  0.33866000  0.07268000  0.88506000  1.0
  Cu  Cu2  1  0.83622000  0.07278000  0.61395000  1.0
  Cu  Cu3  1  0.66151000  0.92726000  0.11658000  1.0
  Cu  Cu4  1  0.50235000  0.00055000  0.50143000  1.0
  Cu  Cu5  1  0.99966000  0.99994000  0.99978000  1.0
  H  H6  1  0.95663000  0.77623000  0.53625000  1.0
  H  H7  1  0.54421000  0.22428000  0.03667000  1.0
  H  H8  1  0.04396000  0.22331000  0.46340000  1.0
  H  H9  1  0.45627000  0.77593000  0.96367000  1.0
  H  H10  1  0.12716000  0.73630000  0.20278000  1.0
  H  H11  1  0.37290000  0.26297000  0.70273000  1.0
  H  H12  1  0.87325000  0.26233000  0.79683000  1.0
  H  H13  1  0.62717000  0.73666000  0.29770000  1.0
  H  H14  1  0.79239000  0.57430000  0.52397000  1.0
  H  H15  1  0.70796000  0.42623000  0.02432000  1.0
  H  H16  1  0.20753000  0.42550000  0.47593000  1.0
  H  H17  1  0.29222000  0.57406000  0.97575000  1.0
  H  H18  1  0.98402000  0.52694000  0.17962000  1.0
  H  H19  1  0.51556000  0.47242000  0.67941000  1.0
  H  H20  1  0.01517000  0.47229000  0.82014000  1.0
  H  H21  1  0.48463000  0.52710000  0.32059000  1.0
  H  H22  1  0.80911000  0.44581000  0.34240000  1.0
  H  H23  1  0.69060000  0.55430000  0.84230000  1.0
  H  H24  1  0.18997000  0.55398000  0.65764000  1.0
  H  H25  1  0.30930000  0.44574000  0.15753000  1.0
  C  C26  1  0.95489000  0.71847000  0.45868000  1.0
  C  C27  1  0.54586000  0.28172000  0.95892000  1.0
  C  C28  1  0.04563000  0.28100000  0.54102000  1.0
  C  C29  1  0.45445000  0.71840000  0.04138000  1.0
  C  C30  1  0.05371000  0.69488000  0.27174000  1.0
  C  C31  1  0.44650000  0.30461000  0.77173000  1.0
  C  C32  1  0.94651000  0.30412000  0.72797000  1.0
  C  C33  1  0.55357000  0.69515000  0.22861000  1.0
  C  C34  1  0.86642000  0.60584000  0.45114000  1.0
  C  C35  1  0.63403000  0.39445000  0.95131000  1.0
  C  C36  1  0.13352000  0.39387000  0.54869000  1.0
  C  C37  1  0.36621000  0.60568000  0.04879000  1.0
  C  C38  1  0.97224000  0.57969000  0.25958000  1.0
  C  C39  1  0.52767000  0.41990000  0.75952000  1.0
  C  C40  1  0.02732000  0.41961000  0.74017000  1.0
  C  C41  1  0.47240000  0.57983000  0.24061000  1.0
  C  C42  1  0.87578000  0.53489000  0.35027000  1.0
  C  C43  1  0.62428000  0.46510000  0.85027000  1.0
  C  C44  1  0.12371000  0.46471000  0.64959000  1.0
  C  C45  1  0.37581000  0.53487000  0.14975000  1.0
  N  N46  1  0.04545000  0.76256000  0.36974000  1.0
  N  N47  1  0.45519000  0.23722000  0.86993000  1.0
  N  N48  1  0.95533000  0.23660000  0.62991000  1.0
  N  N49  1  0.54493000  0.76273000  0.13055000  1.0
  N  N50  1  0.31683000  0.07786000  0.41095000  1.0
  N  N51  1  0.18390000  0.92204000  0.91031000  1.0
  N  N52  1  0.68683000  0.91950000  0.58660000  1.0
  N  N53  1  0.81582000  0.07774000  0.08998000  1.0
  N  N54  1  0.35854000  0.85169000  0.46949000  1.0
  N  N55  1  0.14077000  0.14943000  0.96758000  1.0
  N  N56  1  0.64035000  0.15072000  0.53277000  1.0
  N  N57  1  0.85876000  0.85050000  0.03212000  1.0
  N  N58  1  0.96200000  0.03480000  0.37291000  1.0
  N  N59  1  0.53728000  0.96508000  0.87221000  1.0
  N  N60  1  0.03655000  0.96651000  0.62795000  1.0
  N  N61  1  0.46098000  0.03442000  0.12622000  1.0
  N  N62  1  0.20566000  0.94727000  0.18750000  1.0
  N  N63  1  0.29412000  0.05334000  0.68565000  1.0
  N  N64  1  0.79314000  0.05314000  0.81319000  1.0
  N  N65  1  0.70578000  0.94754000  0.31277000  1.0
  N  N66  1  0.31295000  0.17453000  0.35477000  1.0
  N  N67  1  0.18800000  0.82525000  0.85443000  1.0
  N  N68  1  0.68922000  0.82525000  0.64565000  1.0
  N  N69  1  0.81187000  0.17481000  0.14543000  1.0
  N  N70  1  0.38188000  0.74259000  0.49611000  1.0
  N  N71  1  0.11801000  0.25811000  0.99558000  1.0
  N  N72  1  0.61769000  0.25913000  0.50495000  1.0
  N  N73  1  0.88199000  0.74184000  0.00432000  1.0
  N  N74  1  0.83453000  0.98918000  0.34180000  1.0
  N  N75  1  0.66464000  0.01118000  0.84174000  1.0
  N  N76  1  0.16480000  0.01207000  0.65769000  1.0
  N  N77  1  0.33401000  0.98884000  0.15799000  1.0
  N  N78  1  0.30366000  0.26631000  0.30123000  1.0
  N  N79  1  0.19685000  0.73319000  0.80124000  1.0
  N  N80  1  0.69759000  0.73445000  0.70084000  1.0
  N  N81  1  0.80315000  0.26715000  0.19824000  1.0
  N  N82  1  0.40264000  0.63790000  0.51980000  1.0
  N  N83  1  0.09711000  0.36242000  0.02060000  1.0
  N  N84  1  0.59710000  0.36362000  0.47999000  1.0
  N  N85  1  0.90318000  0.63748000  0.97953000  1.0
