# generated using pymatgen
data_Zn4H30(C2O)17
_symmetry_space_group_name_H-M   'P 1'
_cell_length_a   17.92690000
_cell_length_b   18.52560000
_cell_length_c   19.70049957
_cell_angle_alpha   63.39628256
_cell_angle_beta   63.06778617
_cell_angle_gamma   89.91550000
_symmetry_Int_Tables_number   1
_chemical_formula_structural   Zn4H30(C2O)17
_chemical_formula_sum   'Zn8 H60 C68 O34'
_cell_volume   5046.36299214
_cell_formula_units_Z   2
loop_
 _symmetry_equiv_pos_site_id
 _symmetry_equiv_pos_as_xyz
  1  'x, y, z'
loop_
 _atom_site_type_symbol
 _atom_site_label
 _atom_site_symmetry_multiplicity
 _atom_site_fract_x
 _atom_site_fract_y
 _atom_site_fract_z
 _atom_site_occupancy
  Zn  Zn0  1  0.94408000  0.53267000  0.92610000  1.0
  Zn  Zn1  1  0.96871000  0.38240000  0.06932000  1.0
  Zn  Zn2  1  0.96750000  0.55913000  0.06160000  1.0
  Zn  Zn3  1  0.13240000  0.54455000  0.91300000  1.0
  Zn  Zn4  1  0.56110000  0.96956000  0.06003000  1.0
  Zn  Zn5  1  0.53489000  0.95139000  0.92128000  1.0
  Zn  Zn6  1  0.54542000  0.12714000  0.91457000  1.0
  Zn  Zn7  1  0.37520000  0.97074000  0.06920000  1.0
  H  H8  1  0.22024000  0.82935000  0.35107000  1.0
  H  H9  1  0.47369000  0.84416000  0.31886000  1.0
  H  H10  1  0.28063000  0.68637000  0.63388000  1.0
  H  H11  1  0.02709000  0.67309000  0.66642000  1.0
  H  H12  1  0.68337000  0.27642000  0.63873000  1.0
  H  H13  1  0.67445000  0.03640000  0.65842000  1.0
  H  H14  1  0.82862000  0.23277000  0.34520000  1.0
  H  H15  1  0.83203000  0.47250000  0.32592000  1.0
  H  H16  1  0.89881000  0.80161000  0.88180000  1.0
  H  H17  1  0.88269000  0.78670000  0.98314000  1.0
  H  H18  1  0.79514000  0.88053000  0.97883000  1.0
  H  H19  1  0.80979000  0.89294000  0.87878000  1.0
  H  H20  1  0.67369000  0.76654000  0.12382000  1.0
  H  H21  1  0.59995000  0.70014000  0.12709000  1.0
  H  H22  1  0.76028000  0.67171000  0.12675000  1.0
  H  H23  1  0.68732000  0.60724000  0.12721000  1.0
  H  H24  1  0.79485000  0.70757000  0.88208000  1.0
  H  H25  1  0.70968000  0.62729000  0.98213000  1.0
  H  H26  1  0.61956000  0.71855000  0.98309000  1.0
  H  H27  1  0.70422000  0.79809000  0.88201000  1.0
  H  H28  1  0.21505000  0.30751000  0.87873000  1.0
  H  H29  1  0.13063000  0.22907000  0.98296000  1.0
  H  H30  1  0.21995000  0.13714000  0.98277000  1.0
  H  H31  1  0.30430000  0.21649000  0.87914000  1.0
  H  H32  1  0.20416000  0.12166000  0.12217000  1.0
  H  H33  1  0.27810000  0.18784000  0.11875000  1.0
  H  H34  1  0.11651000  0.21533000  0.12197000  1.0
  H  H35  1  0.19220000  0.28218000  0.11595000  1.0
  H  H36  1  0.32268000  0.40515000  0.86953000  1.0
  H  H37  1  0.31312000  0.39623000  0.96588000  1.0
  H  H38  1  0.40080000  0.30275000  0.96916000  1.0
  H  H39  1  0.41160000  0.31312000  0.87191000  1.0
  H  H40  1  0.90821000  0.27443000  0.91529000  1.0
  H  H41  1  0.87187000  0.35904000  0.86173000  1.0
  H  H42  1  0.78587000  0.26906000  0.85668000  1.0
  H  H43  1  0.82204000  0.18471000  0.91111000  1.0
  H  H44  1  0.65465000  0.30546000  0.94344000  1.0
  H  H45  1  0.59577000  0.24643000  0.05954000  1.0
  H  H46  1  0.73965000  0.39467000  0.95063000  1.0
  H  H47  1  0.68164000  0.33368000  0.06665000  1.0
  H  H48  1  0.82570000  0.18821000  0.08286000  1.0
  H  H49  1  0.73366000  0.21300000  0.14424000  1.0
  H  H50  1  0.64671000  0.12390000  0.13937000  1.0
  H  H51  1  0.73863000  0.09879000  0.07843000  1.0
  H  H52  1  0.17888000  0.81066000  0.90838000  1.0
  H  H53  1  0.27397000  0.78459000  0.85198000  1.0
  H  H54  1  0.35385000  0.88110000  0.85536000  1.0
  H  H55  1  0.25775000  0.90242000  0.91708000  1.0
  H  H56  1  0.40648000  0.76206000  0.93263000  1.0
  H  H57  1  0.35226000  0.70367000  0.04865000  1.0
  H  H58  1  0.32092000  0.66533000  0.93423000  1.0
  H  H59  1  0.26427000  0.60980000  0.05044000  1.0
  H  H60  1  0.09542000  0.73149000  0.07626000  1.0
  H  H61  1  0.12700000  0.64693000  0.13491000  1.0
  H  H62  1  0.21618000  0.73597000  0.13785000  1.0
  H  H63  1  0.17938000  0.81944000  0.08500000  1.0
  H  H64  1  0.12661000  0.70380000  0.42826000  1.0
  H  H65  1  0.37694000  0.64085000  0.55159000  1.0
  H  H66  1  0.81241000  0.37225000  0.55795000  1.0
  H  H67  1  0.87964000  0.13879000  0.42027000  1.0
  C  C68  1  0.85769000  0.35929000  0.00238000  1.0
  C  C69  1  0.88508000  0.39664000  0.22901000  1.0
  C  C70  1  0.85403000  0.63698000  0.99785000  1.0
  C  C71  1  0.14841000  0.64362000  0.98983000  1.0
  C  C72  1  0.11137000  0.62433000  0.75673000  1.0
  C  C73  1  0.14945000  0.36986000  0.98860000  1.0
  C  C74  1  0.63877000  0.85945000  0.99482000  1.0
  C  C75  1  0.62805000  0.11261000  0.75500000  1.0
  C  C76  1  0.64688000  0.14213000  0.99246000  1.0
  C  C77  1  0.36549000  0.14628000  0.99090000  1.0
  C  C78  1  0.39035000  0.88875000  0.22809000  1.0
  C  C79  1  0.35705000  0.86830000  0.99433000  1.0
  C  C80  1  0.26056000  0.81194000  0.38097000  1.0
  C  C81  1  0.40397000  0.82096000  0.36275000  1.0
  C  C82  1  0.36999000  0.77417000  0.45255000  1.0
  C  C83  1  0.27824000  0.74461000  0.51104000  1.0
  C  C84  1  0.24033000  0.69991000  0.60386000  1.0
  C  C85  1  0.09688000  0.69290000  0.62237000  1.0
  C  C86  1  0.13091000  0.73571000  0.53240000  1.0
  C  C87  1  0.22270000  0.76375000  0.47370000  1.0
  C  C88  1  0.34947000  0.83946000  0.32641000  1.0
  C  C89  1  0.15145000  0.67391000  0.65857000  1.0
  C  C90  1  0.70204000  0.24005000  0.60559000  1.0
  C  C91  1  0.69639000  0.10401000  0.61687000  1.0
  C  C92  1  0.74210000  0.14014000  0.52644000  1.0
  C  C93  1  0.76945000  0.22912000  0.47145000  1.0
  C  C94  1  0.81335000  0.26907000  0.37843000  1.0
  C  C95  1  0.81489000  0.40497000  0.36734000  1.0
  C  C96  1  0.77332000  0.36874000  0.45768000  1.0
  C  C97  1  0.74883000  0.27981000  0.51258000  1.0
  C  C98  1  0.67705000  0.15396000  0.65672000  1.0
  C  C99  1  0.83635000  0.35513000  0.32738000  1.0
  C  C100  1  0.84895000  0.78494000  0.94904000  1.0
  C  C101  1  0.79029000  0.84635000  0.94703000  1.0
  C  C102  1  0.69500000  0.79796000  0.99535000  1.0
  C  C103  1  0.66839000  0.73341000  0.09127000  1.0
  C  C104  1  0.72648000  0.67139000  0.09229000  1.0
  C  C105  1  0.79394000  0.69489000  0.99703000  1.0
  C  C106  1  0.74691000  0.69164000  0.94950000  1.0
  C  C107  1  0.68738000  0.75210000  0.94943000  1.0
  C  C108  1  0.19886000  0.26285000  0.94646000  1.0
  C  C109  1  0.25816000  0.20178000  0.94675000  1.0
  C  C110  1  0.30901000  0.20798000  0.99069000  1.0
  C  C111  1  0.24302000  0.18600000  0.08572000  1.0
  C  C112  1  0.18505000  0.24815000  0.08473000  1.0
  C  C113  1  0.20988000  0.31178000  0.98917000  1.0
  C  C114  1  0.30512000  0.35970000  0.93734000  1.0
  C  C115  1  0.36369000  0.29816000  0.93895000  1.0
  C  C116  1  0.85002000  0.29558000  0.91807000  1.0
  C  C117  1  0.79275000  0.23599000  0.91495000  1.0
  C  C118  1  0.70185000  0.19905000  0.99848000  1.0
  C  C119  1  0.66140000  0.27193000  0.00170000  1.0
  C  C120  1  0.71837000  0.33076000  0.00596000  1.0
  C  C121  1  0.79860000  0.29890000  0.00402000  1.0
  C  C122  1  0.76887000  0.21059000  0.08318000  1.0
  C  C123  1  0.71124000  0.15140000  0.08004000  1.0
  C  C124  1  0.23536000  0.78952000  0.91105000  1.0
  C  C125  1  0.28922000  0.85196000  0.91441000  1.0
  C  C126  1  0.29902000  0.80637000  0.99659000  1.0
  C  C127  1  0.34224000  0.73502000  0.99213000  1.0
  C  C128  1  0.28498000  0.67210000  0.99244000  1.0
  C  C129  1  0.20435000  0.70207000  0.99353000  1.0
  C  C130  1  0.15223000  0.70939000  0.07632000  1.0
  C  C131  1  0.20914000  0.76898000  0.07961000  1.0
  C  C132  1  0.06649000  0.75102000  0.50161000  1.0
  C  C133  1  0.43448000  0.75836000  0.48330000  1.0
  C  C134  1  0.75480000  0.42716000  0.49374000  1.0
  C  C135  1  0.75832000  0.08127000  0.49086000  1.0
  O  O136  1  0.00596000  0.50401000  0.99131000  1.0
  O  O137  1  0.87837000  0.43592000  0.94362000  1.0
  O  O138  1  0.90862000  0.34996000  0.19534000  1.0
  O  O139  1  0.89406000  0.63332000  0.03851000  1.0
  O  O140  1  0.88361000  0.32964000  0.05762000  1.0
  O  O141  1  0.86122000  0.59713000  0.95755000  1.0
  O  O142  1  0.89930000  0.47578000  0.18777000  1.0
  O  O143  1  0.06732000  0.62350667  0.04316000  1.0
  O  O144  1  0.16203000  0.60702000  0.78776000  1.0
  O  O145  1  0.18594000  0.62021000  0.93329000  1.0
  O  O146  1  0.02900000  0.60346000  0.80024000  1.0
  O  O147  1  0.06889000  0.33504000  0.04317000  1.0
  O  O148  1  0.18304000  0.44767000  0.93351000  1.0
  O  O149  1  0.50189000  0.00570000  0.99231000  1.0
  O  O150  1  0.63811000  0.89914000  0.03394000  1.0
  O  O151  1  0.61246000  0.03332000  0.79636000  1.0
  O  O152  1  0.62578000  0.17683000  0.93349000  1.0
  O  O153  1  0.59683000  0.86759000  0.95518000  1.0
  O  O154  1  0.62678000  0.06408000  0.04593000  1.0
  O  O155  1  0.60669000  0.15956000  0.78859000  1.0
  O  O156  1  0.44660000  0.17681000  0.93768000  1.0
  O  O157  1  0.34086000  0.91083000  0.19607000  1.0
  O  O158  1  0.32694000  0.06872000  0.04365000  1.0
  O  O159  1  0.47241000  0.90346000  0.18537000  1.0
  O  O160  1  0.43544000  0.89598000  0.93116000  1.0
  O  O161  1  0.32442000  0.88849000  0.05386000  1.0
  O  O162  1  0.07720000  0.72837000  0.44104000  1.0
  O  O163  1  0.00565000  0.77882000  0.53000000  1.0
  O  O164  1  0.42505000  0.67725000  0.54098000  1.0
  O  O165  1  0.49416000  0.81290000  0.45728000  1.0
  O  O166  1  0.78271000  0.41708000  0.55096000  1.0
  O  O167  1  0.71982000  0.48254000  0.47263000  1.0
  O  O168  1  0.84196000  0.09305000  0.42975000  1.0
  O  O169  1  0.70194000  0.02424000  0.51563000  1.0
