# generated using pymatgen
data_Zn2H18C35SN2O11
_symmetry_space_group_name_H-M   'P 1'
_cell_length_a   11.81290000
_cell_length_b   12.97590000
_cell_length_c   13.62310000
_cell_angle_alpha   72.65470000
_cell_angle_beta   83.80490000
_cell_angle_gamma   73.26580000
_symmetry_Int_Tables_number   1
_chemical_formula_structural   Zn2H18C35SN2O11
_chemical_formula_sum   'Zn2 H18 C35 S1 N2 O11'
_cell_volume   1908.26183759
_cell_formula_units_Z   1
loop_
 _symmetry_equiv_pos_site_id
 _symmetry_equiv_pos_as_xyz
  1  'x, y, z'
loop_
 _atom_site_type_symbol
 _atom_site_label
 _atom_site_symmetry_multiplicity
 _atom_site_fract_x
 _atom_site_fract_y
 _atom_site_fract_z
 _atom_site_occupancy
  Zn  Zn0  1  0.46205000  0.62681000  0.49706000  1.0
  Zn  Zn1  1  0.52599000  0.38161000  0.51473000  1.0
  H  H2  1  0.68566000  0.25884000  0.80313000  1.0
  H  H3  1  0.27055000  0.09660000  0.66283000  1.0
  H  H4  1  0.24698000  0.91349000  0.66991000  1.0
  H  H5  1  0.73167000  0.26633000  0.43396000  1.0
  H  H6  1  0.73349000  0.92793000  0.46374000  1.0
  H  H7  1  0.37724000  0.24379000  0.59872000  1.0
  H  H8  1  0.72199000  0.25453000  0.14987000  1.0
  H  H9  1  0.74228000  0.20925000  0.98669000  1.0
  H  H10  1  0.47875000  0.58352000  0.81944000  1.0
  H  H11  1  0.35341000  0.74487000  0.20057000  1.0
  H  H12  1  0.42097000  0.68896000  0.90195000  1.0
  H  H13  1  0.32642000  0.81326000  0.01041000  1.0
  H  H14  1  0.62678000  0.37799000  0.25825000  1.0
  H  H15  1  0.31023000  0.74161000  0.60937000  1.0
  H  H16  1  0.62330000  0.68792000  0.36884000  1.0
  H  H17  1  0.89103000  0.14729000  0.34880000  1.0
  H  H18  1  0.93668000  0.03818000  0.46267000  1.0
  H  H19  1  0.89013000  0.00752000  0.35756000  1.0
  C  C20  1  0.47244000  0.55335000  0.31326000  1.0
  C  C21  1  0.57807000  0.42466000  0.80284000  1.0
  C  C22  1  0.39669000  0.69151000  0.15157000  1.0
  C  C23  1  0.38141000  0.72907000  0.04515000  1.0
  C  C24  1  0.43490000  0.65889000  0.98456000  1.0
  C  C25  1  0.50731000  0.54986000  0.02756000  1.0
  C  C26  1  0.52737000  0.51233000  0.13614000  1.0
  C  C27  1  0.55973000  0.47471000  0.96405000  1.0
  C  C28  1  0.63602000  0.36675000  0.00981000  1.0
  C  C29  1  0.66112000  0.33628000  0.11631000  1.0
  C  C30  1  0.60859000  0.40469000  0.17687000  1.0
  C  C31  1  0.72674000  0.49211000  0.47884000  1.0
  C  C32  1  0.53512000  0.50201000  0.85891000  1.0
  C  C33  1  0.65289000  0.31778000  0.84893000  1.0
  C  C34  1  0.46724000  0.58479000  0.19812000  1.0
  C  C35  1  0.32499000  0.89983000  0.61983000  1.0
  C  C36  1  0.68925000  0.19811000  0.45602000  1.0
  C  C37  1  0.74834000  0.09293000  0.44213000  1.0
  C  C38  1  0.68738000  0.01142000  0.46970000  1.0
  C  C39  1  0.56916000  0.03478000  0.50597000  1.0
  C  C40  1  0.52151000  0.14005000  0.52821000  1.0
  C  C41  1  0.49566000  0.95719000  0.52638000  1.0
  C  C42  1  0.54305000  0.45296000  0.69412000  1.0
  C  C43  1  0.39109000  0.97929000  0.58896000  1.0
  C  C44  1  0.35199000  0.08213000  0.61682000  1.0
  C  C45  1  0.41139000  0.16247000  0.58328000  1.0
  C  C46  1  0.51351000  0.86365000  0.48567000  1.0
  C  C47  1  0.35803000  0.80578000  0.58558000  1.0
  C  C48  1  0.26930000  0.52148000  0.53234000  1.0
  C  C49  1  0.84206000  0.50533000  0.48520000  1.0
  C  C50  1  0.93888000  0.51479000  0.49879000  1.0
  C  C51  1  0.04680000  0.52248000  0.51360000  1.0
  C  C52  1  0.14630000  0.52639000  0.52647000  1.0
  C  C53  1  0.68319000  0.29087000  0.95013000  1.0
  C  C54  1  0.87301000  0.07034000  0.40013000  1.0
  S  S55  1  0.62074000  0.84805000  0.37920000  1.0
  N  N56  1  0.44826000  0.79004000  0.51557000  1.0
  N  N57  1  0.58222000  0.21992000  0.50098000  1.0
  O  O58  1  0.42343000  0.63103000  0.35626000  1.0
  O  O59  1  0.52313000  0.45262000  0.36227000  1.0
  O  O60  1  0.64317000  0.58141000  0.44259000  1.0
  O  O61  1  0.71200000  0.39527000  0.51124000  1.0
  O  O62  1  0.52297000  0.55560000  0.64109000  1.0
  O  O63  1  0.53625000  0.37186000  0.66241000  1.0
  O  O64  1  0.29367000  0.60622000  0.54458000  1.0
  O  O65  1  0.34144000  0.43083000  0.52242000  1.0
  O  O66  1  0.60118000  0.95777000  0.30744000  1.0
  O  O67  1  0.73529000  0.78980000  0.42446000  1.0
  O  O68  1  0.58178000  0.77199000  0.32908000  1.0
