# generated using pymatgen
data_AlH27(C15O4)3
_symmetry_space_group_name_H-M   'P 1'
_cell_length_a   3.96972000
_cell_length_b   23.55960000
_cell_length_c   23.58972665
_cell_angle_alpha   119.91320137
_cell_angle_beta   90.07985303
_cell_angle_gamma   92.39570000
_symmetry_Int_Tables_number   1
_chemical_formula_structural   AlH27(C15O4)3
_chemical_formula_sum   'Al1 H27 C45 O12'
_cell_volume   1910.01826294
_cell_formula_units_Z   1
loop_
 _symmetry_equiv_pos_site_id
 _symmetry_equiv_pos_as_xyz
  1  'x, y, z'
loop_
 _atom_site_type_symbol
 _atom_site_label
 _atom_site_symmetry_multiplicity
 _atom_site_fract_x
 _atom_site_fract_y
 _atom_site_fract_z
 _atom_site_occupancy
  Al  Al0  1  0.01639000  0.00041000  0.49975000  1.0
  H  H1  1  0.73349000  0.99866000  0.32147000  1.0
  H  H2  1  0.70385000  0.94447000  0.20220000  1.0
  H  H3  1  0.86091000  0.81759000  0.98396000  1.0
  H  H4  1  0.31235000  0.92671000  0.72981000  1.0
  H  H5  1  0.25627000  0.87453000  0.76890000  1.0
  H  H6  1  0.24339000  0.81878000  0.83148000  1.0
  H  H7  1  0.51785000  0.78889000  0.89391000  1.0
  H  H8  1  0.72096000  0.82566000  0.50339000  1.0
  H  H9  1  0.69772000  0.76029000  0.55723000  1.0
  H  H10  1  0.83209000  0.66726000  0.68422000  1.0
  H  H11  1  0.34277000  0.30212000  0.57210000  1.0
  H  H12  1  0.26474000  0.39091000  0.62474000  1.0
  H  H13  1  0.23575000  0.50882000  0.68062000  1.0
  H  H14  1  0.52189000  0.60563000  0.71273000  1.0
  H  H15  1  0.79096000  0.18160000  0.67543000  1.0
  H  H16  1  0.76931000  0.30039000  0.74097000  1.0
  H  H17  1  0.86169000  0.52372000  0.83757000  1.0
  H  H18  1  0.29750000  0.76756000  0.19654000  1.0
  H  H19  1  0.20760000  0.73151000  0.10490000  1.0
  H  H20  1  0.19885000  0.66886000  0.98630000  1.0
  H  H21  1  0.51917000  0.60746000  0.89591000  1.0
  H  H22  1  0.21981000  0.13291000  0.49015000  1.0
  H  H23  1  0.17179000  0.85491000  0.36443000  1.0
  H  H24  1  0.19268000  0.00757000  0.64255000  1.0
  H  H25  1  0.06579000  0.36645000  0.75621000  1.0
  H  H26  1  0.02093000  0.89795000  0.14726000  1.0
  H  H27  1  0.00813000  0.74921000  0.60473000  1.0
  C  C28  1  0.50835000  0.95226000  0.39833000  1.0
  C  C29  1  0.54422000  0.10209000  0.55327000  1.0
  C  C30  1  0.50834000  0.94683000  0.54773000  1.0
  C  C31  1  0.63412000  0.94810000  0.29310000  1.0
  C  C32  1  0.63156000  0.91601000  0.22538000  1.0
  C  C33  1  0.72801000  0.83321000  0.07785000  1.0
  C  C34  1  0.70725000  0.79857000  0.00960000  1.0
  C  C35  1  0.36404000  0.93534000  0.64531000  1.0
  C  C36  1  0.39849000  0.90188000  0.67978000  1.0
  C  C37  1  0.39069000  0.82958000  0.75005000  1.0
  C  C38  1  0.38154000  0.79789000  0.78613000  1.0
  C  C39  1  0.49783000  0.91784000  0.32676000  1.0
  C  C40  1  0.52492000  0.84862000  0.18762000  1.0
  C  C41  1  0.54270000  0.81118000  0.11537000  1.0
  C  C42  1  0.52245000  0.73895000  0.97516000  1.0
  C  C43  1  0.51488000  0.70232000  0.90299000  1.0
  C  C44  1  0.51566000  0.73547000  0.86748000  1.0
  C  C45  1  0.62749000  0.84671000  0.55292000  1.0
  C  C46  1  0.62778000  0.81094000  0.58495000  1.0
  C  C47  1  0.71508000  0.74513000  0.66789000  1.0
  C  C48  1  0.69353000  0.71181000  0.70291000  1.0
  C  C49  1  0.40502000  0.20963000  0.56336000  1.0
  C  C50  1  0.43881000  0.27796000  0.59739000  1.0
  C  C51  1  0.40489000  0.41938000  0.67085000  1.0
  C  C52  1  0.38636000  0.48683000  0.70257000  1.0
  C  C53  1  0.49849000  0.90939000  0.58191000  1.0
  C  C54  1  0.52986000  0.83924000  0.65131000  1.0
  C  C55  1  0.55045000  0.80469000  0.68917000  1.0
  C  C56  1  0.52815000  0.73695000  0.76220000  1.0
  C  C57  1  0.51769000  0.70137000  0.79894000  1.0
  C  C58  1  0.51841000  0.63273000  0.76602000  1.0
  C  C59  1  0.68947000  0.20896000  0.65381000  1.0
  C  C60  1  0.68977000  0.27675000  0.68982000  1.0
  C  C61  1  0.75191000  0.42750000  0.75812000  1.0
  C  C62  1  0.72004000  0.49530000  0.79151000  1.0
  C  C63  1  0.35372000  0.85311000  0.28957000  1.0
  C  C64  1  0.38797000  0.81871000  0.22176000  1.0
  C  C65  1  0.36076000  0.75029000  0.07908000  1.0
  C  C66  1  0.35302000  0.71441000  0.01141000  1.0
  C  C67  1  0.54744000  0.17371000  0.59031000  1.0
  C  C68  1  0.57598000  0.31367000  0.66139000  1.0
  C  C69  1  0.58248000  0.38634000  0.69693000  1.0
  C  C70  1  0.53978000  0.52633000  0.76482000  1.0
  C  C71  1  0.52123000  0.59830000  0.80023000  1.0
  C  C72  1  0.51660000  0.63372000  0.86875000  1.0
  O  O73  1  0.28539000  0.99065000  0.56246000  1.0
  O  O74  1  0.27127000  0.93744000  0.42731000  1.0
  O  O75  1  0.30616000  0.07191000  0.50887000  1.0
  O  O76  1  0.73699000  0.93603000  0.50592000  1.0
  O  O77  1  0.77206000  0.07204000  0.56451000  1.0
  O  O78  1  0.75080000  0.99420000  0.42909000  1.0
  O  O79  1  0.24561000  0.18019000  0.50414000  1.0
  O  O80  1  0.19601000  0.82177000  0.31771000  1.0
  O  O81  1  0.21498000  0.99344000  0.67551000  1.0
  O  O82  1  0.95929000  0.40572000  0.78902000  1.0
  O  O83  1  0.94176000  0.88795000  0.10388000  1.0
  O  O84  1  0.90778000  0.71576000  0.61328000  1.0
