# generated using pymatgen
data_CuH2C2N3
_symmetry_space_group_name_H-M   'P 1'
_cell_length_a   4.86297000
_cell_length_b   4.94766000
_cell_length_c   14.64260000
_cell_angle_alpha   90.00010000
_cell_angle_beta   90.00000000
_cell_angle_gamma   108.47000000
_symmetry_Int_Tables_number   1
_chemical_formula_structural   CuH2C2N3
_chemical_formula_sum   'Cu4 H8 C8 N12'
_cell_volume   334.15829006
_cell_formula_units_Z   4
loop_
 _symmetry_equiv_pos_site_id
 _symmetry_equiv_pos_as_xyz
  1  'x, y, z'
loop_
 _atom_site_type_symbol
 _atom_site_label
 _atom_site_symmetry_multiplicity
 _atom_site_fract_x
 _atom_site_fract_y
 _atom_site_fract_z
 _atom_site_occupancy
  Cu  Cu0  1  0.83780000  0.16347000  0.45061000  1.0
  Cu  Cu1  1  0.16219000  0.33654000  0.95062000  1.0
  Cu  Cu2  1  0.16219000  0.83653000  0.54938000  1.0
  Cu  Cu3  1  0.83780000  0.66347000  0.04939000  1.0
  H  H4  1  0.17132000  0.33074000  0.69609000  1.0
  H  H5  1  0.82869000  0.16926000  0.19609000  1.0
  H  H6  1  0.82869000  0.66926000  0.30391000  1.0
  H  H7  1  0.17132000  0.83075000  0.80391000  1.0
  H  H8  1  0.66078000  0.81697000  0.69520000  1.0
  H  H9  1  0.33921000  0.68302000  0.19520000  1.0
  H  H10  1  0.33921000  0.18302000  0.30479000  1.0
  H  H11  1  0.66078000  0.31698000  0.80480000  1.0
  C  C12  1  0.36921000  0.38096000  0.65653000  1.0
  C  C13  1  0.63082000  0.11909000  0.15651000  1.0
  C  C14  1  0.63082000  0.61908000  0.34349000  1.0
  C  C15  1  0.36921000  0.88096000  0.84347000  1.0
  C  C16  1  0.61233000  0.62151000  0.65631000  1.0
  C  C17  1  0.38761000  0.87847000  0.15630000  1.0
  C  C18  1  0.38762000  0.37846000  0.34370000  1.0
  C  C19  1  0.61233000  0.12151000  0.84369000  1.0
  N  N20  1  0.67840000  0.31837000  0.55712000  1.0
  N  N21  1  0.32161000  0.18162000  0.05713000  1.0
  N  N22  1  0.32161000  0.68161000  0.44287000  1.0
  N  N23  1  0.67840000  0.81837000  0.94288000  1.0
  N  N24  1  0.80026000  0.57772000  0.59416000  1.0
  N  N25  1  0.19967000  0.92221000  0.09417000  1.0
  N  N26  1  0.19967000  0.42221000  0.40583000  1.0
  N  N27  1  0.80026000  0.07772000  0.90584000  1.0
  N  N28  1  0.41505000  0.19630000  0.59461000  1.0
  N  N29  1  0.58503000  0.30375000  0.09462000  1.0
  N  N30  1  0.58503000  0.80375000  0.40538000  1.0
  N  N31  1  0.41505000  0.69630000  0.90539000  1.0
