# generated using pymatgen
data_UH14C8N2O7
_symmetry_space_group_name_H-M   'P 1'
_cell_length_a   8.64443000
_cell_length_b   9.48269000
_cell_length_c   9.64084000
_cell_angle_alpha   61.42970000
_cell_angle_beta   70.81750000
_cell_angle_gamma   66.14950000
_symmetry_Int_Tables_number   1
_chemical_formula_structural   UH14C8N2O7
_chemical_formula_sum   'U2 H28 C16 N4 O14'
_cell_volume   625.72470014
_cell_formula_units_Z   2
loop_
 _symmetry_equiv_pos_site_id
 _symmetry_equiv_pos_as_xyz
  1  'x, y, z'
loop_
 _atom_site_type_symbol
 _atom_site_label
 _atom_site_symmetry_multiplicity
 _atom_site_fract_x
 _atom_site_fract_y
 _atom_site_fract_z
 _atom_site_occupancy
  U  U0  1  0.32876000  0.81992000  0.29358000  1.0
  U  U1  1  0.67124000  0.18008000  0.70642000  1.0
  H  H2  1  0.98490000  0.43098000  0.32362000  1.0
  H  H3  1  0.01509000  0.56902000  0.67638000  1.0
  H  H4  1  0.36096000  0.41445000  0.41487000  1.0
  H  H5  1  0.63904000  0.58554000  0.58514000  1.0
  H  H6  1  0.24995000  0.52024000  0.86069000  1.0
  H  H7  1  0.75006000  0.47976000  0.13931000  1.0
  H  H8  1  0.08121000  0.70607000  0.85624000  1.0
  H  H9  1  0.91879000  0.29393000  0.14376000  1.0
  H  H10  1  0.32244000  0.62420000  0.00892000  1.0
  H  H11  1  0.67757000  0.37580000  0.99108000  1.0
  H  H12  1  0.46265000  0.66278000  0.82359000  1.0
  H  H13  1  0.53735000  0.33722000  0.17641000  1.0
  H  H14  1  0.25208000  0.96412000  0.72155000  1.0
  H  H15  1  0.74792000  0.03588000  0.27845000  1.0
  H  H16  1  0.14421000  0.91669000  0.92336000  1.0
  H  H17  1  0.85579000  0.08331000  0.07664000  1.0
  H  H18  1  0.79172000  0.65855000  0.17848000  1.0
  H  H19  1  0.20828000  0.34145000  0.82152000  1.0
  H  H20  1  0.82754000  0.76525000  0.26801000  1.0
  H  H21  1  0.17246000  0.23475000  0.73199000  1.0
  H  H22  1  0.94443000  0.77309000  0.07533000  1.0
  H  H23  1  0.05557000  0.22692000  0.92467000  1.0
  H  H24  1  0.37164000  0.14496000  0.47830000  1.0
  H  H25  1  0.62835000  0.85504000  0.52170000  1.0
  H  H26  1  0.14246000  0.21037000  0.50493000  1.0
  H  H27  1  0.85754000  0.78963000  0.49507000  1.0
  H  H28  1  0.26642000  0.22559000  0.31304000  1.0
  H  H29  1  0.73358000  0.77441000  0.68696000  1.0
  C  C30  1  0.24714000  0.72360000  0.63557000  1.0
  C  C31  1  0.75286000  0.27640000  0.36443000  1.0
  C  C32  1  0.21944000  0.65759000  0.81582000  1.0
  C  C33  1  0.78057000  0.34241000  0.18418000  1.0
  C  C34  1  0.32795000  0.69939000  0.87957000  1.0
  C  C35  1  0.67205000  0.30061000  0.12043000  1.0
  C  C36  1  0.26847000  0.88711000  0.84677000  1.0
  C  C37  1  0.73153000  0.11289000  0.15323000  1.0
  C  C38  1  0.39439000  0.93337000  0.88277000  1.0
  C  C39  1  0.60561000  0.06663000  0.11723000  1.0
  C  C40  1  0.14887000  0.54727000  0.31092000  1.0
  C  C41  1  0.85113000  0.45273000  0.68908000  1.0
  C  C42  1  0.88985000  0.69294000  0.19326000  1.0
  C  C43  1  0.11015000  0.30706000  0.80674000  1.0
  C  C44  1  0.25985000  0.23749000  0.42303000  1.0
  C  C45  1  0.74015000  0.76252000  0.57697000  1.0
  N  N46  1  0.02014000  0.53970000  0.26808000  1.0
  N  N47  1  0.97986000  0.46030000  0.73192000  1.0
  N  N48  1  0.26247000  0.40361000  0.38863000  1.0
  N  N49  1  0.73752000  0.59639000  0.61137000  1.0
  O  O50  1  0.15910000  0.01866000  0.24928000  1.0
  O  O51  1  0.84090000  0.98134000  0.75072000  1.0
  O  O52  1  0.49957000  0.62171000  0.33158000  1.0
  O  O53  1  0.50042000  0.37829000  0.66842000  1.0
  O  O54  1  0.16018000  0.70048000  0.56722000  1.0
  O  O55  1  0.83982000  0.29953000  0.43278000  1.0
  O  O56  1  0.35910000  0.80113000  0.54719000  1.0
  O  O57  1  0.64090000  0.19887000  0.45281000  1.0
  O  O58  1  0.47429000  0.03281000  0.76877000  1.0
  O  O59  1  0.52571000  0.96719000  0.23123000  1.0
  O  O60  1  0.41824000  0.86741000  0.02753000  1.0
  O  O61  1  0.58176000  0.13260000  0.97247000  1.0
  O  O62  1  0.16143000  0.69244000  0.27377000  1.0
  O  O63  1  0.83857000  0.30756000  0.72623000  1.0
