# generated using pymatgen
data_TbH7C8SO9
_symmetry_space_group_name_H-M   'P 1'
_cell_length_a   6.36086000
_cell_length_b   8.59806000
_cell_length_c   10.59030000
_cell_angle_alpha   90.91910000
_cell_angle_beta   99.52880000
_cell_angle_gamma   107.38800000
_symmetry_Int_Tables_number   1
_chemical_formula_structural   TbH7C8SO9
_chemical_formula_sum   'Tb2 H14 C16 S2 O18'
_cell_volume   543.77871670
_cell_formula_units_Z   2
loop_
 _symmetry_equiv_pos_site_id
 _symmetry_equiv_pos_as_xyz
  1  'x, y, z'
loop_
 _atom_site_type_symbol
 _atom_site_label
 _atom_site_symmetry_multiplicity
 _atom_site_fract_x
 _atom_site_fract_y
 _atom_site_fract_z
 _atom_site_occupancy
  Tb  Tb0  1  0.15245000  0.24387000  0.61320000  1.0
  Tb  Tb1  1  0.84755000  0.75613000  0.38680000  1.0
  H  H2  1  0.61935000  0.41488000  0.14477000  1.0
  H  H3  1  0.38065000  0.58512000  0.85524000  1.0
  H  H4  1  0.65914000  0.36688000  0.91918000  1.0
  H  H5  1  0.34086000  0.63312000  0.08082000  1.0
  H  H6  1  0.17757000  0.15124000  0.05417000  1.0
  H  H7  1  0.82243000  0.84876000  0.94583000  1.0
  H  H8  1  0.52744000  0.08090000  0.67711000  1.0
  H  H9  1  0.47256000  0.91911000  0.32289000  1.0
  H  H10  1  0.30257000  0.95168000  0.60618000  1.0
  H  H11  1  0.69743000  0.04831000  0.39382000  1.0
  H  H12  1  0.65329000  0.35323000  0.70981000  1.0
  H  H13  1  0.34671000  0.64677000  0.29019000  1.0
  H  H14  1  0.58173000  0.50395000  0.65093000  1.0
  H  H15  1  0.41827000  0.49605000  0.34907000  1.0
  C  C16  1  0.01983000  0.22455000  0.19958000  1.0
  C  C17  1  0.98017000  0.77545000  0.80042000  1.0
  C  C18  1  0.86690000  0.30455000  0.22702000  1.0
  C  C19  1  0.13310000  0.69545000  0.77298000  1.0
  C  C20  1  0.73761000  0.35310000  0.12376000  1.0
  C  C21  1  0.26239000  0.64690000  0.87624000  1.0
  C  C22  1  0.76086000  0.32676000  0.99734000  1.0
  C  C23  1  0.23914000  0.67324000  0.00266000  1.0
  C  C24  1  0.92236000  0.25558000  0.97231000  1.0
  C  C25  1  0.07764000  0.74442000  0.02769000  1.0
  C  C26  1  0.04961000  0.20361000  0.07390000  1.0
  C  C27  1  0.95039000  0.79639000  0.92610000  1.0
  C  C28  1  0.84392000  0.34825000  0.36141000  1.0
  C  C29  1  0.15608000  0.65175000  0.63859000  1.0
  C  C30  1  0.98108000  0.24441000  0.84253000  1.0
  C  C31  1  0.01892000  0.75559000  0.15747000  1.0
  S  S32  1  0.20943000  0.16580000  0.31937000  1.0
  S  S33  1  0.79057000  0.83420000  0.68064000  1.0
  O  O34  1  0.08362000  0.02954000  0.38791000  1.0
  O  O35  1  0.91638000  0.97046000  0.61209000  1.0
  O  O36  1  0.30845000  0.30944000  0.41469000  1.0
  O  O37  1  0.69155000  0.69056000  0.58531000  1.0
  O  O38  1  0.36882000  0.12410000  0.25334000  1.0
  O  O39  1  0.63118000  0.87590000  0.74666000  1.0
  O  O40  1  0.85218000  0.24625000  0.44736000  1.0
  O  O41  1  0.14783000  0.75375000  0.55264000  1.0
  O  O42  1  0.81839000  0.48541000  0.38218000  1.0
  O  O43  1  0.18161000  0.51459000  0.61782000  1.0
  O  O44  1  0.16618000  0.21847000  0.83524000  1.0
  O  O45  1  0.83382000  0.78153000  0.16476000  1.0
  O  O46  1  0.85449000  0.26365000  0.73986000  1.0
  O  O47  1  0.14551000  0.73635000  0.26014000  1.0
  O  O48  1  0.37634000  0.06980000  0.63169000  1.0
  O  O49  1  0.62366000  0.93020000  0.36831000  1.0
  O  O50  1  0.52811000  0.40219000  0.69419000  1.0
  O  O51  1  0.47189000  0.59782000  0.30581000  1.0
