# generated using pymatgen
data_LiH21C9N4O
_symmetry_space_group_name_H-M   'P 1'
_cell_length_a   8.20015000
_cell_length_b   11.23670000
_cell_length_c   13.96250000
_cell_angle_alpha   90.00040000
_cell_angle_beta   90.00040000
_cell_angle_gamma   104.92900000
_symmetry_Int_Tables_number   1
_chemical_formula_structural   LiH21C9N4O
_chemical_formula_sum   'Li4 H84 C36 N16 O4'
_cell_volume   1243.11524402
_cell_formula_units_Z   4
loop_
 _symmetry_equiv_pos_site_id
 _symmetry_equiv_pos_as_xyz
  1  'x, y, z'
loop_
 _atom_site_type_symbol
 _atom_site_label
 _atom_site_symmetry_multiplicity
 _atom_site_fract_x
 _atom_site_fract_y
 _atom_site_fract_z
 _atom_site_occupancy
  Li  Li0  1  0.96504000  0.07224000  0.07439000  1.0
  Li  Li1  1  0.03497000  0.42776000  0.57440000  1.0
  Li  Li2  1  0.03497000  0.92776000  0.92559000  1.0
  Li  Li3  1  0.96503000  0.57224000  0.42560000  1.0
  H  H4  1  0.56735000  0.59852000  0.40655000  1.0
  H  H5  1  0.43269000  0.90152000  0.90659000  1.0
  H  H6  1  0.43266000  0.40150000  0.59344000  1.0
  H  H7  1  0.56730000  0.09847000  0.09340000  1.0
  H  H8  1  0.34189000  0.37854000  0.60826000  1.0
  H  H9  1  0.65807000  0.12142000  0.10822000  1.0
  H  H10  1  0.65812000  0.62148000  0.39174000  1.0
  H  H11  1  0.34192000  0.87856000  0.89177000  1.0
  H  H12  1  0.64202000  0.71970000  0.52522000  1.0
  H  H13  1  0.35797000  0.78029000  0.02523000  1.0
  H  H14  1  0.35797000  0.28030000  0.47478000  1.0
  H  H15  1  0.64204000  0.21972000  0.97477000  1.0
  H  H16  1  0.62355000  0.83931000  0.60391000  1.0
  H  H17  1  0.37644000  0.66069000  0.10392000  1.0
  H  H18  1  0.37643000  0.16070000  0.39609000  1.0
  H  H19  1  0.62355000  0.33931000  0.89608000  1.0
  H  H20  1  0.28826000  0.80548000  0.42327000  1.0
  H  H21  1  0.71172000  0.69453000  0.92326000  1.0
  H  H22  1  0.71172000  0.19453000  0.57674000  1.0
  H  H23  1  0.28829000  0.30547000  0.07675000  1.0
  H  H24  1  0.49468000  0.78451000  0.40181000  1.0
  H  H25  1  0.50530000  0.71550000  0.90181000  1.0
  H  H26  1  0.50530000  0.21549000  0.59820000  1.0
  H  H27  1  0.49471000  0.28450000  0.09819000  1.0
  H  H28  1  0.47159000  0.91262000  0.47040000  1.0
  H  H29  1  0.52839000  0.58739000  0.97039000  1.0
  H  H30  1  0.52839000  0.08739000  0.52961000  1.0
  H  H31  1  0.47162000  0.41261000  0.02961000  1.0
  H  H32  1  0.16472000  0.77324000  0.57569000  1.0
  H  H33  1  0.83528000  0.72676000  0.07567000  1.0
  H  H34  1  0.83527000  0.22676000  0.42433000  1.0
  H  H35  1  0.16473000  0.27324000  0.92433000  1.0
  H  H36  1  0.34274000  0.87302000  0.63397000  1.0
  H  H37  1  0.65725000  0.62697000  0.13396000  1.0
  H  H38  1  0.65725000  0.12698000  0.36604000  1.0
  H  H39  1  0.34276000  0.37303000  0.86604000  1.0
  H  H40  1  0.26529000  0.71619000  0.67197000  1.0
  H  H41  1  0.73471000  0.78380000  0.17196000  1.0
  H  H42  1  0.73470000  0.28381000  0.32804000  1.0
  H  H43  1  0.26530000  0.21620000  0.82804000  1.0
  H  H44  1  0.44067000  0.57600000  0.65541000  1.0
  H  H45  1  0.55934000  0.92400000  0.15541000  1.0
  H  H46  1  0.55932000  0.42401000  0.34460000  1.0
  H  H47  1  0.44067000  0.07600000  0.84459000  1.0
  H  H48  1  0.53551000  0.69810000  0.73395000  1.0
  H  H49  1  0.46450000  0.80190000  0.23395000  1.0
  H  H50  1  0.46451000  0.30192000  0.26606000  1.0
  H  H51  1  0.53550000  0.19809000  0.76605000  1.0
  H  H52  1  0.96285000  0.66674000  0.69629000  1.0
  H  H53  1  0.03715000  0.83326000  0.19628000  1.0
  H  H54  1  0.03714000  0.33325000  0.30371000  1.0
  H  H55  1  0.96285000  0.16674000  0.80370000  1.0
  H  H56  1  0.84124000  0.75320000  0.75775000  1.0
  H  H57  1  0.15876000  0.74680000  0.25774000  1.0
  H  H58  1  0.15876000  0.24680000  0.24226000  1.0
  H  H59  1  0.84123000  0.25319000  0.74225000  1.0
  H  H60  1  0.87567000  0.77184000  0.63148000  1.0
  H  H61  1  0.12435000  0.72816000  0.13148000  1.0
  H  H62  1  0.12433000  0.22816000  0.36852000  1.0
  H  H63  1  0.87566000  0.27184000  0.86852000  1.0
  H  H64  1  0.78900000  0.47207000  0.74711000  1.0
  H  H65  1  0.21100000  0.02794000  0.24710000  1.0
  H  H66  1  0.21098000  0.52793000  0.25290000  1.0
  H  H67  1  0.78901000  0.97207000  0.75289000  1.0
  H  H68  1  0.56607000  0.43619000  0.72983000  1.0
  H  H69  1  0.43394000  0.06381000  0.22983000  1.0
  H  H70  1  0.43392000  0.56381000  0.27017000  1.0
  H  H71  1  0.56607000  0.93618000  0.77018000  1.0
  H  H72  1  0.66380000  0.54795000  0.81708000  1.0
  H  H73  1  0.33621000  0.95206000  0.31708000  1.0
  H  H74  1  0.33618000  0.45205000  0.18292000  1.0
  H  H75  1  0.66378000  0.04793000  0.68292000  1.0
  H  H76  1  0.73076000  0.90288000  0.99745000  1.0
  H  H77  1  0.26924000  0.59712000  0.49745000  1.0
  H  H78  1  0.26925000  0.09712000  0.00255000  1.0
  H  H79  1  0.73075000  0.40288000  0.50256000  1.0
  H  H80  1  0.76705000  0.02268000  0.92632000  1.0
  H  H81  1  0.23295000  0.47732000  0.42633000  1.0
  H  H82  1  0.23296000  0.97732000  0.07367000  1.0
  H  H83  1  0.76705000  0.52268000  0.57368000  1.0
  H  H84  1  0.85610000  0.50814000  0.05876000  1.0
  H  H85  1  0.14389000  0.99186000  0.55876000  1.0
  H  H86  1  0.14389000  0.49186000  0.94124000  1.0
  H  H87  1  0.85611000  0.00815000  0.44121000  1.0
  C  C88  1  0.56279000  0.74343000  0.58160000  1.0
  C  C89  1  0.43721000  0.75657000  0.08161000  1.0
  C  C90  1  0.43720000  0.25657000  0.41840000  1.0
  C  C91  1  0.56280000  0.24343000  0.91840000  1.0
  C  C92  1  0.41378000  0.81429000  0.45425000  1.0
  C  C93  1  0.58621000  0.68572000  0.95424000  1.0
  C  C94  1  0.58621000  0.18572000  0.54576000  1.0
  C  C95  1  0.41380000  0.31427000  0.04577000  1.0
  C  C96  1  0.28669000  0.77742000  0.60959000  1.0
  C  C97  1  0.71330000  0.72258000  0.10958000  1.0
  C  C98  1  0.71330000  0.22259000  0.39042000  1.0
  C  C99  1  0.28670000  0.27742000  0.89042000  1.0
  C  C100  1  0.55214000  0.65359000  0.66500000  1.0
  C  C101  1  0.44786000  0.84641000  0.16500000  1.0
  C  C102  1  0.44785000  0.34642000  0.33501000  1.0
  C  C103  1  0.55214000  0.15359000  0.83500000  1.0
  C  C104  1  0.85317000  0.70479000  0.69022000  1.0
  C  C105  1  0.14683000  0.79522000  0.19022000  1.0
  C  C106  1  0.14682000  0.29521000  0.30978000  1.0
  C  C107  1  0.85317000  0.20478000  0.80977000  1.0
  C  C108  1  0.67893000  0.51043000  0.74550000  1.0
  C  C109  1  0.32108000  0.98957000  0.24550000  1.0
  C  C110  1  0.32106000  0.48957000  0.25450000  1.0
  C  C111  1  0.67893000  0.01043000  0.75450000  1.0
  C  C112  1  0.88923000  0.48734000  0.20976000  1.0
  C  C113  1  0.11077000  0.01266000  0.70976000  1.0
  C  C114  1  0.11078000  0.51267000  0.79024000  1.0
  C  C115  1  0.88925000  0.98733000  0.29022000  1.0
  C  C116  1  0.92938000  0.34315000  0.09066000  1.0
  C  C117  1  0.07061000  0.15684000  0.59066000  1.0
  C  C118  1  0.07063000  0.65685000  0.90933000  1.0
  C  C119  1  0.92939000  0.84316000  0.40933000  1.0
  C  C120  1  0.88852000  0.45121000  0.11502000  1.0
  C  C121  1  0.11146000  0.04879000  0.61502000  1.0
  C  C122  1  0.11148000  0.54880000  0.88497000  1.0
  C  C123  1  0.88855000  0.95121000  0.38496000  1.0
  N  N124  1  0.39597000  0.73741000  0.54014000  1.0
  N  N125  1  0.60402000  0.76259000  0.04013000  1.0
  N  N126  1  0.60401000  0.26259000  0.45987000  1.0
  N  N127  1  0.39598000  0.23741000  0.95987000  1.0
  N  N128  1  0.70212000  0.60475000  0.67046000  1.0
  N  N129  1  0.29789000  0.89525000  0.17046000  1.0
  N  N130  1  0.29788000  0.39525000  0.32954000  1.0
  N  N131  1  0.70212000  0.10475000  0.82954000  1.0
  N  N132  1  0.89260000  0.51665000  0.29113000  1.0
  N  N133  1  0.10741000  0.98335000  0.79113000  1.0
  N  N134  1  0.10741000  0.48335000  0.70887000  1.0
  N  N135  1  0.89262000  0.01665000  0.20885000  1.0
  N  N136  1  0.96381000  0.25080000  0.06946000  1.0
  N  N137  1  0.03617000  0.24919000  0.56945000  1.0
  N  N138  1  0.03619000  0.74919000  0.93055000  1.0
  N  N139  1  0.96382000  0.75081000  0.43054000  1.0
  O  O140  1  0.17716000  0.02570000  0.02872000  1.0
  O  O141  1  0.82285000  0.47430000  0.52872000  1.0
  O  O142  1  0.82285000  0.97429000  0.97127000  1.0
  O  O143  1  0.17715000  0.52570000  0.47128000  1.0
