# generated using pymatgen
data_Cu3P2H26C30(N3O5)2
_symmetry_space_group_name_H-M   'P 1'
_cell_length_a   8.05341000
_cell_length_b   9.76831000
_cell_length_c   11.16730000
_cell_angle_alpha   106.40000000
_cell_angle_beta   107.18600000
_cell_angle_gamma   92.15440000
_symmetry_Int_Tables_number   1
_chemical_formula_structural   Cu3P2H26C30(N3O5)2
_chemical_formula_sum   'Cu3 P2 H26 C30 N6 O10'
_cell_volume   798.08912266
_cell_formula_units_Z   1
loop_
 _symmetry_equiv_pos_site_id
 _symmetry_equiv_pos_as_xyz
  1  'x, y, z'
loop_
 _atom_site_type_symbol
 _atom_site_label
 _atom_site_symmetry_multiplicity
 _atom_site_fract_x
 _atom_site_fract_y
 _atom_site_fract_z
 _atom_site_occupancy
  Cu  Cu0  1  0.49987000  0.00020000  0.50013000  1.0
  Cu  Cu1  1  0.31554000  0.06273000  0.01659000  1.0
  Cu  Cu2  1  0.68429000  0.93751000  0.98372000  1.0
  P  P3  1  0.56913000  0.05215000  0.26453000  1.0
  P  P4  1  0.43028000  0.94758000  0.73566000  1.0
  H  H5  1  0.82579000  0.32170000  0.41544000  1.0
  H  H6  1  0.17411000  0.67777000  0.58479000  1.0
  H  H7  1  0.83385000  0.56284000  0.37115000  1.0
  H  H8  1  0.16668000  0.43658000  0.62902000  1.0
  H  H9  1  0.60117000  0.59329000  0.17803000  1.0
  H  H10  1  0.39957000  0.40630000  0.82208000  1.0
  H  H11  1  0.30688000  0.77967000  0.05482000  1.0
  H  H12  1  0.69331000  0.22042000  0.94484000  1.0
  H  H13  1  0.12950000  0.54246000  0.95263000  1.0
  H  H14  1  0.87056000  0.45770000  0.04709000  1.0
  H  H15  1  0.76209000  0.73503000  0.69631000  1.0
  H  H16  1  0.23808000  0.26519000  0.30341000  1.0
  H  H17  1  0.95713000  0.96319000  0.81282000  1.0
  H  H18  1  0.04324000  0.03696000  0.18680000  1.0
  H  H19  1  0.43571000  0.29582000  0.50943000  1.0
  H  H20  1  0.56417000  0.70441000  0.49053000  1.0
  H  H21  1  0.59366000  0.54224000  0.62635000  1.0
  H  H22  1  0.40630000  0.45796000  0.37352000  1.0
  H  H23  1  0.02153000  0.34780000  0.82601000  1.0
  H  H24  1  0.97845000  0.65238000  0.17378000  1.0
  H  H25  1  0.84166000  0.11265000  0.70550000  1.0
  H  H26  1  0.15815000  0.88754000  0.29448000  1.0
  H  H27  1  0.24240000  0.25613000  0.93379000  1.0
  H  H28  1  0.75750000  0.74425000  0.06665000  1.0
  H  H29  1  0.20526000  0.10464000  0.80424000  1.0
  H  H30  1  0.79413000  0.89561000  0.19627000  1.0
  C  C31  1  0.59612000  0.23150000  0.24813000  1.0
  C  C32  1  0.40401000  0.76804000  0.75196000  1.0
  C  C33  1  0.72730000  0.34140000  0.33345000  1.0
  C  C34  1  0.27286000  0.65808000  0.66666667  1.0
  C  C35  1  0.73030000  0.47438000  0.30785000  1.0
  C  C36  1  0.27013000  0.52514000  0.69230000  1.0
  C  C37  1  0.60251000  0.49305000  0.20237000  1.0
  C  C38  1  0.39801000  0.50660000  0.79783000  1.0
  C  C39  1  0.46680000  0.37799000  0.11703000  1.0
  C  C40  1  0.53353000  0.62177000  0.88314000  1.0
  C  C41  1  0.18395000  0.76358000  0.97560000  1.0
  C  C42  1  0.81627000  0.23652000  0.02406000  1.0
  C  C43  1  0.08186000  0.63062000  0.91607000  1.0
  C  C44  1  0.91826000  0.36953000  0.08362000  1.0
  C  C45  1  0.92802000  0.61273000  0.81011000  1.0
  C  C46  1  0.07207000  0.38744000  0.18962000  1.0
  C  C47  1  0.88133000  0.73635000  0.77458000  1.0
  C  C48  1  0.11885000  0.26383000  0.22511000  1.0
  C  C49  1  0.98983000  0.86654000  0.83950000  1.0
  C  C50  1  0.01047000  0.13360000  0.16013000  1.0
  C  C51  1  0.56621000  0.31373000  0.58090000  1.0
  C  C52  1  0.43366000  0.68649000  0.41906000  1.0
  C  C53  1  0.65717000  0.45103000  0.64626000  1.0
  C  C54  1  0.34277000  0.54917000  0.35363000  1.0
  C  C55  1  0.82496000  0.46957000  0.73799000  1.0
  C  C56  1  0.17501000  0.53062000  0.26184000  1.0
  C  C57  1  0.89221000  0.34410000  0.75777000  1.0
  C  C58  1  0.10773000  0.65609000  0.24209000  1.0
  C  C59  1  0.79302000  0.21061000  0.68991000  1.0
  C  C60  1  0.20683000  0.78959000  0.31006000  1.0
  N  N61  1  0.47063000  0.24758000  0.14209000  1.0
  N  N62  1  0.52958000  0.75208000  0.85790000  1.0
  N  N63  1  0.14182000  0.88014000  0.93678000  1.0
  N  N64  1  0.85847000  0.11995000  0.06284000  1.0
  N  N65  1  0.63201000  0.19527000  0.60223000  1.0
  N  N66  1  0.36782000  0.80494000  0.39777000  1.0
  O  O67  1  0.74027000  0.00132000  0.32436000  1.0
  O  O68  1  0.25881000  0.99811000  0.67616000  1.0
  O  O69  1  0.43489000  0.05947000  0.34102000  1.0
  O  O70  1  0.56413000  0.94047000  0.65889000  1.0
  O  O71  1  0.48072000  0.96299000  0.11701000  1.0
  O  O72  1  0.51892000  0.03677000  0.88317000  1.0
  O  O73  1  0.34342000  0.39414000  0.02062000  1.0
  O  O74  1  0.65701000  0.60589000  0.97966000  1.0
  O  O75  1  0.17422000  0.15166000  0.88657000  1.0
  O  O76  1  0.82525000  0.84883000  0.11390000  1.0
