# generated using pymatgen
data_ZnH14C20(NO)4
_symmetry_space_group_name_H-M   'P 1'
_cell_length_a   9.74369000
_cell_length_b   13.50870000
_cell_length_c   21.64790000
_cell_angle_alpha   89.99970000
_cell_angle_beta   90.00010000
_cell_angle_gamma   89.99950000
_symmetry_Int_Tables_number   1
_chemical_formula_structural   ZnH14C20(NO)4
_chemical_formula_sum   'Zn4 H56 C80 N16 O16'
_cell_volume   2849.39585570
_cell_formula_units_Z   4
loop_
 _symmetry_equiv_pos_site_id
 _symmetry_equiv_pos_as_xyz
  1  'x, y, z'
loop_
 _atom_site_type_symbol
 _atom_site_label
 _atom_site_symmetry_multiplicity
 _atom_site_fract_x
 _atom_site_fract_y
 _atom_site_fract_z
 _atom_site_occupancy
  Zn  Zn0  1  0.82188000  0.29104000  0.25000000  1.0
  Zn  Zn1  1  0.17813000  0.70896000  0.75000000  1.0
  Zn  Zn2  1  0.32188000  0.20896000  0.75000000  1.0
  Zn  Zn3  1  0.67813000  0.79104000  0.25000000  1.0
  H  H4  1  0.27372000  0.30821000  0.25000000  1.0
  H  H5  1  0.72629000  0.69179000  0.75000000  1.0
  H  H6  1  0.77372000  0.19179000  0.75000000  1.0
  H  H7  1  0.22629000  0.80821000  0.25000000  1.0
  H  H8  1  0.56724000  0.54472000  0.25000000  1.0
  H  H9  1  0.43276000  0.45528000  0.75000000  1.0
  H  H10  1  0.06724000  0.95528000  0.75000000  1.0
  H  H11  1  0.93277000  0.04472000  0.25000000  1.0
  H  H12  1  0.37765000  0.66903000  0.25000000  1.0
  H  H13  1  0.62235000  0.33097000  0.75000000  1.0
  H  H14  1  0.87766000  0.83097000  0.75000000  1.0
  H  H15  1  0.12235000  0.16904000  0.25000000  1.0
  H  H16  1  0.13365000  0.61138000  0.25000000  1.0
  H  H17  1  0.86635000  0.38862000  0.75000000  1.0
  H  H18  1  0.63365000  0.88862000  0.75000000  1.0
  H  H19  1  0.36636000  0.11138000  0.25000000  1.0
  H  H20  1  0.67485000  0.93598000  0.34398000  1.0
  H  H21  1  0.32514000  0.06403000  0.84397000  1.0
  H  H22  1  0.17489000  0.56403000  0.65603000  1.0
  H  H23  1  0.82511000  0.43597000  0.15604000  1.0
  H  H24  1  0.32508000  0.06404000  0.65605000  1.0
  H  H25  1  0.67491000  0.93596000  0.15604000  1.0
  H  H26  1  0.82512000  0.43596000  0.34396000  1.0
  H  H27  1  0.17487000  0.56403000  0.84396000  1.0
  H  H28  1  0.80703000  0.90759000  0.39719000  1.0
  H  H29  1  0.19294000  0.09242000  0.89719000  1.0
  H  H30  1  0.30707000  0.59242000  0.60282000  1.0
  H  H31  1  0.69293000  0.40758000  0.10282000  1.0
  H  H32  1  0.19289000  0.09243000  0.60284000  1.0
  H  H33  1  0.80708000  0.90758000  0.10283000  1.0
  H  H34  1  0.69294000  0.40758000  0.39717000  1.0
  H  H35  1  0.30705000  0.59242000  0.89718000  1.0
  H  H36  1  0.01436000  0.23669000  0.36981000  1.0
  H  H37  1  0.98565000  0.76330000  0.86981000  1.0
  H  H38  1  0.51435000  0.26330000  0.63019000  1.0
  H  H39  1  0.48565000  0.73670000  0.13018000  1.0
  H  H40  1  0.98565000  0.76330000  0.63018000  1.0
  H  H41  1  0.01435000  0.23669000  0.13018000  1.0
  H  H42  1  0.48566000  0.73669000  0.36981000  1.0
  H  H43  1  0.51435000  0.26330000  0.86981000  1.0
  H  H44  1  0.97140000  0.05599000  0.42918000  1.0
  H  H45  1  0.02860000  0.94400000  0.92918000  1.0
  H  H46  1  0.47142000  0.44400000  0.57082000  1.0
  H  H47  1  0.52859000  0.55600000  0.07083000  1.0
  H  H48  1  0.02858000  0.94401000  0.57082000  1.0
  H  H49  1  0.97141000  0.05599000  0.07082000  1.0
  H  H50  1  0.52860000  0.55599000  0.42918000  1.0
  H  H51  1  0.47141000  0.44400000  0.92917000  1.0
  H  H52  1  0.64710000  0.10864000  0.30298000  1.0
  H  H53  1  0.35290000  0.89137000  0.80298000  1.0
  H  H54  1  0.14711000  0.39138000  0.69702000  1.0
  H  H55  1  0.85290000  0.60863000  0.19702000  1.0
  H  H56  1  0.35289000  0.89137000  0.69702000  1.0
  H  H57  1  0.64711000  0.10862000  0.19702000  1.0
  H  H58  1  0.85290000  0.60863000  0.30297000  1.0
  H  H59  1  0.14709000  0.39136000  0.80298000  1.0
  C  C60  1  0.04176000  0.42418000  0.25000000  1.0
  C  C61  1  0.95824000  0.57582000  0.75000000  1.0
  C  C62  1  0.54176000  0.07582000  0.75000000  1.0
  C  C63  1  0.45825000  0.92417000  0.25000000  1.0
  C  C64  1  0.18868000  0.45637000  0.25000000  1.0
  C  C65  1  0.81133000  0.54364000  0.75000000  1.0
  C  C66  1  0.68868000  0.04363000  0.75000000  1.0
  C  C67  1  0.31133000  0.95637000  0.25000000  1.0
  C  C68  1  0.21809000  0.55821000  0.25000000  1.0
  C  C69  1  0.78192000  0.44180000  0.75000000  1.0
  C  C70  1  0.71809000  0.94179000  0.75000000  1.0
  C  C71  1  0.28192000  0.05820000  0.25000000  1.0
  C  C72  1  0.35411000  0.59007000  0.25000000  1.0
  C  C73  1  0.64589000  0.40993000  0.75000000  1.0
  C  C74  1  0.85411000  0.90993000  0.75000000  1.0
  C  C75  1  0.14590000  0.09007000  0.25000000  1.0
  C  C76  1  0.46050000  0.52093000  0.25000000  1.0
  C  C77  1  0.53950000  0.47907000  0.75000000  1.0
  C  C78  1  0.96050000  0.97907000  0.75000000  1.0
  C  C79  1  0.03950000  0.02093000  0.25000000  1.0
  C  C80  1  0.43255000  0.41905000  0.25000000  1.0
  C  C81  1  0.56745000  0.58095000  0.75000000  1.0
  C  C82  1  0.93255000  0.08096000  0.75000000  1.0
  C  C83  1  0.06745000  0.91904000  0.25000000  1.0
  C  C84  1  0.29584000  0.38721000  0.25000000  1.0
  C  C85  1  0.70417000  0.61279000  0.75000000  1.0
  C  C86  1  0.79584000  0.11279000  0.75000000  1.0
  C  C87  1  0.20417000  0.88721000  0.25000000  1.0
  C  C88  1  0.54806000  0.34505000  0.25000000  1.0
  C  C89  1  0.45194000  0.65495000  0.75000000  1.0
  C  C90  1  0.04806000  0.15495000  0.75000000  1.0
  C  C91  1  0.95195000  0.84504000  0.25000000  1.0
  C  C92  1  0.74060000  0.12144000  0.32912000  1.0
  C  C93  1  0.25940000  0.87856000  0.82912000  1.0
  C  C94  1  0.24061000  0.37857000  0.67088000  1.0
  C  C95  1  0.75940000  0.62144000  0.17088000  1.0
  C  C96  1  0.25939000  0.87857000  0.67088000  1.0
  C  C97  1  0.74061000  0.12143000  0.17088000  1.0
  C  C98  1  0.75941000  0.62143000  0.32912000  1.0
  C  C99  1  0.24059000  0.37856000  0.82912000  1.0
  C  C100  1  0.72641000  0.96189000  0.38628000  1.0
  C  C101  1  0.27356000  0.03812000  0.88627000  1.0
  C  C102  1  0.22645000  0.53813000  0.61373000  1.0
  C  C103  1  0.77356000  0.46187000  0.11373000  1.0
  C  C104  1  0.27353000  0.03815000  0.61374000  1.0
  C  C105  1  0.72645000  0.96186000  0.11373000  1.0
  C  C106  1  0.77357000  0.46187000  0.38626000  1.0
  C  C107  1  0.22643000  0.53812000  0.88627000  1.0
  C  C108  1  0.62931000  0.97335000  0.43661000  1.0
  C  C109  1  0.37067000  0.02667000  0.93661000  1.0
  C  C110  1  0.12934000  0.52669000  0.56339000  1.0
  C  C111  1  0.87067000  0.47329000  0.06339000  1.0
  C  C112  1  0.37063000  0.02674000  0.56340000  1.0
  C  C113  1  0.62935000  0.97328000  0.06339000  1.0
  C  C114  1  0.87067000  0.47331000  0.43660000  1.0
  C  C115  1  0.12933000  0.52668000  0.93660000  1.0
  C  C116  1  0.54627000  0.99066000  0.47740000  1.0
  C  C117  1  0.45371000  0.00937000  0.97740000  1.0
  C  C118  1  0.04629000  0.50941000  0.52260000  1.0
  C  C119  1  0.95371000  0.49059000  0.02261000  1.0
  C  C120  1  0.45369000  0.00946000  0.52261000  1.0
  C  C121  1  0.54629000  0.99057000  0.02261000  1.0
  C  C122  1  0.95371000  0.49059000  0.47739000  1.0
  C  C123  1  0.04629000  0.50939000  0.97740000  1.0
  C  C124  1  0.91105000  0.09539000  0.39513000  1.0
  C  C125  1  0.08895000  0.90460000  0.89513000  1.0
  C  C126  1  0.41106000  0.40460000  0.60487000  1.0
  C  C127  1  0.58895000  0.59540000  0.10487000  1.0
  C  C128  1  0.08895000  0.90460000  0.60487000  1.0
  C  C129  1  0.91105000  0.09539000  0.10487000  1.0
  C  C130  1  0.58896000  0.59539000  0.39513000  1.0
  C  C131  1  0.41105000  0.40461000  0.89512000  1.0
  C  C132  1  0.93038000  0.18448000  0.36595000  1.0
  C  C133  1  0.06962000  0.81552000  0.86595000  1.0
  C  C134  1  0.43039000  0.31552000  0.63405000  1.0
  C  C135  1  0.56962000  0.68449000  0.13405000  1.0
  C  C136  1  0.06962000  0.81552000  0.63404000  1.0
  C  C137  1  0.93038000  0.18448000  0.13405000  1.0
  C  C138  1  0.56963000  0.68448000  0.36595000  1.0
  C  C139  1  0.43038000  0.31551000  0.86595000  1.0
  N  N140  1  0.82344000  0.19973000  0.32495000  1.0
  N  N141  1  0.17656000  0.80027000  0.82495000  1.0
  N  N142  1  0.32344000  0.30027000  0.67505000  1.0
  N  N143  1  0.67656000  0.69974000  0.17505000  1.0
  N  N144  1  0.17657000  0.80027000  0.67505000  1.0
  N  N145  1  0.82344000  0.19973000  0.17505000  1.0
  N  N146  1  0.67657000  0.69973000  0.32495000  1.0
  N  N147  1  0.32344000  0.30026000  0.82495000  1.0
  N  N148  1  0.79164000  0.05639000  0.37070000  1.0
  N  N149  1  0.20835000  0.94361000  0.87070000  1.0
  N  N150  1  0.29166000  0.44361000  0.62930000  1.0
  N  N151  1  0.70835000  0.55639000  0.12930000  1.0
  N  N152  1  0.20834000  0.94361000  0.62931000  1.0
  N  N153  1  0.79165000  0.05639000  0.12931000  1.0
  N  N154  1  0.70836000  0.55639000  0.37069000  1.0
  N  N155  1  0.29164000  0.44361000  0.87069000  1.0
  O  O156  1  0.01881000  0.32931000  0.25000000  1.0
  O  O157  1  0.98119000  0.67069000  0.75000000  1.0
  O  O158  1  0.51881000  0.17069000  0.75000000  1.0
  O  O159  1  0.48119000  0.82930000  0.25000000  1.0
  O  O160  1  0.94709000  0.48731000  0.24999000  1.0
  O  O161  1  0.05291000  0.51270000  0.75000000  1.0
  O  O162  1  0.44710000  0.01270000  0.74999000  1.0
  O  O163  1  0.55291000  0.98730000  0.25000000  1.0
  O  O164  1  0.67053000  0.38515000  0.25000000  1.0
  O  O165  1  0.32948000  0.61485000  0.75000000  1.0
  O  O166  1  0.17052000  0.11485000  0.75000000  1.0
  O  O167  1  0.82948000  0.88514000  0.25000000  1.0
  O  O168  1  0.52615000  0.25395000  0.25000000  1.0
  O  O169  1  0.47385000  0.74605000  0.75000000  1.0
  O  O170  1  0.02615000  0.24605000  0.75000000  1.0
  O  O171  1  0.97386000  0.75394000  0.25000000  1.0
