# generated using pymatgen
data_AgH11C18S2(N3O)2
_symmetry_space_group_name_H-M   'P 1'
_cell_length_a   10.77000000
_cell_length_b   12.87370000
_cell_length_c   15.81290000
_cell_angle_alpha   89.99950000
_cell_angle_beta   90.00000000
_cell_angle_gamma   112.37700000
_symmetry_Int_Tables_number   1
_chemical_formula_structural   AgH11C18S2(N3O)2
_chemical_formula_sum   'Ag4 H44 C72 S8 N24 O8'
_cell_volume   2027.36043861
_cell_formula_units_Z   4
loop_
 _symmetry_equiv_pos_site_id
 _symmetry_equiv_pos_as_xyz
  1  'x, y, z'
loop_
 _atom_site_type_symbol
 _atom_site_label
 _atom_site_symmetry_multiplicity
 _atom_site_fract_x
 _atom_site_fract_y
 _atom_site_fract_z
 _atom_site_occupancy
  Ag  Ag0  1  0.55826000  0.45808000  0.07557000  1.0
  Ag  Ag1  1  0.94173000  0.54192000  0.57557000  1.0
  Ag  Ag2  1  0.44172000  0.54192000  0.92443000  1.0
  Ag  Ag3  1  0.05827000  0.45808000  0.42443000  1.0
  H  H4  1  0.07589000  0.98316000  0.68383000  1.0
  H  H5  1  0.42411000  0.01684000  0.18382000  1.0
  H  H6  1  0.92411000  0.01683000  0.31618000  1.0
  H  H7  1  0.57590000  0.98317000  0.81617000  1.0
  H  H8  1  0.83762000  0.65237000  0.04017000  1.0
  H  H9  1  0.66238000  0.34762000  0.54017000  1.0
  H  H10  1  0.16238000  0.34763000  0.95984000  1.0
  H  H11  1  0.33762000  0.65238000  0.45984000  1.0
  H  H12  1  0.89991000  0.83036000  0.12069000  1.0
  H  H13  1  0.60009000  0.16964000  0.62068000  1.0
  H  H14  1  0.10008000  0.16964000  0.87931000  1.0
  H  H15  1  0.39993000  0.83036000  0.37931000  1.0
  H  H16  1  0.13704000  0.96496000  0.14001000  1.0
  H  H17  1  0.36295000  0.03505000  0.64001000  1.0
  H  H18  1  0.86295000  0.03504000  0.85998000  1.0
  H  H19  1  0.63706000  0.96495000  0.35999000  1.0
  H  H20  1  0.33238000  0.13192000  0.08797000  1.0
  H  H21  1  0.16762000  0.86808000  0.58797000  1.0
  H  H22  1  0.66762000  0.86807000  0.91202000  1.0
  H  H23  1  0.83241000  0.13191000  0.41203000  1.0
  H  H24  1  0.87022000  0.37629000  0.84102000  1.0
  H  H25  1  0.62977000  0.62370000  0.34102000  1.0
  H  H26  1  0.12978000  0.62372000  0.15898000  1.0
  H  H27  1  0.37022000  0.37629000  0.65898000  1.0
  H  H28  1  0.27020000  0.96043000  0.90629000  1.0
  H  H29  1  0.22980000  0.03957000  0.40628000  1.0
  H  H30  1  0.72981000  0.03958000  0.09371000  1.0
  H  H31  1  0.77020000  0.96043000  0.59371000  1.0
  H  H32  1  0.65873000  0.33928000  0.93024000  1.0
  H  H33  1  0.84127000  0.66071000  0.43024000  1.0
  H  H34  1  0.34128000  0.66073000  0.06977000  1.0
  H  H35  1  0.15873000  0.33929000  0.56976000  1.0
  H  H36  1  0.66158000  0.36537000  0.69499000  1.0
  H  H37  1  0.83841000  0.63463000  0.19499000  1.0
  H  H38  1  0.33839000  0.63462000  0.30502000  1.0
  H  H39  1  0.16160000  0.36538000  0.80502000  1.0
  H  H40  1  0.68796000  0.72103000  0.81643000  1.0
  H  H41  1  0.81203000  0.27896000  0.31643000  1.0
  H  H42  1  0.31204000  0.27897000  0.18357000  1.0
  H  H43  1  0.18795000  0.72104000  0.68357000  1.0
  H  H44  1  0.49769000  0.37411000  0.81243000  1.0
  H  H45  1  0.00230000  0.62589000  0.31244000  1.0
  H  H46  1  0.50228000  0.62590000  0.18756000  1.0
  H  H47  1  0.99770000  0.37410000  0.68757000  1.0
  C  C48  1  0.09135000  0.81273000  0.87474000  1.0
  C  C49  1  0.40864000  0.18727000  0.37474000  1.0
  C  C50  1  0.90865000  0.18727000  0.12527000  1.0
  C  C51  1  0.59136000  0.81273000  0.62526000  1.0
  C  C52  1  0.00560000  0.97043000  0.03739000  1.0
  C  C53  1  0.49441000  0.02957000  0.53739000  1.0
  C  C54  1  0.99440000  0.02957000  0.96260000  1.0
  C  C55  1  0.50561000  0.97043000  0.46260000  1.0
  C  C56  1  0.22616000  0.16081000  0.98094000  1.0
  C  C57  1  0.27384000  0.83919000  0.48094000  1.0
  C  C58  1  0.77382000  0.83919000  0.01905000  1.0
  C  C59  1  0.72618000  0.16080000  0.51906000  1.0
  C  C60  1  0.08209000  0.93362000  0.73859000  1.0
  C  C61  1  0.41792000  0.06638000  0.23859000  1.0
  C  C62  1  0.91791000  0.06637000  0.26141000  1.0
  C  C63  1  0.58209000  0.93363000  0.76141000  1.0
  C  C64  1  0.84682000  0.59064000  0.99604000  1.0
  C  C65  1  0.65317000  0.40935000  0.49604000  1.0
  C  C66  1  0.15318000  0.40936000  0.00397000  1.0
  C  C67  1  0.34683000  0.59065000  0.50396000  1.0
  C  C68  1  0.89357000  0.87522000  0.06338000  1.0
  C  C69  1  0.60644000  0.12477000  0.56338000  1.0
  C  C70  1  0.10642000  0.12478000  0.93661000  1.0
  C  C71  1  0.39358000  0.87522000  0.43661000  1.0
  C  C72  1  0.34560000  0.26181000  0.95145000  1.0
  C  C73  1  0.15440000  0.73819000  0.45145000  1.0
  C  C74  1  0.65438000  0.73818000  0.04854000  1.0
  C  C75  1  0.84562000  0.26181000  0.54855000  1.0
  C  C76  1  0.12896000  0.00948000  0.08273000  1.0
  C  C77  1  0.37105000  0.99052000  0.58273000  1.0
  C  C78  1  0.87103000  0.99052000  0.91726000  1.0
  C  C79  1  0.62898000  0.00948000  0.41727000  1.0
  C  C80  1  0.98910000  0.82321000  0.75086000  1.0
  C  C81  1  0.51090000  0.17679000  0.25085000  1.0
  C  C82  1  0.01091000  0.17680000  0.24915000  1.0
  C  C83  1  0.48910000  0.82321000  0.74914000  1.0
  C  C84  1  0.23637000  0.10180000  0.05483000  1.0
  C  C85  1  0.26364000  0.89820000  0.55483000  1.0
  C  C86  1  0.76363000  0.89819000  0.94516000  1.0
  C  C87  1  0.73639000  0.10180000  0.44517000  1.0
  C  C88  1  0.96264000  0.60950000  0.94842000  1.0
  C  C89  1  0.53735000  0.39049000  0.44842000  1.0
  C  C90  1  0.03736000  0.39051000  0.05159000  1.0
  C  C91  1  0.46264000  0.60950000  0.55158000  1.0
  C  C92  1  0.86410000  0.43836000  0.88623000  1.0
  C  C93  1  0.63589000  0.56163000  0.38623000  1.0
  C  C94  1  0.13590000  0.56164000  0.11377000  1.0
  C  C95  1  0.36411000  0.43837000  0.61377000  1.0
  C  C96  1  0.18885000  0.92137000  0.86128000  1.0
  C  C97  1  0.31115000  0.07862000  0.36128000  1.0
  C  C98  1  0.81116000  0.07863000  0.13873000  1.0
  C  C99  1  0.68885000  0.92137000  0.63872000  1.0
  C  C100  1  0.74792000  0.41690000  0.93420000  1.0
  C  C101  1  0.75207000  0.58309000  0.43420000  1.0
  C  C102  1  0.25208000  0.58311000  0.06580000  1.0
  C  C103  1  0.24792000  0.41691000  0.56580000  1.0
  C  C104  1  0.76248000  0.63621000  0.72112000  1.0
  C  C105  1  0.73752000  0.36379000  0.22112000  1.0
  C  C106  1  0.23752000  0.36379000  0.27889000  1.0
  C  C107  1  0.26248000  0.63622000  0.77888000  1.0
  C  C108  1  0.66342000  0.44451000  0.72131000  1.0
  C  C109  1  0.83658000  0.55549000  0.22131000  1.0
  C  C110  1  0.33657000  0.55549000  0.27870000  1.0
  C  C111  1  0.16343000  0.44451000  0.77869000  1.0
  C  C112  1  0.67953000  0.64140000  0.78811000  1.0
  C  C113  1  0.82046000  0.35859000  0.28811000  1.0
  C  C114  1  0.32046000  0.35860000  0.21190000  1.0
  C  C115  1  0.17953000  0.64141000  0.71189000  1.0
  C  C116  1  0.57688000  0.44829000  0.78561000  1.0
  C  C117  1  0.92311000  0.55171000  0.28561000  1.0
  C  C118  1  0.42310000  0.55171000  0.21439000  1.0
  C  C119  1  0.07689000  0.44829000  0.71439000  1.0
  S  S120  1  0.10393000  0.73709000  0.96509000  1.0
  S  S121  1  0.39606000  0.26290000  0.46508000  1.0
  S  S122  1  0.89606000  0.26291000  0.03493000  1.0
  S  S123  1  0.60394000  0.73709000  0.53492000  1.0
  S  S124  1  0.87375000  0.75886000  0.66941000  1.0
  S  S125  1  0.62625000  0.24114000  0.16941000  1.0
  S  S126  1  0.12625000  0.24113000  0.33060000  1.0
  S  S127  1  0.37375000  0.75887000  0.83058000  1.0
  N  N128  1  0.99291000  0.76395000  0.81946000  1.0
  N  N129  1  0.50708000  0.23605000  0.31945000  1.0
  N  N130  1  0.00709000  0.23606000  0.18056000  1.0
  N  N131  1  0.49291000  0.76394000  0.68055000  1.0
  N  N132  1  0.73957000  0.49417000  0.98824000  1.0
  N  N133  1  0.76043000  0.50582000  0.48824000  1.0
  N  N134  1  0.26043000  0.50584000  0.01176000  1.0
  N  N135  1  0.23957000  0.49418000  0.51176000  1.0
  N  N136  1  0.18226000  0.98083000  0.79350000  1.0
  N  N137  1  0.31774000  0.01917000  0.29349000  1.0
  N  N138  1  0.81774000  0.01917000  0.20651000  1.0
  N  N139  1  0.68226000  0.98083000  0.70650000  1.0
  N  N140  1  0.97203000  0.53419000  0.89318000  1.0
  N  N141  1  0.52796000  0.46580000  0.39318000  1.0
  N  N142  1  0.02798000  0.46581000  0.10682000  1.0
  N  N143  1  0.47203000  0.53419000  0.60681000  1.0
  N  N144  1  0.75648000  0.53840000  0.68947000  1.0
  N  N145  1  0.74352000  0.46160000  0.18947000  1.0
  N  N146  1  0.24352000  0.46160000  0.31054000  1.0
  N  N147  1  0.25648000  0.53841000  0.81053000  1.0
  N  N148  1  0.58736000  0.54725000  0.81992000  1.0
  N  N149  1  0.91264000  0.45275000  0.31993000  1.0
  N  N150  1  0.41263000  0.45275000  0.18008000  1.0
  N  N151  1  0.08735000  0.54725000  0.68008000  1.0
  O  O152  1  0.32615000  0.31969000  0.89122000  1.0
  O  O153  1  0.17385000  0.68032000  0.39122000  1.0
  O  O154  1  0.67384000  0.68031000  0.10877000  1.0
  O  O155  1  0.82616000  0.31969000  0.60878000  1.0
  O  O156  1  0.45612000  0.28208000  0.99015000  1.0
  O  O157  1  0.04388000  0.71792000  0.49014000  1.0
  O  O158  1  0.54387000  0.71792000  0.00985000  1.0
  O  O159  1  0.95614000  0.28208000  0.50985000  1.0
