# generated using pymatgen
data_Ba2ZnH14(C3O8)2
_symmetry_space_group_name_H-M   'P 1'
_cell_length_a   6.88898000
_cell_length_b   7.19108000
_cell_length_c   8.95994000
_cell_angle_alpha   82.21130000
_cell_angle_beta   71.35210000
_cell_angle_gamma   79.93690000
_symmetry_Int_Tables_number   1
_chemical_formula_structural   Ba2ZnH14(C3O8)2
_chemical_formula_sum   'Ba2 Zn1 H14 C6 O16'
_cell_volume   412.58390644
_cell_formula_units_Z   1
loop_
 _symmetry_equiv_pos_site_id
 _symmetry_equiv_pos_as_xyz
  1  'x, y, z'
loop_
 _atom_site_type_symbol
 _atom_site_label
 _atom_site_symmetry_multiplicity
 _atom_site_fract_x
 _atom_site_fract_y
 _atom_site_fract_z
 _atom_site_occupancy
  Ba  Ba0  1  0.09269000  0.73302000  0.35824000  1.0
  Ba  Ba1  1  0.90731000  0.26698000  0.64176000  1.0
  Zn  Zn2  1  0.00000000  0.00000000  0.00000000  1.0
  H  H3  1  0.59221000  0.88667000  0.07278000  1.0
  H  H4  1  0.40779000  0.11333000  0.92722000  1.0
  H  H5  1  0.03135000  0.36652000  0.09213000  1.0
  H  H6  1  0.96865000  0.63348000  0.90787000  1.0
  H  H7  1  0.47336000  0.38491000  0.11488000  1.0
  H  H8  1  0.52665000  0.61509000  0.88512000  1.0
  H  H9  1  0.34899000  0.05130000  0.42476000  1.0
  H  H10  1  0.65100000  0.94870000  0.57524000  1.0
  H  H11  1  0.30242000  0.92674000  0.59020000  1.0
  H  H12  1  0.69758000  0.07326000  0.40980000  1.0
  H  H13  1  0.39128000  0.34814000  0.42027000  1.0
  H  H14  1  0.60872000  0.65186000  0.57973000  1.0
  H  H15  1  0.35700000  0.40266000  0.59267000  1.0
  H  H16  1  0.64300000  0.59734000  0.40733000  1.0
  C  C17  1  0.64982000  0.79312000  0.16324000  1.0
  C  C18  1  0.35018000  0.20688000  0.83677000  1.0
  C  C19  1  0.05948000  0.27359000  0.19495000  1.0
  C  C20  1  0.94052000  0.72640000  0.80505000  1.0
  C  C21  1  0.59170000  0.26715000  0.13615000  1.0
  C  C22  1  0.40830000  0.73285000  0.86385000  1.0
  O  O23  1  0.83290000  0.80432000  0.16358000  1.0
  O  O24  1  0.16710000  0.19567000  0.83642000  1.0
  O  O25  1  0.53234000  0.68387000  0.25659000  1.0
  O  O26  1  0.46766000  0.31613000  0.74341000  1.0
  O  O27  1  0.07163000  0.35047000  0.30879000  1.0
  O  O28  1  0.92836000  0.64952000  0.69121000  1.0
  O  O29  1  0.07835000  0.09467000  0.18594000  1.0
  O  O30  1  0.92165000  0.90533000  0.81406000  1.0
  O  O31  1  0.73926000  0.21808000  0.01465000  1.0
  O  O32  1  0.26074000  0.78193000  0.98534000  1.0
  O  O33  1  0.56480000  0.19671000  0.27798000  1.0
  O  O34  1  0.43521000  0.80329000  0.72202000  1.0
  O  O35  1  0.24399000  0.98334000  0.50361000  1.0
  O  O36  1  0.75601000  0.01666000  0.49639000  1.0
  O  O37  1  0.29100000  0.41991000  0.50664000  1.0
  O  O38  1  0.70900000  0.58009000  0.49336000  1.0
