# generated using pymatgen
data_ZnH7C3N(ClO)2
_symmetry_space_group_name_H-M   'P 1'
_cell_length_a   6.95227000
_cell_length_b   7.58550000
_cell_length_c   12.76920000
_cell_angle_alpha   89.99990000
_cell_angle_beta   90.00050000
_cell_angle_gamma   89.99970000
_symmetry_Int_Tables_number   1
_chemical_formula_structural   ZnH7C3N(ClO)2
_chemical_formula_sum   'Zn4 H28 C12 N4 Cl8 O8'
_cell_volume   673.40220177
_cell_formula_units_Z   4
loop_
 _symmetry_equiv_pos_site_id
 _symmetry_equiv_pos_as_xyz
  1  'x, y, z'
loop_
 _atom_site_type_symbol
 _atom_site_label
 _atom_site_symmetry_multiplicity
 _atom_site_fract_x
 _atom_site_fract_y
 _atom_site_fract_z
 _atom_site_occupancy
  Zn  Zn0  1  0.39594000  0.45733000  0.72804000  1.0
  Zn  Zn1  1  0.60407000  0.95732000  0.27196000  1.0
  Zn  Zn2  1  0.89594000  0.45733000  0.77195000  1.0
  Zn  Zn3  1  0.10407000  0.95732000  0.22805000  1.0
  H  H4  1  0.55764000  0.48899000  0.42986000  1.0
  H  H5  1  0.44236000  0.98898000  0.57014000  1.0
  H  H6  1  0.05765000  0.48898000  0.07014000  1.0
  H  H7  1  0.94235000  0.98898000  0.92986000  1.0
  H  H8  1  0.70225000  0.66566000  0.42348000  1.0
  H  H9  1  0.29775000  0.16566000  0.57652000  1.0
  H  H10  1  0.20225000  0.66566000  0.07652000  1.0
  H  H11  1  0.79775000  0.16566000  0.92348000  1.0
  H  H12  1  0.69817000  0.54561000  0.53233000  1.0
  H  H13  1  0.30183000  0.04561000  0.46767000  1.0
  H  H14  1  0.19817000  0.54561000  0.96767000  1.0
  H  H15  1  0.80182000  0.04561000  0.03233000  1.0
  H  H16  1  0.14615000  0.38131000  0.39851000  1.0
  H  H17  1  0.85385000  0.88131000  0.60149000  1.0
  H  H18  1  0.64616000  0.38132000  0.10148000  1.0
  H  H19  1  0.35385000  0.88132000  0.89851000  1.0
  H  H20  1  0.08168000  0.60271000  0.41126000  1.0
  H  H21  1  0.91831000  0.10271000  0.58874000  1.0
  H  H22  1  0.58169000  0.60271000  0.08874000  1.0
  H  H23  1  0.41830000  0.10271000  0.91126000  1.0
  H  H24  1  0.82909000  0.41687000  0.32353000  1.0
  H  H25  1  0.17091000  0.91688000  0.67647000  1.0
  H  H26  1  0.32910000  0.41689000  0.17647000  1.0
  H  H27  1  0.67090000  0.91688000  0.82353000  1.0
  H  H28  1  0.80605000  0.28634000  0.43699000  1.0
  H  H29  1  0.19395000  0.78634000  0.56301000  1.0
  H  H30  1  0.30606000  0.28634000  0.06302000  1.0
  H  H31  1  0.69394000  0.78634000  0.93698000  1.0
  C  C32  1  0.08609000  0.46372000  0.55618000  1.0
  C  C33  1  0.91391000  0.96372000  0.44383000  1.0
  C  C34  1  0.58609000  0.46373000  0.94382000  1.0
  C  C35  1  0.41391000  0.96372000  0.05618000  1.0
  C  C36  1  0.04596000  0.46939000  0.43965000  1.0
  C  C37  1  0.95405000  0.96939000  0.56035000  1.0
  C  C38  1  0.54596000  0.46940000  0.06035000  1.0
  C  C39  1  0.45404000  0.96939000  0.93965000  1.0
  C  C40  1  0.84263000  0.41832000  0.40886000  1.0
  C  C41  1  0.15737000  0.91832000  0.59115000  1.0
  C  C42  1  0.34263000  0.41832000  0.09114000  1.0
  C  C43  1  0.65736000  0.91832000  0.90885000  1.0
  N  N44  1  0.69057000  0.53756000  0.45121000  1.0
  N  N45  1  0.30943000  0.03756000  0.54879000  1.0
  N  N46  1  0.19057000  0.53756000  0.04879000  1.0
  N  N47  1  0.80943000  0.03756000  0.95121000  1.0
  Cl  Cl48  1  0.54714000  0.71383000  0.67050000  1.0
  Cl  Cl49  1  0.45287000  0.21383000  0.32950000  1.0
  Cl  Cl50  1  0.04714000  0.71383000  0.82950000  1.0
  Cl  Cl51  1  0.95286000  0.21382000  0.17050000  1.0
  Cl  Cl52  1  0.63905000  0.24733000  0.69979000  1.0
  Cl  Cl53  1  0.36095000  0.74732000  0.30021000  1.0
  Cl  Cl54  1  0.13905000  0.24733000  0.80021000  1.0
  Cl  Cl55  1  0.86095000  0.74732000  0.19980000  1.0
  O  O56  1  0.25588000  0.42047000  0.58541000  1.0
  O  O57  1  0.74412000  0.92047000  0.41459000  1.0
  O  O58  1  0.75588000  0.42047000  0.91458000  1.0
  O  O59  1  0.24412000  0.92047000  0.08542000  1.0
  O  O60  1  0.94758000  0.50568000  0.61613000  1.0
  O  O61  1  0.05242000  0.00567000  0.38387000  1.0
  O  O62  1  0.44759000  0.50567000  0.88387000  1.0
  O  O63  1  0.55241000  0.00565000  0.11613000  1.0
