# generated using pymatgen
data_InH12C24(NO2)2
_symmetry_space_group_name_H-M   'P 1'
_cell_length_a   7.50069000
_cell_length_b   12.83630000
_cell_length_c   30.78070000
_cell_angle_alpha   88.52620000
_cell_angle_beta   84.89730000
_cell_angle_gamma   73.03270000
_symmetry_Int_Tables_number   1
_chemical_formula_structural   InH12C24(NO2)2
_chemical_formula_sum   'In4 H48 C96 N8 O16'
_cell_volume   2823.36475156
_cell_formula_units_Z   4
loop_
 _symmetry_equiv_pos_site_id
 _symmetry_equiv_pos_as_xyz
  1  'x, y, z'
loop_
 _atom_site_type_symbol
 _atom_site_label
 _atom_site_symmetry_multiplicity
 _atom_site_fract_x
 _atom_site_fract_y
 _atom_site_fract_z
 _atom_site_occupancy
  In  In0  1  0.34782000  0.30542000  0.25004000  1.0
  In  In1  1  0.65220000  0.69458000  0.74995000  1.0
  In  In2  1  0.49991000  0.00003000  0.00001000  1.0
  In  In3  1  0.50004000  0.00001000  0.49999000  1.0
  H  H4  1  0.05881000  0.63482000  0.16488000  1.0
  H  H5  1  0.63768000  0.45965000  0.13737000  1.0
  H  H6  1  0.09612000  0.78206000  0.11262000  1.0
  H  H7  1  0.16391000  0.01415000  0.06949000  1.0
  H  H8  1  0.84712000  0.20306000  0.20687000  1.0
  H  H9  1  0.35174000  0.06759000  0.12446000  1.0
  H  H10  1  0.67824000  0.60573000  0.08504000  1.0
  H  H11  1  0.59766000  0.77592000  0.14786000  1.0
  H  H12  1  0.79644000  0.91860000  0.15219000  1.0
  H  H13  1  0.82104000  0.31670000  0.97023000  1.0
  H  H14  1  0.93398000  0.23133000  0.04767000  1.0
  H  H15  1  0.66104000  0.14935000  0.15369000  1.0
  H  H16  1  0.30686000  0.63505000  0.33510000  1.0
  H  H17  1  0.90313000  0.45974000  0.36247000  1.0
  H  H18  1  0.12209000  0.78233000  0.38733000  1.0
  H  H19  1  0.82197000  0.01419000  0.43055000  1.0
  H  H20  1  0.95068000  0.20278000  0.29315000  1.0
  H  H21  1  0.58064000  0.06797000  0.37561000  1.0
  H  H22  1  0.71644000  0.60576000  0.41485000  1.0
  H  H23  1  0.62683000  0.77583000  0.35210000  1.0
  H  H24  1  0.28544000  0.91843000  0.34779000  1.0
  H  H25  1  0.86224000  0.31645000  0.52980000  1.0
  H  H26  1  0.83489000  0.23106000  0.45233000  1.0
  H  H27  1  0.19038000  0.14887000  0.34635000  1.0
  H  H28  1  0.94119000  0.36516000  0.83513000  1.0
  H  H29  1  0.36232000  0.54037000  0.86262000  1.0
  H  H30  1  0.90382000  0.21794000  0.88739000  1.0
  H  H31  1  0.83601000  0.98584000  0.93051000  1.0
  H  H32  1  0.15290000  0.79694000  0.79314000  1.0
  H  H33  1  0.64823000  0.93239000  0.87554000  1.0
  H  H34  1  0.32172000  0.39430000  0.91495000  1.0
  H  H35  1  0.40240000  0.22403000  0.85213000  1.0
  H  H36  1  0.20361000  0.08136000  0.84781000  1.0
  H  H37  1  0.17902000  0.68326000  0.02976000  1.0
  H  H38  1  0.06608000  0.76863000  0.95232000  1.0
  H  H39  1  0.33894000  0.85065000  0.84633000  1.0
  H  H40  1  0.69317000  0.36494000  0.66490000  1.0
  H  H41  1  0.09691000  0.54025000  0.63753000  1.0
  H  H42  1  0.87794000  0.21766000  0.61267000  1.0
  H  H43  1  0.17806000  0.98581000  0.56944000  1.0
  H  H44  1  0.04934000  0.79723000  0.70685000  1.0
  H  H45  1  0.41938000  0.93205000  0.62439000  1.0
  H  H46  1  0.28360000  0.39422000  0.58515000  1.0
  H  H47  1  0.37320000  0.22415000  0.64790000  1.0
  H  H48  1  0.71460000  0.08156000  0.65221000  1.0
  H  H49  1  0.13778000  0.68352000  0.47020000  1.0
  H  H50  1  0.16512000  0.76892000  0.54768000  1.0
  H  H51  1  0.80964000  0.85113000  0.65365000  1.0
  C  C52  1  0.32777000  0.45523000  0.18707000  1.0
  C  C53  1  0.38968000  0.70315000  0.09562000  1.0
  C  C54  1  0.19271000  0.62916000  0.14660000  1.0
  C  C55  1  0.34612000  0.53925000  0.15382000  1.0
  C  C56  1  0.70511000  0.96841000  0.08550000  1.0
  C  C57  1  0.52037000  0.53024000  0.13115000  1.0
  C  C58  1  0.21403000  0.71053000  0.11751000  1.0
  C  C59  1  0.53812000  0.84918000  0.08176000  1.0
  C  C60  1  0.11095000  0.13823000  0.16852000  1.0
  C  C61  1  0.90109000  0.07962000  0.10775000  1.0
  C  C62  1  0.77022000  0.11553000  0.03620000  1.0
  C  C63  1  0.09605000  0.05623000  0.09959000  1.0
  C  C64  1  0.91682000  0.16087000  0.17697000  1.0
  C  C65  1  0.20045000  0.08478000  0.12993000  1.0
  C  C66  1  0.41856000  0.79280000  0.06700000  1.0
  C  C67  1  0.54211000  0.61175000  0.10234000  1.0
  C  C68  1  0.61895000  0.83370000  0.12307000  1.0
  C  C69  1  0.78819000  0.05226000  0.07471000  1.0
  C  C70  1  0.67455000  0.18714000  0.97165000  1.0
  C  C71  1  0.72086000  0.90618000  0.12527000  1.0
  C  C72  1  0.79052000  0.24779000  0.98706000  1.0
  C  C73  1  0.84853000  0.20423000  0.02642000  1.0
  C  C74  1  0.81224000  0.13096000  0.14685000  1.0
  C  C75  1  0.22266000  0.17737000  0.19881000  1.0
  C  C76  1  0.21757000  0.45521000  0.31294000  1.0
  C  C77  1  0.90756000  0.70325000  0.40432000  1.0
  C  C78  1  0.17859000  0.62938000  0.35336000  1.0
  C  C79  1  0.11513000  0.53941000  0.34612000  1.0
  C  C80  1  0.32676000  0.96816000  0.41452000  1.0
  C  C81  1  0.94984000  0.53035000  0.36874000  1.0
  C  C82  1  0.07579000  0.71074000  0.38243000  1.0
  C  C83  1  0.61292000  0.84904000  0.41824000  1.0
  C  C84  1  0.75130000  0.13827000  0.33154000  1.0
  C  C85  1  0.01968000  0.07937000  0.39227000  1.0
  C  C86  1  0.11431000  0.11525000  0.46383000  1.0
  C  C87  1  0.84790000  0.05620000  0.40044000  1.0
  C  C88  1  0.92302000  0.16067000  0.32307000  1.0
  C  C89  1  0.71494000  0.08494000  0.37013000  1.0
  C  C90  1  0.78890000  0.79281000  0.43296000  1.0
  C  C91  1  0.84655000  0.61182000  0.39757000  1.0
  C  C92  1  0.54769000  0.83356000  0.37690000  1.0
  C  C93  1  0.15982000  0.05196000  0.42531000  1.0
  C  C94  1  0.13816000  0.18696000  0.52839000  1.0
  C  C95  1  0.37333000  0.90600000  0.37470000  1.0
  C  C96  1  0.96161000  0.24751000  0.51298000  1.0
  C  C97  1  0.94729000  0.20391000  0.47361000  1.0
  C  C98  1  0.05744000  0.13064000  0.35317000  1.0
  C  C99  1  0.60065000  0.17760000  0.30124000  1.0
  C  C100  1  0.67229000  0.54476000  0.81292000  1.0
  C  C101  1  0.61027000  0.29687000  0.90438000  1.0
  C  C102  1  0.80729000  0.37083000  0.85340000  1.0
  C  C103  1  0.65388000  0.46075000  0.84618000  1.0
  C  C104  1  0.29479000  0.03163000  0.91451000  1.0
  C  C105  1  0.47963000  0.46979000  0.86885000  1.0
  C  C106  1  0.78593000  0.28947000  0.88249000  1.0
  C  C107  1  0.46179000  0.15085000  0.91825000  1.0
  C  C108  1  0.88904000  0.86176000  0.83148000  1.0
  C  C109  1  0.09885000  0.92039000  0.89226000  1.0
  C  C110  1  0.22967000  0.88451000  0.96381000  1.0
  C  C111  1  0.90389000  0.94377000  0.90041000  1.0
  C  C112  1  0.08318000  0.83912000  0.82304000  1.0
  C  C113  1  0.79952000  0.91519000  0.87007000  1.0
  C  C114  1  0.58136000  0.20723000  0.93300000  1.0
  C  C115  1  0.45785000  0.38828000  0.89766000  1.0
  C  C116  1  0.38105000  0.16629000  0.87693000  1.0
  C  C117  1  0.21170000  0.94778000  0.92530000  1.0
  C  C118  1  0.32535000  0.81290000  0.02836000  1.0
  C  C119  1  0.27912000  0.09381000  0.87472000  1.0
  C  C120  1  0.20947000  0.75220000  0.01294000  1.0
  C  C121  1  0.15145000  0.79577000  0.97358000  1.0
  C  C122  1  0.18773000  0.86904000  0.85316000  1.0
  C  C123  1  0.77736000  0.82261000  0.80119000  1.0
  C  C124  1  0.78245000  0.54479000  0.68705000  1.0
  C  C125  1  0.09247000  0.29673000  0.59568000  1.0
  C  C126  1  0.82143000  0.37061000  0.64664000  1.0
  C  C127  1  0.88489000  0.46059000  0.65388000  1.0
  C  C128  1  0.67328000  0.03183000  0.58548000  1.0
  C  C129  1  0.05019000  0.46964000  0.63126000  1.0
  C  C130  1  0.92423000  0.28925000  0.61757000  1.0
  C  C131  1  0.38711000  0.15095000  0.58176000  1.0
  C  C132  1  0.24871000  0.86175000  0.66846000  1.0
  C  C133  1  0.98035000  0.92063000  0.60773000  1.0
  C  C134  1  0.88572000  0.88474000  0.53617000  1.0
  C  C135  1  0.15213000  0.94380000  0.59956000  1.0
  C  C136  1  0.07700000  0.83935000  0.67693000  1.0
  C  C137  1  0.28508000  0.91508000  0.62987000  1.0
  C  C138  1  0.21112000  0.20718000  0.56704000  1.0
  C  C139  1  0.15348000  0.38816000  0.60243000  1.0
  C  C140  1  0.45235000  0.16643000  0.62310000  1.0
  C  C141  1  0.84021000  0.94804000  0.57468000  1.0
  C  C142  1  0.86187000  0.81303000  0.47161000  1.0
  C  C143  1  0.62670000  0.09399000  0.62529000  1.0
  C  C144  1  0.03841000  0.75247000  0.48702000  1.0
  C  C145  1  0.05273000  0.79607000  0.52639000  1.0
  C  C146  1  0.94259000  0.86936000  0.64682000  1.0
  C  C147  1  0.39936000  0.82241000  0.69876000  1.0
  N  N148  1  0.66612000  0.10703000  0.00214000  1.0
  N  N149  1  0.59308000  0.93169000  0.05975000  1.0
  N  N150  1  0.22680000  0.10685000  0.49790000  1.0
  N  N151  1  0.47537000  0.93145000  0.44028000  1.0
  N  N152  1  0.33372000  0.89303000  0.99787000  1.0
  N  N153  1  0.40677000  0.06837000  0.94027000  1.0
  N  N154  1  0.77323000  0.89314000  0.50210000  1.0
  N  N155  1  0.52466000  0.06854000  0.55972000  1.0
  O  O156  1  0.39673000  0.16066000  0.19042000  1.0
  O  O157  1  0.13264000  0.23373000  0.23218000  1.0
  O  O158  1  0.17188000  0.46189000  0.20799000  1.0
  O  O159  1  0.47708000  0.37854000  0.19398000  1.0
  O  O160  1  0.44265000  0.16169000  0.30976000  1.0
  O  O161  1  0.63501000  0.23328000  0.26774000  1.0
  O  O162  1  0.36785000  0.46115000  0.29231000  1.0
  O  O163  1  0.14400000  0.37906000  0.30582000  1.0
  O  O164  1  0.60327000  0.83933000  0.80957000  1.0
  O  O165  1  0.86738000  0.76626000  0.76782000  1.0
  O  O166  1  0.82816000  0.53809000  0.79201000  1.0
  O  O167  1  0.52297000  0.62145000  0.80600000  1.0
  O  O168  1  0.55737000  0.83831000  0.69025000  1.0
  O  O169  1  0.36499000  0.76674000  0.73226000  1.0
  O  O170  1  0.63215000  0.53887000  0.70768000  1.0
  O  O171  1  0.85604000  0.62094000  0.69418000  1.0
