# generated using pymatgen
data_Cu2H14C17(N5O2)2
_symmetry_space_group_name_H-M   'P 1'
_cell_length_a   9.32941000
_cell_length_b   9.47347000
_cell_length_c   14.53450000
_cell_angle_alpha   83.38310000
_cell_angle_beta   71.29900000
_cell_angle_gamma   89.99210000
_symmetry_Int_Tables_number   1
_chemical_formula_structural   Cu2H14C17(N5O2)2
_chemical_formula_sum   'Cu4 H28 C34 N20 O8'
_cell_volume   1207.73603454
_cell_formula_units_Z   2
loop_
 _symmetry_equiv_pos_site_id
 _symmetry_equiv_pos_as_xyz
  1  'x, y, z'
loop_
 _atom_site_type_symbol
 _atom_site_label
 _atom_site_symmetry_multiplicity
 _atom_site_fract_x
 _atom_site_fract_y
 _atom_site_fract_z
 _atom_site_occupancy
  Cu  Cu0  1  0.02076000  0.87477000  0.61705000  1.0
  Cu  Cu1  1  0.63761000  0.62525000  0.38315000  1.0
  Cu  Cu2  1  0.97923000  0.12511000  0.38318000  1.0
  Cu  Cu3  1  0.36243000  0.37473000  0.61686000  1.0
  H  H4  1  0.52654000  0.12988000  0.74542000  1.0
  H  H5  1  0.27163000  0.37011000  0.25477000  1.0
  H  H6  1  0.47354000  0.87007000  0.25453000  1.0
  H  H7  1  0.72835000  0.62986000  0.74523000  1.0
  H  H8  1  0.72197000  0.00820000  0.62541000  1.0
  H  H9  1  0.34705000  0.49213000  0.37470000  1.0
  H  H10  1  0.27813000  0.99175000  0.37458000  1.0
  H  H11  1  0.65283000  0.50786000  0.62534000  1.0
  H  H12  1  0.79380000  0.05921000  0.94005000  1.0
  H  H13  1  0.73348000  0.44041000  0.06031000  1.0
  H  H14  1  0.20623000  0.94080000  0.05994000  1.0
  H  H15  1  0.26653000  0.55966000  0.93975000  1.0
  H  H16  1  0.97566000  0.93426000  0.81295000  1.0
  H  H17  1  0.78828000  0.56546000  0.18740000  1.0
  H  H18  1  0.02430000  0.06566000  0.18713000  1.0
  H  H19  1  0.21167000  0.43451000  0.81275000  1.0
  H  H20  1  0.43142000  0.10075000  0.96855000  1.0
  H  H21  1  0.39988000  0.39907000  0.03156000  1.0
  H  H22  1  0.56861000  0.89924000  0.03143000  1.0
  H  H23  1  0.60015000  0.60094000  0.96845000  1.0
  H  H24  1  0.47174000  0.25833000  0.88799000  1.0
  H  H25  1  0.35947000  0.24155000  0.11217000  1.0
  H  H26  1  0.52827000  0.74167000  0.11200000  1.0
  H  H27  1  0.64057000  0.75846000  0.88784000  1.0
  H  H28  1  0.67092000  0.32825000  0.95830000  1.0
  H  H29  1  0.62894000  0.17142000  0.04212000  1.0
  H  H30  1  0.32910000  0.67175000  0.04169000  1.0
  H  H31  1  0.37109000  0.82857000  0.95787000  1.0
  C  C32  1  0.62445000  0.08873000  0.76400000  1.0
  C  C33  1  0.38812000  0.41123000  0.23621000  1.0
  C  C34  1  0.37564000  0.91126000  0.23597000  1.0
  C  C35  1  0.61185000  0.58879000  0.76380000  1.0
  C  C36  1  0.73270000  0.01911000  0.69667000  1.0
  C  C37  1  0.42903000  0.48092000  0.30353000  1.0
  C  C38  1  0.26738000  0.98085000  0.30333000  1.0
  C  C39  1  0.57088000  0.51908000  0.69653000  1.0
  C  C40  1  0.77092000  0.04895000  0.87217000  1.0
  C  C41  1  0.64276000  0.45075000  0.12816000  1.0
  C  C42  1  0.22910000  0.95106000  0.12783000  1.0
  C  C43  1  0.35723000  0.54929000  0.87190000  1.0
  C  C44  1  0.64214000  0.10549000  0.85431000  1.0
  C  C45  1  0.49613000  0.39429000  0.14598000  1.0
  C  C46  1  0.35789000  0.89452000  0.14567000  1.0
  C  C47  1  0.50388000  0.60574000  0.85405000  1.0
  C  C48  1  0.87379000  0.97875000  0.80198000  1.0
  C  C49  1  0.67544000  0.52099000  0.19834000  1.0
  C  C50  1  0.12622000  0.02118000  0.19806000  1.0
  C  C51  1  0.32451000  0.47899000  0.80176000  1.0
  C  C52  1  0.52376000  0.17937000  0.92783000  1.0
  C  C53  1  0.45138000  0.32042000  0.07239000  1.0
  C  C54  1  0.47626000  0.82064000  0.07215000  1.0
  C  C55  1  0.54866000  0.67959000  0.92762000  1.0
  C  C56  1  0.57945000  0.24985000  0.00017000  1.0
  C  C57  1  0.42057000  0.75015000  0.99983000  1.0
  C  C58  1  0.20694000  0.13385000  0.60117000  1.0
  C  C59  1  0.80834000  0.36630000  0.39892000  1.0
  C  C60  1  0.79289000  0.86628000  0.39877000  1.0
  C  C61  1  0.19176000  0.63376000  0.60106000  1.0
  C  C62  1  0.25975000  0.08735000  0.68627000  1.0
  C  C63  1  0.94622000  0.41244000  0.31372000  1.0
  C  C64  1  0.74012000  0.91253000  0.31361000  1.0
  C  C65  1  0.05403000  0.58730000  0.68625000  1.0
  N  N66  1  0.85520000  0.96476000  0.71530000  1.0
  N  N67  1  0.57020000  0.53513000  0.28495000  1.0
  N  N68  1  0.14484000  0.03512000  0.28473000  1.0
  N  N69  1  0.42971000  0.46481000  0.71513000  1.0
  N  N70  1  0.12097000  0.06693000  0.56066000  1.0
  N  N71  1  0.68200000  0.43339000  0.43923000  1.0
  N  N72  1  0.87893000  0.93326000  0.43918000  1.0
  N  N73  1  0.31827000  0.56690000  0.56055000  1.0
  N  N74  1  0.10536000  0.16112000  0.48773000  1.0
  N  N75  1  0.59308000  0.33916000  0.51215000  1.0
  N  N76  1  0.89464000  0.83904000  0.51222000  1.0
  N  N77  1  0.40682000  0.66124000  0.48777000  1.0
  N  N78  1  0.17955000  0.28171000  0.48369000  1.0
  N  N79  1  0.66298000  0.21856000  0.51626000  1.0
  N  N80  1  0.82047000  0.71856000  0.51633000  1.0
  N  N81  1  0.33664000  0.78185000  0.48382000  1.0
  N  N82  1  0.24335000  0.26549000  0.55433000  1.0
  N  N83  1  0.79766000  0.23466000  0.44575000  1.0
  N  N84  1  0.75648000  0.73473000  0.44569000  1.0
  N  N85  1  0.20216000  0.76548000  0.55437000  1.0
  O  O86  1  0.33415000  0.18901000  0.70631000  1.0
  O  O87  1  0.04042000  0.31052000  0.29384000  1.0
  O  O88  1  0.66576000  0.81070000  0.29369000  1.0
  O  O89  1  0.95977000  0.68910000  0.70645000  1.0
  O  O90  1  0.23109000  0.96529000  0.73041000  1.0
  O  O91  1  0.96188000  0.53430000  0.26932000  1.0
  O  O92  1  0.76876000  0.03448000  0.26930000  1.0
  O  O93  1  0.03851000  0.46525000  0.73038000  1.0
