# generated using pymatgen
data_MnH7C6N9O
_symmetry_space_group_name_H-M   'P 1'
_cell_length_a   9.52525000
_cell_length_b   10.27710000
_cell_length_c   10.87850000
_cell_angle_alpha   79.98800000
_cell_angle_beta   90.01370000
_cell_angle_gamma   90.00210000
_symmetry_Int_Tables_number   1
_chemical_formula_structural   MnH7C6N9O
_chemical_formula_sum   'Mn4 H28 C24 N36 O4'
_cell_volume   1048.70026990
_cell_formula_units_Z   4
loop_
 _symmetry_equiv_pos_site_id
 _symmetry_equiv_pos_as_xyz
  1  'x, y, z'
loop_
 _atom_site_type_symbol
 _atom_site_label
 _atom_site_symmetry_multiplicity
 _atom_site_fract_x
 _atom_site_fract_y
 _atom_site_fract_z
 _atom_site_occupancy
  Mn  Mn0  1  0.12185000  0.87613000  0.52535000  1.0
  Mn  Mn1  1  0.62182000  0.62384000  0.47470000  1.0
  Mn  Mn2  1  0.87818000  0.12382000  0.47473000  1.0
  Mn  Mn3  1  0.37812000  0.37609000  0.52542000  1.0
  H  H4  1  0.43530000  0.91607000  0.64254000  1.0
  H  H5  1  0.93534000  0.58391000  0.35748000  1.0
  H  H6  1  0.56471000  0.08395000  0.35746000  1.0
  H  H7  1  0.06467000  0.41609000  0.64251000  1.0
  H  H8  1  0.42934000  0.67047000  0.00927000  1.0
  H  H9  1  0.92923000  0.82953000  0.99079000  1.0
  H  H10  1  0.57066000  0.32954000  0.99072000  1.0
  H  H11  1  0.07077000  0.17049000  0.00922000  1.0
  H  H12  1  0.56224000  0.82991000  0.84811000  1.0
  H  H13  1  0.06220000  0.67009000  0.15194000  1.0
  H  H14  1  0.43775000  0.17009000  0.15188000  1.0
  H  H15  1  0.93780000  0.32991000  0.84805000  1.0
  H  H16  1  0.80719000  0.51868000  0.93485000  1.0
  H  H17  1  0.30714000  0.98136000  0.06513000  1.0
  H  H18  1  0.19282000  0.48135000  0.06514000  1.0
  H  H19  1  0.69287000  0.01865000  0.93487000  1.0
  H  H20  1  0.81979000  0.53902000  0.76698000  1.0
  H  H21  1  0.31978000  0.96097000  0.23301000  1.0
  H  H22  1  0.18023000  0.46098000  0.23302000  1.0
  H  H23  1  0.68020000  0.03901000  0.76698000  1.0
  H  H24  1  0.76924000  0.67608000  0.83795000  1.0
  H  H25  1  0.26925000  0.82393000  0.16201000  1.0
  H  H26  1  0.23074000  0.32395000  0.16203000  1.0
  H  H27  1  0.73077000  0.17608000  0.83797000  1.0
  H  H28  1  0.89331000  0.70910000  0.63843000  1.0
  H  H29  1  0.39334000  0.79089000  0.36154000  1.0
  H  H30  1  0.10668000  0.29090000  0.36156000  1.0
  H  H31  1  0.60667000  0.20907000  0.63844000  1.0
  C  C32  1  0.19120000  0.72917000  0.79274000  1.0
  C  C33  1  0.69118000  0.77083000  0.20726000  1.0
  C  C34  1  0.80881000  0.27084000  0.20726000  1.0
  C  C35  1  0.30881000  0.22916000  0.79275000  1.0
  C  C36  1  0.38668000  0.84831000  0.71908000  1.0
  C  C37  1  0.88670000  0.65169000  0.28092000  1.0
  C  C38  1  0.61334000  0.15171000  0.28090000  1.0
  C  C39  1  0.11329000  0.34832000  0.71908000  1.0
  C  C40  1  0.04385000  0.69305000  0.76500000  1.0
  C  C41  1  0.54385000  0.80695000  0.23501000  1.0
  C  C42  1  0.95615000  0.30697000  0.23500000  1.0
  C  C43  1  0.45615000  0.19304000  0.76500000  1.0
  C  C44  1  0.38131000  0.71450000  0.92078000  1.0
  C  C45  1  0.88122000  0.78552000  0.07925000  1.0
  C  C46  1  0.61870000  0.28551000  0.07920000  1.0
  C  C47  1  0.11878000  0.21450000  0.92076000  1.0
  C  C48  1  0.45504000  0.80144000  0.83086000  1.0
  C  C49  1  0.95501000  0.69857000  0.16918000  1.0
  C  C50  1  0.54494000  0.19856000  0.16915000  1.0
  C  C51  1  0.04498000  0.30144000  0.83084000  1.0
  C  C52  1  0.83415000  0.58654000  0.84907000  1.0
  C  C53  1  0.33414000  0.91349000  0.15091000  1.0
  C  C54  1  0.16583000  0.41349000  0.15091000  1.0
  C  C55  1  0.66587000  0.08652000  0.84908000  1.0
  N  N56  1  0.19169000  0.73430000  0.41888000  1.0
  N  N57  1  0.69164000  0.76573000  0.58114000  1.0
  N  N58  1  0.80833000  0.26571000  0.58110000  1.0
  N  N59  1  0.30834000  0.23428000  0.41884000  1.0
  N  N60  1  0.96851000  0.95994000  0.38571000  1.0
  N  N61  1  0.46852000  0.54007000  0.61428000  1.0
  N  N62  1  0.03148000  0.04006000  0.61429000  1.0
  N  N63  1  0.53147000  0.45994000  0.38575000  1.0
  N  N64  1  0.25432000  0.81182000  0.69944000  1.0
  N  N65  1  0.75435000  0.68817000  0.30055000  1.0
  N  N66  1  0.74568000  0.18818000  0.30057000  1.0
  N  N67  1  0.24563000  0.31182000  0.69947000  1.0
  N  N68  1  0.19807000  0.61733000  0.43711000  1.0
  N  N69  1  0.69807000  0.88270000  0.56282000  1.0
  N  N70  1  0.80193000  0.38268000  0.56282000  1.0
  N  N71  1  0.30191000  0.11730000  0.43711000  1.0
  N  N72  1  0.20410000  0.50047000  0.45158000  1.0
  N  N73  1  0.70414000  0.99956000  0.54832000  1.0
  N  N74  1  0.79588000  0.49955000  0.54840000  1.0
  N  N75  1  0.29586000  0.00044000  0.45165000  1.0
  N  N76  1  0.24808000  0.67902000  0.90286000  1.0
  N  N77  1  0.74800000  0.82100000  0.09714000  1.0
  N  N78  1  0.75192000  0.32097000  0.09714000  1.0
  N  N79  1  0.25199000  0.17901000  0.90288000  1.0
  N  N80  1  0.99745000  0.98685000  0.27608000  1.0
  N  N81  1  0.49751000  0.51321000  0.72392000  1.0
  N  N82  1  0.00251000  0.01315000  0.72391000  1.0
  N  N83  1  0.50252000  0.48680000  0.27610000  1.0
  N  N84  1  0.02392000  0.01481000  0.17006000  1.0
  N  N85  1  0.52397000  0.48523000  0.82994000  1.0
  N  N86  1  0.97607000  0.98515000  0.82994000  1.0
  N  N87  1  0.47606000  0.51474000  0.17008000  1.0
  N  N88  1  0.99596000  0.73318000  0.65419000  1.0
  N  N89  1  0.49597000  0.76679000  0.34581000  1.0
  N  N90  1  0.00405000  0.26681000  0.34582000  1.0
  N  N91  1  0.50404000  0.23318000  0.65421000  1.0
  O  O92  1  0.98019000  0.62053000  0.86292000  1.0
  O  O93  1  0.48018000  0.87952000  0.13710000  1.0
  O  O94  1  0.01980000  0.37950000  0.13708000  1.0
  O  O95  1  0.51983000  0.12048000  0.86291000  1.0
