# generated using pymatgen
data_CuH17C22IN3O
_symmetry_space_group_name_H-M   'P 1'
_cell_length_a   12.58240000
_cell_length_b   13.47040000
_cell_length_c   17.76790000
_cell_angle_alpha   109.98200000
_cell_angle_beta   90.00570000
_cell_angle_gamma   117.83500000
_symmetry_Int_Tables_number   1
_chemical_formula_structural   CuH17C22IN3O
_chemical_formula_sum   'Cu4 H68 C88 I4 N12 O4'
_cell_volume   2456.10497609
_cell_formula_units_Z   4
loop_
 _symmetry_equiv_pos_site_id
 _symmetry_equiv_pos_as_xyz
  1  'x, y, z'
loop_
 _atom_site_type_symbol
 _atom_site_label
 _atom_site_symmetry_multiplicity
 _atom_site_fract_x
 _atom_site_fract_y
 _atom_site_fract_z
 _atom_site_occupancy
  Cu  Cu0  1  0.45208000  0.99631000  0.93514000  1.0
  Cu  Cu1  1  0.45574000  0.00358000  0.56478000  1.0
  Cu  Cu2  1  0.54792000  0.00369000  0.06486000  1.0
  Cu  Cu3  1  0.54426000  0.99642000  0.43522000  1.0
  H  H4  1  0.32922000  0.05537000  0.82995000  1.0
  H  H5  1  0.27385000  0.94479000  0.67004000  1.0
  H  H6  1  0.67078000  0.94463000  0.17005000  1.0
  H  H7  1  0.72615000  0.05521000  0.32996000  1.0
  H  H8  1  0.26107000  0.20542000  0.84791000  1.0
  H  H9  1  0.05567000  0.79489000  0.65214000  1.0
  H  H10  1  0.73894000  0.79458000  0.15209000  1.0
  H  H11  1  0.94433000  0.20511000  0.34786000  1.0
  H  H12  1  0.46686000  0.39590000  0.09503000  1.0
  H  H13  1  0.07072000  0.60416000  0.40502000  1.0
  H  H14  1  0.53314000  0.60410000  0.90497000  1.0
  H  H15  1  0.92928000  0.39584000  0.59498000  1.0
  H  H16  1  0.52801000  0.23631000  0.06620000  1.0
  H  H17  1  0.29145000  0.76362000  0.43379000  1.0
  H  H18  1  0.47199000  0.76369000  0.93380000  1.0
  H  H19  1  0.70854000  0.23638000  0.56621000  1.0
  H  H20  1  0.18535000  0.31244000  0.87871000  1.0
  H  H21  1  0.87274000  0.68777000  0.62139000  1.0
  H  H22  1  0.81465000  0.68756000  0.12129000  1.0
  H  H23  1  0.12726000  0.31223000  0.37861000  1.0
  H  H24  1  0.19839000  0.63217000  0.05420000  1.0
  H  H25  1  0.56622000  0.36775000  0.44594000  1.0
  H  H26  1  0.80162000  0.36783000  0.94580000  1.0
  H  H27  1  0.43378000  0.63225000  0.55406000  1.0
  H  H28  1  0.47094000  0.60051000  0.20979000  1.0
  H  H29  1  0.87039000  0.39948000  0.29038000  1.0
  H  H30  1  0.52906000  0.39949000  0.79021000  1.0
  H  H31  1  0.12961000  0.60052000  0.70962000  1.0
  H  H32  1  0.55406000  0.76741000  0.34984000  1.0
  H  H33  1  0.78657000  0.23269000  0.15028000  1.0
  H  H34  1  0.44594000  0.23259000  0.65016000  1.0
  H  H35  1  0.21342000  0.76731000  0.84972000  1.0
  H  H36  1  0.39439000  0.94407000  0.28929000  1.0
  H  H37  1  0.45026000  0.05604000  0.21077000  1.0
  H  H38  1  0.60561000  0.05593000  0.71071000  1.0
  H  H39  1  0.54974000  0.94395000  0.78923000  1.0
  H  H40  1  0.31423000  0.79337000  0.14661000  1.0
  H  H41  1  0.52082000  0.20660000  0.35349000  1.0
  H  H42  1  0.68577000  0.20663000  0.85340000  1.0
  H  H43  1  0.47918000  0.79340000  0.64651000  1.0
  H  H44  1  0.00881000  0.26292000  0.83103000  1.0
  H  H45  1  0.74554000  0.73720000  0.66903000  1.0
  H  H46  1  0.99120000  0.73708000  0.16897000  1.0
  H  H47  1  0.25446000  0.26280000  0.33097000  1.0
  H  H48  1  0.86289000  0.24672000  0.72818000  1.0
  H  H49  1  0.61589000  0.75333000  0.77189000  1.0
  H  H50  1  0.13711000  0.75328000  0.27182000  1.0
  H  H51  1  0.38411000  0.24668000  0.22811000  1.0
  H  H52  1  0.98104000  0.62805000  0.85473000  1.0
  H  H53  1  0.35283000  0.37194000  0.64531000  1.0
  H  H54  1  0.01895000  0.37195000  0.14527000  1.0
  H  H55  1  0.64717000  0.62806000  0.35469000  1.0
  H  H56  1  0.13161000  0.64697000  0.95281000  1.0
  H  H57  1  0.48452000  0.35310000  0.54726000  1.0
  H  H58  1  0.86839000  0.35304000  0.04719000  1.0
  H  H59  1  0.51548000  0.64690000  0.45274000  1.0
  H  H60  1  0.78237000  0.54922000  0.78946000  1.0
  H  H61  1  0.23310000  0.45075000  0.71043000  1.0
  H  H62  1  0.21763000  0.45078000  0.21054000  1.0
  H  H63  1  0.76691000  0.54925000  0.28957000  1.0
  H  H64  1  0.73826000  0.48193000  0.68059000  1.0
  H  H65  1  0.25599000  0.51783000  0.81932000  1.0
  H  H66  1  0.26174000  0.51807000  0.31941000  1.0
  H  H67  1  0.74401000  0.48217000  0.18068000  1.0
  H  H68  1  0.89510000  0.59297000  0.72722000  1.0
  H  H69  1  0.30198000  0.40690000  0.77268000  1.0
  H  H70  1  0.10491000  0.40703000  0.27278000  1.0
  H  H71  1  0.69802000  0.59310000  0.22732000  1.0
  C  C72  1  0.35752000  0.13228000  0.88811000  1.0
  C  C73  1  0.22519000  0.86786000  0.61188000  1.0
  C  C74  1  0.64248000  0.86771000  0.11189000  1.0
  C  C75  1  0.77481000  0.13214000  0.38811000  1.0
  C  C76  1  0.31924000  0.21669000  0.89904000  1.0
  C  C77  1  0.10251000  0.78351000  0.60100000  1.0
  C  C78  1  0.68076000  0.78331000  0.10096000  1.0
  C  C79  1  0.89749000  0.21649000  0.39900000  1.0
  C  C80  1  0.35620000  0.31380000  0.97491000  1.0
  C  C81  1  0.04226000  0.68635000  0.52515000  1.0
  C  C82  1  0.64380000  0.68620000  0.02509000  1.0
  C  C83  1  0.95775000  0.31365000  0.47485000  1.0
  C  C84  1  0.43464000  0.32163000  0.03552000  1.0
  C  C85  1  0.11281000  0.67845000  0.46452000  1.0
  C  C86  1  0.56536000  0.67837000  0.96448000  1.0
  C  C87  1  0.88719000  0.32155000  0.53548000  1.0
  C  C88  1  0.46900000  0.23364000  0.01968000  1.0
  C  C89  1  0.23516000  0.76639000  0.48032000  1.0
  C  C90  1  0.53099000  0.76636000  0.98032000  1.0
  C  C91  1  0.76484000  0.23361000  0.51968000  1.0
  C  C92  1  0.31322000  0.40333000  0.99294000  1.0
  C  C93  1  0.90979000  0.59674000  0.50723000  1.0
  C  C94  1  0.68678000  0.59667000  0.00706000  1.0
  C  C95  1  0.09022000  0.40327000  0.49277000  1.0
  C  C96  1  0.22250000  0.38844000  0.93762000  1.0
  C  C97  1  0.83392000  0.61171000  0.56250000  1.0
  C  C98  1  0.77750000  0.61156000  0.06238000  1.0
  C  C99  1  0.16608000  0.38829000  0.43750000  1.0
  C  C100  1  0.17853000  0.47078000  0.95775000  1.0
  C  C101  1  0.70763000  0.52929000  0.54235000  1.0
  C  C102  1  0.82147000  0.52922000  0.04225000  1.0
  C  C103  1  0.29237000  0.47072000  0.45765000  1.0
  C  C104  1  0.23151000  0.56765000  0.03413000  1.0
  C  C105  1  0.66385000  0.43230000  0.46602000  1.0
  C  C106  1  0.76850000  0.43235000  0.96587000  1.0
  C  C107  1  0.33615000  0.56770000  0.53398000  1.0
  C  C108  1  0.32464000  0.57891000  0.08546000  1.0
  C  C109  1  0.74575000  0.42102000  0.41473000  1.0
  C  C110  1  0.67536000  0.42109000  0.91454000  1.0
  C  C111  1  0.25425000  0.57898000  0.58527000  1.0
  C  C112  1  0.38172000  0.67977000  0.16648000  1.0
  C  C113  1  0.70198000  0.32017000  0.33369000  1.0
  C  C114  1  0.61828000  0.32024000  0.83352000  1.0
  C  C115  1  0.29802000  0.67982000  0.66630000  1.0
  C  C116  1  0.45383000  0.67657000  0.22504000  1.0
  C  C117  1  0.77725000  0.32342000  0.27513000  1.0
  C  C118  1  0.54617000  0.32343000  0.77496000  1.0
  C  C119  1  0.22275000  0.67658000  0.72487000  1.0
  C  C120  1  0.49984000  0.76836000  0.30240000  1.0
  C  C121  1  0.73142000  0.23170000  0.19774000  1.0
  C  C122  1  0.50016000  0.23163000  0.69760000  1.0
  C  C123  1  0.26858000  0.76830000  0.80226000  1.0
  C  C124  1  0.41123000  0.86748000  0.26835000  1.0
  C  C125  1  0.54371000  0.13258000  0.23174000  1.0
  C  C126  1  0.58877000  0.13252000  0.73166000  1.0
  C  C127  1  0.45629000  0.86741000  0.76826000  1.0
  C  C128  1  0.36377000  0.78050000  0.18943000  1.0
  C  C129  1  0.58326000  0.21948000  0.31070000  1.0
  C  C130  1  0.63623000  0.21950000  0.81058000  1.0
  C  C131  1  0.41674000  0.78052000  0.68930000  1.0
  C  C132  1  0.08338000  0.45689000  0.90021000  1.0
  C  C133  1  0.62629000  0.54320000  0.59983000  1.0
  C  C134  1  0.91662000  0.54311000  0.09979000  1.0
  C  C135  1  0.37371000  0.45680000  0.40017000  1.0
  C  C136  1  0.00571000  0.34436000  0.83570000  1.0
  C  C137  1  0.66102000  0.65573000  0.66434000  1.0
  C  C138  1  0.99430000  0.65564000  0.16430000  1.0
  C  C139  1  0.33898000  0.34428000  0.33566000  1.0
  C  C140  1  0.92267000  0.33366000  0.77797000  1.0
  C  C141  1  0.58871000  0.66641000  0.72208000  1.0
  C  C142  1  0.07733000  0.66634000  0.22203000  1.0
  C  C143  1  0.41129000  0.33360000  0.27792000  1.0
  C  C144  1  0.91305000  0.43586000  0.78397000  1.0
  C  C145  1  0.47695000  0.56417000  0.71608000  1.0
  C  C146  1  0.08695000  0.56414000  0.21603000  1.0
  C  C147  1  0.52305000  0.43583000  0.28392000  1.0
  C  C148  1  0.98727000  0.54779000  0.84848000  1.0
  C  C149  1  0.43929000  0.45225000  0.65156000  1.0
  C  C150  1  0.01273000  0.45221000  0.15152000  1.0
  C  C151  1  0.56072000  0.54776000  0.34844000  1.0
  C  C152  1  0.07149000  0.55743000  0.90527000  1.0
  C  C153  1  0.51391000  0.44265000  0.59478000  1.0
  C  C154  1  0.92851000  0.44257000  0.09472000  1.0
  C  C155  1  0.48609000  0.55735000  0.40522000  1.0
  C  C156  1  0.81116000  0.51718000  0.73179000  1.0
  C  C157  1  0.29376000  0.48269000  0.76816000  1.0
  C  C158  1  0.18884000  0.48282000  0.26821000  1.0
  C  C159  1  0.70624000  0.51731000  0.23184000  1.0
  I  I160  1  0.69339000  0.08545000  0.96443000  1.0
  I  I161  1  0.60798000  0.91454000  0.53565000  1.0
  I  I162  1  0.30661000  0.91454000  0.03557000  1.0
  I  I163  1  0.39202000  0.08547000  0.46435000  1.0
  N  N164  1  0.43003000  0.13851000  0.94730000  1.0
  N  N165  1  0.29142000  0.86152000  0.55269000  1.0
  N  N166  1  0.56997000  0.86149000  0.05270000  1.0
  N  N167  1  0.70858000  0.13847000  0.44731000  1.0
  N  N168  1  0.47780000  0.86268000  0.32529000  1.0
  N  N169  1  0.61507000  0.13741000  0.17480000  1.0
  N  N170  1  0.52220000  0.13732000  0.67471000  1.0
  N  N171  1  0.38493000  0.86259000  0.82520000  1.0
  N  N172  1  0.36365000  0.49735000  0.06567000  1.0
  N  N173  1  0.86629000  0.50262000  0.43455000  1.0
  N  N174  1  0.63635000  0.50265000  0.93433000  1.0
  N  N175  1  0.13370000  0.49738000  0.56545000  1.0
  O  O176  1  0.82912000  0.41733000  0.72492000  1.0
  O  O177  1  0.41157000  0.58264000  0.77516000  1.0
  O  O178  1  0.17088000  0.58267000  0.27508000  1.0
  O  O179  1  0.58843000  0.41736000  0.22484000  1.0
