# generated using pymatgen
data_Zn2H32C34SN2O11
_symmetry_space_group_name_H-M   'P 1'
_cell_length_a   10.90790000
_cell_length_b   11.80920000
_cell_length_c   13.04200000
_cell_angle_alpha   87.33560000
_cell_angle_beta   87.64340000
_cell_angle_gamma   84.85430000
_symmetry_Int_Tables_number   1
_chemical_formula_structural   Zn2H32C34SN2O11
_chemical_formula_sum   'Zn2 H32 C34 S1 N2 O11'
_cell_volume   1670.25407692
_cell_formula_units_Z   1
loop_
 _symmetry_equiv_pos_site_id
 _symmetry_equiv_pos_as_xyz
  1  'x, y, z'
loop_
 _atom_site_type_symbol
 _atom_site_label
 _atom_site_symmetry_multiplicity
 _atom_site_fract_x
 _atom_site_fract_y
 _atom_site_fract_z
 _atom_site_occupancy
  Zn  Zn0  1  0.47867000  0.62427000  0.50347000  1.0
  Zn  Zn1  1  0.50716000  0.38343000  0.48929000  1.0
  H  H2  1  0.07083000  0.66831000  0.55328000  1.0
  H  H3  1  0.53833000  0.63725000  0.81810000  1.0
  H  H4  1  0.56668000  0.81000000  0.38799000  1.0
  H  H5  1  0.08295000  0.57151000  0.66066000  1.0
  H  H6  1  0.34905000  0.00825000  0.67509000  1.0
  H  H7  1  0.62790000  0.21763000  0.33646000  1.0
  H  H8  1  0.41607000  0.19683000  0.60547000  1.0
  H  H9  1  0.87940000  0.52258000  0.65061000  1.0
  H  H10  1  0.85846000  0.65636000  0.58560000  1.0
  H  H11  1  0.12888000  0.61062000  0.37901000  1.0
  H  H12  1  0.12322000  0.31119000  0.49856000  1.0
  H  H13  1  0.92186000  0.33550000  0.43699000  1.0
  H  H14  1  0.07340000  0.35804000  0.62086000  1.0
  H  H15  1  0.87282000  0.34350000  0.56660000  1.0
  H  H16  1  0.18800000  0.91025000  0.73293000  1.0
  H  H17  1  0.14570000  0.82882000  0.63068000  1.0
  H  H18  1  0.15188000  0.76806000  0.75778000  1.0
  H  H19  1  0.33514000  0.69168000  0.65802000  1.0
  H  H20  1  0.38071000  0.77647000  0.75426000  1.0
  H  H21  1  0.65014000  0.13413000  0.17371000  1.0
  H  H22  1  0.78644000  0.11874000  0.24513000  1.0
  H  H23  1  0.76667000  0.02318000  0.14775000  1.0
  H  H24  1  0.12790000  0.46647000  0.34810000  1.0
  H  H25  1  0.72939000  0.92645000  0.31686000  1.0
  H  H26  1  0.59565000  0.94046000  0.24652000  1.0
  H  H27  1  0.76016000  0.70652000  0.45239000  1.0
  H  H28  1  0.91987000  0.49601000  0.32503000  1.0
  H  H29  1  0.47992000  0.36225000  0.17307000  1.0
  H  H30  1  0.50791000  0.72204000  0.17665000  1.0
  H  H31  1  0.49534000  0.26481000  0.00662000  1.0
  H  H32  1  0.53169000  0.73345000  0.98528000  1.0
  H  H33  1  0.51570000  0.27661000  0.81493000  1.0
  C  C34  1  0.52798000  0.46644000  0.69151000  1.0
  C  C35  1  0.51874000  0.55309000  0.96893000  1.0
  C  C36  1  0.50473000  0.44578000  0.02257000  1.0
  C  C37  1  0.25579000  0.49160000  0.51991000  1.0
  C  C38  1  0.49120000  0.44270000  0.13076000  1.0
  C  C39  1  0.50641000  0.64663000  0.13188000  1.0
  C  C40  1  0.51970000  0.65231000  0.02647000  1.0
  C  C41  1  0.58871000  0.04430000  0.37634000  1.0
  C  C42  1  0.58332000  0.15997000  0.39053000  1.0
  C  C43  1  0.46357000  0.15090000  0.54259000  1.0
  C  C44  1  0.46151000  0.03185000  0.53674000  1.0
  C  C45  1  0.87804000  0.50791000  0.48750000  1.0
  C  C46  1  0.52524000  0.97745000  0.45228000  1.0
  C  C47  1  0.52087000  0.85830000  0.45012000  1.0
  C  C48  1  0.39865000  0.85009000  0.60317000  1.0
  C  C49  1  0.48074000  0.53293000  0.29958000  1.0
  C  C50  1  0.39849000  0.96639000  0.61094000  1.0
  C  C51  1  0.73814000  0.51469000  0.47644000  1.0
  C  C52  1  0.04924000  0.58335000  0.58221000  1.0
  C  C53  1  0.90968000  0.57261000  0.58239000  1.0
  C  C54  1  0.08694000  0.53134000  0.40012000  1.0
  C  C55  1  0.06610000  0.37823000  0.53798000  1.0
  C  C56  1  0.94623000  0.54821000  0.38674000  1.0
  C  C57  1  0.11628000  0.49404000  0.51238000  1.0
  C  C58  1  0.33119000  0.77943000  0.68206000  1.0
  C  C59  1  0.19667000  0.82490000  0.70181000  1.0
  C  C60  1  0.65845000  0.99023000  0.28652000  1.0
  C  C61  1  0.71824000  0.07162000  0.20929000  1.0
  C  C62  1  0.93060000  0.38284000  0.50649000  1.0
  C  C63  1  0.49184000  0.54074000  0.18489000  1.0
  C  C64  1  0.52627000  0.45879000  0.80631000  1.0
  C  C65  1  0.50495000  0.34626000  0.96520000  1.0
  C  C66  1  0.51596000  0.35223000  0.85969000  1.0
  C  C67  1  0.52907000  0.55654000  0.86050000  1.0
  S  S68  1  0.89557000  0.69133000  0.33123000  1.0
  N  N69  1  0.46147000  0.79807000  0.52206000  1.0
  N  N70  1  0.52229000  0.21133000  0.47191000  1.0
  O  O71  1  0.52102000  0.56613000  0.64869000  1.0
  O  O72  1  0.80513000  0.67392000  0.25661000  1.0
  O  O73  1  0.82886000  0.75743000  0.42423000  1.0
  O  O74  1  0.53381000  0.37385000  0.64450000  1.0
  O  O75  1  0.29922000  0.58847000  0.51946000  1.0
  O  O76  1  0.31901000  0.39597000  0.52239000  1.0
  O  O77  1  0.47736000  0.62495000  0.34743000  1.0
  O  O78  1  0.47639000  0.43347000  0.34138000  1.0
  O  O79  1  0.67829000  0.61365000  0.48065000  1.0
  O  O80  1  0.68888000  0.42359000  0.46644000  1.0
  O  O81  1  0.00068000  0.75220000  0.30000000  1.0
