# generated using pymatgen
data_HoAgH12C18(N2O5)2
_symmetry_space_group_name_H-M   'P 1'
_cell_length_a   9.52726000
_cell_length_b   9.89284000
_cell_length_c   12.10539237
_cell_angle_alpha   65.88612403
_cell_angle_beta   80.08718668
_cell_angle_gamma   65.05250000
_symmetry_Int_Tables_number   1
_chemical_formula_structural   HoAgH12C18(N2O5)2
_chemical_formula_sum   'Ho2 Ag2 H24 C36 N8 O20'
_cell_volume   944.22119636
_cell_formula_units_Z   2
loop_
 _symmetry_equiv_pos_site_id
 _symmetry_equiv_pos_as_xyz
  1  'x, y, z'
loop_
 _atom_site_type_symbol
 _atom_site_label
 _atom_site_symmetry_multiplicity
 _atom_site_fract_x
 _atom_site_fract_y
 _atom_site_fract_z
 _atom_site_occupancy
  Ho  Ho0  1  0.26623000  0.80644000  0.51287000  1.0
  Ho  Ho1  1  0.76638000  0.31922000  0.48717000  1.0
  Ag  Ag2  1  0.08990000  0.52403000  0.17065000  1.0
  Ag  Ag3  1  0.58974000  0.69468000  0.82936000  1.0
  H  H4  1  0.52696000  0.92741000  0.45887000  1.0
  H  H5  1  0.02696000  0.38628000  0.54106000  1.0
  H  H6  1  0.47229000  0.93072000  0.33748000  1.0
  H  H7  1  0.97233000  0.26832000  0.66252000  1.0
  H  H8  1  0.16835000  0.12575000  0.54964000  1.0
  H  H9  1  0.66838000  0.67544000  0.45040000  1.0
  H  H10  1  0.35424000  0.03040000  0.57317000  1.0
  H  H11  1  0.85425000  0.60358000  0.42685000  1.0
  H  H12  1  0.51148000  0.94110000  0.11465000  1.0
  H  H13  1  0.01155000  0.05578000  0.88522000  1.0
  H  H14  1  0.68505000  0.18213000  0.25711000  1.0
  H  H15  1  0.18498000  0.43907000  0.74297000  1.0
  H  H16  1  0.72809000  0.71453000  0.25559000  1.0
  H  H17  1  0.22814000  0.96992000  0.74434000  1.0
  H  H18  1  0.04193000  0.73396000  0.87641000  1.0
  H  H19  1  0.54204000  0.61046000  0.12362000  1.0
  H  H20  1  0.47030000  0.06459000  0.84633000  1.0
  H  H21  1  0.97032000  0.91087000  0.15352000  1.0
  H  H22  1  0.41998000  0.27742000  0.34656000  1.0
  H  H23  1  0.91988000  0.62385000  0.65337000  1.0
  H  H24  1  0.79900000  0.16179000  0.01625000  1.0
  H  H25  1  0.29888000  0.17796000  0.98396000  1.0
  H  H26  1  0.24308000  0.53594000  0.91638000  1.0
  H  H27  1  0.74275000  0.45247000  0.08352000  1.0
  C  C28  1  0.41286000  0.53634000  0.72095000  1.0
  C  C29  1  0.91276000  0.25788000  0.27901000  1.0
  C  C30  1  0.73854000  0.76288000  0.15772000  1.0
  C  C31  1  0.23855000  0.92048000  0.84224000  1.0
  C  C32  1  0.82857000  0.80180000  0.97550000  1.0
  C  C33  1  0.32860000  0.77732000  0.02450000  1.0
  C  C34  1  0.91823000  0.80569000  0.87216000  1.0
  C  C35  1  0.41835000  0.67796000  0.12784000  1.0
  C  C36  1  0.84806000  0.90785000  0.75941000  1.0
  C  C37  1  0.34815000  0.66734000  0.24056000  1.0
  C  C38  1  0.95710000  0.92481000  0.65550000  1.0
  C  C39  1  0.45712000  0.58055000  0.34451000  1.0
  C  C40  1  0.68446000  0.99519000  0.74883000  1.0
  C  C41  1  0.18453000  0.74394000  0.25109000  1.0
  C  C42  1  0.59800000  0.06502000  0.63011000  1.0
  C  C43  1  0.09812000  0.69505000  0.36980000  1.0
  C  C44  1  0.59508000  0.99705000  0.85316000  1.0
  C  C45  1  0.09511000  0.85016000  0.14676000  1.0
  C  C46  1  0.66967000  0.90534000  0.96544000  1.0
  C  C47  1  0.16971000  0.87083000  0.03450000  1.0
  C  C48  1  0.44020000  0.29181000  0.25205000  1.0
  C  C49  1  0.94011000  0.54375000  0.74790000  1.0
  C  C50  1  0.57067000  0.27072000  0.08608000  1.0
  C  C51  1  0.07056000  0.35686000  0.91402000  1.0
  C  C52  1  0.67796000  0.24105000  0.99589000  1.0
  C  C53  1  0.17782000  0.23693000  0.00425000  1.0
  C  C54  1  0.62719000  0.32021000  0.87547000  1.0
  C  C55  1  0.12701000  0.19586000  0.12465000  1.0
  C  C56  1  0.73840000  0.29401000  0.77508000  1.0
  C  C57  1  0.23825000  0.06919000  0.22504000  1.0
  C  C58  1  0.47001000  0.42739000  0.84777000  1.0
  C  C59  1  0.96980000  0.27547000  0.15223000  1.0
  C  C60  1  0.36241000  0.45135000  0.93881000  1.0
  C  C61  1  0.86215000  0.39034000  0.06116000  1.0
  C  C62  1  0.41268000  0.37186000  0.05871000  1.0
  C  C63  1  0.91252000  0.43066000  0.94128000  1.0
  N  N64  1  0.61805000  0.87902000  0.08306000  1.0
  N  N65  1  0.11810000  0.96209000  0.91686000  1.0
  N  N66  1  0.86742000  0.71235000  0.09710000  1.0
  N  N67  1  0.36740000  0.80930000  0.90293000  1.0
  N  N68  1  0.33333333  0.38007000  0.16495000  1.0
  N  N69  1  0.83322000  0.54507000  0.83497000  1.0
  N  N70  1  0.58337000  0.22204000  0.21023000  1.0
  N  N71  1  0.08328000  0.43219000  0.78984000  1.0
  O  O72  1  0.44732000  0.66073000  0.67098000  1.0
  O  O73  1  0.94738000  0.33232000  0.32888000  1.0
  O  O74  1  0.31942000  0.51721000  0.67143000  1.0
  O  O75  1  0.81927000  0.18933000  0.32866000  1.0
  O  O76  1  0.08773000  0.80804000  0.66564000  1.0
  O  O77  1  0.58776000  0.47393000  0.33445000  1.0
  O  O78  1  0.92237000  0.05663000  0.56455000  1.0
  O  O79  1  0.42229000  0.62152000  0.43541000  1.0
  O  O80  1  0.59436000  0.19561000  0.54625000  1.0
  O  O81  1  0.09428000  0.74205000  0.45357000  1.0
  O  O82  1  0.52967000  0.98138000  0.62487000  1.0
  O  O83  1  0.02994000  0.60603000  0.37508000  1.0
  O  O84  1  0.88401000  0.22640000  0.79604000  1.0
  O  O85  1  0.38387000  0.02227000  0.20404000  1.0
  O  O86  1  0.68235000  0.34219000  0.67138000  1.0
  O  O87  1  0.18226000  0.01370000  0.32876000  1.0
  O  O88  1  0.50857000  0.86237000  0.42438000  1.0
  O  O89  1  0.00856000  0.28679000  0.57563000  1.0
  O  O90  1  0.25970000  0.02722000  0.55097000  1.0
  O  O91  1  0.75977000  0.57817000  0.44923000  1.0
