# generated using pymatgen
data_SmP4H27C18(NO6)2
_symmetry_space_group_name_H-M   'P 1'
_cell_length_a   7.97957000
_cell_length_b   12.69230000
_cell_length_c   13.49800000
_cell_angle_alpha   115.52900000
_cell_angle_beta   92.51390000
_cell_angle_gamma   92.99540000
_symmetry_Int_Tables_number   1
_chemical_formula_structural   SmP4H27C18(NO6)2
_chemical_formula_sum   'Sm2 P8 H54 C36 N4 O24'
_cell_volume   1228.56243643
_cell_formula_units_Z   2
loop_
 _symmetry_equiv_pos_site_id
 _symmetry_equiv_pos_as_xyz
  1  'x, y, z'
loop_
 _atom_site_type_symbol
 _atom_site_label
 _atom_site_symmetry_multiplicity
 _atom_site_fract_x
 _atom_site_fract_y
 _atom_site_fract_z
 _atom_site_occupancy
  Sm  Sm0  1  0.78773000  0.89126000  0.51268000  1.0
  Sm  Sm1  1  0.21227000  0.10874000  0.48732000  1.0
  P  P2  1  0.13988000  0.98117000  0.63737000  1.0
  P  P3  1  0.86012000  0.01883000  0.36263000  1.0
  P  P4  1  0.54685000  0.68677000  0.59201000  1.0
  P  P5  1  0.45315000  0.31323000  0.40799000  1.0
  P  P6  1  0.58897000  0.15969000  0.66501000  1.0
  P  P7  1  0.41103000  0.84031000  0.33499000  1.0
  P  P8  1  0.02841000  0.39327000  0.58662000  1.0
  P  P9  1  0.97159000  0.60673000  0.41338000  1.0
  H  H10  1  0.19323000  0.74351000  0.61053000  1.0
  H  H11  1  0.80677000  0.25649000  0.38947000  1.0
  H  H12  1  0.66635000  0.35362000  0.61642000  1.0
  H  H13  1  0.33365000  0.64638000  0.38358000  1.0
  H  H14  1  0.14096000  0.04486000  0.89517000  1.0
  H  H15  1  0.85905000  0.95514000  0.10483000  1.0
  H  H16  1  0.23100000  0.15428000  0.09414000  1.0
  H  H17  1  0.76900000  0.84572000  0.90586000  1.0
  H  H18  1  0.31360000  0.04593000  0.20317000  1.0
  H  H19  1  0.68640000  0.95407000  0.79683000  1.0
  H  H20  1  0.32665000  0.83137000  0.10938000  1.0
  H  H21  1  0.67335000  0.16863000  0.89062000  1.0
  H  H22  1  0.23843000  0.72145000  0.90949000  1.0
  H  H23  1  0.76157000  0.27855000  0.09051000  1.0
  H  H24  1  0.02063000  0.84844000  0.74776000  1.0
  H  H25  1  0.97937000  0.15155000  0.25224000  1.0
  H  H26  1  0.08880000  0.71754000  0.75023000  1.0
  H  H27  1  0.91120000  0.28245000  0.24977000  1.0
  H  H28  1  0.41070000  0.90243000  0.63133000  1.0
  H  H29  1  0.58930000  0.09757000  0.36867000  1.0
  H  H30  1  0.35720000  0.97763000  0.76902000  1.0
  H  H31  1  0.64280000  0.02237000  0.23098000  1.0
  H  H32  1  0.35335000  0.66433000  0.71403000  1.0
  H  H33  1  0.64665000  0.33567000  0.28597000  1.0
  H  H34  1  0.47655000  0.80092000  0.78156000  1.0
  H  H35  1  0.52345000  0.19908000  0.21844000  1.0
  H  H36  1  0.76553000  0.66777000  0.88243000  1.0
  H  H37  1  0.23447000  0.33223000  0.11757000  1.0
  H  H38  1  0.88564000  0.77158000  0.07686000  1.0
  H  H39  1  0.11436000  0.22842000  0.92313000  1.0
  H  H40  1  0.86767000  0.67332000  0.20041000  1.0
  H  H41  1  0.13233000  0.32668000  0.79959000  1.0
  H  H42  1  0.74420000  0.46747000  0.12702000  1.0
  H  H43  1  0.25580000  0.53254000  0.87298000  1.0
  H  H44  1  0.62318000  0.36397000  0.93280000  1.0
  H  H45  1  0.37682000  0.63603000  0.06721000  1.0
  H  H46  1  0.57502000  0.51381000  0.74935000  1.0
  H  H47  1  0.42498000  0.48619000  0.25065000  1.0
  H  H48  1  0.50457000  0.38893000  0.76915000  1.0
  H  H49  1  0.49543000  0.61106000  0.23084000  1.0
  H  H50  1  0.82356000  0.29003000  0.78713000  1.0
  H  H51  1  0.17644000  0.70997000  0.21287000  1.0
  H  H52  1  0.86560000  0.22404000  0.64508000  1.0
  H  H53  1  0.13440000  0.77596000  0.35491000  1.0
  H  H54  1  0.96118000  0.47167000  0.77787000  1.0
  H  H55  1  0.03882000  0.52833000  0.22213000  1.0
  H  H56  1  0.84729000  0.53252000  0.70092000  1.0
  H  H57  1  0.15271000  0.46748000  0.29908000  1.0
  H  H58  1  0.60427000  0.50987000  0.57369000  1.0
  H  H59  1  0.39573000  0.49013000  0.42631000  1.0
  H  H60  1  0.36290000  0.17449000  0.74752000  1.0
  H  H61  1  0.63710000  0.82551000  0.25248000  1.0
  H  H62  1  0.12122000  0.55153000  0.57265000  1.0
  H  H63  1  0.87878000  0.44847000  0.42735000  1.0
  C  C64  1  0.18759000  0.99852000  0.94126000  1.0
  C  C65  1  0.81241000  0.00148000  0.05874000  1.0
  C  C66  1  0.23610000  0.05947000  0.05335000  1.0
  C  C67  1  0.76390000  0.94052000  0.94665000  1.0
  C  C68  1  0.28434000  0.99952000  0.11444000  1.0
  C  C69  1  0.71566000  0.00048000  0.88556000  1.0
  C  C70  1  0.28706000  0.87782000  0.06200000  1.0
  C  C71  1  0.71294000  0.12218000  0.93800000  1.0
  C  C72  1  0.23976000  0.81685000  0.94981000  1.0
  C  C73  1  0.76024000  0.18315000  0.05019000  1.0
  C  C74  1  0.18876000  0.87620000  0.88818000  1.0
  C  C75  1  0.81124000  0.12380000  0.11182000  1.0
  C  C76  1  0.12650000  0.80902000  0.76966000  1.0
  C  C77  1  0.87350000  0.19098000  0.23034000  1.0
  C  C78  1  0.30750000  0.91580000  0.68571000  1.0
  C  C79  1  0.69250000  0.08420000  0.31429000  1.0
  C  C80  1  0.40491000  0.74111000  0.70465000  1.0
  C  C81  1  0.59509000  0.25889000  0.29535000  1.0
  C  C82  1  0.76382000  0.62329000  0.93590000  1.0
  C  C83  1  0.23618000  0.37671000  0.06410000  1.0
  C  C84  1  0.83031000  0.68173000  0.04480000  1.0
  C  C85  1  0.16968000  0.31827000  0.95520000  1.0
  C  C86  1  0.82361000  0.62558000  0.11379000  1.0
  C  C87  1  0.17639000  0.37443000  0.88621000  1.0
  C  C88  1  0.75245000  0.51053000  0.07250000  1.0
  C  C89  1  0.24756000  0.48947000  0.92750000  1.0
  C  C90  1  0.68589000  0.45174000  0.96343000  1.0
  C  C91  1  0.31411000  0.54826000  0.03657000  1.0
  C  C92  1  0.69075000  0.50794000  0.89390000  1.0
  C  C93  1  0.30925000  0.49206000  0.10610000  1.0
  C  C94  1  0.61340000  0.44916000  0.77769000  1.0
  C  C95  1  0.38660000  0.55083000  0.22231000  1.0
  C  C96  1  0.77123000  0.26653000  0.70309000  1.0
  C  C97  1  0.22877000  0.73347000  0.29691000  1.0
  C  C98  1  0.88915000  0.45103000  0.69982000  1.0
  C  C99  1  0.11085000  0.54897000  0.30018000  1.0
  N  N100  1  0.25715000  0.80120000  0.68745000  1.0
  N  N101  1  0.74285000  0.19880000  0.31255000  1.0
  N  N102  1  0.73326000  0.37629000  0.69348000  1.0
  N  N103  1  0.26674000  0.62371000  0.30652000  1.0
  O  O104  1  0.97275000  0.95906000  0.67817000  1.0
  O  O105  1  0.02725000  0.04094000  0.32182000  1.0
  O  O106  1  0.20217000  0.11099000  0.67709000  1.0
  O  O107  1  0.79783000  0.88901000  0.32291000  1.0
  O  O108  1  0.12265000  0.92600000  0.50994000  1.0
  O  O109  1  0.87735000  0.07399000  0.49006000  1.0
  O  O110  1  0.44068000  0.62094000  0.48357000  1.0
  O  O111  1  0.55932000  0.37906000  0.51643000  1.0
  O  O112  1  0.64394000  0.59709000  0.62196000  1.0
  O  O113  1  0.35607000  0.40291000  0.37804000  1.0
  O  O114  1  0.66804000  0.78755000  0.60471000  1.0
  O  O115  1  0.33196000  0.21245000  0.39529000  1.0
  O  O116  1  0.48600000  0.20789000  0.77268000  1.0
  O  O117  1  0.51400000  0.79211000  0.22732000  1.0
  O  O118  1  0.65105000  0.04259000  0.64564000  1.0
  O  O119  1  0.34895000  0.95741000  0.35436000  1.0
  O  O120  1  0.48846000  0.16611000  0.56980000  1.0
  O  O121  1  0.51154000  0.83389000  0.43020000  1.0
  O  O122  1  0.12064000  0.29687000  0.59572000  1.0
  O  O123  1  0.87936000  0.70313000  0.40428000  1.0
  O  O124  1  0.15424000  0.50556000  0.61633000  1.0
  O  O125  1  0.84576000  0.49444000  0.38367000  1.0
  O  O126  1  0.92695000  0.36459000  0.47878000  1.0
  O  O127  1  0.07305000  0.63541000  0.52122000  1.0
