# generated using pymatgen
data_Hf3H8C20(N3O8)2
_symmetry_space_group_name_H-M   'P 1'
_cell_length_a   17.11490000
_cell_length_b   17.12060000
_cell_length_c   31.93260000
_cell_angle_alpha   89.89250000
_cell_angle_beta   90.05600000
_cell_angle_gamma   89.95620000
_symmetry_Int_Tables_number   1
_chemical_formula_structural   Hf3H8C20(N3O8)2
_chemical_formula_sum   'Hf12 H32 C80 N24 O64'
_cell_volume   9356.78236682
_cell_formula_units_Z   4
loop_
 _symmetry_equiv_pos_site_id
 _symmetry_equiv_pos_as_xyz
  1  'x, y, z'
loop_
 _atom_site_type_symbol
 _atom_site_label
 _atom_site_symmetry_multiplicity
 _atom_site_fract_x
 _atom_site_fract_y
 _atom_site_fract_z
 _atom_site_occupancy
  Hf  Hf0  1  0.09508000  0.94451000  0.54666000  1.0
  Hf  Hf1  1  0.08658000  0.95241000  0.43645000  1.0
  Hf  Hf2  1  0.95055000  0.08832000  0.55154000  1.0
  Hf  Hf3  1  0.94241000  0.10046000  0.44151000  1.0
  Hf  Hf4  1  0.12178000  0.12356000  0.49460000  1.0
  Hf  Hf5  1  0.91563000  0.91814000  0.49390000  1.0
  Hf  Hf6  1  0.60022000  0.60654000  0.04790000  1.0
  Hf  Hf7  1  0.58965000  0.59487000  0.93803000  1.0
  Hf  Hf8  1  0.45700000  0.45969000  0.05235000  1.0
  Hf  Hf9  1  0.44294000  0.45193000  0.94237000  1.0
  Hf  Hf10  1  0.41955000  0.63090000  0.99574000  1.0
  Hf  Hf11  1  0.62603000  0.42431000  0.99454000  1.0
  H  H12  1  0.05647000  0.82501000  0.49346000  1.0
  H  H13  1  0.09574000  0.10542000  0.40686000  1.0
  H  H14  1  0.82399000  0.07185000  0.49468000  1.0
  H  H15  1  0.10156000  0.09715000  0.58330000  1.0
  H  H16  1  0.10751000  0.97700000  0.35280000  1.0
  H  H17  1  0.00455000  0.03401000  0.36917000  1.0
  H  H18  1  0.85808000  0.22879000  0.44095000  1.0
  H  H19  1  0.81016000  0.16084000  0.57590000  1.0
  H  H20  1  0.92749000  0.05879000  0.63272000  1.0
  H  H21  1  0.03086000  0.00756000  0.61917000  1.0
  H  H22  1  0.22648000  0.86158000  0.54320000  1.0
  H  H23  1  0.18369000  0.85605000  0.48462000  1.0
  H  H24  1  0.87601000  0.22602000  0.56947000  1.0
  H  H25  1  0.05594000  0.91627000  0.62829000  1.0
  H  H26  1  0.17130000  0.81128000  0.43921000  1.0
  H  H27  1  0.91426000  0.06151000  0.36040000  1.0
  H  H28  1  0.71782000  0.57798000  0.99405000  1.0
  H  H29  1  0.43773000  0.60614000  0.90773000  1.0
  H  H30  1  0.47198000  0.33310000  0.99541000  1.0
  H  H31  1  0.44564000  0.60983000  0.08403000  1.0
  H  H32  1  0.55962000  0.62367000  0.85522000  1.0
  H  H33  1  0.50954000  0.51622000  0.86999000  1.0
  H  H34  1  0.31479000  0.36740000  0.94183000  1.0
  H  H35  1  0.38490000  0.31911000  0.07682000  1.0
  H  H36  1  0.48636000  0.43607000  0.13337000  1.0
  H  H37  1  0.53780000  0.54120000  0.12012000  1.0
  H  H38  1  0.68557000  0.73376000  0.04999000  1.0
  H  H39  1  0.72872000  0.66339000  0.91445000  1.0
  H  H40  1  0.31973000  0.38489000  0.07004000  1.0
  H  H41  1  0.62843000  0.56722000  0.12884000  1.0
  H  H42  1  0.66746000  0.73305000  0.92053000  1.0
  H  H43  1  0.48360000  0.42612000  0.86111000  1.0
  C  C44  1  0.24877000  0.05174000  0.55863000  1.0
  C  C45  1  0.97785000  0.79896000  0.42420000  1.0
  C  C46  1  0.24405000  0.05753000  0.42777000  1.0
  C  C47  1  0.97818000  0.79680000  0.56326000  1.0
  C  C48  1  0.79723000  0.97675000  0.56575000  1.0
  C  C49  1  0.05550000  0.25304000  0.43198000  1.0
  C  C50  1  0.79494000  0.97747000  0.42600000  1.0
  C  C51  1  0.05549000  0.24877000  0.56012000  1.0
  C  C52  1  0.03718000  0.45846000  0.61931000  1.0
  C  C53  1  0.02422000  0.52086000  0.68117000  1.0
  C  C54  1  0.00255000  0.58578000  0.62056000  1.0
  C  C55  1  0.58466000  0.00042000  0.62127000  1.0
  C  C56  1  0.51937000  0.02162000  0.68163000  1.0
  C  C57  1  0.45717000  0.03457000  0.61957000  1.0
  C  C58  1  0.58285000  0.99999000  0.36982000  1.0
  C  C59  1  0.45561000  0.03538000  0.37083000  1.0
  C  C60  1  0.51811000  0.02057000  0.30912000  1.0
  C  C61  1  0.03818000  0.46056000  0.37062000  1.0
  C  C62  1  0.02202000  0.52083000  0.30823000  1.0
  C  C63  1  0.00096000  0.58713000  0.36821000  1.0
  C  C64  1  0.50782000  0.96709000  0.87135000  1.0
  C  C65  1  0.54307000  0.09421000  0.86916000  1.0
  C  C66  1  0.52218000  0.02792000  0.80906000  1.0
  C  C67  1  0.48699000  0.75891000  0.05847000  1.0
  C  C68  1  0.74486000  0.48395000  0.92431000  1.0
  C  C69  1  0.48630000  0.75682000  0.92992000  1.0
  C  C70  1  0.74608000  0.48165000  0.06328000  1.0
  C  C71  1  0.56778000  0.30557000  0.06607000  1.0
  C  C72  1  0.29065000  0.56534000  0.93250000  1.0
  C  C73  1  0.56586000  0.30537000  0.92585000  1.0
  C  C74  1  0.29428000  0.56219000  0.06049000  1.0
  C  C75  1  0.08393000  0.54406000  0.87093000  1.0
  C  C76  1  0.02493000  0.52269000  0.80869000  1.0
  C  C77  1  0.95763000  0.50573000  0.86881000  1.0
  C  C78  1  0.50470000  0.96665000  0.11922000  1.0
  C  C79  1  0.52020000  0.02659000  0.18167000  1.0
  C  C80  1  0.54189000  0.09315000  0.12169000  1.0
  C  C81  1  0.08456000  0.53781000  0.11897000  1.0
  C  C82  1  0.95767000  0.50167000  0.12001000  1.0
  C  C83  1  0.02319000  0.51929000  0.18073000  1.0
  C  C84  1  0.56964000  0.22857000  0.08484000  1.0
  C  C85  1  0.55970000  0.16506000  0.10111000  1.0
  C  C86  1  0.48309000  0.83536000  0.07771000  1.0
  C  C87  1  0.48954000  0.89723000  0.09606000  1.0
  C  C88  1  0.21434000  0.56908000  0.91292000  1.0
  C  C89  1  0.15294000  0.56128000  0.89416000  1.0
  C  C90  1  0.82187000  0.48092000  0.90563000  1.0
  C  C91  1  0.88562000  0.48940000  0.88946000  1.0
  C  C92  1  0.21689000  0.56279000  0.07868000  1.0
  C  C93  1  0.15468000  0.55414000  0.09646000  1.0
  C  C94  1  0.82266000  0.47761000  0.08239000  1.0
  C  C95  1  0.88625000  0.48561000  0.09884000  1.0
  C  C96  1  0.56006000  0.16579000  0.88985000  1.0
  C  C97  1  0.56893000  0.22919000  0.90629000  1.0
  C  C98  1  0.49312000  0.89695000  0.89424000  1.0
  C  C99  1  0.48532000  0.83446000  0.91193000  1.0
  C  C100  1  0.02408000  0.51909000  0.22546000  1.0
  C  C101  1  0.02357000  0.51918000  0.26351000  1.0
  C  C102  1  0.51776000  0.02262000  0.26438000  1.0
  C  C103  1  0.51849000  0.02422000  0.22634000  1.0
  C  C104  1  0.51892000  0.02428000  0.72632000  1.0
  C  C105  1  0.52014000  0.02595000  0.76435000  1.0
  C  C106  1  0.02698000  0.52137000  0.76395000  1.0
  C  C107  1  0.02654000  0.52042000  0.72589000  1.0
  C  C108  1  0.98373000  0.65894000  0.38882000  1.0
  C  C109  1  0.97491000  0.72247000  0.40511000  1.0
  C  C110  1  0.05987000  0.32939000  0.41254000  1.0
  C  C111  1  0.05334000  0.39105000  0.39387000  1.0
  C  C112  1  0.97603000  0.72043000  0.58275000  1.0
  C  C113  1  0.98532000  0.65715000  0.59940000  1.0
  C  C114  1  0.05104000  0.38796000  0.59673000  1.0
  C  C115  1  0.05779000  0.32573000  0.57877000  1.0
  C  C116  1  0.71810000  0.97442000  0.40710000  1.0
  C  C117  1  0.65430000  0.98317000  0.39094000  1.0
  C  C118  1  0.32176000  0.05813000  0.40996000  1.0
  C  C119  1  0.38489000  0.05030000  0.39302000  1.0
  C  C120  1  0.65644000  0.98363000  0.60044000  1.0
  C  C121  1  0.72020000  0.97448000  0.58440000  1.0
  C  C122  1  0.32498000  0.05439000  0.57827000  1.0
  C  C123  1  0.38690000  0.04820000  0.59671000  1.0
  N  N124  1  0.04234000  0.45385000  0.66140000  1.0
  N  N125  1  0.00356000  0.58864000  0.66277000  1.0
  N  N126  1  0.01810000  0.52250000  0.59694000  1.0
  N  N127  1  0.58738000  0.00124000  0.66347000  1.0
  N  N128  1  0.45242000  0.03955000  0.66166000  1.0
  N  N129  1  0.52157000  0.01591000  0.59743000  1.0
  N  N130  1  0.51958000  0.01657000  0.39331000  1.0
  N  N131  1  0.45118000  0.03966000  0.32868000  1.0
  N  N132  1  0.58567000  0.99973000  0.32759000  1.0
  N  N133  1  0.04244000  0.45493000  0.32854000  1.0
  N  N134  1  0.00005000  0.58862000  0.32601000  1.0
  N  N135  1  0.01874000  0.52507000  0.39241000  1.0
  N  N136  1  0.52674000  0.03147000  0.89323000  1.0
  N  N137  1  0.54296000  0.09592000  0.82690000  1.0
  N  N138  1  0.50338000  0.96146000  0.82928000  1.0
  N  N139  1  0.09030000  0.54509000  0.82879000  1.0
  N  N140  1  0.95699000  0.50153000  0.82665000  1.0
  N  N141  1  0.01910000  0.52594000  0.89283000  1.0
  N  N142  1  0.50009000  0.96086000  0.16129000  1.0
  N  N143  1  0.54200000  0.09460000  0.16390000  1.0
  N  N144  1  0.52459000  0.03123000  0.09746000  1.0
  N  N145  1  0.02048000  0.51988000  0.09648000  1.0
  N  N146  1  0.95549000  0.49915000  0.16223000  1.0
  N  N147  1  0.08974000  0.53971000  0.16111000  1.0
  O  O148  1  0.21055000  0.98976000  0.56715000  1.0
  O  O149  1  0.22723000  0.10865000  0.53583000  1.0
  O  O150  1  0.03832000  0.83813000  0.41421000  1.0
  O  O151  1  0.92378000  0.81880000  0.44936000  1.0
  O  O152  1  0.20207000  0.00058000  0.41568000  1.0
  O  O153  1  0.22488000  0.11196000  0.45290000  1.0
  O  O154  1  0.03583000  0.83853000  0.57503000  1.0
  O  O155  1  0.92634000  0.81415000  0.53627000  1.0
  O  O156  1  0.17536000  0.85647000  0.53023000  1.0
  O  O157  1  0.07493000  0.96439000  0.61556000  1.0
  O  O158  1  0.17960000  0.86251000  0.45152000  1.0
  O  O159  1  0.06536000  0.97271000  0.37294000  1.0
  O  O160  1  0.12271000  0.00400000  0.49265000  1.0
  O  O161  1  0.04301000  0.88008000  0.49337000  1.0
  O  O162  1  0.83815000  0.03517000  0.57776000  1.0
  O  O163  1  0.81630000  0.92491000  0.53954000  1.0
  O  O164  1  0.99339000  0.21621000  0.42285000  1.0
  O  O165  1  0.11152000  0.23036000  0.45537000  1.0
  O  O166  1  0.83765000  0.03257000  0.41282000  1.0
  O  O167  1  0.81149000  0.92780000  0.45458000  1.0
  O  O168  1  0.99313000  0.21094000  0.56851000  1.0
  O  O169  1  0.11295000  0.22573000  0.53835000  1.0
  O  O170  1  0.85157000  0.17945000  0.55746000  1.0
  O  O171  1  0.97287000  0.07127000  0.61572000  1.0
  O  O172  1  0.85243000  0.17363000  0.44704000  1.0
  O  O173  1  0.96301000  0.07919000  0.37301000  1.0
  O  O174  1  0.87698000  0.05151000  0.49695000  1.0
  O  O175  1  0.00244000  0.12697000  0.49658000  1.0
  O  O176  1  0.97686000  0.97535000  0.53967000  1.0
  O  O177  1  0.07312000  0.08381000  0.43221000  1.0
  O  O178  1  0.07932000  0.07528000  0.55789000  1.0
  O  O179  1  0.97304000  0.97973000  0.44917000  1.0
  O  O180  1  0.54923000  0.72183000  0.06718000  1.0
  O  O181  1  0.43033000  0.73633000  0.03561000  1.0
  O  O182  1  0.70520000  0.54361000  0.91340000  1.0
  O  O183  1  0.72477000  0.43066000  0.94974000  1.0
  O  O184  1  0.54672000  0.71708000  0.91969000  1.0
  O  O185  1  0.42996000  0.73505000  0.95280000  1.0
  O  O186  1  0.70339000  0.53637000  0.07692000  1.0
  O  O187  1  0.72984000  0.43307000  0.03428000  1.0
  O  O188  1  0.69070000  0.67884000  0.04325000  1.0
  O  O189  1  0.57963000  0.58566000  0.11653000  1.0
  O  O190  1  0.68933000  0.68573000  0.93308000  1.0
  O  O191  1  0.57074000  0.58018000  0.87378000  1.0
  O  O192  1  0.53924000  0.63434000  0.99341000  1.0
  O  O193  1  0.66465000  0.55799000  0.99286000  1.0
  O  O194  1  0.51019000  0.34727000  0.07842000  1.0
  O  O195  1  0.61910000  0.32407000  0.03935000  1.0
  O  O196  1  0.32789000  0.50336000  0.92343000  1.0
  O  O197  1  0.31299000  0.62130000  0.95583000  1.0
  O  O198  1  0.51093000  0.34859000  0.91275000  1.0
  O  O199  1  0.61513000  0.32060000  0.95469000  1.0
  O  O200  1  0.33338000  0.50072000  0.06921000  1.0
  O  O201  1  0.31658000  0.62004000  0.03871000  1.0
  O  O202  1  0.36605000  0.35990000  0.05799000  1.0
  O  O203  1  0.47357000  0.48130000  0.11627000  1.0
  O  O204  1  0.37015000  0.36182000  0.94744000  1.0
  O  O205  1  0.46511000  0.47464000  0.87362000  1.0
  O  O206  1  0.49240000  0.38603000  0.99735000  1.0
  O  O207  1  0.41703000  0.51166000  0.99717000  1.0
  O  O208  1  0.56925000  0.48615000  0.03934000  1.0
  O  O209  1  0.46006000  0.58386000  0.93301000  1.0
  O  O210  1  0.46794000  0.58838000  0.05855000  1.0
  O  O211  1  0.56408000  0.48218000  0.94950000  1.0
