# generated using pymatgen
data_CdH11C14N5O6
_symmetry_space_group_name_H-M   'P 1'
_cell_length_a   9.73748000
_cell_length_b   11.98970000
_cell_length_c   14.76390000
_cell_angle_alpha   97.76820000
_cell_angle_beta   90.00000000
_cell_angle_gamma   90.00000000
_symmetry_Int_Tables_number   1
_chemical_formula_structural   CdH11C14N5O6
_chemical_formula_sum   'Cd4 H44 C56 N20 O24'
_cell_volume   1707.85924400
_cell_formula_units_Z   4
loop_
 _symmetry_equiv_pos_site_id
 _symmetry_equiv_pos_as_xyz
  1  'x, y, z'
loop_
 _atom_site_type_symbol
 _atom_site_label
 _atom_site_symmetry_multiplicity
 _atom_site_fract_x
 _atom_site_fract_y
 _atom_site_fract_z
 _atom_site_occupancy
  Cd  Cd0  1  0.40003000  0.44201000  0.88888000  1.0
  Cd  Cd1  1  0.90003000  0.55799000  0.61112000  1.0
  Cd  Cd2  1  0.59997000  0.55799000  0.11112000  1.0
  Cd  Cd3  1  0.09997000  0.44201000  0.38888000  1.0
  H  H4  1  0.05420000  0.18347000  0.46303000  1.0
  H  H5  1  0.55420000  0.81653000  0.03697000  1.0
  H  H6  1  0.94580000  0.81653000  0.53697000  1.0
  H  H7  1  0.44580000  0.18347000  0.96303000  1.0
  H  H8  1  0.31508000  0.94360000  0.57154000  1.0
  H  H9  1  0.81509000  0.05640000  0.92847000  1.0
  H  H10  1  0.68492000  0.05640000  0.42846000  1.0
  H  H11  1  0.18492000  0.94360000  0.07154000  1.0
  H  H12  1  0.35538000  0.08341000  0.71203000  1.0
  H  H13  1  0.85538000  0.91659000  0.78797000  1.0
  H  H14  1  0.64462000  0.91660000  0.28797000  1.0
  H  H15  1  0.14462000  0.08340000  0.21203000  1.0
  H  H16  1  0.27455000  0.68024000  0.02638000  1.0
  H  H17  1  0.77455000  0.31976000  0.47362000  1.0
  H  H18  1  0.72545000  0.31976000  0.97362000  1.0
  H  H19  1  0.22545000  0.68025000  0.52638000  1.0
  H  H20  1  0.00854000  0.75622000  0.00120000  1.0
  H  H21  1  0.50854000  0.24378000  0.49880000  1.0
  H  H22  1  0.99146000  0.24378000  0.99880000  1.0
  H  H23  1  0.49146000  0.75622000  0.50120000  1.0
  H  H24  1  0.90904000  0.60863000  0.87324000  1.0
  H  H25  1  0.40904000  0.39137000  0.62676000  1.0
  H  H26  1  0.09096000  0.39137000  0.12676000  1.0
  H  H27  1  0.59096000  0.60863000  0.37324000  1.0
  H  H28  1  0.07000000  0.44522000  0.83347000  1.0
  H  H29  1  0.57000000  0.55478000  0.66653000  1.0
  H  H30  1  0.93000000  0.55478000  0.16653000  1.0
  H  H31  1  0.43000000  0.44522000  0.33347000  1.0
  H  H32  1  0.71824000  0.46804000  0.80042000  1.0
  H  H33  1  0.21824000  0.53196000  0.69958000  1.0
  H  H34  1  0.28176000  0.53196000  0.19958000  1.0
  H  H35  1  0.78176000  0.46804000  0.30042000  1.0
  H  H36  1  0.87304000  0.30870000  0.73560000  1.0
  H  H37  1  0.37304000  0.69130000  0.76440000  1.0
  H  H38  1  0.12696000  0.69130000  0.26440000  1.0
  H  H39  1  0.62696000  0.30870000  0.23560000  1.0
  H  H40  1  0.76804000  0.11494000  0.75286000  1.0
  H  H41  1  0.26804000  0.88506000  0.74714000  1.0
  H  H42  1  0.23196000  0.88506000  0.24714000  1.0
  H  H43  1  0.73196000  0.11494000  0.25286000  1.0
  H  H44  1  0.51396000  0.16517000  0.83460000  1.0
  H  H45  1  0.01396000  0.83483000  0.66540000  1.0
  H  H46  1  0.48604000  0.83483000  0.16540000  1.0
  H  H47  1  0.98604000  0.16517000  0.33460000  1.0
  C  C48  1  0.26335000  0.29437000  0.74720000  1.0
  C  C49  1  0.76335000  0.70563000  0.75280000  1.0
  C  C50  1  0.73665000  0.70563000  0.25280000  1.0
  C  C51  1  0.23665000  0.29437000  0.24720000  1.0
  C  C52  1  0.22487000  0.20967000  0.66654000  1.0
  C  C53  1  0.72487000  0.79033000  0.83346000  1.0
  C  C54  1  0.77513000  0.79033000  0.33346000  1.0
  C  C55  1  0.27513000  0.20967000  0.16654000  1.0
  C  C56  1  0.13814000  0.23830000  0.59669000  1.0
  C  C57  1  0.63814000  0.76170000  0.90331000  1.0
  C  C58  1  0.86186000  0.76170000  0.40331000  1.0
  C  C59  1  0.36186000  0.23830000  0.09669000  1.0
  C  C60  1  0.05882000  0.34702000  0.60801000  1.0
  C  C61  1  0.55882000  0.65298000  0.89199000  1.0
  C  C62  1  0.94118000  0.65298000  0.39199000  1.0
  C  C63  1  0.44118000  0.34702000  0.10801000  1.0
  C  C64  1  0.11981000  0.16212000  0.51756000  1.0
  C  C65  1  0.61981000  0.83788000  0.98244000  1.0
  C  C66  1  0.88019000  0.83788000  0.48244000  1.0
  C  C67  1  0.38019000  0.16212000  0.01756000  1.0
  C  C68  1  0.18405000  0.05738000  0.51036000  1.0
  C  C69  1  0.68405000  0.94262000  0.98964000  1.0
  C  C70  1  0.81595000  0.94262000  0.48964000  1.0
  C  C71  1  0.31595000  0.05738000  0.01036000  1.0
  C  C72  1  0.26828000  0.02671000  0.57950000  1.0
  C  C73  1  0.76829000  0.97328000  0.92050000  1.0
  C  C74  1  0.73172000  0.97329000  0.42050000  1.0
  C  C75  1  0.23172000  0.02671000  0.07950000  1.0
  C  C76  1  0.28893000  0.10403000  0.65726000  1.0
  C  C77  1  0.78893000  0.89597000  0.84274000  1.0
  C  C78  1  0.71107000  0.89597000  0.34274000  1.0
  C  C79  1  0.21107000  0.10403000  0.15726000  1.0
  C  C80  1  0.19228000  0.64176000  0.98377000  1.0
  C  C81  1  0.69228000  0.35824000  0.51623000  1.0
  C  C82  1  0.80772000  0.35824000  0.01623000  1.0
  C  C83  1  0.30772000  0.64176000  0.48377000  1.0
  C  C84  1  0.06180000  0.68073000  0.97138000  1.0
  C  C85  1  0.56180000  0.31927000  0.52862000  1.0
  C  C86  1  0.93820000  0.31927000  0.02862000  1.0
  C  C87  1  0.43820000  0.68073000  0.47138000  1.0
  C  C88  1  0.09079000  0.51742000  0.88416000  1.0
  C  C89  1  0.59079000  0.48258000  0.61584000  1.0
  C  C90  1  0.90921000  0.48258000  0.11584000  1.0
  C  C91  1  0.40921000  0.51742000  0.38416000  1.0
  C  C92  1  0.69497000  0.37963000  0.80079000  1.0
  C  C93  1  0.19497000  0.62037000  0.69920000  1.0
  C  C94  1  0.30503000  0.62037000  0.19921000  1.0
  C  C95  1  0.80503000  0.37963000  0.30079000  1.0
  C  C96  1  0.71934000  0.19460000  0.77691000  1.0
  C  C97  1  0.21934000  0.80540000  0.72309000  1.0
  C  C98  1  0.28066000  0.80540000  0.22309000  1.0
  C  C99  1  0.78066000  0.19460000  0.27691000  1.0
  C  C100  1  0.59419000  0.22117000  0.81743000  1.0
  C  C101  1  0.09419000  0.77883000  0.68257000  1.0
  C  C102  1  0.40581000  0.77883000  0.18257000  1.0
  C  C103  1  0.90581000  0.22117000  0.31743000  1.0
  N  N104  1  0.16008000  0.97519000  0.42924000  1.0
  N  N105  1  0.66008000  0.02481000  0.07076000  1.0
  N  N106  1  0.83992000  0.02481000  0.57076000  1.0
  N  N107  1  0.33992000  0.97519000  0.92924000  1.0
  N  N108  1  0.20891000  0.53945000  0.92902000  1.0
  N  N109  1  0.70891000  0.46055000  0.57098000  1.0
  N  N110  1  0.79109000  0.46055000  0.07098000  1.0
  N  N111  1  0.29109000  0.53945000  0.42902000  1.0
  N  N112  1  0.99970000  0.60079000  0.90867000  1.0
  N  N113  1  0.49970000  0.39921000  0.59133000  1.0
  N  N114  1  0.00030000  0.39921000  0.09133000  1.0
  N  N115  1  0.50030000  0.60079000  0.40867000  1.0
  N  N116  1  0.58047000  0.33718000  0.83227000  1.0
  N  N117  1  0.08047000  0.66282000  0.66773000  1.0
  N  N118  1  0.41953000  0.66282000  0.16773000  1.0
  N  N119  1  0.91953000  0.33718000  0.33227000  1.0
  N  N120  1  0.78053000  0.29557000  0.76701000  1.0
  N  N121  1  0.28053000  0.70443000  0.73299000  1.0
  N  N122  1  0.21947000  0.70443000  0.23299000  1.0
  N  N123  1  0.71946000  0.29557000  0.26701000  1.0
  O  O124  1  0.30972000  0.38816000  0.72717000  1.0
  O  O125  1  0.80972000  0.61184000  0.77283000  1.0
  O  O126  1  0.69028000  0.61184000  0.27283000  1.0
  O  O127  1  0.19028000  0.38816000  0.22717000  1.0
  O  O128  1  0.25756000  0.26847000  0.82700000  1.0
  O  O129  1  0.75756000  0.73153000  0.67300000  1.0
  O  O130  1  0.74244000  0.73153000  0.17300000  1.0
  O  O131  1  0.24244000  0.26847000  0.32700000  1.0
  O  O132  1  0.04680000  0.40141000  0.53984000  1.0
  O  O133  1  0.54680000  0.59859000  0.96016000  1.0
  O  O134  1  0.95319000  0.59859000  0.46016000  1.0
  O  O135  1  0.45320000  0.40141000  0.03984000  1.0
  O  O136  1  0.00334000  0.37997000  0.68460000  1.0
  O  O137  1  0.50334000  0.62003000  0.81540000  1.0
  O  O138  1  0.99666000  0.62003000  0.31540000  1.0
  O  O139  1  0.49666000  0.37997000  0.18460000  1.0
  O  O140  1  0.09466000  0.00562000  0.36418000  1.0
  O  O141  1  0.59467000  0.99438000  0.13582000  1.0
  O  O142  1  0.90534000  0.99438000  0.63582000  1.0
  O  O143  1  0.40533000  0.00562000  0.86418000  1.0
  O  O144  1  0.20466000  0.87816000  0.42951000  1.0
  O  O145  1  0.70465000  0.12184000  0.07049000  1.0
  O  O146  1  0.79534000  0.12184000  0.57049000  1.0
  O  O147  1  0.29535000  0.87816000  0.92951000  1.0
