# generated using pymatgen
data_AgH3C2SN3Cl
_symmetry_space_group_name_H-M   'P 1'
_cell_length_a   4.39610000
_cell_length_b   6.36699000
_cell_length_c   21.60620000
_cell_angle_alpha   89.99970000
_cell_angle_beta   89.99960000
_cell_angle_gamma   98.09740000
_symmetry_Int_Tables_number   1
_chemical_formula_structural   AgH3C2SN3Cl
_chemical_formula_sum   'Ag4 H12 C8 S4 N12 Cl4'
_cell_volume   598.72652602
_cell_formula_units_Z   4
loop_
 _symmetry_equiv_pos_site_id
 _symmetry_equiv_pos_as_xyz
  1  'x, y, z'
loop_
 _atom_site_type_symbol
 _atom_site_label
 _atom_site_symmetry_multiplicity
 _atom_site_fract_x
 _atom_site_fract_y
 _atom_site_fract_z
 _atom_site_occupancy
  Ag  Ag0  1  0.08956000  0.01117000  0.95422000  1.0
  Ag  Ag1  1  0.91050000  0.98883000  0.45421000  1.0
  Ag  Ag2  1  0.42677000  0.44284000  0.91899000  1.0
  Ag  Ag3  1  0.57325000  0.55716000  0.41898000  1.0
  H  H4  1  0.00295000  0.81920000  0.81348000  1.0
  H  H5  1  0.99705000  0.18079000  0.31348000  1.0
  H  H6  1  0.60777000  0.81240000  0.06240000  1.0
  H  H7  1  0.39222000  0.18760000  0.56239000  1.0
  H  H8  1  0.47558000  0.29657000  0.77903000  1.0
  H  H9  1  0.52442000  0.70343000  0.27902000  1.0
  H  H10  1  0.15917000  0.33805000  0.07454000  1.0
  H  H11  1  0.84084000  0.66194000  0.57454000  1.0
  H  H12  1  0.04153000  0.91503000  0.69824000  1.0
  H  H13  1  0.95843000  0.08496000  0.19823000  1.0
  H  H14  1  0.97423000  0.43095000  0.18555000  1.0
  H  H15  1  0.02577000  0.56905000  0.68554000  1.0
  C  C16  1  0.90261000  0.57807000  0.04302000  1.0
  C  C17  1  0.09739000  0.42194000  0.54301000  1.0
  C  C18  1  0.70791000  0.06257000  0.82147000  1.0
  C  C19  1  0.29210000  0.93743000  0.32146000  1.0
  C  C20  1  0.90055000  0.98313000  0.73174000  1.0
  C  C21  1  0.09941000  0.01687000  0.23173000  1.0
  C  C22  1  0.91244000  0.49897000  0.14218000  1.0
  C  C23  1  0.08755000  0.50103000  0.64217000  1.0
  S  S24  1  0.96095000  0.59025000  0.96471000  1.0
  S  S25  1  0.03906000  0.40975000  0.46470000  1.0
  S  S26  1  0.62593000  0.07816000  0.89835000  1.0
  S  S27  1  0.37412000  0.92185000  0.39834000  1.0
  N  N28  1  0.89682000  0.93858000  0.79370000  1.0
  N  N29  1  0.10318000  0.06142000  0.29369000  1.0
  N  N30  1  0.72399000  0.69022000  0.07690000  1.0
  N  N31  1  0.27601000  0.30977000  0.57690000  1.0
  N  N32  1  0.60550000  0.17298000  0.77450000  1.0
  N  N33  1  0.39450000  0.82702000  0.27449000  1.0
  N  N34  1  0.02387000  0.45502000  0.08529000  1.0
  N  N35  1  0.97611000  0.54499000  0.58528000  1.0
  N  N36  1  0.72733000  0.64296000  0.13837000  1.0
  N  N37  1  0.27269000  0.35701000  0.63836000  1.0
  N  N38  1  0.72390000  0.12674000  0.71866000  1.0
  N  N39  1  0.27606000  0.87326000  0.21865000  1.0
  Cl  Cl40  1  0.24989000  0.55105000  0.80936000  1.0
  Cl  Cl41  1  0.75011000  0.44895000  0.30935000  1.0
  Cl  Cl42  1  0.39043000  0.08968000  0.05323000  1.0
  Cl  Cl43  1  0.60956000  0.91032000  0.55322000  1.0
