# generated using pymatgen
data_BiH13C17O3
_symmetry_space_group_name_H-M   'P 1'
_cell_length_a   9.55822000
_cell_length_b   10.24320000
_cell_length_c   15.67900000
_cell_angle_alpha   101.12600000
_cell_angle_beta   90.00000000
_cell_angle_gamma   90.00000000
_symmetry_Int_Tables_number   1
_chemical_formula_structural   BiH13C17O3
_chemical_formula_sum   'Bi4 H52 C68 O12'
_cell_volume   1506.22855185
_cell_formula_units_Z   4
loop_
 _symmetry_equiv_pos_site_id
 _symmetry_equiv_pos_as_xyz
  1  'x, y, z'
loop_
 _atom_site_type_symbol
 _atom_site_label
 _atom_site_symmetry_multiplicity
 _atom_site_fract_x
 _atom_site_fract_y
 _atom_site_fract_z
 _atom_site_occupancy
  Bi  Bi0  1  0.46940000  0.71509000  0.78896000  1.0
  Bi  Bi1  1  0.96940000  0.78491000  0.71105000  1.0
  Bi  Bi2  1  0.53059000  0.28491000  0.21104000  1.0
  Bi  Bi3  1  0.03060000  0.21509000  0.28895000  1.0
  H  H4  1  0.24592000  0.24298000  0.74232000  1.0
  H  H5  1  0.74592000  0.25702000  0.75768000  1.0
  H  H6  1  0.75407000  0.75702000  0.25767000  1.0
  H  H7  1  0.25408000  0.74298000  0.24232000  1.0
  H  H8  1  0.17529000  0.54219000  0.76998000  1.0
  H  H9  1  0.67529000  0.95781000  0.73002000  1.0
  H  H10  1  0.82471000  0.45781000  0.23002000  1.0
  H  H11  1  0.32472000  0.04219000  0.26998000  1.0
  H  H12  1  0.03245000  0.41986000  0.86113000  1.0
  H  H13  1  0.53245000  0.08014000  0.63886000  1.0
  H  H14  1  0.96755000  0.58013000  0.13887000  1.0
  H  H15  1  0.46756000  0.91986000  0.36113000  1.0
  H  H16  1  0.10921000  0.40908000  0.01110000  1.0
  H  H17  1  0.60921000  0.09091000  0.48890000  1.0
  H  H18  1  0.89079000  0.59091000  0.98890000  1.0
  H  H19  1  0.39079000  0.90908000  0.51110000  1.0
  H  H20  1  0.32737000  0.52462000  0.07136000  1.0
  H  H21  1  0.82738000  0.97538000  0.42864000  1.0
  H  H22  1  0.67263000  0.47538000  0.92864000  1.0
  H  H23  1  0.17263000  0.02462000  0.57136000  1.0
  H  H24  1  0.46955000  0.64786000  0.98113000  1.0
  H  H25  1  0.96956000  0.85214000  0.51888000  1.0
  H  H26  1  0.53045000  0.35214000  0.01887000  1.0
  H  H27  1  0.03045000  0.14786000  0.48113000  1.0
  H  H28  1  0.31524000  0.77336000  0.61374000  1.0
  H  H29  1  0.81524000  0.72664000  0.88627000  1.0
  H  H30  1  0.68475000  0.22664000  0.38627000  1.0
  H  H31  1  0.18476000  0.27336000  0.11373000  1.0
  H  H32  1  0.23352000  0.64892000  0.47222000  1.0
  H  H33  1  0.73352000  0.85109000  0.02779000  1.0
  H  H34  1  0.76648000  0.35108000  0.52778000  1.0
  H  H35  1  0.26648000  0.14892000  0.97222000  1.0
  H  H36  1  0.26223000  0.40198000  0.43446000  1.0
  H  H37  1  0.76224000  0.09803000  0.06554000  1.0
  H  H38  1  0.73776000  0.59802000  0.56554000  1.0
  H  H39  1  0.23777000  0.90198000  0.93445000  1.0
  H  H40  1  0.37393000  0.28220000  0.53985000  1.0
  H  H41  1  0.87393000  0.21780000  0.96015000  1.0
  H  H42  1  0.62607000  0.71780000  0.46014000  1.0
  H  H43  1  0.12607000  0.78220000  0.03985000  1.0
  H  H44  1  0.45691000  0.40648000  0.68234000  1.0
  H  H45  1  0.95691000  0.09352000  0.81766000  1.0
  H  H46  1  0.54309000  0.59352000  0.31766000  1.0
  H  H47  1  0.04310000  0.90648000  0.18233000  1.0
  H  H48  1  0.60869000  0.15639000  0.89004000  1.0
  H  H49  1  0.10869000  0.34361000  0.60996000  1.0
  H  H50  1  0.39131000  0.84362000  0.10996000  1.0
  H  H51  1  0.89131000  0.65639000  0.39004000  1.0
  H  H52  1  0.47801000  0.36021000  0.82678000  1.0
  H  H53  1  0.97801000  0.13979000  0.67322000  1.0
  H  H54  1  0.52198000  0.63980000  0.17322000  1.0
  H  H55  1  0.02199000  0.86021000  0.32678000  1.0
  C  C56  1  0.32575000  0.19600000  0.77525000  1.0
  C  C57  1  0.82575000  0.30400000  0.72475000  1.0
  C  C58  1  0.67424000  0.80400000  0.22475000  1.0
  C  C59  1  0.17425000  0.69600000  0.27525000  1.0
  C  C60  1  0.33253000  0.60311000  0.86898000  1.0
  C  C61  1  0.83253000  0.89689000  0.63103000  1.0
  C  C62  1  0.66747000  0.39689000  0.13102000  1.0
  C  C63  1  0.16747000  0.10311000  0.36897000  1.0
  C  C64  1  0.20860000  0.53944000  0.83620000  1.0
  C  C65  1  0.70859000  0.96056000  0.66380000  1.0
  C  C66  1  0.79140000  0.46056000  0.16380000  1.0
  C  C67  1  0.29141000  0.03944000  0.33620000  1.0
  C  C68  1  0.12832000  0.47017000  0.88735000  1.0
  C  C69  1  0.62833000  0.02983000  0.61265000  1.0
  C  C70  1  0.87168000  0.52983000  0.11265000  1.0
  C  C71  1  0.37168000  0.97017000  0.38735000  1.0
  C  C72  1  0.17158000  0.46402000  0.97168000  1.0
  C  C73  1  0.67158000  0.03598000  0.52832000  1.0
  C  C74  1  0.82842000  0.53598000  0.02832000  1.0
  C  C75  1  0.32842000  0.96402000  0.47168000  1.0
  C  C76  1  0.29380000  0.52891000  0.00541000  1.0
  C  C77  1  0.79381000  0.97109000  0.49459000  1.0
  C  C78  1  0.70619000  0.47109000  0.99459000  1.0
  C  C79  1  0.20620000  0.02891000  0.50541000  1.0
  C  C80  1  0.37355000  0.59859000  0.95410000  1.0
  C  C81  1  0.87355000  0.90141000  0.54591000  1.0
  C  C82  1  0.62645000  0.40141000  0.04590000  1.0
  C  C83  1  0.12646000  0.09859000  0.45410000  1.0
  C  C84  1  0.39060000  0.59868000  0.65901000  1.0
  C  C85  1  0.89060000  0.90132000  0.84099000  1.0
  C  C86  1  0.60939000  0.40132000  0.34099000  1.0
  C  C87  1  0.10940000  0.09868000  0.15901000  1.0
  C  C88  1  0.32811000  0.66547000  0.59885000  1.0
  C  C89  1  0.82812000  0.83453000  0.90116000  1.0
  C  C90  1  0.67188000  0.33453000  0.40115000  1.0
  C  C91  1  0.17189000  0.16547000  0.09884000  1.0
  C  C92  1  0.28107000  0.59515000  0.51854000  1.0
  C  C93  1  0.78108000  0.90485000  0.98147000  1.0
  C  C94  1  0.71892000  0.40484000  0.48146000  1.0
  C  C95  1  0.21893000  0.09515000  0.01854000  1.0
  C  C96  1  0.29693000  0.45711000  0.49734000  1.0
  C  C97  1  0.79693000  0.04290000  0.00267000  1.0
  C  C98  1  0.70307000  0.54289000  0.50266000  1.0
  C  C99  1  0.20307000  0.95711000  0.99733000  1.0
  C  C100  1  0.36034000  0.38995000  0.55661000  1.0
  C  C101  1  0.86034000  0.11006000  0.94339000  1.0
  C  C102  1  0.63966000  0.61005000  0.44339000  1.0
  C  C103  1  0.13966000  0.88994000  0.05661000  1.0
  C  C104  1  0.40671000  0.46029000  0.63709000  1.0
  C  C105  1  0.90672000  0.03971000  0.86292000  1.0
  C  C106  1  0.59328000  0.53971000  0.36291000  1.0
  C  C107  1  0.09329000  0.96029000  0.13708000  1.0
  C  C108  1  0.23176000  0.95329000  0.75759000  1.0
  C  C109  1  0.73176000  0.54671000  0.74241000  1.0
  C  C110  1  0.76824000  0.04671000  0.24241000  1.0
  C  C111  1  0.26824000  0.45330000  0.25759000  1.0
  C  C112  1  0.32767000  0.06463000  0.78350000  1.0
  C  C113  1  0.82766000  0.43538000  0.71650000  1.0
  C  C114  1  0.67233000  0.93538000  0.21649000  1.0
  C  C115  1  0.17234000  0.56463000  0.28350000  1.0
  C  C116  1  0.51384000  0.15946000  0.85240000  1.0
  C  C117  1  0.01384000  0.34054000  0.64761000  1.0
  C  C118  1  0.48615000  0.84055000  0.14760000  1.0
  C  C119  1  0.98616000  0.65946000  0.35240000  1.0
  C  C120  1  0.44589000  0.25712000  0.81978000  1.0
  C  C121  1  0.94589000  0.24288000  0.68023000  1.0
  C  C122  1  0.55411000  0.74288000  0.18022000  1.0
  C  C123  1  0.05411000  0.75712000  0.31978000  1.0
  O  O124  1  0.25449000  0.84243000  0.78090000  1.0
  O  O125  1  0.75449000  0.65757000  0.71910000  1.0
  O  O126  1  0.74551000  0.15757000  0.21909000  1.0
  O  O127  1  0.24551000  0.34243000  0.28090000  1.0
  O  O128  1  0.12316000  0.97250000  0.71331000  1.0
  O  O129  1  0.62316000  0.52749000  0.78669000  1.0
  O  O130  1  0.87684000  0.02749000  0.28668000  1.0
  O  O131  1  0.37684000  0.47250000  0.21331000  1.0
  O  O132  1  0.44362000  0.04169000  0.83126000  1.0
  O  O133  1  0.94362000  0.45831000  0.66874000  1.0
  O  O134  1  0.55638000  0.95831000  0.16874000  1.0
  O  O135  1  0.05639000  0.54170000  0.33126000  1.0
