# generated using pymatgen
data_CdH25C32N7O5
_symmetry_space_group_name_H-M   'P 1'
_cell_length_a   10.21220000
_cell_length_b   17.28670000
_cell_length_c   21.72710000
_cell_angle_alpha   98.15830000
_cell_angle_beta   90.00730000
_cell_angle_gamma   107.17800000
_symmetry_Int_Tables_number   1
_chemical_formula_structural   CdH25C32N7O5
_chemical_formula_sum   'Cd4 H100 C128 N28 O20'
_cell_volume   3623.82863101
_cell_formula_units_Z   4
loop_
 _symmetry_equiv_pos_site_id
 _symmetry_equiv_pos_as_xyz
  1  'x, y, z'
loop_
 _atom_site_type_symbol
 _atom_site_label
 _atom_site_symmetry_multiplicity
 _atom_site_fract_x
 _atom_site_fract_y
 _atom_site_fract_z
 _atom_site_occupancy
  Cd  Cd0  1  0.52169000  0.48333000  0.64709000  1.0
  Cd  Cd1  1  0.03841000  0.51667000  0.85291000  1.0
  Cd  Cd2  1  0.47831000  0.51667000  0.35291000  1.0
  Cd  Cd3  1  0.96159000  0.48333000  0.14709000  1.0
  H  H4  1  0.74383000  0.69410000  0.67341000  1.0
  H  H5  1  0.04980000  0.30604000  0.82669000  1.0
  H  H6  1  0.25616000  0.30590000  0.32659000  1.0
  H  H7  1  0.95020000  0.69396000  0.17331000  1.0
  H  H8  1  0.47497000  0.58031000  0.51777000  1.0
  H  H9  1  0.89432000  0.41963000  0.98229000  1.0
  H  H10  1  0.52503000  0.41969000  0.48223000  1.0
  H  H11  1  0.10568000  0.58037000  0.01771000  1.0
  H  H12  1  0.54932000  0.68682000  0.45194000  1.0
  H  H13  1  0.86243000  0.31306000  0.04811000  1.0
  H  H14  1  0.45068000  0.31318000  0.54806000  1.0
  H  H15  1  0.13757000  0.68694000  0.95189000  1.0
  H  H16  1  0.72637000  0.74176000  0.46560000  1.0
  H  H17  1  0.98469000  0.25823000  0.03442000  1.0
  H  H18  1  0.27363000  0.25824000  0.53440000  1.0
  H  H19  1  0.01531000  0.74177000  0.96558000  1.0
  H  H20  1  0.40556000  0.77049000  0.54189000  1.0
  H  H21  1  0.63522000  0.22945000  0.95814000  1.0
  H  H22  1  0.59444000  0.22951000  0.45811000  1.0
  H  H23  1  0.36478000  0.77055000  0.04186000  1.0
  H  H24  1  0.34540000  0.89808000  0.54878000  1.0
  H  H25  1  0.44736000  0.10193000  0.95122000  1.0
  H  H26  1  0.65461000  0.10192000  0.45122000  1.0
  H  H27  1  0.55264000  0.89807000  0.04878000  1.0
  H  H28  1  0.76357000  0.87434000  0.44251000  1.0
  H  H29  1  0.88928000  0.12549000  0.05751000  1.0
  H  H30  1  0.23643000  0.12565000  0.55749000  1.0
  H  H31  1  0.11072000  0.87451000  0.94249000  1.0
  H  H32  1  0.70324000  0.00159000  0.44731000  1.0
  H  H33  1  0.70155000  0.99832000  0.05270000  1.0
  H  H34  1  0.29677000  0.99841000  0.55268000  1.0
  H  H35  1  0.29845000  0.00168000  0.94730000  1.0
  H  H36  1  0.51231000  0.88270000  0.67312000  1.0
  H  H37  1  0.62942000  0.11715000  0.82680000  1.0
  H  H38  1  0.48769000  0.11730000  0.32688000  1.0
  H  H39  1  0.37058000  0.88285000  0.17320000  1.0
  H  H40  1  0.61488000  0.01520000  0.85958000  1.0
  H  H41  1  0.59968000  0.98469000  0.64033000  1.0
  H  H42  1  0.38512000  0.98480000  0.14042000  1.0
  H  H43  1  0.40033000  0.01531000  0.35967000  1.0
  H  H44  1  0.55572000  0.88532000  0.90063000  1.0
  H  H45  1  0.67039000  0.11458000  0.59929000  1.0
  H  H46  1  0.44428000  0.11468000  0.09937000  1.0
  H  H47  1  0.32961000  0.88542000  0.40071000  1.0
  H  H48  1  0.45754000  0.75353000  0.71487000  1.0
  H  H49  1  0.70365000  0.24631000  0.78505000  1.0
  H  H50  1  0.54246000  0.24647000  0.28513000  1.0
  H  H51  1  0.29635000  0.75369000  0.21495000  1.0
  H  H52  1  0.50392000  0.74150000  0.88660000  1.0
  H  H53  1  0.76249000  0.25847000  0.61339000  1.0
  H  H54  1  0.49609000  0.25850000  0.11340000  1.0
  H  H55  1  0.23751000  0.74153000  0.38661000  1.0
  H  H56  1  0.35804000  0.69949000  0.83478000  1.0
  H  H57  1  0.65856000  0.30046000  0.66516000  1.0
  H  H58  1  0.64196000  0.30051000  0.16522000  1.0
  H  H59  1  0.34144000  0.69954000  0.33484000  1.0
  H  H60  1  0.78276000  0.60936000  0.76261000  1.0
  H  H61  1  0.17336000  0.39064000  0.73740000  1.0
  H  H62  1  0.21724000  0.39064000  0.23739000  1.0
  H  H63  1  0.82664000  0.60936000  0.26260000  1.0
  H  H64  1  0.36135000  0.58272000  0.75177000  1.0
  H  H65  1  0.77852000  0.41721000  0.74824000  1.0
  H  H66  1  0.63865000  0.41728000  0.24823000  1.0
  H  H67  1  0.22148000  0.58279000  0.25176000  1.0
  H  H68  1  0.57053000  0.43387000  0.78397000  1.0
  H  H69  1  0.13657000  0.56628000  0.71602000  1.0
  H  H70  1  0.42947000  0.56613000  0.21603000  1.0
  H  H71  1  0.86343000  0.43372000  0.28398000  1.0
  H  H72  1  0.30460000  0.29839000  0.63687000  1.0
  H  H73  1  0.00614000  0.70166000  0.86316000  1.0
  H  H74  1  0.69540000  0.70161000  0.36313000  1.0
  H  H75  1  0.99386000  0.29835000  0.13684000  1.0
  H  H76  1  0.20235000  0.18556000  0.69940000  1.0
  H  H77  1  0.01669000  0.81456000  0.80071000  1.0
  H  H78  1  0.79766000  0.81444000  0.30060000  1.0
  H  H79  1  0.98331000  0.18544000  0.19929000  1.0
  H  H80  1  0.28903000  0.20152000  0.81037000  1.0
  H  H81  1  0.08755000  0.79874000  0.68975000  1.0
  H  H82  1  0.71097000  0.79848000  0.18963000  1.0
  H  H83  1  0.91244000  0.20126000  0.31025000  1.0
  H  H84  1  0.51904000  0.28212000  0.88402000  1.0
  H  H85  1  0.23695000  0.71812000  0.61607000  1.0
  H  H86  1  0.48096000  0.71788000  0.11598000  1.0
  H  H87  1  0.76305000  0.28188000  0.38393000  1.0
  H  H88  1  0.57800000  0.38987000  0.88001000  1.0
  H  H89  1  0.18816000  0.61037000  0.62006000  1.0
  H  H90  1  0.42200000  0.61013000  0.11999000  1.0
  H  H91  1  0.81184000  0.38963000  0.37994000  1.0
  H  H92  1  0.62127000  0.37735000  0.97771000  1.0
  H  H93  1  0.24410000  0.62276000  0.52230000  1.0
  H  H94  1  0.37872000  0.62265000  0.02229000  1.0
  H  H95  1  0.75590000  0.37724000  0.47770000  1.0
  H  H96  1  0.20179000  0.38478000  0.98096000  1.0
  H  H97  1  0.81710000  0.61516000  0.51900000  1.0
  H  H98  1  0.79821000  0.61522000  0.01904000  1.0
  H  H99  1  0.18290000  0.38484000  0.48100000  1.0
  H  H100  1  0.47112000  0.47771000  0.14468000  1.0
  H  H101  1  0.99353000  0.52214000  0.35533000  1.0
  H  H102  1  0.52888000  0.52229000  0.85532000  1.0
  H  H103  1  0.00647000  0.47786000  0.64467000  1.0
  C  C104  1  0.68850000  0.68274000  0.62885000  1.0
  C  C105  1  0.00575000  0.31735000  0.87123000  1.0
  C  C106  1  0.31150000  0.31726000  0.37115000  1.0
  C  C107  1  0.99425000  0.68265000  0.12877000  1.0
  C  C108  1  0.55103000  0.62262000  0.55121000  1.0
  C  C109  1  0.92815000  0.37735000  0.94885000  1.0
  C  C110  1  0.44897000  0.37738000  0.44879000  1.0
  C  C111  1  0.07185000  0.62265000  0.05115000  1.0
  C  C112  1  0.62407000  0.73379000  0.48421000  1.0
  C  C113  1  0.89029000  0.26614000  0.01583000  1.0
  C  C114  1  0.37593000  0.26621000  0.51579000  1.0
  C  C115  1  0.10971000  0.73386000  0.98417000  1.0
  C  C116  1  0.58945000  0.81318000  0.49186000  1.0
  C  C117  1  0.77638000  0.18672000  0.00814000  1.0
  C  C118  1  0.41056000  0.18682000  0.50814000  1.0
  C  C119  1  0.22362000  0.81328000  0.99186000  1.0
  C  C120  1  0.47193000  0.82169000  0.52168000  1.0
  C  C121  1  0.65034000  0.17822000  0.97833000  1.0
  C  C122  1  0.52807000  0.17831000  0.47832000  1.0
  C  C123  1  0.34966000  0.82178000  0.02167000  1.0
  C  C124  1  0.43797000  0.89437000  0.52523000  1.0
  C  C125  1  0.54363000  0.10558000  0.97476000  1.0
  C  C126  1  0.56203000  0.10563000  0.47477000  1.0
  C  C127  1  0.45637000  0.89442000  0.02524000  1.0
  C  C128  1  0.67120000  0.87955000  0.46583000  1.0
  C  C129  1  0.79171000  0.12033000  0.03418000  1.0
  C  C130  1  0.32880000  0.12045000  0.53417000  1.0
  C  C131  1  0.20829000  0.87967000  0.96582000  1.0
  C  C132  1  0.63656000  0.95202000  0.46883000  1.0
  C  C133  1  0.68453000  0.04791000  0.03117000  1.0
  C  C134  1  0.36344000  0.04798000  0.53117000  1.0
  C  C135  1  0.31547000  0.95209000  0.96883000  1.0
  C  C136  1  0.51896000  0.96157000  0.49864000  1.0
  C  C137  1  0.55736000  0.03840000  0.00136000  1.0
  C  C138  1  0.48104000  0.03843000  0.50136000  1.0
  C  C139  1  0.44263000  0.96160000  0.99864000  1.0
  C  C140  1  0.56792000  0.96064000  0.76263000  1.0
  C  C141  1  0.60720000  0.03922000  0.73728000  1.0
  C  C142  1  0.43208000  0.03936000  0.23736000  1.0
  C  C143  1  0.39280000  0.96078000  0.26272000  1.0
  C  C144  1  0.52206000  0.88475000  0.72332000  1.0
  C  C145  1  0.63711000  0.11509000  0.77660000  1.0
  C  C146  1  0.47795000  0.11525000  0.27668000  1.0
  C  C147  1  0.36289000  0.88491000  0.22340000  1.0
  C  C148  1  0.57819000  0.95863000  0.82692000  1.0
  C  C149  1  0.61955000  0.04125000  0.67299000  1.0
  C  C150  1  0.42181000  0.04137000  0.17308000  1.0
  C  C151  1  0.38045000  0.95875000  0.32701000  1.0
  C  C152  1  0.54584000  0.88479000  0.85057000  1.0
  C  C153  1  0.66102000  0.11509000  0.64935000  1.0
  C  C154  1  0.45416000  0.11521000  0.14943000  1.0
  C  C155  1  0.33898000  0.88491000  0.35065000  1.0
  C  C156  1  0.49020000  0.81104000  0.74697000  1.0
  C  C157  1  0.67888000  0.18881000  0.75295000  1.0
  C  C158  1  0.50980000  0.18896000  0.25303000  1.0
  C  C159  1  0.32113000  0.81119000  0.24705000  1.0
  C  C160  1  0.50207000  0.81010000  0.81105000  1.0
  C  C161  1  0.69186000  0.18977000  0.68888000  1.0
  C  C162  1  0.49793000  0.18990000  0.18895000  1.0
  C  C163  1  0.30815000  0.81023000  0.31112000  1.0
  C  C164  1  0.46903000  0.73075000  0.83751000  1.0
  C  C165  1  0.73827000  0.26917000  0.66247000  1.0
  C  C166  1  0.53097000  0.26925000  0.16250000  1.0
  C  C167  1  0.26173000  0.73083000  0.33753000  1.0
  C  C168  1  0.68505000  0.62119000  0.77000000  1.0
  C  C169  1  0.06379000  0.37879000  0.73003000  1.0
  C  C170  1  0.31495000  0.37881000  0.23000000  1.0
  C  C171  1  0.93621000  0.62121000  0.26998000  1.0
  C  C172  1  0.47023000  0.60548000  0.76367000  1.0
  C  C173  1  0.86466000  0.39447000  0.73635000  1.0
  C  C174  1  0.52977000  0.39452000  0.23633000  1.0
  C  C175  1  0.13534000  0.60553000  0.26365000  1.0
  C  C176  1  0.48881000  0.37794000  0.76651000  1.0
  C  C177  1  0.11079000  0.62222000  0.73351000  1.0
  C  C178  1  0.51120000  0.62207000  0.23349000  1.0
  C  C179  1  0.88921000  0.37778000  0.26649000  1.0
  C  C180  1  0.34172000  0.30142000  0.68444000  1.0
  C  C181  1  0.04023000  0.69869000  0.81560000  1.0
  C  C182  1  0.65828000  0.69859000  0.31556000  1.0
  C  C183  1  0.95977000  0.30131000  0.18440000  1.0
  C  C184  1  0.28451000  0.23934000  0.71975000  1.0
  C  C185  1  0.04510000  0.76081000  0.78033000  1.0
  C  C186  1  0.71549000  0.76067000  0.28025000  1.0
  C  C187  1  0.95490000  0.23919000  0.21967000  1.0
  C  C188  1  0.33260000  0.24843000  0.78116000  1.0
  C  C189  1  0.08410000  0.75177000  0.71892000  1.0
  C  C190  1  0.66740000  0.75157000  0.21884000  1.0
  C  C191  1  0.91590000  0.24823000  0.28108000  1.0
  C  C192  1  0.43646000  0.31936000  0.80555000  1.0
  C  C193  1  0.11703000  0.68083000  0.69451000  1.0
  C  C194  1  0.56354000  0.68064000  0.19445000  1.0
  C  C195  1  0.88297000  0.31917000  0.30549000  1.0
  C  C196  1  0.48852000  0.33475000  0.87221000  1.0
  C  C197  1  0.15379000  0.66549000  0.62785000  1.0
  C  C198  1  0.51148000  0.66525000  0.12779000  1.0
  C  C199  1  0.84621000  0.33451000  0.37214000  1.0
  C  C200  1  0.40779000  0.37675000  0.97178000  1.0
  C  C201  1  0.03116000  0.62333000  0.52825000  1.0
  C  C202  1  0.59221000  0.62325000  0.02822000  1.0
  C  C203  1  0.96884000  0.37667000  0.47175000  1.0
  C  C204  1  0.53565000  0.39118000  0.00173000  1.0
  C  C205  1  0.14459000  0.60890000  0.49830000  1.0
  C  C206  1  0.46435000  0.60882000  0.99827000  1.0
  C  C207  1  0.85541000  0.39110000  0.50170000  1.0
  C  C208  1  0.30067000  0.39581000  0.00480000  1.0
  C  C209  1  0.90499000  0.60414000  0.49519000  1.0
  C  C210  1  0.69933000  0.60419000  0.99519000  1.0
  C  C211  1  0.09501000  0.39586000  0.50481000  1.0
  C  C212  1  0.21010000  0.45500000  0.10230000  1.0
  C  C213  1  0.75513000  0.54493000  0.39773000  1.0
  C  C214  1  0.78990000  0.54500000  0.89770000  1.0
  C  C215  1  0.24487000  0.45507000  0.60227000  1.0
  C  C216  1  0.32283000  0.43184000  0.06711000  1.0
  C  C217  1  0.89110000  0.56804000  0.43290000  1.0
  C  C218  1  0.67717000  0.56816000  0.93289000  1.0
  C  C219  1  0.10890000  0.43196000  0.56710000  1.0
  C  C220  1  0.45199000  0.44843000  0.09657000  1.0
  C  C221  1  0.00367000  0.55145000  0.40343000  1.0
  C  C222  1  0.54801000  0.55157000  0.90343000  1.0
  C  C223  1  0.99632000  0.44855000  0.59657000  1.0
  C  C224  1  0.55737000  0.42746000  0.06439000  1.0
  C  C225  1  0.13001000  0.57251000  0.43566000  1.0
  C  C226  1  0.44263000  0.57254000  0.93561000  1.0
  C  C227  1  0.86999000  0.42749000  0.56434000  1.0
  C  C228  1  0.69543000  0.44544000  0.09632000  1.0
  C  C229  1  0.25012000  0.55455000  0.40376000  1.0
  C  C230  1  0.30456000  0.55456000  0.90368000  1.0
  C  C231  1  0.74988000  0.44545000  0.59624000  1.0
  N  N232  1  0.44279000  0.36935000  0.70713000  1.0
  N  N233  1  0.07336000  0.63076000  0.79288000  1.0
  N  N234  1  0.55721000  0.63065000  0.29287000  1.0
  N  N235  1  0.92664000  0.36924000  0.20712000  1.0
  N  N236  1  0.56458000  0.57088000  0.74135000  1.0
  N  N237  1  0.99362000  0.42909000  0.75866000  1.0
  N  N238  1  0.43542000  0.42912000  0.25865000  1.0
  N  N239  1  0.00638000  0.57091000  0.24134000  1.0
  N  N240  1  0.67018000  0.68479000  0.80833000  1.0
  N  N241  1  0.98534000  0.31518000  0.69170000  1.0
  N  N242  1  0.32982000  0.31521000  0.19167000  1.0
  N  N243  1  0.01465000  0.68482000  0.30830000  1.0
  N  N244  1  0.53206000  0.67312000  0.80375000  1.0
  N  N245  1  0.85887000  0.32681000  0.69628000  1.0
  N  N246  1  0.46794000  0.32688000  0.19625000  1.0
  N  N247  1  0.14113000  0.67319000  0.30373000  1.0
  N  N248  1  0.59056000  0.61071000  0.60677000  1.0
  N  N249  1  0.97966000  0.38932000  0.89331000  1.0
  N  N250  1  0.40944000  0.38929000  0.39323000  1.0
  N  N251  1  0.02034000  0.61068000  0.10669000  1.0
  N  N252  1  0.71116000  0.73803000  0.59040000  1.0
  N  N253  1  0.97319000  0.26203000  0.90966000  1.0
  N  N254  1  0.28884000  0.26197000  0.40960000  1.0
  N  N255  1  0.02681000  0.73797000  0.09034000  1.0
  N  N256  1  0.62208000  0.69856000  0.54125000  1.0
  N  N257  1  0.92345000  0.30143000  0.95879000  1.0
  N  N258  1  0.37791000  0.30144000  0.45874000  1.0
  N  N259  1  0.07655000  0.69857000  0.04121000  1.0
  O  O260  1  0.23822000  0.50235000  0.15385000  1.0
  O  O261  1  0.73583000  0.49765000  0.34615000  1.0
  O  O262  1  0.76178000  0.49765000  0.84615000  1.0
  O  O263  1  0.26417000  0.50235000  0.65385000  1.0
  O  O264  1  0.08801000  0.42517000  0.07765000  1.0
  O  O265  1  0.66289000  0.57477000  0.42239000  1.0
  O  O266  1  0.91200000  0.57483000  0.92235000  1.0
  O  O267  1  0.33711000  0.42523000  0.57761000  1.0
  O  O268  1  0.71829000  0.48439000  0.15140000  1.0
  O  O269  1  0.23404000  0.51572000  0.34864000  1.0
  O  O270  1  0.28171000  0.51561000  0.84860000  1.0
  O  O271  1  0.76595000  0.48428000  0.65136000  1.0
  O  O272  1  0.78687000  0.42015000  0.06639000  1.0
  O  O273  1  0.36681000  0.57977000  0.43371000  1.0
  O  O274  1  0.21313000  0.57985000  0.93361000  1.0
  O  O275  1  0.63320000  0.42023000  0.56629000  1.0
  O  O276  1  0.37759000  0.34542000  0.91006000  1.0
  O  O277  1  0.03226000  0.65480000  0.58994000  1.0
  O  O278  1  0.62241000  0.65458000  0.08994000  1.0
  O  O279  1  0.96774000  0.34520000  0.41006000  1.0
