# generated using pymatgen
data_TmH27C21NO8
_symmetry_space_group_name_H-M   'P 1'
_cell_length_a   9.91260000
_cell_length_b   12.54120000
_cell_length_c   13.07710000
_cell_angle_alpha   72.62920000
_cell_angle_beta   80.55370000
_cell_angle_gamma   79.82140000
_symmetry_Int_Tables_number   1
_chemical_formula_structural   TmH27C21NO8
_chemical_formula_sum   'Tm2 H54 C42 N2 O16'
_cell_volume   1516.35977704
_cell_formula_units_Z   2
loop_
 _symmetry_equiv_pos_site_id
 _symmetry_equiv_pos_as_xyz
  1  'x, y, z'
loop_
 _atom_site_type_symbol
 _atom_site_label
 _atom_site_symmetry_multiplicity
 _atom_site_fract_x
 _atom_site_fract_y
 _atom_site_fract_z
 _atom_site_occupancy
  Tm  Tm0  1  0.46831000  0.36501000  0.62678000  1.0
  Tm  Tm1  1  0.53169000  0.63498000  0.37323000  1.0
  H  H2  1  0.83674000  0.04384000  0.50244000  1.0
  H  H3  1  0.16324000  0.95615000  0.49757000  1.0
  H  H4  1  0.74855000  0.05066000  0.63040000  1.0
  H  H5  1  0.25143000  0.94933000  0.36961000  1.0
  H  H6  1  0.73338000  0.16990000  0.51752000  1.0
  H  H7  1  0.26661000  0.83009000  0.48249000  1.0
  H  H8  1  0.31074000  0.24614000  0.36096000  1.0
  H  H9  1  0.68926000  0.75385000  0.63902000  1.0
  H  H10  1  0.19004000  0.14806000  0.40713000  1.0
  H  H11  1  0.80997000  0.85194000  0.59286000  1.0
  H  H12  1  0.30877000  0.14557000  0.29117000  1.0
  H  H13  1  0.69123000  0.85442000  0.70882000  1.0
  H  H14  1  0.70368000  0.56155000  0.66575000  1.0
  H  H15  1  0.29633000  0.43845000  0.33424000  1.0
  H  H16  1  0.83565000  0.60496000  0.71493000  1.0
  H  H17  1  0.16435000  0.39504000  0.28507000  1.0
  H  H18  1  0.81132000  0.46151000  0.75367000  1.0
  H  H19  1  0.18869000  0.53849000  0.24633000  1.0
  H  H20  1  0.81603000  0.34967000  0.39760000  1.0
  H  H21  1  0.18397000  0.65034000  0.60239000  1.0
  H  H22  1  0.99153000  0.30303000  0.36086000  1.0
  H  H23  1  0.00848000  0.69697000  0.63913000  1.0
  H  H24  1  0.90884000  0.43198000  0.28362000  1.0
  H  H25  1  0.09117000  0.56802000  0.71637000  1.0
  H  H26  1  0.73760000  0.11308000  0.78435000  1.0
  H  H27  1  0.26238000  0.88692000  0.21568000  1.0
  H  H28  1  0.78390000  0.96487000  0.81212000  1.0
  H  H29  1  0.21609000  0.03514000  0.18789000  1.0
  H  H30  1  0.83603000  0.03743000  0.89223000  1.0
  H  H31  1  0.16397000  0.96258000  0.10778000  1.0
  H  H32  1  0.25516000  0.22281000  0.88630000  1.0
  H  H33  1  0.74484000  0.77720000  0.11372000  1.0
  H  H34  1  0.20885000  0.19444000  0.02748000  1.0
  H  H35  1  0.79116000  0.80558000  0.97254000  1.0
  H  H36  1  0.16185000  0.10856000  0.95780000  1.0
  H  H37  1  0.83816000  0.89146000  0.04222000  1.0
  H  H38  1  0.25383000  0.21841000  0.57821000  1.0
  H  H39  1  0.74618000  0.78158000  0.42178000  1.0
  H  H40  1  0.98628000  0.18590000  0.84640000  1.0
  H  H41  1  0.01374000  0.81409000  0.15359000  1.0
  H  H42  1  0.88504000  0.28511000  0.74936000  1.0
  H  H43  1  0.11497000  0.71488000  0.25063000  1.0
  H  H44  1  0.03378000  0.32422000  0.78530000  1.0
  H  H45  1  0.96624000  0.67577000  0.21469000  1.0
  H  H46  1  0.09759000  0.12010000  0.57749000  1.0
  H  H47  1  0.90242000  0.87989000  0.42251000  1.0
  H  H48  1  0.92394000  0.17835000  0.61460000  1.0
  H  H49  1  0.07607000  0.82163000  0.38539000  1.0
  H  H50  1  0.00982000  0.06133000  0.70762000  1.0
  H  H51  1  0.99020000  0.93866000  0.29238000  1.0
  H  H52  1  0.42143000  0.59261000  0.69026000  1.0
  H  H53  1  0.57853000  0.40739000  0.30974000  1.0
  H  H54  1  0.44216000  0.47352000  0.78636000  1.0
  H  H55  1  0.55783000  0.52648000  0.21363000  1.0
  C  C56  1  0.52998000  0.23727000  0.42531000  1.0
  C  C57  1  0.46999000  0.76274000  0.57470000  1.0
  C  C58  1  0.51595000  0.11337000  0.46163000  1.0
  C  C59  1  0.48404000  0.88664000  0.53837000  1.0
  C  C60  1  0.61654000  0.03786000  0.52059000  1.0
  C  C61  1  0.38344000  0.96213000  0.47941000  1.0
  C  C62  1  0.73979000  0.07786000  0.54362000  1.0
  C  C63  1  0.26019000  0.92214000  0.45638000  1.0
  C  C64  1  0.40011000  0.07695000  0.44012000  1.0
  C  C65  1  0.59988000  0.92305000  0.55987000  1.0
  C  C66  1  0.29720000  0.15858000  0.37202000  1.0
  C  C67  1  0.70280000  0.84142000  0.62796000  1.0
  C  C68  1  0.73502000  0.42239000  0.55181000  1.0
  C  C69  1  0.26499000  0.57762000  0.44819000  1.0
  C  C70  1  0.87388000  0.46154000  0.52451000  1.0
  C  C71  1  0.12612000  0.53847000  0.47548000  1.0
  C  C72  1  0.90958000  0.52023000  0.59030000  1.0
  C  C73  1  0.09043000  0.47977000  0.40970000  1.0
  C  C74  1  0.81030000  0.53860000  0.68577000  1.0
  C  C75  1  0.18971000  0.46139000  0.31423000  1.0
  C  C76  1  0.96123000  0.44029000  0.43472000  1.0
  C  C77  1  0.03878000  0.55971000  0.56527000  1.0
  C  C78  1  0.91702000  0.37791000  0.36639000  1.0
  C  C79  1  0.08298000  0.62209000  0.63360000  1.0
  C  C80  1  0.49422000  0.18872000  0.80775000  1.0
  C  C81  1  0.50578000  0.81129000  0.19227000  1.0
  C  C82  1  0.49783000  0.09149000  0.90804000  1.0
  C  C83  1  0.50217000  0.90852000  0.09197000  1.0
  C  C84  1  0.62044000  0.01639000  0.92602000  1.0
  C  C85  1  0.37956000  0.98361000  0.07400000  1.0
  C  C86  1  0.75048000  0.03475000  0.84935000  1.0
  C  C87  1  0.24950000  0.96527000  0.15066000  1.0
  C  C88  1  0.37718000  0.07630000  0.98120000  1.0
  C  C89  1  0.62281000  0.92370000  0.01883000  1.0
  C  C90  1  0.24471000  0.15498000  0.96130000  1.0
  C  C91  1  0.75529000  0.84504000  0.03872000  1.0
  C  C92  1  0.19746000  0.25408000  0.64307000  1.0
  C  C93  1  0.80255000  0.74592000  0.35692000  1.0
  C  C94  1  0.98994000  0.25596000  0.77202000  1.0
  C  C95  1  0.01007000  0.74403000  0.22797000  1.0
  C  C96  1  0.02394000  0.13988000  0.64361000  1.0
  C  C97  1  0.97608000  0.86012000  0.35637000  1.0
  N  N98  1  0.07662000  0.21790000  0.68505000  1.0
  N  N99  1  0.92340000  0.78209000  0.31493000  1.0
  O  O100  1  0.47158000  0.29519000  0.49066000  1.0
  O  O101  1  0.52844000  0.70481000  0.50936000  1.0
  O  O102  1  0.43696000  0.50544000  0.70937000  1.0
  O  O103  1  0.56304000  0.49456000  0.29062000  1.0
  O  O104  1  0.59569000  0.27881000  0.33513000  1.0
  O  O105  1  0.40426000  0.72120000  0.66485000  1.0
  O  O106  1  0.71260000  0.33594000  0.62976000  1.0
  O  O107  1  0.28741000  0.66408000  0.37023000  1.0
  O  O108  1  0.63553000  0.47803000  0.49782000  1.0
  O  O109  1  0.36448000  0.52197000  0.50217000  1.0
  O  O110  1  0.50672000  0.17023000  0.71559000  1.0
  O  O111  1  0.49328000  0.82976000  0.28443000  1.0
  O  O112  1  0.47593000  0.29032000  0.81463000  1.0
  O  O113  1  0.52407000  0.70968000  0.18538000  1.0
  O  O114  1  0.24745000  0.32347000  0.67365000  1.0
  O  O115  1  0.75256000  0.67653000  0.32634000  1.0
