# generated using pymatgen
data_Mg2H10C16O9
_symmetry_space_group_name_H-M   'P 1'
_cell_length_a   6.84300000
_cell_length_b   28.24680000
_cell_length_c   28.24910000
_cell_angle_alpha   119.36100000
_cell_angle_beta   94.64550000
_cell_angle_gamma   94.63040000
_symmetry_Int_Tables_number   1
_chemical_formula_structural   Mg2H10C16O9
_chemical_formula_sum   'Mg6 H30 C48 O27'
_cell_volume   4697.51134722
_cell_formula_units_Z   3
loop_
 _symmetry_equiv_pos_site_id
 _symmetry_equiv_pos_as_xyz
  1  'x, y, z'
loop_
 _atom_site_type_symbol
 _atom_site_label
 _atom_site_symmetry_multiplicity
 _atom_site_fract_x
 _atom_site_fract_y
 _atom_site_fract_z
 _atom_site_occupancy
  Mg  Mg0  1  0.50268000  0.32604000  0.69969000  1.0
  Mg  Mg1  1  0.79336000  0.67335000  0.37348000  1.0
  Mg  Mg2  1  0.17659000  0.37366000  0.67397000  1.0
  Mg  Mg3  1  0.12005000  0.70015000  0.32661000  1.0
  Mg  Mg4  1  0.80292000  0.30031000  0.62635000  1.0
  Mg  Mg5  1  0.41985000  0.62647000  0.29984000  1.0
  H  H6  1  0.18191000  0.83392000  0.43741000  1.0
  H  H7  1  0.49958000  0.85148000  0.37993000  1.0
  H  H8  1  0.75967000  0.93439000  0.42477000  1.0
  H  H9  1  0.38859000  0.91296000  0.46890000  1.0
  H  H10  1  0.24634000  0.92379000  0.52413000  1.0
  H  H11  1  0.38095000  0.01223000  0.46631000  1.0
  H  H12  1  0.60056000  0.98794000  0.48236000  1.0
  H  H13  1  0.73157000  0.16474000  0.59863000  1.0
  H  H14  1  0.00999000  0.14498000  0.54420000  1.0
  H  H15  1  0.17382000  0.06166000  0.51247000  1.0
  H  H16  1  0.34772000  0.60331000  0.16601000  1.0
  H  H17  1  0.64761000  0.52854000  0.14855000  1.0
  H  H18  1  0.82434000  0.49046000  0.06557000  1.0
  H  H19  1  0.47499000  0.55582000  0.08704000  1.0
  H  H20  1  0.32189000  0.60019000  0.07619000  1.0
  H  H21  1  0.36879000  0.45394000  0.98775000  1.0
  H  H22  1  0.61248000  0.49442000  0.01218000  1.0
  H  H23  1  0.56716000  0.43391000  0.83536000  1.0
  H  H24  1  0.86519000  0.39920000  0.85498000  1.0
  H  H25  1  0.11234000  0.45073000  0.93835000  1.0
  H  H26  1  0.74475000  0.56280000  0.39671000  1.0
  H  H27  1  0.11972000  0.62018000  0.47154000  1.0
  H  H28  1  0.33469000  0.57535000  0.50965000  1.0
  H  H29  1  0.91957000  0.53123000  0.44415000  1.0
  H  H30  1  0.72221000  0.47598000  0.39970000  1.0
  H  H31  1  0.91427000  0.53377000  0.54598000  1.0
  H  H32  1  0.11810000  0.51780000  0.50574000  1.0
  H  H33  1  0.13275000  0.40138000  0.56602000  1.0
  H  H34  1  0.46539000  0.45561000  0.60067000  1.0
  H  H35  1  0.66097000  0.48753000  0.54922000  1.0
  C  C36  1  0.98352000  0.89010000  0.43647000  1.0
  C  C37  1  0.03289000  0.83921000  0.42601000  1.0
  C  C38  1  0.89186000  0.79154000  0.39815000  1.0
  C  C39  1  0.69251000  0.79689000  0.38349000  1.0
  C  C40  1  0.65044000  0.84884000  0.39320000  1.0
  C  C41  1  0.79173000  0.89465000  0.41816000  1.0
  C  C42  1  0.52924000  0.75142000  0.35885000  1.0
  C  C43  1  0.28857000  0.93888000  0.49663000  1.0
  C  C44  1  0.48249000  0.01315000  0.49926000  1.0
  C  C45  1  0.46576000  0.10884000  0.55269000  1.0
  C  C46  1  0.57291000  0.16058000  0.58687000  1.0
  C  C47  1  0.48010000  0.20802000  0.60709000  1.0
  C  C48  1  0.27129000  0.20184000  0.59046000  1.0
  C  C49  1  0.16863000  0.14871000  0.55583000  1.0
  C  C50  1  0.26058000  0.10202000  0.53711000  1.0
  C  C51  1  0.15822000  0.24835000  0.60810000  1.0
  C  C52  1  0.09286000  0.54631000  0.10986000  1.0
  C  C53  1  0.19333000  0.58670000  0.16075000  1.0
  C  C54  1  0.10009000  0.60657000  0.20843000  1.0
  C  C55  1  0.89540000  0.58660000  0.20309000  1.0
  C  C56  1  0.80111000  0.54442000  0.15114000  1.0
  C  C57  1  0.89643000  0.52352000  0.10532000  1.0
  C  C58  1  0.77775000  0.60744000  0.24857000  1.0
  C  C59  1  0.34907000  0.55761000  0.06111000  1.0
  C  C60  1  0.46923000  0.48602000  0.98689000  1.0
  C  C61  1  0.35712000  0.44382000  0.89120000  1.0
  C  C62  1  0.41260000  0.42630000  0.83948000  1.0
  C  C63  1  0.27232000  0.39911000  0.79201000  1.0
  C  C64  1  0.06967000  0.38865000  0.79817000  1.0
  C  C65  1  0.02011000  0.40712000  0.85128000  1.0
  C  C66  1  0.15873000  0.43505000  0.89800000  1.0
  C  C67  1  0.91009000  0.35979000  0.75165000  1.0
  C  C68  1  0.54707000  0.56364000  0.45371000  1.0
  C  C69  1  0.60702000  0.57416000  0.41333000  1.0
  C  C70  1  0.49377000  0.60192000  0.39343000  1.0
  C  C71  1  0.30907000  0.61656000  0.41340000  1.0
  C  C72  1  0.25730000  0.60689000  0.45565000  1.0
  C  C73  1  0.37359000  0.58196000  0.47654000  1.0
  C  C74  1  0.17039000  0.64112000  0.39251000  1.0
  C  C75  1  0.79185000  0.50348000  0.44231000  1.0
  C  C76  1  0.98308000  0.50086000  0.51398000  1.0
  C  C77  1  0.91279000  0.44731000  0.55614000  1.0
  C  C78  1  0.98580000  0.41309000  0.57363000  1.0
  C  C79  1  0.87286000  0.39282000  0.60083000  1.0
  C  C80  1  0.68061000  0.40942000  0.61125000  1.0
  C  C81  1  0.61245000  0.44403000  0.59276000  1.0
  C  C82  1  0.72313000  0.46285000  0.56488000  1.0
  C  C83  1  0.55007000  0.39183000  0.64018000  1.0
  O  O84  1  0.97652000  0.24164000  0.58900000  1.0
  O  O85  1  0.24715000  0.29674000  0.64440000  1.0
  O  O86  1  0.59134000  0.25656000  0.64075000  1.0
  O  O87  1  0.35374000  0.75837000  0.34699000  1.0
  O  O88  1  0.56510000  0.70355000  0.35011000  1.0
  O  O89  1  0.95396000  0.74365000  0.38668000  1.0
  O  O90  1  0.11102000  0.93780000  0.46412000  1.0
  O  O91  1  0.37527000  0.99291000  0.52892000  1.0
  O  O92  1  0.57680000  0.06602000  0.53613000  1.0
  O  O93  1  0.73512000  0.34740000  0.75835000  1.0
  O  O94  1  0.95057000  0.34771000  0.70327000  1.0
  O  O95  1  0.33497000  0.38422000  0.74348000  1.0
  O  O96  1  0.59532000  0.58864000  0.24164000  1.0
  O  O97  1  0.86165000  0.64659000  0.29643000  1.0
  O  O98  1  0.21025000  0.64300000  0.25631000  1.0
  O  O99  1  0.17257000  0.52620000  0.06216000  1.0
  O  O100  1  0.38187000  0.53587000  0.00710000  1.0
  O  O101  1  0.51091000  0.47008000  0.93406000  1.0
  O  O102  1  0.38752000  0.41093000  0.65260000  1.0
  O  O103  1  0.60287000  0.35558000  0.65232000  1.0
  O  O104  1  0.95066000  0.35922000  0.61574000  1.0
  O  O105  1  0.00656000  0.65287000  0.41121000  1.0
  O  O106  1  0.21512000  0.64986000  0.35339000  1.0
  O  O107  1  0.56725000  0.61331000  0.35696000  1.0
  O  O108  1  0.64674000  0.53594000  0.47371000  1.0
  O  O109  1  0.84630000  0.47118000  0.46403000  1.0
  O  O110  1  0.04047000  0.46398000  0.52997000  1.0
