# generated using pymatgen
data_ZnH6C8O5
_symmetry_space_group_name_H-M   'P 1'
_cell_length_a   5.88068000
_cell_length_b   7.78964000
_cell_length_c   9.34354548
_cell_angle_alpha   87.49686549
_cell_angle_beta   75.10913884
_cell_angle_gamma   86.26620000
_symmetry_Int_Tables_number   1
_chemical_formula_structural   ZnH6C8O5
_chemical_formula_sum   'Zn2 H12 C16 O10'
_cell_volume   412.59968742
_cell_formula_units_Z   2
loop_
 _symmetry_equiv_pos_site_id
 _symmetry_equiv_pos_as_xyz
  1  'x, y, z'
loop_
 _atom_site_type_symbol
 _atom_site_label
 _atom_site_symmetry_multiplicity
 _atom_site_fract_x
 _atom_site_fract_y
 _atom_site_fract_z
 _atom_site_occupancy
  Zn  Zn0  1  0.68668000  0.25236000  0.00912000  1.0
  Zn  Zn1  1  0.31332000  0.74765000  0.99089000  1.0
  H  H2  1  0.08404000  0.34192000  0.04963000  1.0
  H  H3  1  0.13029000  0.14644000  0.99632000  1.0
  H  H4  1  0.91599000  0.65809000  0.95036000  1.0
  H  H5  1  0.86971000  0.85356000  0.00367000  1.0
  H  H6  1  0.16390000  0.91849000  0.70927000  1.0
  H  H7  1  0.86408000  0.60030000  0.27772000  1.0
  H  H8  1  0.83613000  0.08152000  0.29072000  1.0
  H  H9  1  0.13588000  0.39969000  0.72228000  1.0
  H  H10  1  0.83339000  0.14726000  0.55094000  1.0
  H  H11  1  0.39393000  0.34729000  0.46810000  1.0
  H  H12  1  0.16664000  0.85275000  0.44904000  1.0
  H  H13  1  0.60607000  0.65269000  0.53191000  1.0
  C  C14  1  0.49171000  0.07987000  0.80033000  1.0
  C  C15  1  0.29607000  0.43509000  0.20656000  1.0
  C  C16  1  0.50830000  0.92013000  0.19968000  1.0
  C  C17  1  0.70389000  0.56490000  0.79346000  1.0
  C  C18  1  0.49815000  0.03709000  0.64522000  1.0
  C  C19  1  0.14478000  0.47109000  0.35792000  1.0
  C  C20  1  0.50186000  0.96293000  0.35476000  1.0
  C  C21  1  0.85523000  0.52888000  0.64205000  1.0
  C  C22  1  0.30958000  0.95448000  0.61693000  1.0
  C  C23  1  0.92246000  0.55707000  0.37556000  1.0
  C  C24  1  0.69046000  0.04555000  0.38307000  1.0
  C  C25  1  0.07750000  0.44293000  0.62447000  1.0
  C  C26  1  0.68859000  0.08249000  0.52766000  1.0
  C  C27  1  0.22128000  0.41411000  0.48328000  1.0
  C  C28  1  0.31145000  0.91754000  0.47232000  1.0
  C  C29  1  0.77866000  0.58588000  0.51676000  1.0
  O  O30  1  0.64236000  0.18305000  0.81776000  1.0
  O  O31  1  0.48046000  0.33637000  0.19774000  1.0
  O  O32  1  0.35765000  0.81695000  0.18224000  1.0
  O  O33  1  0.51949000  0.66362000  0.80226000  1.0
  O  O34  1  0.33398000  0.01733000  0.90704000  1.0
  O  O35  1  0.23138000  0.49687000  0.09269000  1.0
  O  O36  1  0.66604000  0.98268000  0.09295000  1.0
  O  O37  1  0.76862000  0.50311000  0.90733000  1.0
  O  O38  1  0.00541000  0.23266000  0.04832000  1.0
  O  O39  1  0.99460000  0.76733000  0.95167000  1.0
