# generated using pymatgen
data_ZnH4C5(NO2)2
_symmetry_space_group_name_H-M   'P 1'
_cell_length_a   8.26586000
_cell_length_b   8.43047000
_cell_length_c   9.41945000
_cell_angle_alpha   90.00000000
_cell_angle_beta   90.00000000
_cell_angle_gamma   93.77740000
_symmetry_Int_Tables_number   1
_chemical_formula_structural   ZnH4C5(NO2)2
_chemical_formula_sum   'Zn4 H16 C20 N8 O16'
_cell_volume   654.96917411
_cell_formula_units_Z   4
loop_
 _symmetry_equiv_pos_site_id
 _symmetry_equiv_pos_as_xyz
  1  'x, y, z'
loop_
 _atom_site_type_symbol
 _atom_site_label
 _atom_site_symmetry_multiplicity
 _atom_site_fract_x
 _atom_site_fract_y
 _atom_site_fract_z
 _atom_site_occupancy
  Zn  Zn0  1  0.12072000  0.37585000  0.25787000  1.0
  Zn  Zn1  1  0.37928000  0.62415000  0.75787000  1.0
  Zn  Zn2  1  0.87928000  0.62415000  0.74213000  1.0
  Zn  Zn3  1  0.62072000  0.37585000  0.24212000  1.0
  H  H4  1  0.09363000  0.77456000  0.24830000  1.0
  H  H5  1  0.40637000  0.22544000  0.74830000  1.0
  H  H6  1  0.90637000  0.22543000  0.75170000  1.0
  H  H7  1  0.59363000  0.77456000  0.25170000  1.0
  H  H8  1  0.24264000  0.16779000  0.98533000  1.0
  H  H9  1  0.25736000  0.83221000  0.48533000  1.0
  H  H10  1  0.75736000  0.83221000  0.01467000  1.0
  H  H11  1  0.74264000  0.16779000  0.51467000  1.0
  H  H12  1  0.21954000  0.83680000  0.00067000  1.0
  H  H13  1  0.28046000  0.16321000  0.50067000  1.0
  H  H14  1  0.78046000  0.16321000  0.99933000  1.0
  H  H15  1  0.71954000  0.83679000  0.49933000  1.0
  H  H16  1  0.02692000  0.02809000  0.37510000  1.0
  H  H17  1  0.47308000  0.97191000  0.87511000  1.0
  H  H18  1  0.97308000  0.97190000  0.62490000  1.0
  H  H19  1  0.52692000  0.02810000  0.12489000  1.0
  C  C20  1  0.19470000  0.08953000  0.06836000  1.0
  C  C21  1  0.30530000  0.91047000  0.56836000  1.0
  C  C22  1  0.80530000  0.91047000  0.93165000  1.0
  C  C23  1  0.69470000  0.08953000  0.43164000  1.0
  C  C24  1  0.18388000  0.92633000  0.07461000  1.0
  C  C25  1  0.31612000  0.07367000  0.57461000  1.0
  C  C26  1  0.81612000  0.07367000  0.92540000  1.0
  C  C27  1  0.68388000  0.92633000  0.42539000  1.0
  C  C28  1  0.08380000  0.02280000  0.27190000  1.0
  C  C29  1  0.41621000  0.97720000  0.77190000  1.0
  C  C30  1  0.91620000  0.97720000  0.72810000  1.0
  C  C31  1  0.58379000  0.02280000  0.22810000  1.0
  C  C32  1  0.09104000  0.52282000  0.98152000  1.0
  C  C33  1  0.40895000  0.47717000  0.48152000  1.0
  C  C34  1  0.90895000  0.47717000  0.01848000  1.0
  C  C35  1  0.59105000  0.52282000  0.51848000  1.0
  C  C36  1  0.98555000  0.41485000  0.53030000  1.0
  C  C37  1  0.51446000  0.58514000  0.03030000  1.0
  C  C38  1  0.01446000  0.58514000  0.46970000  1.0
  C  C39  1  0.48555000  0.41485000  0.96970000  1.0
  N  N40  1  0.13306000  0.14852000  0.19281000  1.0
  N  N41  1  0.36695000  0.85148000  0.69281000  1.0
  N  N42  1  0.86694000  0.85148000  0.80719000  1.0
  N  N43  1  0.63306000  0.14852000  0.30719000  1.0
  N  N44  1  0.11344000  0.88711000  0.20372000  1.0
  N  N45  1  0.38656000  0.11289000  0.70372000  1.0
  N  N46  1  0.88656000  0.11289000  0.79628000  1.0
  N  N47  1  0.61344000  0.88711000  0.29628000  1.0
  O  O48  1  0.19582000  0.49197000  0.07374000  1.0
  O  O49  1  0.30418000  0.50803000  0.57375000  1.0
  O  O50  1  0.80418000  0.50803000  0.92625000  1.0
  O  O51  1  0.69582000  0.49197000  0.42626000  1.0
  O  O52  1  0.12054000  0.58880000  0.86221000  1.0
  O  O53  1  0.37946000  0.41120000  0.36221000  1.0
  O  O54  1  0.87946000  0.41120000  0.13779000  1.0
  O  O55  1  0.62054000  0.58880000  0.63779000  1.0
  O  O56  1  0.02039000  0.29978000  0.45316000  1.0
  O  O57  1  0.47961000  0.70023000  0.95316000  1.0
  O  O58  1  0.97961000  0.70023000  0.54684000  1.0
  O  O59  1  0.52039000  0.29978000  0.04684000  1.0
  O  O60  1  0.92654000  0.40235000  0.65493000  1.0
  O  O61  1  0.57346000  0.59765000  0.15492000  1.0
  O  O62  1  0.07346000  0.59765000  0.34508000  1.0
  O  O63  1  0.42654000  0.40235000  0.84507000  1.0
