# generated using pymatgen
data_CdH10C12S2N4O5
_symmetry_space_group_name_H-M   'P 1'
_cell_length_a   6.83256000
_cell_length_b   8.91612000
_cell_length_c   13.21510000
_cell_angle_alpha   71.64370000
_cell_angle_beta   85.76770000
_cell_angle_gamma   85.02420000
_symmetry_Int_Tables_number   1
_chemical_formula_structural   CdH10C12S2N4O5
_chemical_formula_sum   'Cd2 H20 C24 S4 N8 O10'
_cell_volume   760.29842038
_cell_formula_units_Z   2
loop_
 _symmetry_equiv_pos_site_id
 _symmetry_equiv_pos_as_xyz
  1  'x, y, z'
loop_
 _atom_site_type_symbol
 _atom_site_label
 _atom_site_symmetry_multiplicity
 _atom_site_fract_x
 _atom_site_fract_y
 _atom_site_fract_z
 _atom_site_occupancy
  Cd  Cd0  1  0.24411000  0.62180000  0.07390000  1.0
  Cd  Cd1  1  0.75589000  0.37820000  0.92610000  1.0
  H  H2  1  0.15271000  0.95959000  0.09059000  1.0
  H  H3  1  0.84729000  0.04041000  0.90941000  1.0
  H  H4  1  0.97886000  0.86098000  0.08316000  1.0
  H  H5  1  0.02114000  0.13902000  0.91684000  1.0
  H  H6  1  0.22924000  0.26732000  0.24660000  1.0
  H  H7  1  0.77076000  0.73268000  0.75340000  1.0
  H  H8  1  0.22148000  0.13231000  0.44601000  1.0
  H  H9  1  0.77851000  0.86769000  0.55399000  1.0
  H  H10  1  0.22591000  0.29960000  0.56661000  1.0
  H  H11  1  0.77409000  0.70039000  0.43339000  1.0
  H  H12  1  0.23822000  0.70971000  0.28440000  1.0
  H  H13  1  0.76178000  0.29029000  0.71560000  1.0
  H  H14  1  0.18507000  0.62626000  0.83308000  1.0
  H  H15  1  0.81493000  0.37374000  0.16693000  1.0
  H  H16  1  0.38836000  0.95874000  0.95202000  1.0
  H  H17  1  0.61164000  0.04127000  0.04797000  1.0
  H  H18  1  0.47390000  0.13655000  0.77097000  1.0
  H  H19  1  0.52610000  0.86346000  0.22902000  1.0
  H  H20  1  0.43129000  0.04372000  0.61201000  1.0
  H  H21  1  0.56871000  0.95628000  0.38799000  1.0
  C  C22  1  0.22964000  0.33407000  0.30305000  1.0
  C  C23  1  0.77036000  0.66594000  0.69695000  1.0
  C  C24  1  0.22587000  0.26081000  0.41333000  1.0
  C  C25  1  0.77412000  0.73919000  0.58666000  1.0
  C  C26  1  0.22989000  0.35409000  0.48008000  1.0
  C  C27  1  0.77011000  0.64590000  0.51992000  1.0
  C  C28  1  0.23848000  0.51860000  0.43495000  1.0
  C  C29  1  0.76152000  0.48140000  0.56505000  1.0
  C  C30  1  0.23807000  0.58228000  0.32315000  1.0
  C  C31  1  0.76192000  0.41772000  0.67685000  1.0
  C  C32  1  0.25176000  0.62665000  0.49702000  1.0
  C  C33  1  0.74824000  0.37335000  0.50298000  1.0
  C  C34  1  0.27940000  0.76857000  0.62150000  1.0
  C  C35  1  0.72060000  0.23143000  0.37851000  1.0
  C  C36  1  0.30361000  0.82842000  0.71022000  1.0
  C  C37  1  0.69639000  0.17158000  0.28978000  1.0
  C  C38  1  0.25218000  0.73932000  0.81504000  1.0
  C  C39  1  0.74782000  0.26068000  0.18497000  1.0
  C  C40  1  0.36355000  0.92544000  0.88198000  1.0
  C  C41  1  0.63645000  0.07457000  0.11802000  1.0
  C  C42  1  0.41247000  0.02413000  0.77986000  1.0
  C  C43  1  0.58753000  0.97587000  0.22014000  1.0
  C  C44  1  0.38512000  0.97455000  0.69262000  1.0
  C  C45  1  0.61488000  0.02545000  0.30738000  1.0
  S  S46  1  0.74166000  0.68483000  0.03150000  1.0
  S  S47  1  0.25835000  0.31517000  0.96850000  1.0
  S  S48  1  0.26230000  0.56979000  0.63481000  1.0
  S  S49  1  0.73769000  0.43020000  0.36519000  1.0
  N  N50  1  0.23461000  0.49214000  0.25945000  1.0
  N  N51  1  0.76539000  0.50786000  0.74055000  1.0
  N  N52  1  0.26149000  0.78119000  0.45091000  1.0
  N  N53  1  0.73851000  0.21881000  0.54909000  1.0
  N  N54  1  0.27678000  0.86074000  0.52098000  1.0
  N  N55  1  0.72322000  0.13926000  0.47903000  1.0
  N  N56  1  0.28387000  0.78636000  0.89899000  1.0
  N  N57  1  0.71614000  0.21364000  0.10101000  1.0
  O  O58  1  0.90674000  0.58401000  0.09268000  1.0
  O  O59  1  0.09327000  0.41599000  0.90732000  1.0
  O  O60  1  0.70350000  0.63197000  0.93860000  1.0
  O  O61  1  0.29651000  0.36803000  0.06140000  1.0
  O  O62  1  0.56237000  0.67038000  0.10496000  1.0
  O  O63  1  0.43763000  0.32961000  0.89504000  1.0
  O  O64  1  0.79644000  0.85215000  0.99297000  1.0
  O  O65  1  0.20356000  0.14785000  0.00703000  1.0
  O  O66  1  0.10138000  0.85344000  0.12086000  1.0
  O  O67  1  0.89862000  0.14656000  0.87914000  1.0
