# generated using pymatgen
data_CdH26C24(NO2)2
_symmetry_space_group_name_H-M   'P 1'
_cell_length_a   8.69663000
_cell_length_b   9.99585000
_cell_length_c   15.52500000
_cell_angle_alpha   107.21500000
_cell_angle_beta   91.19050000
_cell_angle_gamma   102.02630000
_symmetry_Int_Tables_number   1
_chemical_formula_structural   CdH26C24(NO2)2
_chemical_formula_sum   'Cd2 H52 C48 N4 O8'
_cell_volume   1255.91836160
_cell_formula_units_Z   2
loop_
 _symmetry_equiv_pos_site_id
 _symmetry_equiv_pos_as_xyz
  1  'x, y, z'
loop_
 _atom_site_type_symbol
 _atom_site_label
 _atom_site_symmetry_multiplicity
 _atom_site_fract_x
 _atom_site_fract_y
 _atom_site_fract_z
 _atom_site_occupancy
  Cd  Cd0  1  0.54930000  0.33364000  0.91580000  1.0
  Cd  Cd1  1  0.45070000  0.66637000  0.08420000  1.0
  H  H2  1  0.73267000  0.03739000  0.65257000  1.0
  H  H3  1  0.26732000  0.96261000  0.34743000  1.0
  H  H4  1  0.87643000  0.05641000  0.74158000  1.0
  H  H5  1  0.12356000  0.94358000  0.25842000  1.0
  H  H6  1  0.77051000  0.19635000  0.55809000  1.0
  H  H7  1  0.22949000  0.80365000  0.44191000  1.0
  H  H8  1  0.76295000  0.34487000  0.65274000  1.0
  H  H9  1  0.23705000  0.65513000  0.34726000  1.0
  H  H10  1  0.08957000  0.30004000  0.79696000  1.0
  H  H11  1  0.91043000  0.69995000  0.20304000  1.0
  H  H12  1  0.95479000  0.40907000  0.79279000  1.0
  H  H13  1  0.04521000  0.59092000  0.20721000  1.0
  H  H14  1  0.90310000  0.42721000  0.53244000  1.0
  H  H15  1  0.09690000  0.57279000  0.46757000  1.0
  H  H16  1  0.99246000  0.56895000  0.69329000  1.0
  H  H17  1  0.00754000  0.43105000  0.30672000  1.0
  H  H18  1  0.15358000  0.57351000  0.62520000  1.0
  H  H19  1  0.84642000  0.42649000  0.37480000  1.0
  H  H20  1  0.34588000  0.63033000  0.75963000  1.0
  H  H21  1  0.65412000  0.36966000  0.24037000  1.0
  H  H22  1  0.17876000  0.64427000  0.81941000  1.0
  H  H23  1  0.82124000  0.35573000  0.18059000  1.0
  H  H24  1  0.34787000  0.41981000  0.62745000  1.0
  H  H25  1  0.65213000  0.58018000  0.37255000  1.0
  H  H26  1  0.32770000  0.30623000  0.69684000  1.0
  H  H27  1  0.67229000  0.69376000  0.30316000  1.0
  H  H28  1  0.15806000  0.35910000  0.48758000  1.0
  H  H29  1  0.84194000  0.64089000  0.51242000  1.0
  H  H30  1  0.00043000  0.20459000  0.46047000  1.0
  H  H31  1  0.99957000  0.79541000  0.53953000  1.0
  H  H32  1  0.23550000  0.16310000  0.53688000  1.0
  H  H33  1  0.76449000  0.83690000  0.46312000  1.0
  H  H34  1  0.09904000  0.08476000  0.65881000  1.0
  H  H35  1  0.90096000  0.91523000  0.34119000  1.0
  H  H36  1  0.96468000  0.04355000  0.56259000  1.0
  H  H37  1  0.03531000  0.95644000  0.43741000  1.0
  H  H38  1  0.86418000  0.53879000  0.03043000  1.0
  H  H39  1  0.13582000  0.46123000  0.96957000  1.0
  H  H40  1  0.07911000  0.74379000  0.03442000  1.0
  H  H41  1  0.92088000  0.25624000  0.96559000  1.0
  H  H42  1  0.83442000  0.76922000  0.79473000  1.0
  H  H43  1  0.16558000  0.23076000  0.20526000  1.0
  H  H44  1  0.63133000  0.55896000  0.80137000  1.0
  H  H45  1  0.36868000  0.44102000  0.19862000  1.0
  H  H46  1  0.23406000  0.91656000  0.04024000  1.0
  H  H47  1  0.76594000  0.08344000  0.95976000  1.0
  H  H48  1  0.01936000  0.92630000  0.78771000  1.0
  H  H49  1  0.98064000  0.07371000  0.21229000  1.0
  H  H50  1  0.23686000  0.13508000  0.79532000  1.0
  H  H51  1  0.76314000  0.86493000  0.20468000  1.0
  H  H52  1  0.44029000  0.12660000  0.03579000  1.0
  H  H53  1  0.55971000  0.87340000  0.96421000  1.0
  C  C54  1  0.70806000  0.18573000  0.78026000  1.0
  C  C55  1  0.29194000  0.81427000  0.21974000  1.0
  C  C56  1  0.81017000  0.11534000  0.71059000  1.0
  C  C57  1  0.18983000  0.88465000  0.28941000  1.0
  C  C58  1  0.84390000  0.28418000  0.61361000  1.0
  C  C59  1  0.15610000  0.71582000  0.38639000  1.0
  C  C60  1  0.03062000  0.34381000  0.75168000  1.0
  C  C61  1  0.96938000  0.65619000  0.24832000  1.0
  C  C62  1  0.96550000  0.38065000  0.57469000  1.0
  C  C63  1  0.03450000  0.61934000  0.42531000  1.0
  C  C64  1  0.06719000  0.50220000  0.65240000  1.0
  C  C65  1  0.93281000  0.49780000  0.34759000  1.0
  C  C66  1  0.15549000  0.44091000  0.71386000  1.0
  C  C67  1  0.84451000  0.55908000  0.28615000  1.0
  C  C68  1  0.25304000  0.56893000  0.78956000  1.0
  C  C69  1  0.74696000  0.43106000  0.21044000  1.0
  C  C70  1  0.33615000  0.54250000  0.86842000  1.0
  C  C71  1  0.66386000  0.45750000  0.13158000  1.0
  C  C72  1  0.26059000  0.34994000  0.65519000  1.0
  C  C73  1  0.73941000  0.65005000  0.34481000  1.0
  C  C74  1  0.07205000  0.29137000  0.51718000  1.0
  C  C75  1  0.92795000  0.70862000  0.48282000  1.0
  C  C76  1  0.15903000  0.22823000  0.57729000  1.0
  C  C77  1  0.84096000  0.77176000  0.42270000  1.0
  C  C78  1  0.03776000  0.13308000  0.61699000  1.0
  C  C79  1  0.96223000  0.86691000  0.38301000  1.0
  C  C80  1  0.92845000  0.22001000  0.67445000  1.0
  C  C81  1  0.07154000  0.77999000  0.32555000  1.0
  C  C82  1  0.86205000  0.59323000  0.97941000  1.0
  C  C83  1  0.13795000  0.40679000  0.02060000  1.0
  C  C84  1  0.98305000  0.70910000  0.98087000  1.0
  C  C85  1  0.01695000  0.29092000  0.01913000  1.0
  C  C86  1  0.97768000  0.77758000  0.91425000  1.0
  C  C87  1  0.02232000  0.22243000  0.08574000  1.0
  C  C88  1  0.84784000  0.72219000  0.84859000  1.0
  C  C89  1  0.15217000  0.27781000  0.15140000  1.0
  C  C90  1  0.73220000  0.60518000  0.85206000  1.0
  C  C91  1  0.26780000  0.39482000  0.14794000  1.0
  C  C92  1  0.10477000  0.90161000  0.91405000  1.0
  C  C93  1  0.89522000  0.09840000  0.08595000  1.0
  C  C94  1  0.22739000  0.96006000  0.98395000  1.0
  C  C95  1  0.77261000  0.03994000  0.01605000  1.0
  C  C96  1  0.10926000  0.96568000  0.84463000  1.0
  C  C97  1  0.89075000  0.03433000  0.15537000  1.0
  C  C98  1  0.23065000  0.08246000  0.84784000  1.0
  C  C99  1  0.76935000  0.91755000  0.15216000  1.0
  C  C100  1  0.34418000  0.07737000  0.98220000  1.0
  C  C101  1  0.65582000  0.92264000  0.01779000  1.0
  N  N102  1  0.34639000  0.13823000  0.91563000  1.0
  N  N103  1  0.65361000  0.86177000  0.08437000  1.0
  N  N104  1  0.73801000  0.54176000  0.91687000  1.0
  N  N105  1  0.26200000  0.45825000  0.08313000  1.0
  O  O106  1  0.59780000  0.23592000  0.75602000  1.0
  O  O107  1  0.40220000  0.76408000  0.24398000  1.0
  O  O108  1  0.73969000  0.19437000  0.86336000  1.0
  O  O109  1  0.26031000  0.80563000  0.13664000  1.0
  O  O110  1  0.37991000  0.65230000  0.93828000  1.0
  O  O111  1  0.62010000  0.34770000  0.06172000  1.0
  O  O112  1  0.35665000  0.41758000  0.86041000  1.0
  O  O113  1  0.64333000  0.58242000  0.13959000  1.0
