# generated using pymatgen
data_Co2H36C41(NO4)4
_symmetry_space_group_name_H-M   'P 1'
_cell_length_a   9.62322000
_cell_length_b   10.30080000
_cell_length_c   23.42400000
_cell_angle_alpha   94.01040000
_cell_angle_beta   89.99930000
_cell_angle_gamma   89.99940000
_symmetry_Int_Tables_number   1
_chemical_formula_structural   Co2H36C41(NO4)4
_chemical_formula_sum   'Co4 H72 C82 N8 O32'
_cell_volume   2316.26208949
_cell_formula_units_Z   2
loop_
 _symmetry_equiv_pos_site_id
 _symmetry_equiv_pos_as_xyz
  1  'x, y, z'
loop_
 _atom_site_type_symbol
 _atom_site_label
 _atom_site_symmetry_multiplicity
 _atom_site_fract_x
 _atom_site_fract_y
 _atom_site_fract_z
 _atom_site_occupancy
  Co  Co0  1  0.50000000  0.50001000  0.50000000  1.0
  Co  Co1  1  0.50000000  0.50000000  0.00000000  1.0
  Co  Co2  1  0.17518000  0.00001000  0.24999000  1.0
  Co  Co3  1  0.82481000  0.00000000  0.75001000  1.0
  H  H4  1  0.54968000  0.10127000  0.46891000  1.0
  H  H5  1  0.54966000  0.89873000  0.03110000  1.0
  H  H6  1  0.45036000  0.89875000  0.53111000  1.0
  H  H7  1  0.45035000  0.10126000  0.96889000  1.0
  H  H8  1  0.80257000  0.80121000  0.38312000  1.0
  H  H9  1  0.80257000  0.19879000  0.11687000  1.0
  H  H10  1  0.19743000  0.19880000  0.61688000  1.0
  H  H11  1  0.19744000  0.80120000  0.88312000  1.0
  H  H12  1  0.89332000  0.20486000  0.36254000  1.0
  H  H13  1  0.89332000  0.79514000  0.13745000  1.0
  H  H14  1  0.10670000  0.79516000  0.63747000  1.0
  H  H15  1  0.10669000  0.20485000  0.86254000  1.0
  H  H16  1  0.35453000  0.27170000  0.43351000  1.0
  H  H17  1  0.35452000  0.72830000  0.06648000  1.0
  H  H18  1  0.64548000  0.72831000  0.56649000  1.0
  H  H19  1  0.64548000  0.27168000  0.93352000  1.0
  H  H20  1  0.16719000  0.23797000  0.35885000  1.0
  H  H21  1  0.16717000  0.76204000  0.14114000  1.0
  H  H22  1  0.83282000  0.76204000  0.64115000  1.0
  H  H23  1  0.83283000  0.23795000  0.85886000  1.0
  H  H24  1  0.09113000  0.65359000  0.37941000  1.0
  H  H25  1  0.09111000  0.34642000  0.12058000  1.0
  H  H26  1  0.90887000  0.34641000  0.62059000  1.0
  H  H27  1  0.90887000  0.65357000  0.87942000  1.0
  H  H28  1  0.27953000  0.66812000  0.45170000  1.0
  H  H29  1  0.27952000  0.33188000  0.04829000  1.0
  H  H30  1  0.72046000  0.33189000  0.54831000  1.0
  H  H31  1  0.72045000  0.66811000  0.95170000  1.0
  H  H32  1  0.02514000  0.61358000  0.29202000  1.0
  H  H33  1  0.02515000  0.38644000  0.20798000  1.0
  H  H34  1  0.97485000  0.38643000  0.70799000  1.0
  H  H35  1  0.97485000  0.61356000  0.79202000  1.0
  H  H36  1  0.88603000  0.57459000  0.33829000  1.0
  H  H37  1  0.88603000  0.42541000  0.16171000  1.0
  H  H38  1  0.11396000  0.42541000  0.66171000  1.0
  H  H39  1  0.11396000  0.57458000  0.83829000  1.0
  H  H40  1  0.83399000  0.70848000  0.24404000  1.0
  H  H41  1  0.83400000  0.29154000  0.25596000  1.0
  H  H42  1  0.16600000  0.29152000  0.75597000  1.0
  H  H43  1  0.16601000  0.70846000  0.74404000  1.0
  H  H44  1  0.73245000  0.60780000  0.19427000  1.0
  H  H45  1  0.73244000  0.39222000  0.30573000  1.0
  H  H46  1  0.26755000  0.39220000  0.80573000  1.0
  H  H47  1  0.26756000  0.60777000  0.69428000  1.0
  H  H48  1  0.63628000  0.79836000  0.19447000  1.0
  H  H49  1  0.63629000  0.20164000  0.30552000  1.0
  H  H50  1  0.36370000  0.20164000  0.80553000  1.0
  H  H51  1  0.36370000  0.79835000  0.69448000  1.0
  H  H52  1  0.42787000  0.93226000  0.18351000  1.0
  H  H53  1  0.42788000  0.06774000  0.31647000  1.0
  H  H54  1  0.57212000  0.06776000  0.81649000  1.0
  H  H55  1  0.57211000  0.93226000  0.68353000  1.0
  H  H56  1  0.22122000  0.76735000  0.31569000  1.0
  H  H57  1  0.22124000  0.23266000  0.18430000  1.0
  H  H58  1  0.77876000  0.23265000  0.68431000  1.0
  H  H59  1  0.77876000  0.76733000  0.81570000  1.0
  H  H60  1  0.42125000  0.61792000  0.33141000  1.0
  H  H61  1  0.42128000  0.38209000  0.16858000  1.0
  H  H62  1  0.57872000  0.38206000  0.66858000  1.0
  H  H63  1  0.57873000  0.61790000  0.83142000  1.0
  H  H64  1  0.61357000  0.76195000  0.44508000  1.0
  H  H65  1  0.61356000  0.23805000  0.05492000  1.0
  H  H66  1  0.38644000  0.23807000  0.55493000  1.0
  H  H67  1  0.38644000  0.76194000  0.94507000  1.0
  H  H68  1  0.67453000  0.51678000  0.41903000  1.0
  H  H69  1  0.67455000  0.48320000  0.08097000  1.0
  H  H70  1  0.32547000  0.48324000  0.58098000  1.0
  H  H71  1  0.32546000  0.51678000  0.91902000  1.0
  H  H72  1  0.53933000  0.59714000  0.40028000  1.0
  H  H73  1  0.53934000  0.40285000  0.09973000  1.0
  H  H74  1  0.46067000  0.40287000  0.59972000  1.0
  H  H75  1  0.46067000  0.59713000  0.90027000  1.0
  C  C76  1  0.67995000  0.30742000  0.42978000  1.0
  C  C77  1  0.67995000  0.69258000  0.07023000  1.0
  C  C78  1  0.32007000  0.69259000  0.57024000  1.0
  C  C79  1  0.32006000  0.30741000  0.92976000  1.0
  C  C80  1  0.71634000  0.16739000  0.41620000  1.0
  C  C81  1  0.71633000  0.83262000  0.08380000  1.0
  C  C82  1  0.28369000  0.83263000  0.58381000  1.0
  C  C83  1  0.28368000  0.16737000  0.91619000  1.0
  C  C84  1  0.63502000  0.07256000  0.44017000  1.0
  C  C85  1  0.63500000  0.92744000  0.05984000  1.0
  C  C86  1  0.36501000  0.92746000  0.55985000  1.0
  C  C87  1  0.36501000  0.07255000  0.94016000  1.0
  C  C88  1  0.66536000  0.94033000  0.42869000  1.0
  C  C89  1  0.66534000  0.05967000  0.07131000  1.0
  C  C90  1  0.33467000  0.05969000  0.57131000  1.0
  C  C91  1  0.33467000  0.94031000  0.92869000  1.0
  C  C92  1  0.77712000  0.90354000  0.39291000  1.0
  C  C93  1  0.77712000  0.09646000  0.10709000  1.0
  C  C94  1  0.22289000  0.09648000  0.60710000  1.0
  C  C95  1  0.22289000  0.90352000  0.89290000  1.0
  C  C96  1  0.85936000  0.99875000  0.36947000  1.0
  C  C97  1  0.85937000  0.00126000  0.13052000  1.0
  C  C98  1  0.14065000  0.00127000  0.63053000  1.0
  C  C99  1  0.14064000  0.99873000  0.86947000  1.0
  C  C100  1  0.82924000  0.13113000  0.38073000  1.0
  C  C101  1  0.82924000  0.86888000  0.11926000  1.0
  C  C102  1  0.17078000  0.86890000  0.61928000  1.0
  C  C103  1  0.17077000  0.13111000  0.88073000  1.0
  C  C104  1  0.97917000  0.95447000  0.33218000  1.0
  C  C105  1  0.97918000  0.04553000  0.16781000  1.0
  C  C106  1  0.02083000  0.04555000  0.66782000  1.0
  C  C107  1  0.02082000  0.95445000  0.83218000  1.0
  C  C108  1  0.29396000  0.35326000  0.41961000  1.0
  C  C109  1  0.29396000  0.64674000  0.08038000  1.0
  C  C110  1  0.70604000  0.64675000  0.58039000  1.0
  C  C111  1  0.70603000  0.35324000  0.91962000  1.0
  C  C112  1  0.19171000  0.33463000  0.37826000  1.0
  C  C113  1  0.19169000  0.66538000  0.12173000  1.0
  C  C114  1  0.80830000  0.66538000  0.62174000  1.0
  C  C115  1  0.80830000  0.33461000  0.87827000  1.0
  C  C116  1  0.11863000  0.44364000  0.36135000  1.0
  C  C117  1  0.11861000  0.55637000  0.13864000  1.0
  C  C118  1  0.88138000  0.55636000  0.63865000  1.0
  C  C119  1  0.88138000  0.44363000  0.86136000  1.0
  C  C120  1  0.14729000  0.56600000  0.38911000  1.0
  C  C121  1  0.14728000  0.43401000  0.11088000  1.0
  C  C122  1  0.85270000  0.43400000  0.61089000  1.0
  C  C123  1  0.85270000  0.56599000  0.88912000  1.0
  C  C124  1  0.25223000  0.57455000  0.42990000  1.0
  C  C125  1  0.25223000  0.42545000  0.07009000  1.0
  C  C126  1  0.74776000  0.42547000  0.57011000  1.0
  C  C127  1  0.74775000  0.57453000  0.92990000  1.0
  C  C128  1  0.95159000  0.53719000  0.30235000  1.0
  C  C129  1  0.95159000  0.46282000  0.19764000  1.0
  C  C130  1  0.04841000  0.46281000  0.69765000  1.0
  C  C131  1  0.04841000  0.53718000  0.80236000  1.0
  C  C132  1  0.86202000  0.50001000  0.25000000  1.0
  C  C133  1  0.13797000  0.49999000  0.75000000  1.0
  C  C134  1  0.77263000  0.61841000  0.23821000  1.0
  C  C135  1  0.77263000  0.38161000  0.26179000  1.0
  C  C136  1  0.22737000  0.38159000  0.76180000  1.0
  C  C137  1  0.22737000  0.61838000  0.73821000  1.0
  C  C138  1  0.54904000  0.69980000  0.26627000  1.0
  C  C139  1  0.54905000  0.30021000  0.23373000  1.0
  C  C140  1  0.45094000  0.30020000  0.73373000  1.0
  C  C141  1  0.45095000  0.69978000  0.76627000  1.0
  C  C142  1  0.54794000  0.78674000  0.22263000  1.0
  C  C143  1  0.54794000  0.21327000  0.27736000  1.0
  C  C144  1  0.45205000  0.21326000  0.77738000  1.0
  C  C145  1  0.45205000  0.78673000  0.72264000  1.0
  C  C146  1  0.43075000  0.86254000  0.21649000  1.0
  C  C147  1  0.43075000  0.13747000  0.28350000  1.0
  C  C148  1  0.56924000  0.13747000  0.78351000  1.0
  C  C149  1  0.56924000  0.86253000  0.71650000  1.0
  C  C150  1  0.31661000  0.76997000  0.29067000  1.0
  C  C151  1  0.31662000  0.23004000  0.20932000  1.0
  C  C152  1  0.68337000  0.23003000  0.70933000  1.0
  C  C153  1  0.68338000  0.76995000  0.79068000  1.0
  C  C154  1  0.42845000  0.68965000  0.29952000  1.0
  C  C155  1  0.42846000  0.31036000  0.20047000  1.0
  C  C156  1  0.57153000  0.31034000  0.70047000  1.0
  C  C157  1  0.57154000  0.68963000  0.79953000  1.0
  N  N158  1  0.32710000  0.47164000  0.44484000  1.0
  N  N159  1  0.32711000  0.52835000  0.05516000  1.0
  N  N160  1  0.67289000  0.52837000  0.55517000  1.0
  N  N161  1  0.67287000  0.47163000  0.94484000  1.0
  N  N162  1  0.31735000  0.85786000  0.25036000  1.0
  N  N163  1  0.31736000  0.14215000  0.24963000  1.0
  N  N164  1  0.68264000  0.14215000  0.74964000  1.0
  N  N165  1  0.68264000  0.85784000  0.75037000  1.0
  O  O166  1  0.74309000  0.39545000  0.40390000  1.0
  O  O167  1  0.74311000  0.60455000  0.09610000  1.0
  O  O168  1  0.25693000  0.60457000  0.59612000  1.0
  O  O169  1  0.25690000  0.39543000  0.90389000  1.0
  O  O170  1  0.58506000  0.33084000  0.46734000  1.0
  O  O171  1  0.58504000  0.66916000  0.03267000  1.0
  O  O172  1  0.41494000  0.66916000  0.53266000  1.0
  O  O173  1  0.41495000  0.33084000  0.96733000  1.0
  O  O174  1  0.05902000  0.04654000  0.31489000  1.0
  O  O175  1  0.05903000  0.95346000  0.18509000  1.0
  O  O176  1  0.94099000  0.95348000  0.68511000  1.0
  O  O177  1  0.94098000  0.04653000  0.81490000  1.0
  O  O178  1  0.99832000  0.83596000  0.31883000  1.0
  O  O179  1  0.99833000  0.16404000  0.18116000  1.0
  O  O180  1  0.00168000  0.16406000  0.68117000  1.0
  O  O181  1  0.00168000  0.83594000  0.81884000  1.0
  O  O182  1  0.58335000  0.85361000  0.45389000  1.0
  O  O183  1  0.58334000  0.14639000  0.04611000  1.0
  O  O184  1  0.41667000  0.14641000  0.54612000  1.0
  O  O185  1  0.41668000  0.85360000  0.95388000  1.0
  O  O186  1  0.60640000  0.59633000  0.43139000  1.0
  O  O187  1  0.60643000  0.40366000  0.06862000  1.0
  O  O188  1  0.39360000  0.40369000  0.56861000  1.0
  O  O189  1  0.39357000  0.59633000  0.93138000  1.0
  O  O190  1  0.02549000  0.42369000  0.31858000  1.0
  O  O191  1  0.02547000  0.57633000  0.18141000  1.0
  O  O192  1  0.97452000  0.57632000  0.68142000  1.0
  O  O193  1  0.97452000  0.42367000  0.81859000  1.0
  O  O194  1  0.65779000  0.62475000  0.27847000  1.0
  O  O195  1  0.65780000  0.37526000  0.22152000  1.0
  O  O196  1  0.34219000  0.37525000  0.72153000  1.0
  O  O197  1  0.34220000  0.62473000  0.77848000  1.0
