# generated using pymatgen
data_H12RhC16N3O4
_symmetry_space_group_name_H-M   'P 1'
_cell_length_a   9.55532000
_cell_length_b   10.19020000
_cell_length_c   10.63500000
_cell_angle_alpha   72.43230000
_cell_angle_beta   64.89180000
_cell_angle_gamma   63.14150000
_symmetry_Int_Tables_number   1
_chemical_formula_structural   H12RhC16N3O4
_chemical_formula_sum   'H24 Rh2 C32 N6 O8'
_cell_volume   828.72424130
_cell_formula_units_Z   2
loop_
 _symmetry_equiv_pos_site_id
 _symmetry_equiv_pos_as_xyz
  1  'x, y, z'
loop_
 _atom_site_type_symbol
 _atom_site_label
 _atom_site_symmetry_multiplicity
 _atom_site_fract_x
 _atom_site_fract_y
 _atom_site_fract_z
 _atom_site_occupancy
  H  H0  1  0.75540000  0.78190000  0.09164000  1.0
  H  H1  1  0.24461000  0.21810000  0.90836000  1.0
  H  H2  1  0.78949000  0.91932000  0.85112000  1.0
  H  H3  1  0.21052000  0.08066000  0.14888000  1.0
  H  H4  1  0.62654000  0.92506000  0.71686000  1.0
  H  H5  1  0.37346000  0.07494000  0.28315000  1.0
  H  H6  1  0.42679000  0.79452000  0.82686000  1.0
  H  H7  1  0.57320000  0.20548000  0.17314000  1.0
  H  H8  1  0.39073000  0.66056000  0.06906000  1.0
  H  H9  1  0.60926000  0.33944000  0.93094000  1.0
  H  H10  1  0.00451000  0.08434000  0.36797000  1.0
  H  H11  1  0.99549000  0.91565000  0.63204000  1.0
  H  H12  1  0.17628000  0.83390000  0.28625000  1.0
  H  H13  1  0.82372000  0.16610000  0.71376000  1.0
  H  H14  1  0.04042000  0.69846000  0.24967000  1.0
  H  H15  1  0.95958000  0.30155000  0.75032000  1.0
  H  H16  1  0.73203000  0.80121000  0.30869000  1.0
  H  H17  1  0.26797000  0.19880000  0.69128000  1.0
  H  H18  1  0.56296000  0.05090000  0.38870000  1.0
  H  H19  1  0.43704000  0.94911000  0.61129000  1.0
  H  H20  1  0.00454000  0.38198000  0.32979000  1.0
  H  H21  1  0.99546000  0.61803000  0.67022000  1.0
  H  H22  1  0.27053000  0.36865000  0.33849000  1.0
  H  H23  1  0.72948000  0.63135000  0.66151000  1.0
  Rh  Rh24  1  0.62490000  0.50658000  0.49702000  1.0
  Rh  Rh25  1  0.37510000  0.49342000  0.50299000  1.0
  C  C26  1  0.54915000  0.63221000  0.23982000  1.0
  C  C27  1  0.45086000  0.36779000  0.76018000  1.0
  C  C28  1  0.57107000  0.71293000  0.09510000  1.0
  C  C29  1  0.42893000  0.28707000  0.90490000  1.0
  C  C30  1  0.68390000  0.78539000  0.03294000  1.0
  C  C31  1  0.31610000  0.21460000  0.96706000  1.0
  C  C32  1  0.70299000  0.86189000  0.89767000  1.0
  C  C33  1  0.29701000  0.13811000  0.10233000  1.0
  C  C34  1  0.61091000  0.86527000  0.82306000  1.0
  C  C35  1  0.38908000  0.13473000  0.17694000  1.0
  C  C36  1  0.49879000  0.79240000  0.88452000  1.0
  C  C37  1  0.50121000  0.20760000  0.11549000  1.0
  C  C38  1  0.47806000  0.71715000  0.02029000  1.0
  C  C39  1  0.52194000  0.28285000  0.97971000  1.0
  C  C40  1  0.67480000  0.23511000  0.42048000  1.0
  C  C41  1  0.32521000  0.76489000  0.57952000  1.0
  C  C42  1  0.77470000  0.08394000  0.37881000  1.0
  C  C43  1  0.22531000  0.91606000  0.62119000  1.0
  C  C44  1  0.94735000  0.02217000  0.35193000  1.0
  C  C45  1  0.05264000  0.97782000  0.64808000  1.0
  C  C46  1  0.04240000  0.88358000  0.30596000  1.0
  C  C47  1  0.95760000  0.11642000  0.69404000  1.0
  C  C48  1  0.96525000  0.80621000  0.28696000  1.0
  C  C49  1  0.03474000  0.19380000  0.71303000  1.0
  C  C50  1  0.79259000  0.86458000  0.31820000  1.0
  C  C51  1  0.20742000  0.13543000  0.68178000  1.0
  C  C52  1  0.69754000  0.00331000  0.36395000  1.0
  C  C53  1  0.30246000  0.99669000  0.63605000  1.0
  C  C54  1  0.00285000  0.43512000  0.40567000  1.0
  C  C55  1  0.99714000  0.56490000  0.59434000  1.0
  C  C56  1  0.14913000  0.42738000  0.41079000  1.0
  C  C57  1  0.85087000  0.57262000  0.58923000  1.0
  N  N58  1  0.85252000  0.50790000  0.49491000  1.0
  N  N59  1  0.14749000  0.49210000  0.50510000  1.0
  N  N60  1  0.90175000  0.36590000  0.07792000  1.0
  N  N61  1  0.09826000  0.63410000  0.92207000  1.0
  N  N62  1  0.82191000  0.34180000  0.04334000  1.0
  N  N63  1  0.17810000  0.65820000  0.95666000  1.0
  O  O64  1  0.65690000  0.60798000  0.29435000  1.0
  O  O65  1  0.34309000  0.39201000  0.70566000  1.0
  O  O66  1  0.42315000  0.59278000  0.29987000  1.0
  O  O67  1  0.57684000  0.40721000  0.70013000  1.0
  O  O68  1  0.75310000  0.30177000  0.43366000  1.0
  O  O69  1  0.24690000  0.69823000  0.56634000  1.0
  O  O70  1  0.51841000  0.28848000  0.43862000  1.0
  O  O71  1  0.48159000  0.71152000  0.56138000  1.0
