# generated using pymatgen
data_Zn2H13C27BrN8
_symmetry_space_group_name_H-M   'P 1'
_cell_length_a   18.36790000
_cell_length_b   18.36920000
_cell_length_c   18.40320000
_cell_angle_alpha   111.71700000
_cell_angle_beta   111.80200000
_cell_angle_gamma   97.34040000
_symmetry_Int_Tables_number   1
_chemical_formula_structural   Zn2H13C27BrN8
_chemical_formula_sum   'Zn4 H26 C54 Br2 N16'
_cell_volume   5096.57113810
_cell_formula_units_Z   2
loop_
 _symmetry_equiv_pos_site_id
 _symmetry_equiv_pos_as_xyz
  1  'x, y, z'
loop_
 _atom_site_type_symbol
 _atom_site_label
 _atom_site_symmetry_multiplicity
 _atom_site_fract_x
 _atom_site_fract_y
 _atom_site_fract_z
 _atom_site_occupancy
  Zn  Zn0  1  0.60790000  0.48826000  0.10552000  1.0
  Zn  Zn1  1  0.48820000  0.60800000  0.10539000  1.0
  Zn  Zn2  1  0.37940000  0.49802000  0.88249000  1.0
  Zn  Zn3  1  0.49788000  0.37955000  0.88256000  1.0
  H  H4  1  0.78682000  0.47479000  0.11339000  1.0
  H  H5  1  0.47467000  0.78674000  0.11336000  1.0
  H  H6  1  0.88816000  0.98040000  0.39973000  1.0
  H  H7  1  0.98106000  0.88696000  0.40039000  1.0
  H  H8  1  0.00635000  0.85029000  0.47985000  1.0
  H  H9  1  0.85011000  0.00574000  0.47801000  1.0
  H  H10  1  0.12259000  0.96663000  0.57500000  1.0
  H  H11  1  0.96627000  0.12195000  0.57446000  1.0
  H  H12  1  0.88773000  0.95234000  0.59080000  1.0
  H  H13  1  0.95145000  0.88818000  0.59125000  1.0
  H  H14  1  0.00421000  0.06806000  0.68654000  1.0
  H  H15  1  0.06797000  0.00391000  0.68641000  1.0
  H  H16  1  0.30509000  0.64287000  0.83731000  1.0
  H  H17  1  0.64275000  0.30521000  0.83749000  1.0
  H  H18  1  0.63011000  0.47281000  0.84509000  1.0
  H  H19  1  0.47275000  0.63010000  0.84486000  1.0
  H  H20  1  0.65698000  0.50005000  0.31059000  1.0
  H  H21  1  0.50016000  0.65743000  0.31059000  1.0
  H  H22  1  0.20445000  0.36121000  0.72826000  1.0
  H  H23  1  0.36130000  0.20475000  0.72826000  1.0
  H  H24  1  0.37874000  0.22777000  0.87223000  1.0
  H  H25  1  0.22767000  0.37875000  0.87229000  1.0
  H  H26  1  0.36245000  0.52517000  0.15478000  1.0
  H  H27  1  0.52528000  0.36219000  0.15477000  1.0
  H  H28  1  0.00349000  0.09683000  0.49541000  1.0
  H  H29  1  0.09669000  0.00319000  0.49533000  1.0
  C  C30  1  0.73877000  0.43463000  0.04747000  1.0
  C  C31  1  0.43453000  0.73878000  0.04741000  1.0
  C  C32  1  0.42025000  0.27247000  0.93948000  1.0
  C  C33  1  0.27246000  0.42027000  0.93952000  1.0
  C  C34  1  0.34115000  0.49514000  0.08435000  1.0
  C  C35  1  0.49518000  0.34096000  0.08434000  1.0
  C  C36  1  0.58407000  0.58422000  0.34843000  1.0
  C  C37  1  0.25190000  0.25199000  0.71071000  1.0
  C  C38  1  0.44052000  0.26300000  0.01667000  1.0
  C  C39  1  0.26312000  0.44049000  0.01672000  1.0
  C  C40  1  0.90427000  0.99562000  0.46847000  1.0
  C  C41  1  0.99605000  0.90395000  0.46926000  1.0
  C  C42  1  0.07255000  0.98067000  0.53202000  1.0
  C  C43  1  0.98073000  0.07230000  0.53170000  1.0
  C  C44  1  0.18264000  0.18269000  0.67240000  1.0
  C  C45  1  0.92047000  0.92033000  0.48351000  1.0
  C  C46  1  0.05093000  0.05082000  0.59067000  1.0
  C  C47  1  0.34779000  0.66561000  0.90605000  1.0
  C  C48  1  0.66547000  0.34789000  0.90619000  1.0
  C  C49  1  0.01874000  0.01874000  0.64349000  1.0
  C  C50  1  0.94113000  0.94150000  0.57990000  1.0
  C  C51  1  0.12349000  0.12342000  0.64336000  1.0
  C  C52  1  0.84913000  0.84900000  0.41691000  1.0
  C  C53  1  0.79388000  0.79371000  0.34867000  1.0
  C  C54  1  0.37971000  0.82215000  0.97168000  1.0
  C  C55  1  0.82215000  0.37991000  0.97180000  1.0
  C  C56  1  0.38148000  0.89195000  0.97946000  1.0
  C  C57  1  0.89196000  0.38158000  0.97958000  1.0
  C  C58  1  0.38582000  0.96876000  0.98977000  1.0
  C  C59  1  0.96875000  0.38577000  0.98975000  1.0
  C  C60  1  0.39304000  0.04058000  0.00130000  1.0
  C  C61  1  0.04060000  0.39294000  0.00130000  1.0
  C  C62  1  0.40437000  0.11798000  0.01167000  1.0
  C  C63  1  0.11803000  0.40425000  0.01164000  1.0
  C  C64  1  0.58582000  0.50523000  0.85216000  1.0
  C  C65  1  0.50517000  0.58583000  0.85202000  1.0
  C  C66  1  0.41878000  0.18847000  0.01930000  1.0
  C  C67  1  0.18857000  0.41878000  0.01938000  1.0
  C  C68  1  0.59561000  0.59574000  0.43188000  1.0
  C  C69  1  0.60363000  0.60370000  0.50413000  1.0
  C  C70  1  0.60831000  0.60834000  0.58023000  1.0
  C  C71  1  0.60855000  0.60870000  0.64769000  1.0
  C  C72  1  0.60255000  0.60265000  0.71581000  1.0
  C  C73  1  0.59085000  0.59086000  0.77279000  1.0
  C  C74  1  0.65269000  0.73154000  0.21674000  1.0
  C  C75  1  0.73158000  0.65255000  0.21690000  1.0
  C  C76  1  0.74743000  0.38563000  0.97329000  1.0
  C  C77  1  0.38546000  0.74747000  0.97317000  1.0
  C  C78  1  0.56620000  0.56622000  0.82580000  1.0
  C  C79  1  0.73149000  0.73135000  0.26827000  1.0
  C  C80  1  0.61611000  0.53588000  0.29565000  1.0
  C  C81  1  0.53585000  0.61644000  0.29564000  1.0
  C  C82  1  0.25515000  0.33524000  0.73720000  1.0
  C  C83  1  0.33522000  0.25535000  0.73720000  1.0
  Br  Br84  1  0.60724000  0.81555000  0.25292000  1.0
  Br  Br85  1  0.81543000  0.60686000  0.25316000  1.0
  N  N86  1  0.65913000  0.42677000  0.02653000  1.0
  N  N87  1  0.42677000  0.65919000  0.02647000  1.0
  N  N88  1  0.37242000  0.61355000  0.93842000  1.0
  N  N89  1  0.61341000  0.37241000  0.93850000  1.0
  N  N90  1  0.53837000  0.48898000  0.88850000  1.0
  N  N91  1  0.48890000  0.53841000  0.88840000  1.0
  N  N92  1  0.61037000  0.66060000  0.14190000  1.0
  N  N93  1  0.66059000  0.61034000  0.14200000  1.0
  N  N94  1  0.58897000  0.53930000  0.21889000  1.0
  N  N95  1  0.53918000  0.58929000  0.21889000  1.0
  N  N96  1  0.33376000  0.38396000  0.77839000  1.0
  N  N97  1  0.38387000  0.33396000  0.77838000  1.0
  N  N98  1  0.46146000  0.34865000  0.96004000  1.0
  N  N99  1  0.34861000  0.46152000  0.96002000  1.0
  N  N100  1  0.39086000  0.50737000  0.04874000  1.0
  N  N101  1  0.50735000  0.39077000  0.04877000  1.0
