# generated using pymatgen
data_ZnH18C28(N4O3)2
_symmetry_space_group_name_H-M   'P 1'
_cell_length_a   16.35900000
_cell_length_b   16.35900000
_cell_length_c   25.75380000
_cell_angle_alpha   89.99990000
_cell_angle_beta   89.99980000
_cell_angle_gamma   60.00000000
_symmetry_Int_Tables_number   1
_chemical_formula_structural   ZnH18C28(N4O3)2
_chemical_formula_sum   'Zn6 H108 C168 N48 O36'
_cell_volume   5968.77839819
_cell_formula_units_Z   6
loop_
 _symmetry_equiv_pos_site_id
 _symmetry_equiv_pos_as_xyz
  1  'x, y, z'
loop_
 _atom_site_type_symbol
 _atom_site_label
 _atom_site_symmetry_multiplicity
 _atom_site_fract_x
 _atom_site_fract_y
 _atom_site_fract_z
 _atom_site_occupancy
  Zn  Zn0  1  0.28699000  0.28699000  0.83334000  1.0
  Zn  Zn1  1  0.28699000  0.42602000  0.16667000  1.0
  Zn  Zn2  1  0.42602000  0.28699000  0.50000000  1.0
  Zn  Zn3  1  0.71301000  0.71301000  0.83334000  1.0
  Zn  Zn4  1  0.71301000  0.57398000  0.16667000  1.0
  Zn  Zn5  1  0.57398000  0.71301000  0.50000000  1.0
  H  H6  1  0.93104000  0.42448000  0.79648000  1.0
  H  H7  1  0.81914000  0.46837000  0.86031000  1.0
  H  H8  1  0.09867000  0.36539000  0.77346000  1.0
  H  H9  1  0.17811000  0.32576000  0.92886000  1.0
  H  H10  1  0.01537000  0.38164000  0.95802000  1.0
  H  H11  1  0.69641000  0.47636000  0.85587000  1.0
  H  H12  1  0.71994000  0.46141000  0.02330000  1.0
  H  H13  1  0.60635000  0.18102000  0.91680000  1.0
  H  H14  1  0.42448000  0.64448000  0.12981000  1.0
  H  H15  1  0.46837000  0.71249000  0.19364000  1.0
  H  H16  1  0.36540000  0.53594000  0.10679000  1.0
  H  H17  1  0.32575000  0.49613000  0.26219000  1.0
  H  H18  1  0.38163000  0.60299000  0.29135000  1.0
  H  H19  1  0.47635000  0.82723000  0.18920000  1.0
  H  H20  1  0.46142000  0.81865000  0.35663000  1.0
  H  H21  1  0.18102000  0.21263000  0.25014000  1.0
  H  H22  1  0.64449000  0.93104000  0.46314000  1.0
  H  H23  1  0.71249000  0.81914000  0.52698000  1.0
  H  H24  1  0.53594000  0.09866000  0.44013000  1.0
  H  H25  1  0.49612000  0.17812000  0.59553000  1.0
  H  H26  1  0.60299000  0.01537000  0.62469000  1.0
  H  H27  1  0.82723000  0.69641000  0.52254000  1.0
  H  H28  1  0.81864000  0.71994000  0.68996000  1.0
  H  H29  1  0.21262000  0.60636000  0.58347000  1.0
  H  H30  1  0.06896000  0.57553000  0.79648000  1.0
  H  H31  1  0.18087000  0.53162000  0.86031000  1.0
  H  H32  1  0.90134000  0.63460000  0.77346000  1.0
  H  H33  1  0.82189000  0.67424000  0.92886000  1.0
  H  H34  1  0.98463000  0.61836000  0.95802000  1.0
  H  H35  1  0.30359000  0.52364000  0.85588000  1.0
  H  H36  1  0.28006000  0.53859000  0.02330000  1.0
  H  H37  1  0.39365000  0.81898000  0.91680000  1.0
  H  H38  1  0.57552000  0.35552000  0.12981000  1.0
  H  H39  1  0.53163000  0.28751000  0.19364000  1.0
  H  H40  1  0.63460000  0.46406000  0.10679000  1.0
  H  H41  1  0.67424000  0.50387000  0.26219000  1.0
  H  H42  1  0.61836000  0.39701000  0.29135000  1.0
  H  H43  1  0.52365000  0.17277000  0.18920000  1.0
  H  H44  1  0.53858000  0.18135000  0.35663000  1.0
  H  H45  1  0.81898000  0.78737000  0.25013000  1.0
  H  H46  1  0.35552000  0.06896000  0.46314000  1.0
  H  H47  1  0.28751000  0.18086000  0.52697000  1.0
  H  H48  1  0.46406000  0.90134000  0.44013000  1.0
  H  H49  1  0.50387000  0.82188000  0.59553000  1.0
  H  H50  1  0.39701000  0.98463000  0.62468000  1.0
  H  H51  1  0.17277000  0.30360000  0.52254000  1.0
  H  H52  1  0.18136000  0.28006000  0.68996000  1.0
  H  H53  1  0.78738000  0.39364000  0.58347000  1.0
  H  H54  1  0.35552000  0.57552000  0.53686000  1.0
  H  H55  1  0.28751000  0.53163000  0.47302000  1.0
  H  H56  1  0.46406000  0.63460000  0.55987000  1.0
  H  H57  1  0.50387000  0.67425000  0.40447000  1.0
  H  H58  1  0.39701000  0.61837000  0.37532000  1.0
  H  H59  1  0.17278000  0.52363000  0.47746000  1.0
  H  H60  1  0.18135000  0.53859000  0.31004000  1.0
  H  H61  1  0.78737000  0.81898000  0.41653000  1.0
  H  H62  1  0.06896000  0.35552000  0.20353000  1.0
  H  H63  1  0.18086000  0.28751000  0.13969000  1.0
  H  H64  1  0.90134000  0.46406000  0.22654000  1.0
  H  H65  1  0.82188000  0.50388000  0.07114000  1.0
  H  H66  1  0.98463000  0.39701000  0.04198000  1.0
  H  H67  1  0.30359000  0.17277000  0.14412000  1.0
  H  H68  1  0.28006000  0.18136000  0.97670000  1.0
  H  H69  1  0.39365000  0.78737000  0.08320000  1.0
  H  H70  1  0.57552000  0.06896000  0.87019000  1.0
  H  H71  1  0.53163000  0.18086000  0.80636000  1.0
  H  H72  1  0.63460000  0.90134000  0.89321000  1.0
  H  H73  1  0.67424000  0.82189000  0.73781000  1.0
  H  H74  1  0.61836000  0.98463000  0.70865000  1.0
  H  H75  1  0.52365000  0.30358000  0.81080000  1.0
  H  H76  1  0.53858000  0.28007000  0.64337000  1.0
  H  H77  1  0.81898000  0.39365000  0.74987000  1.0
  H  H78  1  0.64448000  0.42448000  0.53686000  1.0
  H  H79  1  0.71249000  0.46837000  0.47302000  1.0
  H  H80  1  0.53594000  0.36540000  0.55987000  1.0
  H  H81  1  0.49613000  0.32575000  0.40447000  1.0
  H  H82  1  0.60299000  0.38163000  0.37531000  1.0
  H  H83  1  0.82722000  0.47637000  0.47746000  1.0
  H  H84  1  0.81865000  0.46142000  0.31004000  1.0
  H  H85  1  0.21263000  0.18102000  0.41653000  1.0
  H  H86  1  0.93104000  0.64448000  0.20353000  1.0
  H  H87  1  0.81913000  0.71250000  0.13969000  1.0
  H  H88  1  0.09866000  0.53594000  0.22654000  1.0
  H  H89  1  0.17812000  0.49612000  0.07114000  1.0
  H  H90  1  0.01537000  0.60299000  0.04198000  1.0
  H  H91  1  0.69641000  0.82723000  0.14413000  1.0
  H  H92  1  0.71993000  0.81865000  0.97670000  1.0
  H  H93  1  0.60635000  0.21263000  0.08320000  1.0
  H  H94  1  0.42448000  0.93104000  0.87019000  1.0
  H  H95  1  0.46837000  0.81914000  0.80636000  1.0
  H  H96  1  0.36540000  0.09866000  0.89321000  1.0
  H  H97  1  0.32575000  0.17812000  0.73781000  1.0
  H  H98  1  0.38164000  0.01537000  0.70865000  1.0
  H  H99  1  0.47635000  0.69642000  0.81080000  1.0
  H  H100  1  0.46142000  0.71993000  0.64337000  1.0
  H  H101  1  0.18102000  0.60635000  0.74987000  1.0
  H  H102  1  0.34389000  0.32805000  1.00000000  1.0
  H  H103  1  0.69545000  0.15228000  1.00000000  1.0
  H  H104  1  0.32805000  0.32806000  0.33333333  1.0
  H  H105  1  0.15228000  0.15227000  0.33333333  1.0
  H  H106  1  0.32806000  0.34388000  0.66666667  1.0
  H  H107  1  0.15227000  0.69546000  0.66666667  1.0
  H  H108  1  0.65611000  0.67195000  0.00000000  1.0
  H  H109  1  0.30454000  0.84773000  0.00000000  1.0
  H  H110  1  0.67194000  0.67195000  0.33333333  1.0
  H  H111  1  0.84773000  0.84773000  0.33333333  1.0
  H  H112  1  0.67194000  0.65612000  0.66666667  1.0
  H  H113  1  0.84773000  0.30454000  0.66666667  1.0
  C  C114  1  0.95828000  0.40753000  0.87962000  1.0
  C  C115  1  0.98418000  0.40205000  0.82690000  1.0
  C  C116  1  0.54876000  0.49334000  0.94566000  1.0
  C  C117  1  0.82638000  0.44030000  0.93949000  1.0
  C  C118  1  0.07772000  0.36887000  0.81401000  1.0
  C  C119  1  0.72577000  0.46364000  0.93952000  1.0
  C  C120  1  0.12170000  0.34712000  0.90048000  1.0
  C  C121  1  0.03004000  0.37935000  0.91695000  1.0
  C  C122  1  0.67083000  0.47701000  0.89516000  1.0
  C  C123  1  0.41980000  0.26454000  0.90330000  1.0
  C  C124  1  0.68155000  0.46920000  0.98721000  1.0
  C  C125  1  0.47013000  0.25420000  0.95343000  1.0
  C  C126  1  0.56914000  0.20621000  0.95359000  1.0
  C  C127  1  0.40754000  0.63418000  0.21296000  1.0
  C  C128  1  0.40206000  0.61376000  0.16023000  1.0
  C  C129  1  0.49334000  0.95790000  0.27898000  1.0
  C  C130  1  0.44030000  0.73332000  0.27283000  1.0
  C  C131  1  0.36888000  0.55340000  0.14734000  1.0
  C  C132  1  0.46364000  0.81059000  0.27285000  1.0
  C  C133  1  0.34712000  0.53118000  0.23381000  1.0
  C  C134  1  0.37936000  0.59060000  0.25028000  1.0
  C  C135  1  0.47701000  0.85216000  0.22849000  1.0
  C  C136  1  0.26454000  0.31566000  0.23663000  1.0
  C  C137  1  0.46919000  0.84926000  0.32054000  1.0
  C  C138  1  0.25421000  0.27566000  0.28676000  1.0
  C  C139  1  0.20621000  0.22465000  0.28692000  1.0
  C  C140  1  0.63419000  0.95827000  0.54629000  1.0
  C  C141  1  0.61377000  0.98418000  0.49357000  1.0
  C  C142  1  0.95791000  0.54875000  0.61232000  1.0
  C  C143  1  0.73332000  0.82638000  0.60616000  1.0
  C  C144  1  0.55340000  0.07773000  0.48067000  1.0
  C  C145  1  0.81059000  0.72576000  0.60619000  1.0
  C  C146  1  0.53118000  0.12169000  0.56715000  1.0
  C  C147  1  0.59060000  0.03004000  0.58362000  1.0
  C  C148  1  0.85216000  0.67083000  0.56183000  1.0
  C  C149  1  0.31566000  0.41980000  0.56997000  1.0
  C  C150  1  0.84925000  0.68156000  0.65388000  1.0
  C  C151  1  0.27567000  0.47012000  0.62010000  1.0
  C  C152  1  0.22465000  0.56914000  0.62026000  1.0
  C  C153  1  0.04173000  0.59246000  0.87963000  1.0
  C  C154  1  0.01582000  0.59795000  0.82690000  1.0
  C  C155  1  0.45124000  0.50666000  0.94566000  1.0
  C  C156  1  0.17362000  0.55969000  0.93949000  1.0
  C  C157  1  0.92228000  0.63113000  0.81401000  1.0
  C  C158  1  0.27423000  0.53636000  0.93952000  1.0
  C  C159  1  0.87831000  0.65287000  0.90048000  1.0
  C  C160  1  0.96997000  0.62064000  0.91695000  1.0
  C  C161  1  0.32917000  0.52299000  0.89516000  1.0
  C  C162  1  0.58020000  0.73546000  0.90330000  1.0
  C  C163  1  0.31845000  0.53080000  0.98721000  1.0
  C  C164  1  0.52987000  0.74579000  0.95343000  1.0
  C  C165  1  0.43086000  0.79379000  0.95359000  1.0
  C  C166  1  0.59246000  0.36582000  0.21296000  1.0
  C  C167  1  0.59794000  0.38624000  0.16023000  1.0
  C  C168  1  0.50666000  0.04210000  0.27898000  1.0
  C  C169  1  0.55970000  0.26668000  0.27283000  1.0
  C  C170  1  0.63112000  0.44660000  0.14734000  1.0
  C  C171  1  0.53636000  0.18941000  0.27285000  1.0
  C  C172  1  0.65288000  0.46881000  0.23381000  1.0
  C  C173  1  0.62064000  0.40940000  0.25028000  1.0
  C  C174  1  0.52299000  0.14784000  0.22849000  1.0
  C  C175  1  0.73546000  0.68434000  0.23663000  1.0
  C  C176  1  0.53081000  0.15074000  0.32054000  1.0
  C  C177  1  0.74579000  0.72434000  0.28676000  1.0
  C  C178  1  0.79379000  0.77535000  0.28692000  1.0
  C  C179  1  0.36581000  0.04173000  0.54629000  1.0
  C  C180  1  0.38624000  0.01582000  0.49357000  1.0
  C  C181  1  0.04210000  0.45124000  0.61232000  1.0
  C  C182  1  0.26668000  0.17362000  0.60616000  1.0
  C  C183  1  0.44659000  0.92228000  0.48067000  1.0
  C  C184  1  0.18941000  0.27424000  0.60618000  1.0
  C  C185  1  0.46882000  0.87830000  0.56715000  1.0
  C  C186  1  0.40939000  0.96996000  0.58361000  1.0
  C  C187  1  0.14784000  0.32917000  0.56183000  1.0
  C  C188  1  0.68434000  0.58020000  0.56997000  1.0
  C  C189  1  0.15075000  0.31844000  0.65387000  1.0
  C  C190  1  0.72433000  0.52988000  0.62010000  1.0
  C  C191  1  0.77536000  0.43086000  0.62026000  1.0
  C  C192  1  0.36581000  0.59247000  0.45371000  1.0
  C  C193  1  0.38623000  0.59795000  0.50643000  1.0
  C  C194  1  0.04210000  0.50666000  0.38768000  1.0
  C  C195  1  0.26669000  0.55969000  0.39384000  1.0
  C  C196  1  0.44659000  0.63113000  0.51932000  1.0
  C  C197  1  0.18942000  0.53635000  0.39381000  1.0
  C  C198  1  0.46882000  0.65288000  0.43285000  1.0
  C  C199  1  0.40940000  0.62064000  0.41638000  1.0
  C  C200  1  0.14784000  0.52299000  0.43817000  1.0
  C  C201  1  0.68434000  0.73547000  0.43003000  1.0
  C  C202  1  0.15075000  0.53080000  0.34612000  1.0
  C  C203  1  0.72433000  0.74580000  0.37990000  1.0
  C  C204  1  0.77536000  0.79378000  0.37974000  1.0
  C  C205  1  0.04172000  0.36582000  0.12038000  1.0
  C  C206  1  0.01582000  0.38624000  0.17310000  1.0
  C  C207  1  0.45124000  0.04210000  0.05434000  1.0
  C  C208  1  0.17362000  0.26669000  0.06051000  1.0
  C  C209  1  0.92228000  0.44660000  0.18599000  1.0
  C  C210  1  0.27423000  0.18942000  0.06048000  1.0
  C  C211  1  0.87830000  0.46882000  0.09952000  1.0
  C  C212  1  0.96996000  0.40940000  0.08305000  1.0
  C  C213  1  0.32917000  0.14784000  0.10484000  1.0
  C  C214  1  0.58020000  0.68433000  0.09670000  1.0
  C  C215  1  0.31844000  0.15075000  0.01279000  1.0
  C  C216  1  0.52987000  0.72433000  0.04657000  1.0
  C  C217  1  0.43086000  0.77535000  0.04641000  1.0
  C  C218  1  0.59246000  0.04173000  0.78704000  1.0
  C  C219  1  0.59794000  0.01582000  0.83977000  1.0
  C  C220  1  0.50666000  0.45125000  0.72102000  1.0
  C  C221  1  0.55970000  0.17362000  0.72718000  1.0
  C  C222  1  0.63112000  0.92228000  0.85266000  1.0
  C  C223  1  0.53636000  0.27423000  0.72715000  1.0
  C  C224  1  0.65288000  0.87830000  0.76619000  1.0
  C  C225  1  0.62064000  0.96996000  0.74972000  1.0
  C  C226  1  0.52299000  0.32917000  0.77151000  1.0
  C  C227  1  0.73546000  0.58020000  0.76337000  1.0
  C  C228  1  0.53081000  0.31844000  0.67946000  1.0
  C  C229  1  0.74579000  0.52988000  0.71324000  1.0
  C  C230  1  0.79378000  0.43087000  0.71308000  1.0
  C  C231  1  0.63419000  0.40753000  0.45371000  1.0
  C  C232  1  0.61377000  0.40205000  0.50643000  1.0
  C  C233  1  0.95790000  0.49334000  0.38768000  1.0
  C  C234  1  0.73332000  0.44030000  0.39384000  1.0
  C  C235  1  0.55340000  0.36888000  0.51932000  1.0
  C  C236  1  0.81059000  0.46364000  0.39381000  1.0
  C  C237  1  0.53118000  0.34712000  0.43285000  1.0
  C  C238  1  0.59061000  0.37935000  0.41638000  1.0
  C  C239  1  0.85216000  0.47701000  0.43817000  1.0
  C  C240  1  0.31566000  0.26454000  0.43003000  1.0
  C  C241  1  0.84925000  0.46920000  0.34612000  1.0
  C  C242  1  0.27567000  0.25420000  0.37990000  1.0
  C  C243  1  0.22465000  0.20621000  0.37974000  1.0
  C  C244  1  0.95828000  0.63419000  0.12037000  1.0
  C  C245  1  0.98418000  0.61376000  0.17310000  1.0
  C  C246  1  0.54876000  0.95790000  0.05434000  1.0
  C  C247  1  0.82638000  0.73331000  0.06051000  1.0
  C  C248  1  0.07772000  0.55340000  0.18599000  1.0
  C  C249  1  0.72577000  0.81058000  0.06048000  1.0
  C  C250  1  0.12170000  0.53118000  0.09952000  1.0
  C  C251  1  0.03004000  0.59060000  0.08305000  1.0
  C  C252  1  0.67083000  0.85216000  0.10484000  1.0
  C  C253  1  0.41980000  0.31566000  0.09670000  1.0
  C  C254  1  0.68156000  0.84925000  0.01279000  1.0
  C  C255  1  0.47013000  0.27566000  0.04657000  1.0
  C  C256  1  0.56914000  0.22465000  0.04641000  1.0
  C  C257  1  0.40754000  0.95827000  0.78704000  1.0
  C  C258  1  0.40206000  0.98418000  0.83977000  1.0
  C  C259  1  0.49334000  0.54876000  0.72102000  1.0
  C  C260  1  0.44031000  0.82637000  0.72717000  1.0
  C  C261  1  0.36888000  0.07772000  0.85266000  1.0
  C  C262  1  0.46365000  0.72576000  0.72715000  1.0
  C  C263  1  0.34712000  0.12170000  0.76619000  1.0
  C  C264  1  0.37936000  0.03004000  0.74972000  1.0
  C  C265  1  0.47701000  0.67083000  0.77151000  1.0
  C  C266  1  0.26454000  0.41980000  0.76337000  1.0
  C  C267  1  0.46920000  0.68155000  0.67946000  1.0
  C  C268  1  0.25421000  0.47012000  0.71324000  1.0
  C  C269  1  0.20621000  0.56914000  0.71308000  1.0
  C  C270  1  0.42076000  0.28962000  0.00000000  1.0
  C  C271  1  0.61850000  0.19075000  0.00000000  1.0
  C  C272  1  0.28962000  0.28962000  0.33333333  1.0
  C  C273  1  0.19075000  0.19075000  0.33333333  1.0
  C  C274  1  0.28962000  0.42076000  0.66666667  1.0
  C  C275  1  0.19075000  0.61850000  0.66666667  1.0
  C  C276  1  0.57924000  0.71038000  0.00000000  1.0
  C  C277  1  0.38150000  0.80925000  0.00000000  1.0
  C  C278  1  0.71038000  0.71038000  0.33333333  1.0
  C  C279  1  0.80925000  0.80925000  0.33333333  1.0
  C  C280  1  0.71038000  0.57924000  0.66666667  1.0
  C  C281  1  0.80925000  0.38150000  0.66666667  1.0
  N  N282  1  0.14661000  0.34112000  0.85005000  1.0
  N  N283  1  0.86428000  0.43946000  0.89141000  1.0
  N  N284  1  0.58314000  0.49232000  0.89816000  1.0
  N  N285  1  0.59388000  0.48344000  0.99108000  1.0
  N  N286  1  0.34111000  0.51228000  0.18338000  1.0
  N  N287  1  0.43946000  0.69625000  0.22474000  1.0
  N  N288  1  0.49232000  0.92454000  0.23148000  1.0
  N  N289  1  0.48344000  0.92268000  0.32440000  1.0
  N  N290  1  0.51227000  0.14662000  0.51672000  1.0
  N  N291  1  0.69626000  0.86428000  0.55808000  1.0
  N  N292  1  0.92454000  0.58314000  0.56483000  1.0
  N  N293  1  0.92268000  0.59388000  0.65774000  1.0
  N  N294  1  0.85339000  0.65889000  0.85005000  1.0
  N  N295  1  0.13572000  0.56053000  0.89141000  1.0
  N  N296  1  0.41686000  0.50768000  0.89816000  1.0
  N  N297  1  0.40612000  0.51656000  0.99108000  1.0
  N  N298  1  0.65889000  0.48772000  0.18338000  1.0
  N  N299  1  0.56054000  0.30374000  0.22474000  1.0
  N  N300  1  0.50768000  0.07546000  0.23148000  1.0
  N  N301  1  0.51656000  0.07731000  0.32440000  1.0
  N  N302  1  0.48772000  0.85339000  0.51672000  1.0
  N  N303  1  0.30375000  0.13572000  0.55808000  1.0
  N  N304  1  0.07546000  0.41687000  0.56482000  1.0
  N  N305  1  0.07732000  0.40612000  0.65774000  1.0
  N  N306  1  0.48773000  0.65888000  0.48328000  1.0
  N  N307  1  0.30375000  0.56053000  0.44192000  1.0
  N  N308  1  0.07546000  0.50767000  0.43517000  1.0
  N  N309  1  0.07732000  0.51656000  0.34226000  1.0
  N  N310  1  0.85339000  0.48772000  0.14995000  1.0
  N  N311  1  0.13572000  0.30375000  0.10859000  1.0
  N  N312  1  0.41686000  0.07546000  0.10184000  1.0
  N  N313  1  0.40612000  0.07732000  0.00892000  1.0
  N  N314  1  0.65888000  0.85339000  0.81662000  1.0
  N  N315  1  0.56054000  0.13571000  0.77526000  1.0
  N  N316  1  0.50769000  0.41686000  0.76852000  1.0
  N  N317  1  0.51656000  0.40613000  0.67560000  1.0
  N  N318  1  0.51227000  0.34112000  0.48328000  1.0
  N  N319  1  0.69625000  0.43947000  0.44192000  1.0
  N  N320  1  0.92454000  0.49232000  0.43517000  1.0
  N  N321  1  0.92268000  0.48344000  0.34226000  1.0
  N  N322  1  0.14661000  0.51228000  0.14995000  1.0
  N  N323  1  0.86428000  0.69626000  0.10859000  1.0
  N  N324  1  0.58313000  0.92455000  0.10184000  1.0
  N  N325  1  0.59388000  0.92268000  0.00892000  1.0
  N  N326  1  0.34112000  0.14661000  0.81662000  1.0
  N  N327  1  0.43947000  0.86428000  0.77526000  1.0
  N  N328  1  0.49232000  0.58314000  0.76851000  1.0
  N  N329  1  0.48344000  0.59388000  0.67560000  1.0
  O  O330  1  0.32992000  0.29615000  0.90498000  1.0
  O  O331  1  0.46584000  0.24077000  0.86145000  1.0
  O  O332  1  0.87180000  0.41989000  0.98048000  1.0
  O  O333  1  0.29615000  0.37393000  0.23831000  1.0
  O  O334  1  0.24077000  0.29339000  0.19478000  1.0
  O  O335  1  0.41988000  0.70833000  0.31381000  1.0
  O  O336  1  0.37393000  0.32992000  0.57164000  1.0
  O  O337  1  0.29339000  0.46584000  0.52812000  1.0
  O  O338  1  0.70831000  0.87180000  0.64714000  1.0
  O  O339  1  0.67008000  0.70385000  0.90497000  1.0
  O  O340  1  0.53416000  0.75923000  0.86145000  1.0
  O  O341  1  0.12821000  0.58010000  0.98048000  1.0
  O  O342  1  0.70385000  0.62607000  0.23831000  1.0
  O  O343  1  0.75922000  0.70662000  0.19478000  1.0
  O  O344  1  0.58011000  0.29168000  0.31381000  1.0
  O  O345  1  0.62607000  0.67008000  0.57164000  1.0
  O  O346  1  0.70661000  0.53416000  0.52812000  1.0
  O  O347  1  0.29169000  0.12820000  0.64714000  1.0
  O  O348  1  0.62607000  0.70385000  0.42836000  1.0
  O  O349  1  0.70662000  0.75922000  0.47188000  1.0
  O  O350  1  0.29169000  0.58011000  0.35286000  1.0
  O  O351  1  0.67008000  0.62607000  0.09502000  1.0
  O  O352  1  0.53416000  0.70661000  0.13855000  1.0
  O  O353  1  0.12821000  0.29169000  0.01952000  1.0
  O  O354  1  0.70385000  0.67008000  0.76169000  1.0
  O  O355  1  0.75922000  0.53416000  0.80522000  1.0
  O  O356  1  0.58010000  0.12821000  0.68619000  1.0
  O  O357  1  0.37393000  0.29615000  0.42836000  1.0
  O  O358  1  0.29339000  0.24077000  0.47188000  1.0
  O  O359  1  0.70831000  0.41990000  0.35286000  1.0
  O  O360  1  0.32992000  0.37393000  0.09502000  1.0
  O  O361  1  0.46584000  0.29339000  0.13855000  1.0
  O  O362  1  0.87180000  0.70831000  0.01952000  1.0
  O  O363  1  0.29615000  0.32992000  0.76169000  1.0
  O  O364  1  0.24078000  0.46583000  0.80522000  1.0
  O  O365  1  0.41990000  0.87179000  0.68619000  1.0
