# generated using pymatgen
data_CoH18C8(SO4)2
_symmetry_space_group_name_H-M   'P 1'
_cell_length_a   7.69602000
_cell_length_b   8.97555000
_cell_length_c   10.57260000
_cell_angle_alpha   89.99810000
_cell_angle_beta   77.54900000
_cell_angle_gamma   89.99860000
_symmetry_Int_Tables_number   1
_chemical_formula_structural   CoH18C8(SO4)2
_chemical_formula_sum   'Co2 H36 C16 S4 O16'
_cell_volume   713.13663334
_cell_formula_units_Z   2
loop_
 _symmetry_equiv_pos_site_id
 _symmetry_equiv_pos_as_xyz
  1  'x, y, z'
loop_
 _atom_site_type_symbol
 _atom_site_label
 _atom_site_symmetry_multiplicity
 _atom_site_fract_x
 _atom_site_fract_y
 _atom_site_fract_z
 _atom_site_occupancy
  Co  Co0  1  0.00000000  0.00000000  0.00000000  1.0
  Co  Co1  1  0.50000000  0.50000000  0.50000000  1.0
  H  H2  1  0.14292000  0.43841000  0.88818000  1.0
  H  H3  1  0.35710000  0.93841000  0.61183000  1.0
  H  H4  1  0.85708000  0.56159000  0.11182000  1.0
  H  H5  1  0.64291000  0.06159000  0.38817000  1.0
  H  H6  1  0.48743000  0.96126000  0.82880000  1.0
  H  H7  1  0.01259000  0.46123000  0.67120000  1.0
  H  H8  1  0.51258000  0.03874000  0.17120000  1.0
  H  H9  1  0.98741000  0.53877000  0.32880000  1.0
  H  H10  1  0.56614000  0.80250000  0.72576000  1.0
  H  H11  1  0.93388000  0.30247000  0.77425000  1.0
  H  H12  1  0.43386000  0.19750000  0.27424000  1.0
  H  H13  1  0.06612000  0.69753000  0.22575000  1.0
  H  H14  1  0.70633000  0.96268000  0.72304000  1.0
  H  H15  1  0.79370000  0.46266000  0.77696000  1.0
  H  H16  1  0.29367000  0.03732000  0.27696000  1.0
  H  H17  1  0.20631000  0.53733000  0.22304000  1.0
  H  H18  1  0.54679000  0.68592000  0.09083000  1.0
  H  H19  1  0.95322000  0.18591000  0.40918000  1.0
  H  H20  1  0.45321000  0.31408000  0.90917000  1.0
  H  H21  1  0.04678000  0.81409000  0.59082000  1.0
  H  H22  1  0.47648000  0.63421000  0.94462000  1.0
  H  H23  1  0.02356000  0.13421000  0.55539000  1.0
  H  H24  1  0.52352000  0.36579000  0.05538000  1.0
  H  H25  1  0.97644000  0.86579000  0.44461000  1.0
  H  H26  1  0.39967000  0.80757000  0.02518000  1.0
  H  H27  1  0.10033000  0.30757000  0.47482000  1.0
  H  H28  1  0.60033000  0.19243000  0.97482000  1.0
  H  H29  1  0.89967000  0.69242000  0.52518000  1.0
  H  H30  1  0.85472000  0.10494000  0.21227000  1.0
  H  H31  1  0.64533000  0.60494000  0.28775000  1.0
  H  H32  1  0.14528000  0.89506000  0.78773000  1.0
  H  H33  1  0.35467000  0.39506000  0.71225000  1.0
  H  H34  1  0.82822000  0.92572000  0.23455000  1.0
  H  H35  1  0.67181000  0.42573000  0.26548000  1.0
  H  H36  1  0.17178000  0.07428000  0.76545000  1.0
  H  H37  1  0.32819000  0.57427000  0.73452000  1.0
  C  C38  1  0.06628000  0.52199000  0.95143000  1.0
  C  C39  1  0.43372000  0.02199000  0.54857000  1.0
  C  C40  1  0.93371000  0.47801000  0.04857000  1.0
  C  C41  1  0.56628000  0.97801000  0.45143000  1.0
  C  C42  1  0.10487000  0.68180000  0.92215000  1.0
  C  C43  1  0.39513000  0.18180000  0.57784000  1.0
  C  C44  1  0.89513000  0.31820000  0.07785000  1.0
  C  C45  1  0.60487000  0.81821000  0.42215000  1.0
  C  C46  1  0.60327000  0.89399000  0.78369000  1.0
  C  C47  1  0.89674000  0.39398000  0.71632000  1.0
  C  C48  1  0.39673000  0.10600000  0.21631000  1.0
  C  C49  1  0.10326000  0.60602000  0.28368000  1.0
  C  C50  1  0.50963000  0.72730000  0.00268000  1.0
  C  C51  1  0.99039000  0.22730000  0.49733000  1.0
  C  C52  1  0.49037000  0.27270000  0.99732000  1.0
  C  C53  1  0.00961000  0.77270000  0.50267000  1.0
  S  S54  1  0.70236000  0.81806000  0.90794000  1.0
  S  S55  1  0.79766000  0.31805000  0.59207000  1.0
  S  S56  1  0.29764000  0.18194000  0.09206000  1.0
  S  S57  1  0.20234000  0.68195000  0.40793000  1.0
  O  O58  1  0.04259000  0.77510000  0.01125000  1.0
  O  O59  1  0.45742000  0.27510000  0.48874000  1.0
  O  O60  1  0.95741000  0.22491000  0.98875000  1.0
  O  O61  1  0.54258000  0.72490000  0.51126000  1.0
  O  O62  1  0.91778000  0.00625000  0.20394000  1.0
  O  O63  1  0.58225000  0.50625000  0.29607000  1.0
  O  O64  1  0.08221000  0.99376000  0.79606000  1.0
  O  O65  1  0.41775000  0.49374000  0.70393000  1.0
  O  O66  1  0.19423000  0.71502000  0.80875000  1.0
  O  O67  1  0.30576000  0.21502000  0.69124000  1.0
  O  O68  1  0.80576000  0.28498000  0.19126000  1.0
  O  O69  1  0.69425000  0.78498000  0.30876000  1.0
  O  O70  1  0.73509000  0.95303000  0.98943000  1.0
  O  O71  1  0.76491000  0.45302000  0.51059000  1.0
  O  O72  1  0.26491000  0.04697000  0.01057000  1.0
  O  O73  1  0.23509000  0.54698000  0.48941000  1.0
