# generated using pymatgen
data_CdFe2H44C52(N2O3)2
_symmetry_space_group_name_H-M   'P 1'
_cell_length_a   11.68050000
_cell_length_b   13.11530000
_cell_length_c   17.53460000
_cell_angle_alpha   106.58100000
_cell_angle_beta   103.98400000
_cell_angle_gamma   101.82000000
_symmetry_Int_Tables_number   1
_chemical_formula_structural   CdFe2H44C52(N2O3)2
_chemical_formula_sum   'Cd2 Fe4 H88 C104 N8 O12'
_cell_volume   2387.46892903
_cell_formula_units_Z   2
loop_
 _symmetry_equiv_pos_site_id
 _symmetry_equiv_pos_as_xyz
  1  'x, y, z'
loop_
 _atom_site_type_symbol
 _atom_site_label
 _atom_site_symmetry_multiplicity
 _atom_site_fract_x
 _atom_site_fract_y
 _atom_site_fract_z
 _atom_site_occupancy
  Cd  Cd0  1  0.58526000  0.66666667  0.52995000  1.0
  Cd  Cd1  1  0.41474000  0.33328000  0.47005000  1.0
  Fe  Fe2  1  0.30112000  0.80105000  0.92519000  1.0
  Fe  Fe3  1  0.69887000  0.19894000  0.07481000  1.0
  Fe  Fe4  1  0.31850000  0.08113000  0.66081000  1.0
  Fe  Fe5  1  0.68151000  0.91888000  0.33920000  1.0
  H  H6  1  0.05416000  0.37476000  0.75441000  1.0
  H  H7  1  0.94584000  0.62524000  0.24559000  1.0
  H  H8  1  0.29818000  0.21895000  0.96419000  1.0
  H  H9  1  0.70183000  0.78105000  0.03581000  1.0
  H  H10  1  0.20751000  0.65899000  0.00204000  1.0
  H  H11  1  0.79248000  0.34100000  0.99796000  1.0
  H  H12  1  0.13258000  0.84276000  0.01170000  1.0
  H  H13  1  0.86740000  0.15723000  0.98830000  1.0
  H  H14  1  0.33086000  0.01295000  0.03771000  1.0
  H  H15  1  0.66913000  0.98704000  0.96229000  1.0
  H  H16  1  0.53001000  0.93457000  0.04751000  1.0
  H  H17  1  0.46998000  0.06542000  0.95249000  1.0
  H  H18  1  0.45514000  0.71735000  0.02583000  1.0
  H  H19  1  0.54485000  0.28265000  0.97418000  1.0
  H  H20  1  0.39074000  0.65214000  0.82045000  1.0
  H  H21  1  0.60926000  0.34785000  0.17955000  1.0
  H  H22  1  0.46995000  0.87263000  0.84669000  1.0
  H  H23  1  0.53005000  0.12736000  0.15332000  1.0
  H  H24  1  0.27296000  0.95452000  0.84275000  1.0
  H  H25  1  0.72704000  0.04547000  0.15724000  1.0
  H  H26  1  0.07471000  0.78568000  0.81642000  1.0
  H  H27  1  0.92528000  0.21431000  0.18357000  1.0
  H  H28  1  0.98444000  0.62218000  0.83670000  1.0
  H  H29  1  0.01556000  0.37782000  0.16329000  1.0
  H  H30  1  0.73834000  0.37258000  0.74998000  1.0
  H  H31  1  0.26166000  0.62742000  0.25002000  1.0
  H  H32  1  0.79126000  0.51212000  0.82319000  1.0
  H  H33  1  0.20875000  0.48788000  0.17681000  1.0
  H  H34  1  0.80444000  0.39801000  0.85721000  1.0
  H  H35  1  0.19557000  0.60200000  0.14279000  1.0
  H  H36  1  0.92562000  0.21306000  0.61486000  1.0
  H  H37  1  0.07438000  0.78694000  0.38514000  1.0
  H  H38  1  0.80394000  0.01266000  0.55753000  1.0
  H  H39  1  0.19606000  0.98734000  0.44247000  1.0
  H  H40  1  0.74873000  0.03939000  0.79463000  1.0
  H  H41  1  0.25127000  0.96061000  0.20537000  1.0
  H  H42  1  0.86510000  0.24127000  0.85208000  1.0
  H  H43  1  0.13491000  0.75874000  0.14792000  1.0
  H  H44  1  0.50661000  0.26505000  0.67749000  1.0
  H  H45  1  0.49339000  0.73496000  0.32252000  1.0
  H  H46  1  0.42270000  0.08889000  0.53387000  1.0
  H  H47  1  0.57731000  0.91112000  0.46613000  1.0
  H  H48  1  0.38828000  0.90125000  0.57247000  1.0
  H  H49  1  0.61172000  0.09875000  0.42753000  1.0
  H  H50  1  0.44895000  0.96292000  0.74205000  1.0
  H  H51  1  0.55105000  0.03708000  0.25795000  1.0
  H  H52  1  0.52312000  0.18770000  0.80767000  1.0
  H  H53  1  0.47689000  0.81230000  0.19233000  1.0
  H  H54  1  0.23582000  0.27028000  0.68194000  1.0
  H  H55  1  0.76419000  0.72973000  0.31807000  1.0
  H  H56  1  0.15902000  0.11408000  0.52790000  1.0
  H  H57  1  0.84098000  0.88593000  0.47211000  1.0
  H  H58  1  0.10656000  0.91092000  0.54381000  1.0
  H  H59  1  0.89344000  0.08909000  0.45619000  1.0
  H  H60  1  0.15507000  0.94329000  0.70982000  1.0
  H  H61  1  0.84493000  0.05671000  0.29017000  1.0
  H  H62  1  0.24824000  0.34165000  0.81104000  1.0
  H  H63  1  0.75176000  0.65835000  0.18896000  1.0
  H  H64  1  0.26532000  0.49728000  0.01884000  1.0
  H  H65  1  0.73468000  0.50272000  0.98116000  1.0
  H  H66  1  0.24839000  0.49332000  0.91330000  1.0
  H  H67  1  0.75161000  0.50668000  0.08670000  1.0
  H  H68  1  0.39617000  0.53470000  0.98813000  1.0
  H  H69  1  0.60383000  0.46530000  0.01188000  1.0
  H  H70  1  0.25594000  0.20438000  0.09484000  1.0
  H  H71  1  0.74407000  0.79562000  0.90516000  1.0
  H  H72  1  0.31894000  0.28547000  0.25089000  1.0
  H  H73  1  0.68106000  0.71453000  0.74911000  1.0
  H  H74  1  0.54368000  0.58692000  0.24712000  1.0
  H  H75  1  0.45632000  0.41308000  0.75288000  1.0
  H  H76  1  0.48720000  0.50606000  0.09359000  1.0
  H  H77  1  0.51281000  0.49395000  0.90641000  1.0
  H  H78  1  0.32591000  0.62226000  0.40370000  1.0
  H  H79  1  0.67409000  0.37774000  0.59630000  1.0
  H  H80  1  0.10892000  0.60736000  0.39552000  1.0
  H  H81  1  0.89108000  0.39264000  0.60448000  1.0
  H  H82  1  0.22876000  0.70943000  0.66747000  1.0
  H  H83  1  0.77124000  0.29056000  0.33253000  1.0
  H  H84  1  0.44011000  0.71694000  0.66261000  1.0
  H  H85  1  0.55989000  0.28306000  0.33739000  1.0
  H  H86  1  0.93882000  0.60383000  0.39366000  1.0
  H  H87  1  0.06118000  0.39616000  0.60634000  1.0
  H  H88  1  0.72887000  0.59769000  0.39842000  1.0
  H  H89  1  0.27112000  0.40231000  0.60158000  1.0
  H  H90  1  0.83654000  0.67549000  0.65573000  1.0
  H  H91  1  0.16346000  0.32451000  0.34427000  1.0
  H  H92  1  0.05476000  0.68981000  0.66462000  1.0
  H  H93  1  0.94524000  0.31019000  0.33538000  1.0
  C  C94  1  0.26680000  0.74172000  0.01551000  1.0
  C  C95  1  0.73319000  0.25827000  0.98449000  1.0
  C  C96  1  0.22654000  0.83877000  0.01961000  1.0
  C  C97  1  0.77345000  0.16122000  0.98038000  1.0
  C  C98  1  0.33160000  0.92886000  0.03359000  1.0
  C  C99  1  0.66839000  0.07113000  0.96641000  1.0
  C  C100  1  0.43662000  0.88741000  0.03809000  1.0
  C  C101  1  0.56337000  0.11258000  0.96191000  1.0
  C  C102  1  0.39658000  0.77177000  0.02685000  1.0
  C  C103  1  0.60341000  0.22821000  0.97315000  1.0
  C  C104  1  0.33492000  0.70900000  0.82185000  1.0
  C  C105  1  0.66508000  0.29099000  0.17815000  1.0
  C  C106  1  0.37581000  0.82509000  0.83525000  1.0
  C  C107  1  0.62419000  0.17490000  0.16475000  1.0
  C  C108  1  0.27234000  0.86859000  0.83344000  1.0
  C  C109  1  0.72766000  0.13141000  0.16656000  1.0
  C  C110  1  0.16695000  0.77909000  0.81987000  1.0
  C  C111  1  0.83305000  0.22091000  0.18012000  1.0
  C  C112  1  0.20483000  0.67902000  0.81149000  1.0
  C  C113  1  0.79517000  0.32098000  0.18851000  1.0
  C  C114  1  0.12899000  0.56540000  0.79501000  1.0
  C  C115  1  0.87101000  0.43459000  0.20499000  1.0
  C  C116  1  0.01375000  0.54971000  0.81138000  1.0
  C  C117  1  0.98625000  0.45029000  0.18861000  1.0
  C  C118  1  0.93503000  0.44502000  0.79540000  1.0
  C  C119  1  0.06497000  0.55498000  0.20460000  1.0
  C  C120  1  0.81098000  0.43202000  0.80745000  1.0
  C  C121  1  0.18902000  0.56798000  0.19255000  1.0
  C  C122  1  0.90016000  0.24054000  0.73622000  1.0
  C  C123  1  0.09984000  0.75947000  0.26378000  1.0
  C  C124  1  0.88550000  0.17510000  0.65385000  1.0
  C  C125  1  0.11450000  0.82490000  0.34615000  1.0
  C  C126  1  0.81917000  0.06328000  0.62216000  1.0
  C  C127  1  0.18083000  0.93672000  0.37784000  1.0
  C  C128  1  0.76936000  0.01370000  0.67255000  1.0
  C  C129  1  0.23063000  0.98630000  0.32745000  1.0
  C  C130  1  0.78653000  0.07859000  0.75542000  1.0
  C  C131  1  0.21347000  0.92141000  0.24458000  1.0
  C  C132  1  0.85092000  0.19161000  0.78722000  1.0
  C  C133  1  0.14908000  0.80839000  0.21279000  1.0
  C  C134  1  0.70038000  0.89207000  0.63647000  1.0
  C  C135  1  0.29962000  0.10794000  0.36353000  1.0
  C  C136  1  0.48803000  0.17867000  0.67339000  1.0
  C  C137  1  0.51198000  0.82133000  0.32661000  1.0
  C  C138  1  0.44363000  0.08480000  0.59657000  1.0
  C  C139  1  0.55637000  0.91521000  0.40343000  1.0
  C  C140  1  0.42353000  0.98597000  0.61724000  1.0
  C  C141  1  0.57647000  0.01403000  0.38275000  1.0
  C  C142  1  0.45543000  0.01852000  0.70680000  1.0
  C  C143  1  0.54457000  0.98148000  0.29320000  1.0
  C  C144  1  0.49564000  0.13779000  0.74144000  1.0
  C  C145  1  0.50436000  0.86222000  0.25856000  1.0
  C  C146  1  0.20650000  0.18102000  0.66780000  1.0
  C  C147  1  0.79350000  0.81898000  0.33220000  1.0
  C  C148  1  0.16454000  0.09792000  0.58590000  1.0
  C  C149  1  0.83546000  0.90209000  0.41410000  1.0
  C  C150  1  0.13832000  0.99087000  0.59471000  1.0
  C  C151  1  0.86169000  0.00914000  0.40529000  1.0
  C  C152  1  0.16435000  0.00733000  0.68205000  1.0
  C  C153  1  0.83565000  0.99268000  0.31795000  1.0
  C  C154  1  0.20559000  0.12559000  0.72824000  1.0
  C  C155  1  0.79441000  0.87440000  0.27176000  1.0
  C  C156  1  0.24671000  0.17863000  0.82008000  1.0
  C  C157  1  0.75329000  0.82137000  0.17992000  1.0
  C  C158  1  0.26784000  0.29705000  0.85383000  1.0
  C  C159  1  0.73217000  0.70295000  0.14617000  1.0
  C  C160  1  0.30039000  0.35744000  0.93844000  1.0
  C  C161  1  0.69962000  0.64256000  0.06156000  1.0
  C  C162  1  0.30266000  0.47715000  0.96643000  1.0
  C  C163  1  0.69735000  0.52286000  0.03357000  1.0
  C  C164  1  0.36107000  0.35171000  0.08250000  1.0
  C  C165  1  0.63893000  0.64829000  0.91750000  1.0
  C  C166  1  0.31839000  0.28869000  0.12849000  1.0
  C  C167  1  0.68162000  0.71131000  0.87151000  1.0
  C  C168  1  0.35245000  0.33439000  0.21554000  1.0
  C  C169  1  0.64756000  0.66562000  0.78446000  1.0
  C  C170  1  0.43043000  0.44385000  0.25879000  1.0
  C  C171  1  0.56957000  0.55615000  0.74121000  1.0
  C  C172  1  0.47903000  0.50383000  0.21345000  1.0
  C  C173  1  0.52098000  0.49618000  0.78655000  1.0
  C  C174  1  0.44569000  0.45857000  0.12669000  1.0
  C  C175  1  0.55431000  0.54143000  0.87331000  1.0
  C  C176  1  0.45851000  0.49758000  0.35118000  1.0
  C  C177  1  0.54149000  0.50242000  0.64882000  1.0
  C  C178  1  0.29936000  0.64016000  0.46040000  1.0
  C  C179  1  0.70064000  0.35984000  0.53960000  1.0
  C  C180  1  0.17802000  0.63289000  0.45679000  1.0
  C  C181  1  0.82198000  0.36711000  0.54321000  1.0
  C  C182  1  0.14743000  0.65692000  0.53129000  1.0
  C  C183  1  0.85256000  0.34308000  0.46871000  1.0
  C  C184  1  0.24403000  0.68848000  0.60685000  1.0
  C  C185  1  0.75596000  0.31152000  0.39315000  1.0
  C  C186  1  0.36307000  0.69276000  0.60507000  1.0
  C  C187  1  0.63692000  0.30724000  0.39493000  1.0
  C  C188  1  0.01889000  0.64936000  0.52980000  1.0
  C  C189  1  0.98111000  0.35064000  0.47020000  1.0
  C  C190  1  0.92372000  0.62213000  0.45439000  1.0
  C  C191  1  0.07627000  0.37786000  0.54561000  1.0
  C  C192  1  0.80444000  0.61721000  0.45580000  1.0
  C  C193  1  0.19556000  0.38279000  0.54420000  1.0
  C  C194  1  0.86480000  0.66132000  0.59955000  1.0
  C  C195  1  0.13520000  0.33868000  0.40045000  1.0
  C  C196  1  0.98657000  0.66885000  0.60369000  1.0
  C  C197  1  0.01343000  0.33115000  0.39631000  1.0
  N  N198  1  0.96965000  0.35368000  0.76504000  1.0
  N  N199  1  0.03035000  0.64631000  0.23496000  1.0
  N  N200  1  0.32131000  0.30511000  0.99517000  1.0
  N  N201  1  0.67869000  0.69489000  0.00483000  1.0
  N  N202  1  0.39020000  0.66828000  0.53296000  1.0
  N  N203  1  0.60980000  0.33172000  0.46703000  1.0
  N  N204  1  0.77499000  0.63638000  0.52697000  1.0
  N  N205  1  0.22501000  0.36362000  0.47303000  1.0
  O  O206  1  0.16983000  0.48450000  0.76526000  1.0
  O  O207  1  0.83017000  0.51549000  0.23474000  1.0
  O  O208  1  0.67591000  0.84622000  0.55636000  1.0
  O  O209  1  0.32409000  0.15378000  0.44364000  1.0
  O  O210  1  0.67094000  0.84000000  0.68260000  1.0
  O  O211  1  0.32906000  0.16000000  0.31740000  1.0
  O  O212  1  0.25758000  0.12024000  0.86688000  1.0
  O  O213  1  0.74242000  0.87977000  0.13312000  1.0
  O  O214  1  0.40770000  0.44444000  0.39034000  1.0
  O  O215  1  0.59230000  0.55556000  0.60966000  1.0
  O  O216  1  0.52913000  0.59812000  0.38562000  1.0
  O  O217  1  0.47087000  0.40188000  0.61438000  1.0
