# generated using pymatgen
data_CaH8C5BrO8
_symmetry_space_group_name_H-M   'P 1'
_cell_length_a   6.81988000
_cell_length_b   7.67638000
_cell_length_c   9.92207000
_cell_angle_alpha   75.61500000
_cell_angle_beta   72.75900000
_cell_angle_gamma   78.84090000
_symmetry_Int_Tables_number   1
_chemical_formula_structural   CaH8C5BrO8
_chemical_formula_sum   'Ca2 H16 C10 Br2 O16'
_cell_volume   476.49324999
_cell_formula_units_Z   2
loop_
 _symmetry_equiv_pos_site_id
 _symmetry_equiv_pos_as_xyz
  1  'x, y, z'
loop_
 _atom_site_type_symbol
 _atom_site_label
 _atom_site_symmetry_multiplicity
 _atom_site_fract_x
 _atom_site_fract_y
 _atom_site_fract_z
 _atom_site_occupancy
  Ca  Ca0  1  0.19773000  0.49135000  0.12445000  1.0
  Ca  Ca1  1  0.80226000  0.50865000  0.87555000  1.0
  H  H2  1  0.28505000  0.16565000  0.98146000  1.0
  H  H3  1  0.71496000  0.83435000  0.01854000  1.0
  H  H4  1  0.25192000  0.08065000  0.14931000  1.0
  H  H5  1  0.74809000  0.91934000  0.85069000  1.0
  H  H6  1  0.12136000  0.31912000  0.45962000  1.0
  H  H7  1  0.87865000  0.68088000  0.54037000  1.0
  H  H8  1  0.20795000  0.16430000  0.37217000  1.0
  H  H9  1  0.79205000  0.83570000  0.62783000  1.0
  H  H10  1  0.25393000  0.88741000  0.92959000  1.0
  H  H11  1  0.74608000  0.11259000  0.07040000  1.0
  H  H12  1  0.03971000  0.82176000  0.95361000  1.0
  H  H13  1  0.96030000  0.17824000  0.04638000  1.0
  H  H14  1  0.88661000  0.75974000  0.27776000  1.0
  H  H15  1  0.11338000  0.24027000  0.72225000  1.0
  H  H16  1  0.09395000  0.78269000  0.30868000  1.0
  H  H17  1  0.90605000  0.21731000  0.69132000  1.0
  C  C18  1  0.48068000  0.66268000  0.39773000  1.0
  C  C19  1  0.51931000  0.33732000  0.60228000  1.0
  C  C20  1  0.66303000  0.50527000  0.19505000  1.0
  C  C21  1  0.33697000  0.49472000  0.80495000  1.0
  C  C22  1  0.60339000  0.34068000  0.45516000  1.0
  C  C23  1  0.39661000  0.65932000  0.54484000  1.0
  C  C24  1  0.46969000  0.83335000  0.28329000  1.0
  C  C25  1  0.53031000  0.16665000  0.71671000  1.0
  C  C26  1  0.58360000  0.50101000  0.35375000  1.0
  C  C27  1  0.41640000  0.49899000  0.64625000  1.0
  Br  Br28  1  0.73018000  0.12386000  0.38869000  1.0
  Br  Br29  1  0.26982000  0.87614000  0.61131000  1.0
  O  O30  1  0.64033000  0.87880000  0.19854000  1.0
  O  O31  1  0.35967000  0.12120000  0.80146000  1.0
  O  O32  1  0.85516000  0.49040000  0.13780000  1.0
  O  O33  1  0.14484000  0.50959000  0.86220000  1.0
  O  O34  1  0.53055000  0.52855000  0.12315000  1.0
  O  O35  1  0.46944000  0.47145000  0.87685000  1.0
  O  O36  1  0.29038000  0.91680000  0.27944000  1.0
  O  O37  1  0.70962000  0.08319000  0.72056000  1.0
  O  O38  1  0.21090000  0.18990000  0.07811000  1.0
  O  O39  1  0.78911000  0.81010000  0.92189000  1.0
  O  O40  1  0.18481000  0.29618000  0.36152000  1.0
  O  O41  1  0.81520000  0.70382000  0.63848000  1.0
  O  O42  1  0.15732000  0.80614000  0.99699000  1.0
  O  O43  1  0.84269000  0.19385000  0.00301000  1.0
  O  O44  1  0.99586000  0.69425000  0.32518000  1.0
  O  O45  1  0.00414000  0.30575000  0.67482000  1.0
