# generated using pymatgen
data_MnH7C6N9O
_symmetry_space_group_name_H-M   'P 1'
_cell_length_a   9.97632000
_cell_length_b   10.00890000
_cell_length_c   11.20990000
_cell_angle_alpha   89.92150000
_cell_angle_beta   70.48700000
_cell_angle_gamma   89.86400000
_symmetry_Int_Tables_number   1
_chemical_formula_structural   MnH7C6N9O
_chemical_formula_sum   'Mn4 H28 C24 N36 O4'
_cell_volume   1055.03969433
_cell_formula_units_Z   4
loop_
 _symmetry_equiv_pos_site_id
 _symmetry_equiv_pos_as_xyz
  1  'x, y, z'
loop_
 _atom_site_type_symbol
 _atom_site_label
 _atom_site_symmetry_multiplicity
 _atom_site_fract_x
 _atom_site_fract_y
 _atom_site_fract_z
 _atom_site_occupancy
  Mn  Mn0  1  0.38406000  0.11019000  0.47472000  1.0
  Mn  Mn1  1  0.88276000  0.38845000  0.47467000  1.0
  Mn  Mn2  1  0.61501000  0.89259000  0.52621000  1.0
  Mn  Mn3  1  0.11632000  0.60880000  0.52624000  1.0
  H  H4  1  0.26603000  0.88457000  0.37508000  1.0
  H  H5  1  0.76530000  0.61512000  0.37498000  1.0
  H  H6  1  0.73532000  0.11631000  0.62495000  1.0
  H  H7  1  0.23605000  0.38412000  0.62506000  1.0
  H  H8  1  0.24188000  0.78544000  0.07563000  1.0
  H  H9  1  0.74184000  0.71560000  0.07536000  1.0
  H  H10  1  0.75799000  0.21525000  0.92511000  1.0
  H  H11  1  0.25789000  0.28378000  0.92546000  1.0
  H  H12  1  0.14985000  0.81114000  0.24166000  1.0
  H  H13  1  0.64980000  0.68922000  0.24126000  1.0
  H  H14  1  0.85111000  0.18937000  0.75936000  1.0
  H  H15  1  0.35112000  0.31025000  0.75982000  1.0
  H  H16  1  0.33120000  0.75493000  0.18805000  1.0
  H  H17  1  0.83089000  0.74540000  0.18797000  1.0
  H  H18  1  0.66985000  0.24601000  0.81189000  1.0
  H  H19  1  0.17007000  0.25376000  0.81199000  1.0
  H  H20  1  0.39211000  0.14112000  0.00438000  1.0
  H  H21  1  0.89131000  0.35890000  0.00421000  1.0
  H  H22  1  0.60798000  0.85931000  0.99565000  1.0
  H  H23  1  0.10873000  0.64057000  0.99594000  1.0
  H  H24  1  0.51869000  0.50420000  0.11102000  1.0
  H  H25  1  0.01910000  0.99541000  0.11079000  1.0
  H  H26  1  0.48137000  0.49671000  0.88799000  1.0
  H  H27  1  0.98094000  0.00364000  0.88849000  1.0
  H  H28  1  0.47083000  0.41338000  0.33466000  1.0
  H  H29  1  0.97199000  0.08626000  0.33425000  1.0
  H  H30  1  0.52883000  0.58844000  0.66463000  1.0
  H  H31  1  0.02765000  0.91205000  0.66532000  1.0
  C  C32  1  0.25249000  0.81697000  0.16503000  1.0
  C  C33  1  0.75249000  0.68361000  0.16468000  1.0
  C  C34  1  0.74806000  0.18377000  0.83547000  1.0
  C  C35  1  0.24798000  0.31570000  0.83585000  1.0
  C  C36  1  0.32441000  0.01901000  0.23948000  1.0
  C  C37  1  0.82428000  0.48103000  0.23906000  1.0
  C  C38  1  0.67595000  0.98198000  0.76078000  1.0
  C  C39  1  0.17604000  0.51804000  0.76122000  1.0
  C  C40  1  0.38039000  0.15512000  0.20063000  1.0
  C  C41  1  0.88052000  0.34484000  0.20024000  1.0
  C  C42  1  0.61961000  0.84594000  0.79939000  1.0
  C  C43  1  0.11941000  0.65411000  0.79991000  1.0
  C  C44  1  0.40954000  0.20384000  0.07746000  1.0
  C  C45  1  0.90920000  0.29611000  0.07723000  1.0
  C  C46  1  0.59045000  0.79688000  0.92243000  1.0
  C  C47  1  0.09074000  0.70311000  0.92281000  1.0
  C  C48  1  0.48048000  0.40250000  0.13704000  1.0
  C  C49  1  0.98072000  0.09717000  0.13679000  1.0
  C  C50  1  0.51950000  0.59847000  0.86229000  1.0
  C  C51  1  0.01917000  0.90181000  0.86279000  1.0
  C  C52  1  0.45340000  0.35366000  0.25985000  1.0
  C  C53  1  0.95405000  0.14599000  0.25948000  1.0
  C  C54  1  0.54647000  0.64770000  0.73964000  1.0
  C  C55  1  0.04569000  0.85266000  0.74025000  1.0
  N  N56  1  0.30499000  0.97982000  0.35346000  1.0
  N  N57  1  0.80396000  0.51966000  0.35327000  1.0
  N  N58  1  0.69581000  0.02129000  0.64674000  1.0
  N  N59  1  0.19677000  0.47931000  0.64695000  1.0
  N  N60  1  0.40332000  0.22995000  0.29145000  1.0
  N  N61  1  0.90413000  0.26989000  0.29089000  1.0
  N  N62  1  0.59660000  0.77144000  0.70839000  1.0
  N  N63  1  0.09574000  0.72877000  0.70910000  1.0
  N  N64  1  0.45950000  0.32749000  0.04561000  1.0
  N  N65  1  0.95926000  0.17233000  0.04545000  1.0
  N  N66  1  0.54056000  0.67314000  0.95390000  1.0
  N  N67  1  0.04073000  0.82696000  0.95426000  1.0
  N  N68  1  0.60015000  0.02466000  0.37856000  1.0
  N  N69  1  0.09896000  0.47635000  0.37958000  1.0
  N  N70  1  0.39958000  0.97624000  0.62143000  1.0
  N  N71  1  0.90070000  0.52275000  0.62043000  1.0
  N  N72  1  0.63653000  0.00129000  0.26642000  1.0
  N  N73  1  0.13595000  0.49933000  0.26727000  1.0
  N  N74  1  0.36294000  0.99909000  0.73369000  1.0
  N  N75  1  0.86354000  0.50024000  0.73287000  1.0
  N  N76  1  0.66897000  0.98150000  0.15787000  1.0
  N  N77  1  0.16886000  0.51890000  0.15860000  1.0
  N  N78  1  0.33021000  0.01852000  0.84231000  1.0
  N  N79  1  0.83049000  0.48099000  0.84159000  1.0
  N  N80  1  0.17524000  0.17428000  0.58429000  1.0
  N  N81  1  0.67444000  0.32650000  0.58511000  1.0
  N  N82  1  0.82503000  0.82510000  0.41385000  1.0
  N  N83  1  0.32588000  0.67395000  0.41286000  1.0
  N  N84  1  0.07360000  0.19347000  0.55420000  1.0
  N  N85  1  0.57322000  0.30616000  0.55481000  1.0
  N  N86  1  0.92584000  0.80663000  0.44524000  1.0
  N  N87  1  0.42623000  0.69368000  0.44450000  1.0
  N  N88  1  0.96977000  0.21160000  0.52735000  1.0
  N  N89  1  0.46980000  0.28692000  0.52780000  1.0
  N  N90  1  0.02873000  0.78932000  0.47352000  1.0
  N  N91  1  0.52866000  0.71218000  0.47300000  1.0
  O  O92  1  0.30023000  0.95388000  0.14461000  1.0
  O  O93  1  0.80082000  0.54674000  0.14395000  1.0
  O  O94  1  0.69996000  0.04696000  0.85576000  1.0
  O  O95  1  0.19935000  0.45247000  0.85643000  1.0
