# generated using pymatgen
data_CdH14C14S2(N2O)2
_symmetry_space_group_name_H-M   'P 1'
_cell_length_a   5.94766000
_cell_length_b   10.81140000
_cell_length_c   13.47960000
_cell_angle_alpha   89.99920000
_cell_angle_beta   101.09000000
_cell_angle_gamma   89.99580000
_symmetry_Int_Tables_number   1
_chemical_formula_structural   CdH14C14S2(N2O)2
_chemical_formula_sum   'Cd2 H28 C28 S4 N8 O4'
_cell_volume   850.58650788
_cell_formula_units_Z   2
loop_
 _symmetry_equiv_pos_site_id
 _symmetry_equiv_pos_as_xyz
  1  'x, y, z'
loop_
 _atom_site_type_symbol
 _atom_site_label
 _atom_site_symmetry_multiplicity
 _atom_site_fract_x
 _atom_site_fract_y
 _atom_site_fract_z
 _atom_site_occupancy
  Cd  Cd0  1  0.49997000  0.00001000  0.50000000  1.0
  Cd  Cd1  1  0.00000000  0.49998000  0.00000000  1.0
  H  H2  1  0.31565000  0.22597000  0.61989000  1.0
  H  H3  1  0.18429000  0.72595000  0.88007000  1.0
  H  H4  1  0.68431000  0.77404000  0.38010000  1.0
  H  H5  1  0.81572000  0.27402000  0.11992000  1.0
  H  H6  1  0.39488000  0.44489000  0.66652000  1.0
  H  H7  1  0.10507000  0.94488000  0.83347000  1.0
  H  H8  1  0.60509000  0.55513000  0.33347000  1.0
  H  H9  1  0.89496000  0.05510000  0.16653000  1.0
  H  H10  1  0.01983000  0.41059000  0.54742000  1.0
  H  H11  1  0.48018000  0.91060000  0.95260000  1.0
  H  H12  1  0.98018000  0.58942000  0.45260000  1.0
  H  H13  1  0.51984000  0.08940000  0.04741000  1.0
  H  H14  1  0.91375000  0.19212000  0.50691000  1.0
  H  H15  1  0.58623000  0.69213000  0.99307000  1.0
  H  H16  1  0.08625000  0.80789000  0.49309000  1.0
  H  H17  1  0.41380000  0.30786000  0.00693000  1.0
  H  H18  1  0.70386000  0.73769000  0.67279000  1.0
  H  H19  1  0.79611000  0.23770000  0.82723000  1.0
  H  H20  1  0.29614000  0.26233000  0.32721000  1.0
  H  H21  1  0.20391000  0.76229000  0.17278000  1.0
  H  H22  1  0.45527000  0.64403000  0.63112000  1.0
  H  H23  1  0.04470000  0.14402000  0.86891000  1.0
  H  H24  1  0.54472000  0.35599000  0.36888000  1.0
  H  H25  1  0.95533000  0.85596000  0.13110000  1.0
  H  H26  1  0.63672000  0.61349000  0.75162000  1.0
  H  H27  1  0.86325000  0.11351000  0.74838000  1.0
  H  H28  1  0.36328000  0.38652000  0.24837000  1.0
  H  H29  1  0.13677000  0.88648000  0.25163000  1.0
  C  C30  1  0.04800000  0.94669000  0.62518000  1.0
  C  C31  1  0.45192000  0.44665000  0.87480000  1.0
  C  C32  1  0.95196000  0.05333000  0.37481000  1.0
  C  C33  1  0.54804000  0.55332000  0.12520000  1.0
  C  C34  1  0.46903000  0.27084000  0.60383000  1.0
  C  C35  1  0.03094000  0.77083000  0.89616000  1.0
  C  C36  1  0.53096000  0.72917000  0.39617000  1.0
  C  C37  1  0.96910000  0.22915000  0.10384000  1.0
  C  C38  1  0.51414000  0.39400000  0.62982000  1.0
  C  C39  1  0.98581000  0.89401000  0.87018000  1.0
  C  C40  1  0.48584000  0.60601000  0.37018000  1.0
  C  C41  1  0.01423000  0.10597000  0.12983000  1.0
  C  C42  1  0.71405000  0.44785000  0.60817000  1.0
  C  C43  1  0.78592000  0.94786000  0.89183000  1.0
  C  C44  1  0.28593000  0.55216000  0.39182000  1.0
  C  C45  1  0.21412000  0.05213000  0.10818000  1.0
  C  C46  1  0.86170000  0.37301000  0.56419000  1.0
  C  C47  1  0.63829000  0.87302000  0.93581000  1.0
  C  C48  1  0.13829000  0.62701000  0.43581000  1.0
  C  C49  1  0.36174000  0.12698000  0.06420000  1.0
  C  C50  1  0.80219000  0.25126000  0.54157000  1.0
  C  C51  1  0.69780000  0.75126000  0.95843000  1.0
  C  C52  1  0.19781000  0.74876000  0.45843000  1.0
  C  C53  1  0.30223000  0.24873000  0.04158000  1.0
  C  C54  1  0.63222000  0.64468000  0.67374000  1.0
  C  C55  1  0.86773000  0.14467000  0.82628000  1.0
  C  C56  1  0.36778000  0.35533000  0.32625000  1.0
  C  C57  1  0.13229000  0.85532000  0.17374000  1.0
  S  S58  1  0.31850000  0.96402000  0.67451000  1.0
  S  S59  1  0.18144000  0.46397000  0.82544000  1.0
  S  S60  1  0.68145000  0.03603000  0.32548000  1.0
  S  S61  1  0.81853000  0.53599000  0.17456000  1.0
  N  N62  1  0.85115000  0.93084000  0.59077000  1.0
  N  N63  1  0.64878000  0.43083000  0.90922000  1.0
  N  N64  1  0.14881000  0.06918000  0.40922000  1.0
  N  N65  1  0.35120000  0.56916000  0.09077000  1.0
  N  N66  1  0.60708000  0.19974000  0.55966000  1.0
  N  N67  1  0.89290000  0.69972000  0.94033000  1.0
  N  N68  1  0.39291000  0.80026000  0.44034000  1.0
  N  N69  1  0.10713000  0.30026000  0.05968000  1.0
  O  O70  1  0.77688000  0.56660000  0.62576000  1.0
  O  O71  1  0.72309000  0.06659000  0.87424000  1.0
  O  O72  1  0.22311000  0.43342000  0.37423000  1.0
  O  O73  1  0.27693000  0.93339000  0.12577000  1.0
