# generated using pymatgen
data_CdH21C17(SN4)2
_symmetry_space_group_name_H-M   'P 1'
_cell_length_a   8.59183000
_cell_length_b   8.77483000
_cell_length_c   14.63780000
_cell_angle_alpha   105.75200000
_cell_angle_beta   103.44500000
_cell_angle_gamma   91.92940000
_symmetry_Int_Tables_number   1
_chemical_formula_structural   CdH21C17(SN4)2
_chemical_formula_sum   'Cd2 H42 C34 S4 N16'
_cell_volume   1027.48084478
_cell_formula_units_Z   2
loop_
 _symmetry_equiv_pos_site_id
 _symmetry_equiv_pos_as_xyz
  1  'x, y, z'
loop_
 _atom_site_type_symbol
 _atom_site_label
 _atom_site_symmetry_multiplicity
 _atom_site_fract_x
 _atom_site_fract_y
 _atom_site_fract_z
 _atom_site_occupancy
  Cd  Cd0  1  0.92615000  0.05931000  0.69328000  1.0
  Cd  Cd1  1  0.07385000  0.94068000  0.30672000  1.0
  H  H2  1  0.80288000  0.40815000  0.79638000  1.0
  H  H3  1  0.19711000  0.59185000  0.20362000  1.0
  H  H4  1  0.66562000  0.53578000  0.53280000  1.0
  H  H5  1  0.33438000  0.46423000  0.46720000  1.0
  H  H6  1  0.79992000  0.24459000  0.49743000  1.0
  H  H7  1  0.20008000  0.75541000  0.50257000  1.0
  H  H8  1  0.08285000  0.70621000  0.61251000  1.0
  H  H9  1  0.91715000  0.29378000  0.38749000  1.0
  H  H10  1  0.12473000  0.59891000  0.88181000  1.0
  H  H11  1  0.87527000  0.40109000  0.11819000  1.0
  H  H12  1  0.99064000  0.88551000  0.89018000  1.0
  H  H13  1  0.00936000  0.11449000  0.10982000  1.0
  H  H14  1  0.69147000  0.75392000  0.71219000  1.0
  H  H15  1  0.30853000  0.24608000  0.28781000  1.0
  H  H16  1  0.69501000  0.66708000  0.80870000  1.0
  H  H17  1  0.30499000  0.33292000  0.19130000  1.0
  H  H18  1  0.41752000  0.60831000  0.62347000  1.0
  H  H19  1  0.58247000  0.39169000  0.37653000  1.0
  H  H20  1  0.42408000  0.74667000  0.73679000  1.0
  H  H21  1  0.57592000  0.25334000  0.26321000  1.0
  H  H22  1  0.42767000  0.52680000  0.81654000  1.0
  H  H23  1  0.57233000  0.47321000  0.18347000  1.0
  H  H24  1  0.43572000  0.38548000  0.70642000  1.0
  H  H25  1  0.56429000  0.61452000  0.29358000  1.0
  H  H26  1  0.16852000  0.43569000  0.62068000  1.0
  H  H27  1  0.83148000  0.56431000  0.37932000  1.0
  H  H28  1  0.16070000  0.37527000  0.72560000  1.0
  H  H29  1  0.83930000  0.62473000  0.27441000  1.0
  H  H30  1  0.82585000  0.15010000  0.91580000  1.0
  H  H31  1  0.17415000  0.84990000  0.08420000  1.0
  H  H32  1  0.32897000  0.11030000  0.77868000  1.0
  H  H33  1  0.67103000  0.88970000  0.22132000  1.0
  H  H34  1  0.50043000  0.01072000  0.63640000  1.0
  H  H35  1  0.49958000  0.98927000  0.36361000  1.0
  H  H36  1  0.45909000  0.30040000  0.97045000  1.0
  H  H37  1  0.54092000  0.69960000  0.02955000  1.0
  H  H38  1  0.64849000  0.24736000  0.02386000  1.0
  H  H39  1  0.35152000  0.75265000  0.97614000  1.0
  H  H40  1  0.42116000  0.12305000  0.06742000  1.0
  H  H41  1  0.57884000  0.87695000  0.93258000  1.0
  H  H42  1  0.33266000  0.02544000  0.94272000  1.0
  H  H43  1  0.66734000  0.97456000  0.05728000  1.0
  C  C44  1  0.78281000  0.39908000  0.71905000  1.0
  C  C45  1  0.21719000  0.60092000  0.28095000  1.0
  C  C46  1  0.71151000  0.46314000  0.58029000  1.0
  C  C47  1  0.28849000  0.53686000  0.41971000  1.0
  C  C48  1  0.78076000  0.32211000  0.56459000  1.0
  C  C49  1  0.21924000  0.67789000  0.43541000  1.0
  C  C50  1  0.07728000  0.71966000  0.68744000  1.0
  C  C51  1  0.92272000  0.28034000  0.31256000  1.0
  C  C52  1  0.09919000  0.66642000  0.82879000  1.0
  C  C53  1  0.90081000  0.33358000  0.17121000  1.0
  C  C54  1  0.03238000  0.80743000  0.83152000  1.0
  C  C55  1  0.96762000  0.19257000  0.16848000  1.0
  C  C56  1  0.64629000  0.64967000  0.72972000  1.0
  C  C57  1  0.35371000  0.35033000  0.27028000  1.0
  C  C58  1  0.46244000  0.63064000  0.70329000  1.0
  C  C59  1  0.53756000  0.36936000  0.29671000  1.0
  C  C60  1  0.39018000  0.49946000  0.73602000  1.0
  C  C61  1  0.60982000  0.50054000  0.26398000  1.0
  C  C62  1  0.20678000  0.47132000  0.70119000  1.0
  C  C63  1  0.79322000  0.52868000  0.29881000  1.0
  C  C64  1  0.71519000  0.11993000  0.85811000  1.0
  C  C65  1  0.28482000  0.88007000  0.14190000  1.0
  C  C66  1  0.45623000  0.10057000  0.78488000  1.0
  C  C67  1  0.54377000  0.89942000  0.21511000  1.0
  C  C68  1  0.54249000  0.05057000  0.71572000  1.0
  C  C69  1  0.45752000  0.94943000  0.28428000  1.0
  C  C70  1  0.53302000  0.20081000  0.97038000  1.0
  C  C71  1  0.46698000  0.79919000  0.02963000  1.0
  C  C72  1  0.44920000  0.06888000  0.99669000  1.0
  C  C73  1  0.55081000  0.93112000  0.00332000  1.0
  C  C74  1  0.18953000  0.09389000  0.55654000  1.0
  C  C75  1  0.81046000  0.90612000  0.44346000  1.0
  C  C76  1  0.13876000  0.31889000  0.92096000  1.0
  C  C77  1  0.86123000  0.68111000  0.07905000  1.0
  S  S78  1  0.27894000  0.14865000  0.48222000  1.0
  S  S79  1  0.72105000  0.85135000  0.51778000  1.0
  S  S80  1  0.22321000  0.45143000  0.02371000  1.0
  S  S81  1  0.77678000  0.54856000  0.97628000  1.0
  N  N82  1  0.82514000  0.28398000  0.65190000  1.0
  N  N83  1  0.17486000  0.71602000  0.34810000  1.0
  N  N84  1  0.71376000  0.51028000  0.67878000  1.0
  N  N85  1  0.28623000  0.48972000  0.32122000  1.0
  N  N86  1  0.01908000  0.83910000  0.74280000  1.0
  N  N87  1  0.98092000  0.16090000  0.25720000  1.0
  N  N88  1  0.12750000  0.61249000  0.73676000  1.0
  N  N89  1  0.87250000  0.38751000  0.26324000  1.0
  N  N90  1  0.70377000  0.06271000  0.76241000  1.0
  N  N91  1  0.29624000  0.93729000  0.23760000  1.0
  N  N92  1  0.56787000  0.14461000  0.87459000  1.0
  N  N93  1  0.43214000  0.85539000  0.12541000  1.0
  N  N94  1  0.12811000  0.05315000  0.61182000  1.0
  N  N95  1  0.87190000  0.94686000  0.38819000  1.0
  N  N96  1  0.08012000  0.22257000  0.84460000  1.0
  N  N97  1  0.91986000  0.77741000  0.15539000  1.0
