# generated using pymatgen
data_HgH14C15N2(ClO2)2
_symmetry_space_group_name_H-M   'P 1'
_cell_length_a   7.79562000
_cell_length_b   7.83642000
_cell_length_c   15.08770000
_cell_angle_alpha   77.36570000
_cell_angle_beta   80.39410000
_cell_angle_gamma   77.07510000
_symmetry_Int_Tables_number   1
_chemical_formula_structural   HgH14C15N2(ClO2)2
_chemical_formula_sum   'Hg2 H28 C30 N4 Cl4 O8'
_cell_volume   869.83184683
_cell_formula_units_Z   2
loop_
 _symmetry_equiv_pos_site_id
 _symmetry_equiv_pos_as_xyz
  1  'x, y, z'
loop_
 _atom_site_type_symbol
 _atom_site_label
 _atom_site_symmetry_multiplicity
 _atom_site_fract_x
 _atom_site_fract_y
 _atom_site_fract_z
 _atom_site_occupancy
  Hg  Hg0  1  0.02609000  0.90291000  0.27282000  1.0
  Hg  Hg1  1  0.97391000  0.09709000  0.72718000  1.0
  H  H2  1  0.94572000  0.49986000  0.34785000  1.0
  H  H3  1  0.05428000  0.50014000  0.65215000  1.0
  H  H4  1  0.78659000  0.30812000  0.47591000  1.0
  H  H5  1  0.21341000  0.69188000  0.52409000  1.0
  H  H6  1  0.60340000  0.76695000  0.60532000  1.0
  H  H7  1  0.39660000  0.23305000  0.39468000  1.0
  H  H8  1  0.77277000  0.93998000  0.47286000  1.0
  H  H9  1  0.22723000  0.06002000  0.52714000  1.0
  H  H10  1  0.49812000  0.30072000  0.80245000  1.0
  H  H11  1  0.50188000  0.69928000  0.19755000  1.0
  H  H12  1  0.31634000  0.32114000  0.74046000  1.0
  H  H13  1  0.68365000  0.67886000  0.25954000  1.0
  H  H14  1  0.36492000  0.61107000  0.83635000  1.0
  H  H15  1  0.63508000  0.38893000  0.16365000  1.0
  H  H16  1  0.17503000  0.61131000  0.78605000  1.0
  H  H17  1  0.82497000  0.38869000  0.21395000  1.0
  H  H18  1  0.11056000  0.52908000  0.95037000  1.0
  H  H19  1  0.88944000  0.47092000  0.04963000  1.0
  H  H20  1  0.12640000  0.33304000  0.90547000  1.0
  H  H21  1  0.87360000  0.66695000  0.09453000  1.0
  H  H22  1  0.65652000  0.17847000  0.97665000  1.0
  H  H23  1  0.34348000  0.82153000  0.02335000  1.0
  H  H24  1  0.91158000  0.04470000  0.06720000  1.0
  H  H25  1  0.08842000  0.95530000  0.93279000  1.0
  H  H26  1  0.57923000  0.00486000  0.31233000  1.0
  H  H27  1  0.42079000  0.99513000  0.68767000  1.0
  H  H28  1  0.30879000  0.13895000  0.23325000  1.0
  H  H29  1  0.69122000  0.86106000  0.76675000  1.0
  C  C30  1  0.86692000  0.55418000  0.40591000  1.0
  C  C31  1  0.13307000  0.44581000  0.59409000  1.0
  C  C32  1  0.77863000  0.44810000  0.47687000  1.0
  C  C33  1  0.22136000  0.55190000  0.52313000  1.0
  C  C34  1  0.67992000  0.52449000  0.54963000  1.0
  C  C35  1  0.32008000  0.47551000  0.45037000  1.0
  C  C36  1  0.67570000  0.70397000  0.54908000  1.0
  C  C37  1  0.32430000  0.29603000  0.45092000  1.0
  C  C38  1  0.76872000  0.80056000  0.47551000  1.0
  C  C39  1  0.23128000  0.19943000  0.52449000  1.0
  C  C40  1  0.58523000  0.40884000  0.62514000  1.0
  C  C41  1  0.41476000  0.59117000  0.37486000  1.0
  C  C42  1  0.39568000  0.39589000  0.76543000  1.0
  C  C43  1  0.60431000  0.60410000  0.23457000  1.0
  C  C44  1  0.28257000  0.52496000  0.82305000  1.0
  C  C45  1  0.71742000  0.47504000  0.17696000  1.0
  C  C46  1  0.20045000  0.43166000  0.91340000  1.0
  C  C47  1  0.79955000  0.56834000  0.08660000  1.0
  C  C48  1  0.30144000  0.24493000  0.05005000  1.0
  C  C49  1  0.69857000  0.75507000  0.94995000  1.0
  C  C50  1  0.46164000  0.16631000  0.09851000  1.0
  C  C51  1  0.53836000  0.83369000  0.90149000  1.0
  C  C52  1  0.63303000  0.14025000  0.05089000  1.0
  C  C53  1  0.36697000  0.85976000  0.94911000  1.0
  C  C54  1  0.77546000  0.06595000  0.10081000  1.0
  C  C55  1  0.22455000  0.93405000  0.89919000  1.0
  C  C56  1  0.59047000  0.04612000  0.23810000  1.0
  C  C57  1  0.40954000  0.95389000  0.76190000  1.0
  C  C58  1  0.43997000  0.11819000  0.19394000  1.0
  C  C59  1  0.56004000  0.88181000  0.80606000  1.0
  N  N60  1  0.86089000  0.72723000  0.40509000  1.0
  N  N61  1  0.13911000  0.27277000  0.59491000  1.0
  N  N62  1  0.75459000  0.01994000  0.19260000  1.0
  N  N63  1  0.24541000  0.98006000  0.80739000  1.0
  Cl  Cl64  1  0.15521000  0.67890000  0.18290000  1.0
  Cl  Cl65  1  0.84480000  0.32110000  0.81710000  1.0
  Cl  Cl66  1  0.02249000  0.13964000  0.34965000  1.0
  Cl  Cl67  1  0.97751000  0.86036000  0.65035000  1.0
  O  O68  1  0.59781000  0.24858000  0.62893000  1.0
  O  O69  1  0.40219000  0.75143000  0.37107000  1.0
  O  O70  1  0.48552000  0.50083000  0.68727000  1.0
  O  O71  1  0.51447000  0.49917000  0.31274000  1.0
  O  O72  1  0.34515000  0.34152000  0.96742000  1.0
  O  O73  1  0.65485000  0.65848000  0.03259000  1.0
  O  O74  1  0.15073000  0.22372000  0.08215000  1.0
  O  O75  1  0.84927000  0.77628000  0.91786000  1.0
