# generated using pymatgen
data_ZnH12C22I4NO5
_symmetry_space_group_name_H-M   'P 1'
_cell_length_a   16.00090000
_cell_length_b   17.06420000
_cell_length_c   17.84430000
_cell_angle_alpha   89.94660000
_cell_angle_beta   88.34150000
_cell_angle_gamma   89.95390000
_symmetry_Int_Tables_number   1
_chemical_formula_structural   ZnH12C22I4NO5
_chemical_formula_sum   'Zn2 H24 C44 I8 N2 O10'
_cell_volume   4870.20866740
_cell_formula_units_Z   2
loop_
 _symmetry_equiv_pos_site_id
 _symmetry_equiv_pos_as_xyz
  1  'x, y, z'
loop_
 _atom_site_type_symbol
 _atom_site_label
 _atom_site_symmetry_multiplicity
 _atom_site_fract_x
 _atom_site_fract_y
 _atom_site_fract_z
 _atom_site_occupancy
  Zn  Zn0  1  0.49945000  0.58766000  0.49979000  1.0
  Zn  Zn1  1  0.49967000  0.41220000  0.49992000  1.0
  H  H2  1  0.07616000  0.57657000  0.41073000  1.0
  H  H3  1  0.07992000  0.42385000  0.40860000  1.0
  H  H4  1  0.93065000  0.57550000  0.41017000  1.0
  H  H5  1  0.93495000  0.43786000  0.40095000  1.0
  H  H6  1  0.06988000  0.37389000  0.49512000  1.0
  H  H7  1  0.07364000  0.62503000  0.49832000  1.0
  H  H8  1  0.92227000  0.54161000  0.62070000  1.0
  H  H9  1  0.92373000  0.43822000  0.61165000  1.0
  H  H10  1  0.52040000  0.62635000  0.87613000  1.0
  H  H11  1  0.52043000  0.37356000  0.87637000  1.0
  H  H12  1  0.51045000  0.62564000  0.73600000  1.0
  H  H13  1  0.51045000  0.37430000  0.73622000  1.0
  H  H14  1  0.50694000  0.62559000  0.26273000  1.0
  H  H15  1  0.50666000  0.37438000  0.26289000  1.0
  H  H16  1  0.59879000  0.86941000  0.41565000  1.0
  H  H17  1  0.59834000  0.13044000  0.41544000  1.0
  H  H18  1  0.40039000  0.86859000  0.58510000  1.0
  H  H19  1  0.40035000  0.13139000  0.58527000  1.0
  H  H20  1  0.10386000  0.52988000  0.72897000  1.0
  H  H21  1  0.99804000  0.56418000  0.72040000  1.0
  H  H22  1  0.08308000  0.63210000  0.71583000  1.0
  H  H23  1  0.99557000  0.34315000  0.65142000  1.0
  H  H24  1  0.00160000  0.42162000  0.71830000  1.0
  H  H25  1  0.08505000  0.35250000  0.70877000  1.0
  C  C26  1  0.50231000  0.49998000  0.35457000  1.0
  C  C27  1  0.66106000  0.49973000  0.50431000  1.0
  C  C28  1  0.50297000  0.49995000  0.64476000  1.0
  C  C29  1  0.33849000  0.49991000  0.49689000  1.0
  C  C30  1  0.95392000  0.57362000  0.46726000  1.0
  C  C31  1  0.95447000  0.43035000  0.45885000  1.0
  C  C32  1  0.04992000  0.42612000  0.46471000  1.0
  C  C33  1  0.04986000  0.57426000  0.46829000  1.0
  C  C34  1  0.24818000  0.49962000  0.50004000  1.0
  C  C35  1  0.91782000  0.49915000  0.50697000  1.0
  C  C36  1  0.08179000  0.49900000  0.50663000  1.0
  C  C37  1  0.04568000  0.49608000  0.58911000  1.0
  C  C38  1  0.94890000  0.49284000  0.58782000  1.0
  C  C39  1  0.17242000  0.49908000  0.50557000  1.0
  C  C40  1  0.82722000  0.49931000  0.50683000  1.0
  C  C41  1  0.75141000  0.49965000  0.50631000  1.0
  C  C42  1  0.51828000  0.57140000  0.84513000  1.0
  C  C43  1  0.51829000  0.42851000  0.84527000  1.0
  C  C44  1  0.51282000  0.57106000  0.76759000  1.0
  C  C45  1  0.51283000  0.42888000  0.76773000  1.0
  C  C46  1  0.50977000  0.49996000  0.72829000  1.0
  C  C47  1  0.52059000  0.49996000  0.88515000  1.0
  C  C48  1  0.52302000  0.50000000  0.96422000  1.0
  C  C49  1  0.52210000  0.50004000  0.03266000  1.0
  C  C50  1  0.51508000  0.57093000  0.15336000  1.0
  C  C51  1  0.51492000  0.42912000  0.15344000  1.0
  C  C52  1  0.50903000  0.57110000  0.23115000  1.0
  C  C53  1  0.50887000  0.42889000  0.23123000  1.0
  C  C54  1  0.50605000  0.49999000  0.27038000  1.0
  C  C55  1  0.51798000  0.50004000  0.11149000  1.0
  C  C56  1  0.55487000  0.83914000  0.45316000  1.0
  C  C57  1  0.55455000  0.16075000  0.45304000  1.0
  C  C58  1  0.55303000  0.75744000  0.45483000  1.0
  C  C59  1  0.55276000  0.24244000  0.45466000  1.0
  C  C60  1  0.44661000  0.75699000  0.54535000  1.0
  C  C61  1  0.44651000  0.24295000  0.54535000  1.0
  C  C62  1  0.44440000  0.83867000  0.54742000  1.0
  C  C63  1  0.44429000  0.16128000  0.54750000  1.0
  C  C64  1  0.49951000  0.88138000  0.50037000  1.0
  C  C65  1  0.49931000  0.11855000  0.50039000  1.0
  C  C66  1  0.49930000  0.96424000  0.50050000  1.0
  C  C67  1  0.49919000  0.03568000  0.50055000  1.0
  C  C68  1  0.06365000  0.57267000  0.70101000  1.0
  C  C69  1  0.03779000  0.38518000  0.67812000  1.0
  I  I70  1  0.64091000  0.70481000  0.38096000  1.0
  I  I71  1  0.64067000  0.29492000  0.38071000  1.0
  I  I72  1  0.35932000  0.70323000  0.61912000  1.0
  I  I73  1  0.35933000  0.29685000  0.61915000  1.0
  I  I74  1  0.89692000  0.31776000  0.48841000  1.0
  I  I75  1  0.90055000  0.68133000  0.51476000  1.0
  I  I76  1  0.52053000  0.67954000  0.09736000  1.0
  I  I77  1  0.52016000  0.32055000  0.09756000  1.0
  N  N78  1  0.49988000  0.71546000  0.49994000  1.0
  N  N79  1  0.49975000  0.28444000  0.49989000  1.0
  O  O80  1  0.50149000  0.56662000  0.38644000  1.0
  O  O81  1  0.50157000  0.43330000  0.38651000  1.0
  O  O82  1  0.62612000  0.56663000  0.50317000  1.0
  O  O83  1  0.62625000  0.43277000  0.50322000  1.0
  O  O84  1  0.50002000  0.56654000  0.61261000  1.0
  O  O85  1  0.50022000  0.43332000  0.61274000  1.0
  O  O86  1  0.37359000  0.56684000  0.49591000  1.0
  O  O87  1  0.37394000  0.43305000  0.49595000  1.0
  O  O88  1  0.07351000  0.56735000  0.62165000  1.0
  O  O89  1  0.08377000  0.43043000  0.62348000  1.0
