# generated using pymatgen
data_ZnH6C7(BrN2)2
_symmetry_space_group_name_H-M   'P 1'
_cell_length_a   5.57463000
_cell_length_b   11.87990000
_cell_length_c   15.16090000
_cell_angle_alpha   89.99990000
_cell_angle_beta   89.99990000
_cell_angle_gamma   89.99990000
_symmetry_Int_Tables_number   1
_chemical_formula_structural   ZnH6C7(BrN2)2
_chemical_formula_sum   'Zn4 H24 C28 Br8 N16'
_cell_volume   1004.04647500
_cell_formula_units_Z   4
loop_
 _symmetry_equiv_pos_site_id
 _symmetry_equiv_pos_as_xyz
  1  'x, y, z'
loop_
 _atom_site_type_symbol
 _atom_site_label
 _atom_site_symmetry_multiplicity
 _atom_site_fract_x
 _atom_site_fract_y
 _atom_site_fract_z
 _atom_site_occupancy
  Zn  Zn0  1  0.86977000  0.53664000  0.85038000  1.0
  Zn  Zn1  1  0.63023000  0.46336000  0.35038000  1.0
  Zn  Zn2  1  0.13024000  0.03664000  0.64962000  1.0
  Zn  Zn3  1  0.36977000  0.96336000  0.14962000  1.0
  H  H4  1  0.99248000  0.29649000  0.29197000  1.0
  H  H5  1  0.50752000  0.70350000  0.79197000  1.0
  H  H6  1  0.00752000  0.79649000  0.20803000  1.0
  H  H7  1  0.49248000  0.20351000  0.70803000  1.0
  H  H8  1  0.31760000  0.28388000  0.18131000  1.0
  H  H9  1  0.18240000  0.71612000  0.68130000  1.0
  H  H10  1  0.68240000  0.78388000  0.31870000  1.0
  H  H11  1  0.81760000  0.21612000  0.81870000  1.0
  H  H12  1  0.03849000  0.59237000  0.06502000  1.0
  H  H13  1  0.46151000  0.40763000  0.56502000  1.0
  H  H14  1  0.96152000  0.09237000  0.43498000  1.0
  H  H15  1  0.53848000  0.90763000  0.93498000  1.0
  H  H16  1  0.73055000  0.59328000  0.18419000  1.0
  H  H17  1  0.76945000  0.40673000  0.68419000  1.0
  H  H18  1  0.26945000  0.09327000  0.31581000  1.0
  H  H19  1  0.23055000  0.90673000  0.81581000  1.0
  H  H20  1  0.39752000  0.60005000  0.99083000  1.0
  H  H21  1  0.10248000  0.39995000  0.49083000  1.0
  H  H22  1  0.60248000  0.10005000  0.50917000  1.0
  H  H23  1  0.89752000  0.89995000  0.00917000  1.0
  H  H24  1  0.50577000  0.25749000  0.06284000  1.0
  H  H25  1  0.99422000  0.74250000  0.56284000  1.0
  H  H26  1  0.49422000  0.75750000  0.43715000  1.0
  H  H27  1  0.00578000  0.24250000  0.93715000  1.0
  C  C28  1  0.00887000  0.35999000  0.24044000  1.0
  C  C29  1  0.49113000  0.64001000  0.74043000  1.0
  C  C30  1  0.99113000  0.85999000  0.25957000  1.0
  C  C31  1  0.50887000  0.14001000  0.75957000  1.0
  C  C32  1  0.18940000  0.35306000  0.17779000  1.0
  C  C33  1  0.31059000  0.64694000  0.67779000  1.0
  C  C34  1  0.81060000  0.85306000  0.32221000  1.0
  C  C35  1  0.68941000  0.14694000  0.82221000  1.0
  C  C36  1  0.20285000  0.43720000  0.11355000  1.0
  C  C37  1  0.29715000  0.56280000  0.61355000  1.0
  C  C38  1  0.79715000  0.93720000  0.38645000  1.0
  C  C39  1  0.70285000  0.06280000  0.88646000  1.0
  C  C40  1  0.03627000  0.52513000  0.11408000  1.0
  C  C41  1  0.46373000  0.47487000  0.61407000  1.0
  C  C42  1  0.96373000  0.02513000  0.38592000  1.0
  C  C43  1  0.53627000  0.97487000  0.88593000  1.0
  C  C44  1  0.86335000  0.52581000  0.18003000  1.0
  C  C45  1  0.63665000  0.47419000  0.68003000  1.0
  C  C46  1  0.13665000  0.02581000  0.31997000  1.0
  C  C47  1  0.36335000  0.97419000  0.81997000  1.0
  C  C48  1  0.46902000  0.51505000  0.99414000  1.0
  C  C49  1  0.03097000  0.48495000  0.49414000  1.0
  C  C50  1  0.53098000  0.01505000  0.50586000  1.0
  C  C51  1  0.96902000  0.98495000  0.00586000  1.0
  C  C52  1  0.52861000  0.33912000  0.03150000  1.0
  C  C53  1  0.97139000  0.66088000  0.53150000  1.0
  C  C54  1  0.47139000  0.83912000  0.46850000  1.0
  C  C55  1  0.02861000  0.16088000  0.96850000  1.0
  Br  Br56  1  0.14541000  0.39026000  0.81723000  1.0
  Br  Br57  1  0.35459000  0.60974000  0.31723000  1.0
  Br  Br58  1  0.85459000  0.89027000  0.68278000  1.0
  Br  Br59  1  0.64540000  0.10973000  0.18277000  1.0
  Br  Br60  1  0.01434000  0.71310000  0.90257000  1.0
  Br  Br61  1  0.48565000  0.28690000  0.40258000  1.0
  Br  Br62  1  0.98566000  0.21310000  0.59743000  1.0
  Br  Br63  1  0.51434000  0.78690000  0.09742000  1.0
  N  N64  1  0.84893000  0.44485000  0.24216000  1.0
  N  N65  1  0.65107000  0.55515000  0.74216000  1.0
  N  N66  1  0.15107000  0.94485000  0.25784000  1.0
  N  N67  1  0.34893000  0.05515000  0.75784000  1.0
  N  N68  1  0.38771000  0.43206000  0.04949000  1.0
  N  N69  1  0.11229000  0.56794000  0.54949000  1.0
  N  N70  1  0.61229000  0.93206000  0.45051000  1.0
  N  N71  1  0.88771000  0.06794000  0.95051000  1.0
  N  N72  1  0.64780000  0.47415000  0.94703000  1.0
  N  N73  1  0.85220000  0.52585000  0.44703000  1.0
  N  N74  1  0.35220000  0.97415000  0.55297000  1.0
  N  N75  1  0.14780000  0.02585000  0.05297000  1.0
  N  N76  1  0.68509000  0.36303000  0.97000000  1.0
  N  N77  1  0.81491000  0.63697000  0.47000000  1.0
  N  N78  1  0.31491000  0.86303000  0.53000000  1.0
  N  N79  1  0.18509000  0.13697000  0.03000000  1.0
