# generated using pymatgen
data_ZnH8C10(N3O2)2
_symmetry_space_group_name_H-M   'P 1'
_cell_length_a   7.57561000
_cell_length_b   11.57350000
_cell_length_c   14.70800000
_cell_angle_alpha   89.99970000
_cell_angle_beta   90.00020000
_cell_angle_gamma   89.99990000
_symmetry_Int_Tables_number   1
_chemical_formula_structural   ZnH8C10(N3O2)2
_chemical_formula_sum   'Zn4 H32 C40 N24 O16'
_cell_volume   1289.54334888
_cell_formula_units_Z   4
loop_
 _symmetry_equiv_pos_site_id
 _symmetry_equiv_pos_as_xyz
  1  'x, y, z'
loop_
 _atom_site_type_symbol
 _atom_site_label
 _atom_site_symmetry_multiplicity
 _atom_site_fract_x
 _atom_site_fract_y
 _atom_site_fract_z
 _atom_site_occupancy
  Zn  Zn0  1  0.50000000  0.66210000  0.25000000  1.0
  Zn  Zn1  1  1.00000000  0.83791000  0.75000000  1.0
  Zn  Zn2  1  0.50001000  0.33791000  0.75000000  1.0
  Zn  Zn3  1  0.00000000  0.16209000  0.25000000  1.0
  H  H4  1  0.87599000  0.67704000  0.18116000  1.0
  H  H5  1  0.62400000  0.82297000  0.68115000  1.0
  H  H6  1  0.37599000  0.82296000  0.81885000  1.0
  H  H7  1  0.12401000  0.67704000  0.31884000  1.0
  H  H8  1  0.12402000  0.32296000  0.81885000  1.0
  H  H9  1  0.37599000  0.17704000  0.31885000  1.0
  H  H10  1  0.62400000  0.17704000  0.18116000  1.0
  H  H11  1  0.87600000  0.32295000  0.68115000  1.0
  H  H12  1  0.05846000  0.81300000  0.09008000  1.0
  H  H13  1  0.44153000  0.68700000  0.59008000  1.0
  H  H14  1  0.55846000  0.68700000  0.90992000  1.0
  H  H15  1  0.94155000  0.81300000  0.40993000  1.0
  H  H16  1  0.94155000  0.18699000  0.90993000  1.0
  H  H17  1  0.55845000  0.31301000  0.40993000  1.0
  H  H18  1  0.44153000  0.31301000  0.09008000  1.0
  H  H19  1  0.05846000  0.18699000  0.59007000  1.0
  H  H20  1  0.59324000  0.02683000  0.06085000  1.0
  H  H21  1  0.90676000  0.47317000  0.56085000  1.0
  H  H22  1  0.09323000  0.47318000  0.93915000  1.0
  H  H23  1  0.40677000  0.02683000  0.43915000  1.0
  H  H24  1  0.40678000  0.97317000  0.93914000  1.0
  H  H25  1  0.09322000  0.52683000  0.43914000  1.0
  H  H26  1  0.90677000  0.52683000  0.06085000  1.0
  H  H27  1  0.59322000  0.97317000  0.56085000  1.0
  H  H28  1  0.42597000  0.87786000  0.14871000  1.0
  H  H29  1  0.07403000  0.62215000  0.64871000  1.0
  H  H30  1  0.92596000  0.62215000  0.85128000  1.0
  H  H31  1  0.57404000  0.87785000  0.35128000  1.0
  H  H32  1  0.57405000  0.12214000  0.85128000  1.0
  H  H33  1  0.92595000  0.37785000  0.35128000  1.0
  H  H34  1  0.07403000  0.37786000  0.14872000  1.0
  H  H35  1  0.42596000  0.12214000  0.64872000  1.0
  C  C36  1  0.81766000  0.75465000  0.15194000  1.0
  C  C37  1  0.68233000  0.74536000  0.65195000  1.0
  C  C38  1  0.31765000  0.74535000  0.84805000  1.0
  C  C39  1  0.18235000  0.75465000  0.34805000  1.0
  C  C40  1  0.18236000  0.24535000  0.84805000  1.0
  C  C41  1  0.31765000  0.25465000  0.34806000  1.0
  C  C42  1  0.68234000  0.25465000  0.15194000  1.0
  C  C43  1  0.81766000  0.24535000  0.65194000  1.0
  C  C44  1  0.91908000  0.83053000  0.10129000  1.0
  C  C45  1  0.58092000  0.66947000  0.60129000  1.0
  C  C46  1  0.41908000  0.66947000  0.89870000  1.0
  C  C47  1  0.08093000  0.83053000  0.39871000  1.0
  C  C48  1  0.08093000  0.16947000  0.89871000  1.0
  C  C49  1  0.41907000  0.33053000  0.39871000  1.0
  C  C50  1  0.58093000  0.33053000  0.10129000  1.0
  C  C51  1  0.91908000  0.16947000  0.60129000  1.0
  C  C52  1  0.83778000  0.92996000  0.06672000  1.0
  C  C53  1  0.66222000  0.57004000  0.56672000  1.0
  C  C54  1  0.33777000  0.57004000  0.93327000  1.0
  C  C55  1  0.16223000  0.92996000  0.43328000  1.0
  C  C56  1  0.16224000  0.07003000  0.93327000  1.0
  C  C57  1  0.33776000  0.42996000  0.43328000  1.0
  C  C58  1  0.66223000  0.42996000  0.06672000  1.0
  C  C59  1  0.83777000  0.07004000  0.56672000  1.0
  C  C60  1  0.65894000  0.94905000  0.08481000  1.0
  C  C61  1  0.84106000  0.55095000  0.58482000  1.0
  C  C62  1  0.15893000  0.55095000  0.91519000  1.0
  C  C63  1  0.34107000  0.94904000  0.41519000  1.0
  C  C64  1  0.34108000  0.05095000  0.91519000  1.0
  C  C65  1  0.15892000  0.44904000  0.41519000  1.0
  C  C66  1  0.84106000  0.44905000  0.08482000  1.0
  C  C67  1  0.65893000  0.05095000  0.58482000  1.0
  C  C68  1  0.56587000  0.86686000  0.13418000  1.0
  C  C69  1  0.93413000  0.63315000  0.63419000  1.0
  C  C70  1  0.06586000  0.63316000  0.86582000  1.0
  C  C71  1  0.43414000  0.86685000  0.36581000  1.0
  C  C72  1  0.43415000  0.13315000  0.86581000  1.0
  C  C73  1  0.06585000  0.36685000  0.36582000  1.0
  C  C74  1  0.93414000  0.36686000  0.13419000  1.0
  C  C75  1  0.56586000  0.13315000  0.63419000  1.0
  N  N76  1  0.78291000  0.58381000  0.34613000  1.0
  N  N77  1  0.71709000  0.91620000  0.84613000  1.0
  N  N78  1  0.28292000  0.91618000  0.65387000  1.0
  N  N79  1  0.21708000  0.58380000  0.15387000  1.0
  N  N80  1  0.21709000  0.41619000  0.65387000  1.0
  N  N81  1  0.28292000  0.08380000  0.15387000  1.0
  N  N82  1  0.71708000  0.08380000  0.34613000  1.0
  N  N83  1  0.78292000  0.41618000  0.84614000  1.0
  N  N84  1  0.64386000  0.77124000  0.16763000  1.0
  N  N85  1  0.85614000  0.72876000  0.66763000  1.0
  N  N86  1  0.14384000  0.72876000  0.83237000  1.0
  N  N87  1  0.35616000  0.77124000  0.33237000  1.0
  N  N88  1  0.35616000  0.22876000  0.83237000  1.0
  N  N89  1  0.14385000  0.27124000  0.33237000  1.0
  N  N90  1  0.85615000  0.27124000  0.16763000  1.0
  N  N91  1  0.64385000  0.22876000  0.66763000  1.0
  N  N92  1  0.92762000  0.01656000  0.01689000  1.0
  N  N93  1  0.57238000  0.48344000  0.51690000  1.0
  N  N94  1  0.42761000  0.48343000  0.98310000  1.0
  N  N95  1  0.07239000  0.01656000  0.48311000  1.0
  N  N96  1  0.07240000  0.98343000  0.98310000  1.0
  N  N97  1  0.42760000  0.51657000  0.48310000  1.0
  N  N98  1  0.57239000  0.51656000  0.01690000  1.0
  N  N99  1  0.92760000  0.98343000  0.51689000  1.0
  O  O100  1  0.68475000  0.53581000  0.28508000  1.0
  O  O101  1  0.81526000  0.96420000  0.78509000  1.0
  O  O102  1  0.18477000  0.96419000  0.71491000  1.0
  O  O103  1  0.31524000  0.53581000  0.21491000  1.0
  O  O104  1  0.31525000  0.46419000  0.71491000  1.0
  O  O105  1  0.18475000  0.03580000  0.21491000  1.0
  O  O106  1  0.81525000  0.03580000  0.28509000  1.0
  O  O107  1  0.68476000  0.46419000  0.78510000  1.0
  O  O108  1  0.73668000  0.68436000  0.36658000  1.0
  O  O109  1  0.76331000  0.81563000  0.86658000  1.0
  O  O110  1  0.23666000  0.81563000  0.63341000  1.0
  O  O111  1  0.26334000  0.68438000  0.13341000  1.0
  O  O112  1  0.26332000  0.31563000  0.63341000  1.0
  O  O113  1  0.23667000  0.18438000  0.13341000  1.0
  O  O114  1  0.76330000  0.18437000  0.36658000  1.0
  O  O115  1  0.73667000  0.31563000  0.86660000  1.0
