# generated using pymatgen
data_LiH9C5INO2
_symmetry_space_group_name_H-M   'P 1'
_cell_length_a   5.07230000
_cell_length_b   9.90913000
_cell_length_c   15.97570000
_cell_angle_alpha   90.00010000
_cell_angle_beta   89.99980000
_cell_angle_gamma   89.99970000
_symmetry_Int_Tables_number   1
_chemical_formula_structural   LiH9C5INO2
_chemical_formula_sum   'Li4 H36 C20 I4 N4 O8'
_cell_volume   802.97191302
_cell_formula_units_Z   4
loop_
 _symmetry_equiv_pos_site_id
 _symmetry_equiv_pos_as_xyz
  1  'x, y, z'
loop_
 _atom_site_type_symbol
 _atom_site_label
 _atom_site_symmetry_multiplicity
 _atom_site_fract_x
 _atom_site_fract_y
 _atom_site_fract_z
 _atom_site_occupancy
  Li  Li0  1  0.81533000  0.49231000  0.44383000  1.0
  Li  Li1  1  0.31533000  0.50769000  0.55617000  1.0
  Li  Li2  1  0.31532000  0.00769000  0.94383000  1.0
  Li  Li3  1  0.81532000  0.99231000  0.05617000  1.0
  H  H4  1  0.64403000  0.30396000  0.32693000  1.0
  H  H5  1  0.14404000  0.69604000  0.67306000  1.0
  H  H6  1  0.14403000  0.19604000  0.82693000  1.0
  H  H7  1  0.64403000  0.80396000  0.17307000  1.0
  H  H8  1  0.07400000  0.01375000  0.28978000  1.0
  H  H9  1  0.57399000  0.98625000  0.71022000  1.0
  H  H10  1  0.57400000  0.48626000  0.78979000  1.0
  H  H11  1  0.07400000  0.51374000  0.21021000  1.0
  H  H12  1  0.42173000  0.98929000  0.27704000  1.0
  H  H13  1  0.92173000  0.01071000  0.72296000  1.0
  H  H14  1  0.92173000  0.51071000  0.77704000  1.0
  H  H15  1  0.42173000  0.48929000  0.22296000  1.0
  H  H16  1  0.12801000  0.24215000  0.28328000  1.0
  H  H17  1  0.62801000  0.75785000  0.71672000  1.0
  H  H18  1  0.62801000  0.25785000  0.78327000  1.0
  H  H19  1  0.12801000  0.74215000  0.21672000  1.0
  H  H20  1  0.40848000  0.20345000  0.23136000  1.0
  H  H21  1  0.90848000  0.79655000  0.76864000  1.0
  H  H22  1  0.90849000  0.29655000  0.73136000  1.0
  H  H23  1  0.40848000  0.70345000  0.26864000  1.0
  H  H24  1  0.37443000  0.93862000  0.42363000  1.0
  H  H25  1  0.87442000  0.06138000  0.57637000  1.0
  H  H26  1  0.87443000  0.56138000  0.92364000  1.0
  H  H27  1  0.37444000  0.43862000  0.07636000  1.0
  H  H28  1  0.14354000  0.07189000  0.43996000  1.0
  H  H29  1  0.64354000  0.92812000  0.56004000  1.0
  H  H30  1  0.64354000  0.42811000  0.93996000  1.0
  H  H31  1  0.14355000  0.57189000  0.06004000  1.0
  H  H32  1  0.73067000  0.09750000  0.39663000  1.0
  H  H33  1  0.23067000  0.90250000  0.60336000  1.0
  H  H34  1  0.23067000  0.40249000  0.89664000  1.0
  H  H35  1  0.73068000  0.59750000  0.10336000  1.0
  H  H36  1  0.56285000  0.17885000  0.48074000  1.0
  H  H37  1  0.06285000  0.82115000  0.51926000  1.0
  H  H38  1  0.06285000  0.32115000  0.98074000  1.0
  H  H39  1  0.56286000  0.67885000  0.01926000  1.0
  C  C40  1  0.46946000  0.25870000  0.35632000  1.0
  C  C41  1  0.96947000  0.74130000  0.64368000  1.0
  C  C42  1  0.96946000  0.24130000  0.85632000  1.0
  C  C43  1  0.46946000  0.75870000  0.14368000  1.0
  C  C44  1  0.26940000  0.04663000  0.31067000  1.0
  C  C45  1  0.76940000  0.95337000  0.68933000  1.0
  C  C46  1  0.76940000  0.45337000  0.81068000  1.0
  C  C47  1  0.26940000  0.54663000  0.18933000  1.0
  C  C48  1  0.31904000  0.04099000  0.40451000  1.0
  C  C49  1  0.81904000  0.95901000  0.59549000  1.0
  C  C50  1  0.81904000  0.45901000  0.90451000  1.0
  C  C51  1  0.31905000  0.54099000  0.09549000  1.0
  C  C52  1  0.54277000  0.14276000  0.41617000  1.0
  C  C53  1  0.04277000  0.85724000  0.58383000  1.0
  C  C54  1  0.04277000  0.35724000  0.91617000  1.0
  C  C55  1  0.54278000  0.64276000  0.08383000  1.0
  C  C56  1  0.30985000  0.36833000  0.40065000  1.0
  C  C57  1  0.80986000  0.63167000  0.59935000  1.0
  C  C58  1  0.80987000  0.13167000  0.90065000  1.0
  C  C59  1  0.30987000  0.86833000  0.09935000  1.0
  I  I60  1  0.79329000  0.74305000  0.35460000  1.0
  I  I61  1  0.29330000  0.25696000  0.64540000  1.0
  I  I62  1  0.29330000  0.75695000  0.85460000  1.0
  I  I63  1  0.79331000  0.24304000  0.14540000  1.0
  N  N64  1  0.30823000  0.19311000  0.28868000  1.0
  N  N65  1  0.80824000  0.80689000  0.71132000  1.0
  N  N66  1  0.80824000  0.30689000  0.78868000  1.0
  N  N67  1  0.30824000  0.69311000  0.21132000  1.0
  O  O68  1  0.44330000  0.44403000  0.44918000  1.0
  O  O69  1  0.94331000  0.55597000  0.55082000  1.0
  O  O70  1  0.94328000  0.05597000  0.94918000  1.0
  O  O71  1  0.44329000  0.94403000  0.05082000  1.0
  O  O72  1  0.06422000  0.37374000  0.38831000  1.0
  O  O73  1  0.56423000  0.62626000  0.61169000  1.0
  O  O74  1  0.56420000  0.12626000  0.88830000  1.0
  O  O75  1  0.06420000  0.87374000  0.11170000  1.0
