# generated using pymatgen
data_CuH16C25N3
_symmetry_space_group_name_H-M   'P 1'
_cell_length_a   8.80408000
_cell_length_b   15.12790000
_cell_length_c   18.28860000
_cell_angle_alpha   89.99520000
_cell_angle_beta   90.00560000
_cell_angle_gamma   89.99020000
_symmetry_Int_Tables_number   1
_chemical_formula_structural   CuH16C25N3
_chemical_formula_sum   'Cu4 H64 C100 N12'
_cell_volume   2435.80813515
_cell_formula_units_Z   4
loop_
 _symmetry_equiv_pos_site_id
 _symmetry_equiv_pos_as_xyz
  1  'x, y, z'
loop_
 _atom_site_type_symbol
 _atom_site_label
 _atom_site_symmetry_multiplicity
 _atom_site_fract_x
 _atom_site_fract_y
 _atom_site_fract_z
 _atom_site_occupancy
  Cu  Cu0  1  0.60323000  0.21438000  0.05410000  1.0
  Cu  Cu1  1  0.89682000  0.78563000  0.55408000  1.0
  Cu  Cu2  1  0.10320000  0.28560000  0.94590000  1.0
  Cu  Cu3  1  0.39680000  0.71438000  0.44591000  1.0
  H  H4  1  0.62378000  0.59691000  0.37371000  1.0
  H  H5  1  0.87617000  0.40309000  0.87370000  1.0
  H  H6  1  0.12377000  0.90307000  0.62632000  1.0
  H  H7  1  0.37625000  0.09693000  0.12631000  1.0
  H  H8  1  0.65779000  0.43612000  0.34551000  1.0
  H  H9  1  0.84216000  0.56389000  0.84550000  1.0
  H  H10  1  0.15784000  0.06386000  0.65450000  1.0
  H  H11  1  0.34220000  0.93613000  0.15449000  1.0
  H  H12  1  0.22083000  0.55009000  0.48324000  1.0
  H  H13  1  0.27918000  0.44986000  0.98324000  1.0
  H  H14  1  0.72079000  0.94997000  0.51676000  1.0
  H  H15  1  0.77922000  0.05005000  0.01679000  1.0
  H  H16  1  0.24320000  0.38651000  0.46477000  1.0
  H  H17  1  0.25683000  0.61345000  0.96477000  1.0
  H  H18  1  0.74318000  0.11354000  0.53522000  1.0
  H  H19  1  0.75681000  0.88648000  0.03525000  1.0
  H  H20  1  0.70561000  0.21045000  0.32912000  1.0
  H  H21  1  0.79436000  0.78954000  0.82909000  1.0
  H  H22  1  0.20562000  0.28953000  0.67091000  1.0
  H  H23  1  0.29442000  0.71045000  0.17089000  1.0
  H  H24  1  0.75779000  0.18806000  0.19576000  1.0
  H  H25  1  0.74218000  0.81195000  0.69572000  1.0
  H  H26  1  0.25781000  0.31192000  0.80427000  1.0
  H  H27  1  0.24225000  0.68806000  0.30425000  1.0
  H  H28  1  0.36692000  0.32094000  0.13587000  1.0
  H  H29  1  0.13305000  0.67906000  0.63587000  1.0
  H  H30  1  0.86698000  0.17910000  0.86414000  1.0
  H  H31  1  0.63307000  0.82091000  0.36414000  1.0
  H  H32  1  0.30438000  0.35627000  0.26677000  1.0
  H  H33  1  0.19560000  0.64370000  0.76678000  1.0
  H  H34  1  0.80444000  0.14376000  0.73324000  1.0
  H  H35  1  0.69559000  0.85625000  0.23323000  1.0
  H  H36  1  0.53777000  0.38062000  0.53907000  1.0
  H  H37  1  0.96224000  0.61938000  0.03906000  1.0
  H  H38  1  0.03784000  0.11940000  0.46096000  1.0
  H  H39  1  0.46221000  0.88065000  0.96093000  1.0
  H  H40  1  0.56593000  0.35833000  0.67168000  1.0
  H  H41  1  0.93410000  0.64165000  0.17167000  1.0
  H  H42  1  0.06596000  0.14163000  0.32834000  1.0
  H  H43  1  0.43407000  0.85842000  0.82832000  1.0
  H  H44  1  0.51930000  0.21131000  0.72802000  1.0
  H  H45  1  0.98072000  0.78866000  0.22801000  1.0
  H  H46  1  0.01933000  0.28864000  0.27198000  1.0
  H  H47  1  0.48071000  0.71140000  0.77198000  1.0
  H  H48  1  0.45094000  0.08226000  0.64970000  1.0
  H  H49  1  0.04906000  0.91770000  0.14970000  1.0
  H  H50  1  0.95101000  0.41772000  0.35028000  1.0
  H  H51  1  0.54900000  0.58233000  0.85030000  1.0
  H  H52  1  0.40007000  0.12722000  0.30636000  1.0
  H  H53  1  0.09993000  0.87277000  0.80636000  1.0
  H  H54  1  0.90004000  0.37280000  0.69363000  1.0
  H  H55  1  0.59993000  0.62722000  0.19364000  1.0
  H  H56  1  0.34054000  0.96805000  0.31296000  1.0
  H  H57  1  0.15947000  0.03193000  0.81293000  1.0
  H  H58  1  0.84045000  0.53197000  0.68702000  1.0
  H  H59  1  0.65948000  0.46804000  0.18706000  1.0
  H  H60  1  0.33031000  0.88993000  0.43278000  1.0
  H  H61  1  0.16975000  0.11006000  0.93275000  1.0
  H  H62  1  0.83023000  0.61010000  0.56720000  1.0
  H  H63  1  0.66972000  0.38992000  0.06723000  1.0
  H  H64  1  0.37761000  0.97204000  0.54759000  1.0
  H  H65  1  0.12243000  0.02796000  0.04756000  1.0
  H  H66  1  0.87758000  0.52800000  0.45239000  1.0
  H  H67  1  0.62235000  0.47203000  0.95240000  1.0
  C  C68  1  0.54088000  0.54785000  0.39181000  1.0
  C  C69  1  0.95908000  0.45214000  0.89181000  1.0
  C  C70  1  0.04087000  0.95214000  0.60820000  1.0
  C  C71  1  0.45915000  0.04786000  0.10821000  1.0
  C  C72  1  0.55995000  0.45858000  0.37695000  1.0
  C  C73  1  0.94001000  0.54141000  0.87695000  1.0
  C  C74  1  0.05997000  0.04141000  0.62306000  1.0
  C  C75  1  0.44005000  0.95859000  0.12306000  1.0
  C  C76  1  0.31748000  0.52149000  0.45426000  1.0
  C  C77  1  0.18252000  0.47848000  0.95426000  1.0
  C  C78  1  0.81745000  0.97855000  0.54575000  1.0
  C  C79  1  0.68256000  0.02146000  0.04577000  1.0
  C  C80  1  0.33033000  0.43086000  0.44382000  1.0
  C  C81  1  0.16968000  0.56912000  0.94382000  1.0
  C  C82  1  0.83031000  0.06918000  0.55618000  1.0
  C  C83  1  0.66969000  0.93084000  0.05620000  1.0
  C  C84  1  0.45419000  0.39730000  0.40415000  1.0
  C  C85  1  0.04581000  0.60269000  0.90414000  1.0
  C  C86  1  0.95419000  0.10272000  0.59586000  1.0
  C  C87  1  0.54581000  0.89729000  0.09586000  1.0
  C  C88  1  0.46796000  0.30235000  0.38704000  1.0
  C  C89  1  0.03204000  0.69764000  0.88704000  1.0
  C  C90  1  0.96797000  0.19766000  0.61296000  1.0
  C  C91  1  0.53202000  0.80234000  0.11295000  1.0
  C  C92  1  0.45590000  0.23628000  0.43796000  1.0
  C  C93  1  0.04412000  0.76371000  0.93795000  1.0
  C  C94  1  0.95589000  0.26373000  0.56204000  1.0
  C  C95  1  0.54407000  0.73627000  0.06204000  1.0
  C  C96  1  0.49829000  0.28405000  0.30905000  1.0
  C  C97  1  0.00170000  0.71594000  0.80905000  1.0
  C  C98  1  0.99832000  0.21595000  0.69095000  1.0
  C  C99  1  0.50172000  0.78404000  0.19094000  1.0
  C  C100  1  0.62764000  0.23612000  0.28805000  1.0
  C  C101  1  0.87234000  0.76387000  0.78803000  1.0
  C  C102  1  0.12766000  0.26387000  0.71197000  1.0
  C  C103  1  0.37239000  0.73612000  0.21196000  1.0
  C  C104  1  0.65670000  0.22334000  0.21426000  1.0
  C  C105  1  0.84327000  0.77666000  0.71423000  1.0
  C  C106  1  0.15673000  0.27665000  0.78577000  1.0
  C  C107  1  0.34334000  0.72333000  0.28575000  1.0
  C  C108  1  0.43971000  0.29922000  0.18075000  1.0
  C  C109  1  0.06026000  0.70078000  0.68075000  1.0
  C  C110  1  0.93976000  0.20082000  0.81926000  1.0
  C  C111  1  0.56029000  0.79919000  0.31925000  1.0
  C  C112  1  0.40510000  0.31765000  0.25331000  1.0
  C  C113  1  0.09487000  0.68234000  0.75332000  1.0
  C  C114  1  0.90514000  0.18239000  0.74669000  1.0
  C  C115  1  0.59488000  0.81762000  0.24668000  1.0
  C  C116  1  0.46913000  0.24497000  0.51833000  1.0
  C  C117  1  0.03091000  0.75501000  0.01832000  1.0
  C  C118  1  0.96909000  0.25503000  0.48167000  1.0
  C  C119  1  0.53085000  0.74499000  0.98167000  1.0
  C  C120  1  0.51363000  0.31596000  0.56237000  1.0
  C  C121  1  0.98640000  0.68404000  0.06236000  1.0
  C  C122  1  0.01363000  0.18405000  0.43765000  1.0
  C  C123  1  0.48637000  0.81599000  0.93763000  1.0
  C  C124  1  0.53051000  0.30294000  0.63763000  1.0
  C  C125  1  0.96953000  0.69703000  0.13762000  1.0
  C  C126  1  0.03052000  0.19703000  0.36239000  1.0
  C  C127  1  0.46949000  0.80302000  0.86237000  1.0
  C  C128  1  0.50553000  0.21986000  0.66917000  1.0
  C  C129  1  0.99450000  0.78011000  0.16917000  1.0
  C  C130  1  0.00553000  0.28011000  0.33083000  1.0
  C  C131  1  0.49446000  0.71994000  0.83083000  1.0
  C  C132  1  0.46512000  0.14771000  0.62554000  1.0
  C  C133  1  0.03489000  0.85226000  0.12553000  1.0
  C  C134  1  0.96513000  0.35228000  0.37446000  1.0
  C  C135  1  0.53483000  0.64777000  0.87447000  1.0
  C  C136  1  0.44775000  0.16019000  0.55042000  1.0
  C  C137  1  0.05230000  0.83978000  0.05041000  1.0
  C  C138  1  0.94771000  0.33981000  0.44957000  1.0
  C  C139  1  0.55222000  0.66022000  0.94958000  1.0
  C  C140  1  0.41810000  0.09650000  0.49201000  1.0
  C  C141  1  0.08194000  0.90348000  0.99200000  1.0
  C  C142  1  0.91809000  0.40352000  0.50798000  1.0
  C  C143  1  0.58182000  0.59649000  0.00799000  1.0
  C  C144  1  0.42712000  0.14141000  0.42383000  1.0
  C  C145  1  0.07291000  0.85858000  0.92383000  1.0
  C  C146  1  0.92712000  0.35861000  0.57616000  1.0
  C  C147  1  0.57280000  0.64139000  0.07617000  1.0
  C  C148  1  0.39712000  0.09467000  0.35937000  1.0
  C  C149  1  0.10289000  0.90532000  0.85936000  1.0
  C  C150  1  0.89709000  0.40535000  0.64062000  1.0
  C  C151  1  0.60283000  0.59466000  0.14064000  1.0
  C  C152  1  0.36241000  0.00462000  0.36328000  1.0
  C  C153  1  0.13760000  0.99537000  0.86326000  1.0
  C  C154  1  0.86236000  0.49540000  0.63670000  1.0
  C  C155  1  0.63756000  0.50461000  0.13674000  1.0
  C  C156  1  0.35637000  0.96041000  0.43051000  1.0
  C  C157  1  0.14365000  0.03958000  0.93049000  1.0
  C  C158  1  0.85633000  0.53962000  0.56946000  1.0
  C  C159  1  0.64360000  0.46040000  0.06950000  1.0
  C  C160  1  0.38382000  0.00658000  0.49534000  1.0
  C  C161  1  0.11622000  0.99340000  0.99532000  1.0
  C  C162  1  0.88380000  0.49345000  0.50464000  1.0
  C  C163  1  0.61611000  0.50657000  0.00466000  1.0
  C  C164  1  0.29197000  0.26169000  0.98602000  1.0
  C  C165  1  0.20804000  0.73831000  0.48600000  1.0
  C  C166  1  0.79198000  0.23829000  0.01399000  1.0
  C  C167  1  0.70806000  0.76170000  0.51399000  1.0
  N  N168  1  0.56377000  0.25273000  0.16089000  1.0
  N  N169  1  0.93621000  0.74728000  0.66087000  1.0
  N  N170  1  0.06381000  0.24728000  0.83913000  1.0
  N  N171  1  0.43625000  0.75272000  0.33912000  1.0
  N  N172  1  0.42107000  0.57973000  0.42922000  1.0
  N  N173  1  0.07891000  0.42025000  0.92922000  1.0
  N  N174  1  0.92104000  0.92028000  0.57079000  1.0
  N  N175  1  0.57896000  0.07973000  0.07080000  1.0
  N  N176  1  0.41160000  0.24699000  0.01210000  1.0
  N  N177  1  0.08840000  0.75302000  0.51210000  1.0
  N  N178  1  0.91160000  0.25299000  0.98790000  1.0
  N  N179  1  0.58840000  0.74698000  0.48792000  1.0
