# generated using pymatgen
data_BaH24C16N4O11
_symmetry_space_group_name_H-M   'P 1'
_cell_length_a   10.32080000
_cell_length_b   10.42190000
_cell_length_c   10.75340000
_cell_angle_alpha   76.46670000
_cell_angle_beta   78.95070000
_cell_angle_gamma   84.13280000
_symmetry_Int_Tables_number   1
_chemical_formula_structural   BaH24C16N4O11
_chemical_formula_sum   'Ba2 H48 C32 N8 O22'
_cell_volume   1101.70216755
_cell_formula_units_Z   2
loop_
 _symmetry_equiv_pos_site_id
 _symmetry_equiv_pos_as_xyz
  1  'x, y, z'
loop_
 _atom_site_type_symbol
 _atom_site_label
 _atom_site_symmetry_multiplicity
 _atom_site_fract_x
 _atom_site_fract_y
 _atom_site_fract_z
 _atom_site_occupancy
  Ba  Ba0  1  0.46509000  0.27796000  0.60901000  1.0
  Ba  Ba1  1  0.53491000  0.72204000  0.39099000  1.0
  H  H2  1  0.86136000  0.30861000  0.70443000  1.0
  H  H3  1  0.13864000  0.69139000  0.29557000  1.0
  H  H4  1  0.27476000  0.05853000  0.19536000  1.0
  H  H5  1  0.72524000  0.94148000  0.80464000  1.0
  H  H6  1  0.03972000  0.69275000  0.62768000  1.0
  H  H7  1  0.96028000  0.30725000  0.37232000  1.0
  H  H8  1  0.38006000  0.75986000  0.95819000  1.0
  H  H9  1  0.61994000  0.24014000  0.04181000  1.0
  H  H10  1  0.72677000  0.17643000  0.45793000  1.0
  H  H11  1  0.27323000  0.82357000  0.54208000  1.0
  H  H12  1  0.63455000  0.07377000  0.43434000  1.0
  H  H13  1  0.36545000  0.92623000  0.56567000  1.0
  H  H14  1  0.48662000  0.25704000  0.29081000  1.0
  H  H15  1  0.51339000  0.74296000  0.70919000  1.0
  H  H16  1  0.34957000  0.34092000  0.32765000  1.0
  H  H17  1  0.65044000  0.65907000  0.67235000  1.0
  H  H18  1  0.56881000  0.41516000  0.81320000  1.0
  H  H19  1  0.43119000  0.58484000  0.18680000  1.0
  H  H20  1  0.50893000  0.53405000  0.71827000  1.0
  H  H21  1  0.49107000  0.46595000  0.28174000  1.0
  H  H22  1  0.16158000  0.07785000  0.62271000  1.0
  H  H23  1  0.83842000  0.92215000  0.37729000  1.0
  H  H24  1  0.98843000  0.09115000  0.62582000  1.0
  H  H25  1  0.01156000  0.90884000  0.37418000  1.0
  H  H26  1  0.94659000  0.07275000  0.86529000  1.0
  H  H27  1  0.05341000  0.92725000  0.13471000  1.0
  H  H28  1  0.11736000  0.06913000  0.86525000  1.0
  H  H29  1  0.88264000  0.93087000  0.13475000  1.0
  H  H30  1  0.97970000  0.85755000  0.78692000  1.0
  H  H31  1  0.02030000  0.14244000  0.21308000  1.0
  H  H32  1  0.03502000  0.84006000  0.93683000  1.0
  H  H33  1  0.96499000  0.15994000  0.06317000  1.0
  H  H34  1  0.15054000  0.85328000  0.79014000  1.0
  H  H35  1  0.84947000  0.14672000  0.20986000  1.0
  H  H36  1  0.38523000  0.36539000  0.99225000  1.0
  H  H37  1  0.61476000  0.63461000  0.00776000  1.0
  H  H38  1  0.26099000  0.31030000  0.12830000  1.0
  H  H39  1  0.73900000  0.68970000  0.87171000  1.0
  H  H40  1  0.21973000  0.37645000  0.84488000  1.0
  H  H41  1  0.78027000  0.62355000  0.15512000  1.0
  H  H42  1  0.09390000  0.34515000  0.98236000  1.0
  H  H43  1  0.90609000  0.65486000  0.01763000  1.0
  H  H44  1  0.14943000  0.55469000  0.04291000  1.0
  H  H45  1  0.85056000  0.44532000  0.95709000  1.0
  H  H46  1  0.10132000  0.58778000  0.88770000  1.0
  H  H47  1  0.89868000  0.41222000  0.11230000  1.0
  H  H48  1  0.27079000  0.58204000  0.89991000  1.0
  H  H49  1  0.72921000  0.41796000  0.10009000  1.0
  C  C50  1  0.22346000  0.56710000  0.58351000  1.0
  C  C51  1  0.77654000  0.43290000  0.41648000  1.0
  C  C52  1  0.13117000  0.45849000  0.62390000  1.0
  C  C53  1  0.86884000  0.54150000  0.37609000  1.0
  C  C54  1  0.99364000  0.46547000  0.66109000  1.0
  C  C55  1  0.00636000  0.53453000  0.33891000  1.0
  C  C56  1  0.89296000  0.57310000  0.67864000  1.0
  C  C57  1  0.10705000  0.42690000  0.32135000  1.0
  C  C58  1  0.06828000  0.25839000  0.65748000  1.0
  C  C59  1  0.93172000  0.74160000  0.34253000  1.0
  C  C60  1  0.06663000  0.11285000  0.67339000  1.0
  C  C61  1  0.93337000  0.88715000  0.32661000  1.0
  C  C62  1  0.04397000  0.03958000  0.81709000  1.0
  C  C63  1  0.95603000  0.96042000  0.18291000  1.0
  C  C64  1  0.05269000  0.88981000  0.83360000  1.0
  C  C65  1  0.94731000  0.11019000  0.16640000  1.0
  C  C66  1  0.39842000  0.94053000  0.80020000  1.0
  C  C67  1  0.60157000  0.05946000  0.19980000  1.0
  C  C68  1  0.36533000  0.00932000  0.90962000  1.0
  C  C69  1  0.63467000  0.99068000  0.09038000  1.0
  C  C70  1  0.33136000  0.95653000  0.04261000  1.0
  C  C71  1  0.66864000  0.04346000  0.95739000  1.0
  C  C72  1  0.31892000  0.82241000  0.12246000  1.0
  C  C73  1  0.68108000  0.17759000  0.87754000  1.0
  C  C74  1  0.32038000  0.17691000  0.00272000  1.0
  C  C75  1  0.67961000  0.82310000  0.99729000  1.0
  C  C76  1  0.29316000  0.31324000  0.02433000  1.0
  C  C77  1  0.70683000  0.68676000  0.97567000  1.0
  C  C78  1  0.18973000  0.38980000  0.94479000  1.0
  C  C79  1  0.81026000  0.61020000  0.05521000  1.0
  C  C80  1  0.17670000  0.53666000  0.94434000  1.0
  C  C81  1  0.82329000  0.46335000  0.05566000  1.0
  N  N82  1  0.17552000  0.32935000  0.62321000  1.0
  N  N83  1  0.82448000  0.67065000  0.37679000  1.0
  N  N84  1  0.95732000  0.33791000  0.68087000  1.0
  N  N85  1  0.04269000  0.66209000  0.31913000  1.0
  N  N86  1  0.35849000  0.14487000  0.88695000  1.0
  N  N87  1  0.64151000  0.85513000  0.11305000  1.0
  N  N88  1  0.30327000  0.06493000  0.09811000  1.0
  N  N89  1  0.69673000  0.93507000  0.90189000  1.0
  O  O90  1  0.34434000  0.54025000  0.54552000  1.0
  O  O91  1  0.65566000  0.45975000  0.45448000  1.0
  O  O92  1  0.17329000  0.68511000  0.58798000  1.0
  O  O93  1  0.82672000  0.31489000  0.41202000  1.0
  O  O94  1  0.93245000  0.69342000  0.65836000  1.0
  O  O95  1  0.06756000  0.30658000  0.34164000  1.0
  O  O96  1  0.77443000  0.54755000  0.71294000  1.0
  O  O97  1  0.22558000  0.45245000  0.28705000  1.0
  O  O98  1  0.40650000  0.00822000  0.68607000  1.0
  O  O99  1  0.59350000  0.99179000  0.31393000  1.0
  O  O100  1  0.41617000  0.81295000  0.82906000  1.0
  O  O101  1  0.58383000  0.18705000  0.17094000  1.0
  O  O102  1  0.34747000  0.72373000  0.06272000  1.0
  O  O103  1  0.65252000  0.27627000  0.93728000  1.0
  O  O104  1  0.28167000  0.80425000  0.24251000  1.0
  O  O105  1  0.71833000  0.19575000  0.75749000  1.0
  O  O106  1  0.65995000  0.11129000  0.50183000  1.0
  O  O107  1  0.34006000  0.88870000  0.49817000  1.0
  O  O108  1  0.43574000  0.30602000  0.35514000  1.0
  O  O109  1  0.56426000  0.69398000  0.64486000  1.0
  O  O110  1  0.49381000  0.44189000  0.76730000  1.0
  O  O111  1  0.50620000  0.55811000  0.23270000  1.0
