# generated using pymatgen
data_Zn2H21C28N6ClO8
_symmetry_space_group_name_H-M   'P 1'
_cell_length_a   9.84761000
_cell_length_b   11.00910000
_cell_length_c   11.02190000
_cell_angle_alpha   92.19440000
_cell_angle_beta   91.57790000
_cell_angle_gamma   92.49480000
_symmetry_Int_Tables_number   1
_chemical_formula_structural   Zn2H21C28N6ClO8
_chemical_formula_sum   'Zn2 H21 C28 N6 Cl1 O8'
_cell_volume   1192.40230196
_cell_formula_units_Z   1
loop_
 _symmetry_equiv_pos_site_id
 _symmetry_equiv_pos_as_xyz
  1  'x, y, z'
loop_
 _atom_site_type_symbol
 _atom_site_label
 _atom_site_symmetry_multiplicity
 _atom_site_fract_x
 _atom_site_fract_y
 _atom_site_fract_z
 _atom_site_occupancy
  Zn  Zn0  1  0.64192000  0.51162000  0.50036000  1.0
  Zn  Zn1  1  0.35354000  0.49891000  0.49603000  1.0
  H  H2  1  0.28775000  0.87688000  0.46696000  1.0
  H  H3  1  0.74770000  0.22881000  0.56157000  1.0
  H  H4  1  0.30063000  0.42790000  0.86872000  1.0
  H  H5  1  0.28870000  0.42422000  0.09328000  1.0
  H  H6  1  0.76463000  0.67436000  0.13586000  1.0
  H  H7  1  0.74834000  0.32818000  0.35938000  1.0
  H  H8  1  0.89772000  0.27761000  0.30185000  1.0
  H  H9  1  0.86541000  0.82961000  0.73171000  1.0
  H  H10  1  0.76448000  0.76192000  0.62346000  1.0
  H  H11  1  0.11990000  0.57393000  0.82286000  1.0
  H  H12  1  0.25932000  0.63973000  0.77578000  1.0
  H  H13  1  0.82453000  0.52336000  0.13857000  1.0
  H  H14  1  0.68782000  0.72895000  0.34463000  1.0
  H  H15  1  0.85762000  0.75696000  0.34660000  1.0
  H  H16  1  0.78241000  0.67163000  0.91035000  1.0
  H  H17  1  0.83890000  0.51903000  0.91088000  1.0
  H  H18  1  0.11830000  0.36221000  0.36073000  1.0
  H  H19  1  0.89845000  0.61509000  0.75324000  1.0
  H  H20  1  0.12875000  0.75897000  0.63661000  1.0
  H  H21  1  0.97327000  0.93215000  0.42130000  1.0
  H  H22  1  0.96642000  0.13104000  0.53387000  1.0
  C  C23  1  0.51147000  0.50535000  0.73238000  1.0
  C  C24  1  0.38222000  0.45605000  0.05171000  1.0
  C  C25  1  0.49383000  0.49540000  0.12860000  1.0
  C  C26  1  0.49604000  0.74016000  0.48203000  1.0
  C  C27  1  0.61142000  0.53247000  0.07030000  1.0
  C  C28  1  0.75591000  0.58323000  0.09136000  1.0
  C  C29  1  0.76557000  0.58165000  0.94858000  1.0
  C  C30  1  0.07585000  0.57227000  0.56992000  1.0
  C  C31  1  0.06636000  0.42430000  0.42141000  1.0
  C  C32  1  0.92093000  0.42479000  0.41725000  1.0
  C  C33  1  0.93559000  0.57327000  0.56630000  1.0
  C  C34  1  0.62891000  0.94560000  0.45288000  1.0
  C  C35  1  0.92981000  0.66478000  0.67236000  1.0
  C  C36  1  0.09202000  0.67172000  0.67178000  1.0
  C  C37  1  0.48821000  0.49901000  0.26357000  1.0
  C  C38  1  0.49324000  0.26878000  0.49200000  1.0
  C  C39  1  0.75632000  0.89971000  0.41486000  1.0
  C  C40  1  0.87572000  0.96938000  0.44357000  1.0
  C  C41  1  0.87148000  0.08304000  0.50375000  1.0
  C  C42  1  0.74913000  0.13715000  0.52204000  1.0
  C  C43  1  0.62529000  0.07334000  0.48766000  1.0
  C  C44  1  0.50401000  0.87427000  0.45916000  1.0
  C  C45  1  0.38215000  0.93176000  0.46408000  1.0
  C  C46  1  0.37842000  0.05947000  0.46721000  1.0
  C  C47  1  0.49680000  0.13236000  0.48543000  1.0
  C  C48  1  0.61929000  0.53205000  0.94393000  1.0
  C  C49  1  0.50840000  0.49773000  0.86725000  1.0
  C  C50  1  0.38904000  0.45826000  0.92544000  1.0
  N  N51  1  0.14435000  0.49716000  0.49737000  1.0
  N  N52  1  0.85309000  0.50349000  0.49140000  1.0
  N  N53  1  0.84817000  0.34803000  0.33914000  1.0
  N  N54  1  0.86347000  0.77672000  0.65366000  1.0
  N  N55  1  0.15804000  0.65241000  0.78751000  1.0
  N  N56  1  0.76479000  0.79336000  0.34591000  1.0
  Cl  Cl57  1  0.21762000  0.11520000  0.44647000  1.0
  O  O58  1  0.62383000  0.48603000  0.68143000  1.0
  O  O59  1  0.40129000  0.53207000  0.67814000  1.0
  O  O60  1  0.60192000  0.69430000  0.52851000  1.0
  O  O61  1  0.38328000  0.68201000  0.45954000  1.0
  O  O62  1  0.59643000  0.54129000  0.32062000  1.0
  O  O63  1  0.37973000  0.46154000  0.31313000  1.0
  O  O64  1  0.59627000  0.32949000  0.45298000  1.0
  O  O65  1  0.38907000  0.31784000  0.53294000  1.0
