# generated using pymatgen
data_ErH8C6NO7
_symmetry_space_group_name_H-M   'P 1'
_cell_length_a   6.49458000
_cell_length_b   11.41950000
_cell_length_c   12.67340000
_cell_angle_alpha   89.99980000
_cell_angle_beta   89.99920000
_cell_angle_gamma   89.99990000
_symmetry_Int_Tables_number   1
_chemical_formula_structural   ErH8C6NO7
_chemical_formula_sum   'Er4 H32 C24 N4 O28'
_cell_volume   939.92088986
_cell_formula_units_Z   4
loop_
 _symmetry_equiv_pos_site_id
 _symmetry_equiv_pos_as_xyz
  1  'x, y, z'
loop_
 _atom_site_type_symbol
 _atom_site_label
 _atom_site_symmetry_multiplicity
 _atom_site_fract_x
 _atom_site_fract_y
 _atom_site_fract_z
 _atom_site_occupancy
  Er  Er0  1  0.35474000  0.50059000  0.50237000  1.0
  Er  Er1  1  0.85472000  0.99941000  0.49763000  1.0
  Er  Er2  1  0.64528000  0.00059000  0.99763000  1.0
  Er  Er3  1  0.14527000  0.49942000  0.00237000  1.0
  H  H4  1  0.26356000  0.73974000  0.35278000  1.0
  H  H5  1  0.76353000  0.76027000  0.64722000  1.0
  H  H6  1  0.73646000  0.23974000  0.14722000  1.0
  H  H7  1  0.23647000  0.26026000  0.85278000  1.0
  H  H8  1  0.99391000  0.72675000  0.36412000  1.0
  H  H9  1  0.49391000  0.77324000  0.63588000  1.0
  H  H10  1  0.00609000  0.22677000  0.13588000  1.0
  H  H11  1  0.50609000  0.27324000  0.86412000  1.0
  H  H12  1  0.29360000  0.02891000  0.28974000  1.0
  H  H13  1  0.79359000  0.47110000  0.71027000  1.0
  H  H14  1  0.70639000  0.52891000  0.21026000  1.0
  H  H15  1  0.20641000  0.97110000  0.78974000  1.0
  H  H16  1  0.42290000  0.90611000  0.34356000  1.0
  H  H17  1  0.92290000  0.59389000  0.65643000  1.0
  H  H18  1  0.57710000  0.40611000  0.15644000  1.0
  H  H19  1  0.07710000  0.09389000  0.84356000  1.0
  H  H20  1  0.88853000  0.83077000  0.24358000  1.0
  H  H21  1  0.38851000  0.66923000  0.75642000  1.0
  H  H22  1  0.11145000  0.33077000  0.25643000  1.0
  H  H23  1  0.61148000  0.16923000  0.74358000  1.0
  H  H24  1  0.09004000  0.91117000  0.18547000  1.0
  H  H25  1  0.59002000  0.58883000  0.81453000  1.0
  H  H26  1  0.90996000  0.41117000  0.31453000  1.0
  H  H27  1  0.40999000  0.08884000  0.68547000  1.0
  H  H28  1  0.47417000  0.27009000  0.42520000  1.0
  H  H29  1  0.97417000  0.22990000  0.57481000  1.0
  H  H30  1  0.52582000  0.77011000  0.07482000  1.0
  H  H31  1  0.02583000  0.72990000  0.92520000  1.0
  H  H32  1  0.25075000  0.24069000  0.45980000  1.0
  H  H33  1  0.75075000  0.25931000  0.54021000  1.0
  H  H34  1  0.74925000  0.74070000  0.04021000  1.0
  H  H35  1  0.24926000  0.75930000  0.95980000  1.0
  C  C36  1  0.12652000  0.77949000  0.38911000  1.0
  C  C37  1  0.62652000  0.72050000  0.61088000  1.0
  C  C38  1  0.87347000  0.27949000  0.11089000  1.0
  C  C39  1  0.37348000  0.22050000  0.88911000  1.0
  C  C40  1  0.13871000  0.76850000  0.50874000  1.0
  C  C41  1  0.63872000  0.73149000  0.49125000  1.0
  C  C42  1  0.86130000  0.26851000  0.99125000  1.0
  C  C43  1  0.36130000  0.23149000  0.00874000  1.0
  C  C44  1  0.29195000  0.96572000  0.35551000  1.0
  C  C45  1  0.79195000  0.53427000  0.64448000  1.0
  C  C46  1  0.70803000  0.46573000  0.14449000  1.0
  C  C47  1  0.20805000  0.03428000  0.85551000  1.0
  C  C48  1  0.32978000  0.04015000  0.45363000  1.0
  C  C49  1  0.82977000  0.45983000  0.54637000  1.0
  C  C50  1  0.67022000  0.54016000  0.04637000  1.0
  C  C51  1  0.17024000  0.95984000  0.95363000  1.0
  C  C52  1  0.98562000  0.90872000  0.25403000  1.0
  C  C53  1  0.48560000  0.59128000  0.74597000  1.0
  C  C54  1  0.01438000  0.40872000  0.24598000  1.0
  C  C55  1  0.51440000  0.09128000  0.75403000  1.0
  C  C56  1  0.83963000  0.01319000  0.24941000  1.0
  C  C57  1  0.33960000  0.48681000  0.75060000  1.0
  C  C58  1  0.16037000  0.51319000  0.25060000  1.0
  C  C59  1  0.66039000  0.98682000  0.74940000  1.0
  N  N60  1  0.09393000  0.90154000  0.35598000  1.0
  N  N61  1  0.59392000  0.59846000  0.64401000  1.0
  N  N62  1  0.90606000  0.40154000  0.14402000  1.0
  N  N63  1  0.40608000  0.09846000  0.85598000  1.0
  O  O64  1  0.19507000  0.67030000  0.54700000  1.0
  O  O65  1  0.69508000  0.82970000  0.45299000  1.0
  O  O66  1  0.80493000  0.17031000  0.95299000  1.0
  O  O67  1  0.30491000  0.32970000  0.04701000  1.0
  O  O68  1  0.08708000  0.85565000  0.56456000  1.0
  O  O69  1  0.58709000  0.64435000  0.43544000  1.0
  O  O70  1  0.91292000  0.35565000  0.93543000  1.0
  O  O71  1  0.41293000  0.14435000  0.06456000  1.0
  O  O72  1  0.50991000  0.05905000  0.48527000  1.0
  O  O73  1  0.00991000  0.44094000  0.51474000  1.0
  O  O74  1  0.49008000  0.55904000  0.01474000  1.0
  O  O75  1  0.99010000  0.94095000  0.98526000  1.0
  O  O76  1  0.17185000  0.09115000  0.49481000  1.0
  O  O77  1  0.67184000  0.40884000  0.50520000  1.0
  O  O78  1  0.82814000  0.59116000  0.00519000  1.0
  O  O79  1  0.32817000  0.90884000  0.99481000  1.0
  O  O80  1  0.74432000  0.03159000  0.16415000  1.0
  O  O81  1  0.24430000  0.46842000  0.83585000  1.0
  O  O82  1  0.25569000  0.53158000  0.33584000  1.0
  O  O83  1  0.75569000  0.96842000  0.66416000  1.0
  O  O84  1  0.81517000  0.07512000  0.33188000  1.0
  O  O85  1  0.31515000  0.42488000  0.66812000  1.0
  O  O86  1  0.18481000  0.57513000  0.16811000  1.0
  O  O87  1  0.68485000  0.92489000  0.83189000  1.0
  O  O88  1  0.33739000  0.30452000  0.43146000  1.0
  O  O89  1  0.83739000  0.19548000  0.56854000  1.0
  O  O90  1  0.66261000  0.80453000  0.06855000  1.0
  O  O91  1  0.16261000  0.69547000  0.93146000  1.0
