# generated using pymatgen
data_CuH9C13N3F2
_symmetry_space_group_name_H-M   'P 1'
_cell_length_a   7.59304000
_cell_length_b   7.65112000
_cell_length_c   11.28850000
_cell_angle_alpha   99.57280000
_cell_angle_beta   100.70600000
_cell_angle_gamma   101.86600000
_symmetry_Int_Tables_number   1
_chemical_formula_structural   CuH9C13N3F2
_chemical_formula_sum   'Cu2 H18 C26 N6 F4'
_cell_volume   616.19741872
_cell_formula_units_Z   2
loop_
 _symmetry_equiv_pos_site_id
 _symmetry_equiv_pos_as_xyz
  1  'x, y, z'
loop_
 _atom_site_type_symbol
 _atom_site_label
 _atom_site_symmetry_multiplicity
 _atom_site_fract_x
 _atom_site_fract_y
 _atom_site_fract_z
 _atom_site_occupancy
  Cu  Cu0  1  0.16458000  0.21024000  0.26394000  1.0
  Cu  Cu1  1  0.83542000  0.78976000  0.73606000  1.0
  H  H2  1  0.82677000  0.16702000  0.34797000  1.0
  H  H3  1  0.17323000  0.83297000  0.65204000  1.0
  H  H4  1  0.87007000  0.21911000  0.57888000  1.0
  H  H5  1  0.12993000  0.78088000  0.42112000  1.0
  H  H6  1  0.40334000  0.04633000  0.13991000  1.0
  H  H7  1  0.59666000  0.95367000  0.86009000  1.0
  H  H8  1  0.63620000  0.16147000  0.14921000  1.0
  H  H9  1  0.36380000  0.83853000  0.85079000  1.0
  H  H10  1  0.46113000  0.28611000  0.15323000  1.0
  H  H11  1  0.53888000  0.71389000  0.84677000  1.0
  H  H12  1  0.61012000  0.28266000  0.67251000  1.0
  H  H13  1  0.38987000  0.71734000  0.32749000  1.0
  H  H14  1  0.20327000  0.38983000  0.49866000  1.0
  H  H15  1  0.79673000  0.61017000  0.50134000  1.0
  H  H16  1  0.30493000  0.35242000  0.64531000  1.0
  H  H17  1  0.69507000  0.64758000  0.35469000  1.0
  H  H18  1  0.16164000  0.16619000  0.52919000  1.0
  H  H19  1  0.83835000  0.83381000  0.47081000  1.0
  C  C20  1  0.43004000  0.26297000  0.49681000  1.0
  C  C21  1  0.56996000  0.73703000  0.50319000  1.0
  C  C22  1  0.54881000  0.20074000  0.32043000  1.0
  C  C23  1  0.45119000  0.79926000  0.67957000  1.0
  C  C24  1  0.62680000  0.40126000  0.97757000  1.0
  C  C25  1  0.37320000  0.59873000  0.02243000  1.0
  C  C26  1  0.87955000  0.62011000  0.14639000  1.0
  C  C27  1  0.12045000  0.37989000  0.85361000  1.0
  C  C28  1  0.96594000  0.80500000  0.18538000  1.0
  C  C29  1  0.03406000  0.19499000  0.81461000  1.0
  C  C30  1  0.97812000  0.49561000  0.18076000  1.0
  C  C31  1  0.02188000  0.50440000  0.81924000  1.0
  C  C32  1  0.44519000  0.34429000  0.90981000  1.0
  C  C33  1  0.55481000  0.65571000  0.09020000  1.0
  C  C34  1  0.68989000  0.56000000  0.07138000  1.0
  C  C35  1  0.31010000  0.43999000  0.92862000  1.0
  C  C36  1  0.71689000  0.19447000  0.39272000  1.0
  C  C37  1  0.28311000  0.80552000  0.60728000  1.0
  C  C38  1  0.74027000  0.22351000  0.52041000  1.0
  C  C39  1  0.25973000  0.77648000  0.47959000  1.0
  C  C40  1  0.51178000  0.17210000  0.18303000  1.0
  C  C41  1  0.48822000  0.82790000  0.81697000  1.0
  C  C42  1  0.59570000  0.25870000  0.57304000  1.0
  C  C43  1  0.40429000  0.74129000  0.42696000  1.0
  C  C44  1  0.26695000  0.29582000  0.54587000  1.0
  C  C45  1  0.73305000  0.70418000  0.45413000  1.0
  N  N46  1  0.06001000  0.38964000  0.21196000  1.0
  N  N47  1  0.93999000  0.61037000  0.78804000  1.0
  N  N48  1  0.03748000  0.96223000  0.21771000  1.0
  N  N49  1  0.96253000  0.03778000  0.78229000  1.0
  N  N50  1  0.40849000  0.23417000  0.37254000  1.0
  N  N51  1  0.59151000  0.76584000  0.62746000  1.0
  F  F52  1  0.74524000  0.29700000  0.95164000  1.0
  F  F53  1  0.25477000  0.70300000  0.04836000  1.0
  F  F54  1  0.39916000  0.19116000  0.81848000  1.0
  F  F55  1  0.60084000  0.80884000  0.18151000  1.0
