# generated using pymatgen
data_AgH8C10N3
_symmetry_space_group_name_H-M   'P 1'
_cell_length_a   5.49706000
_cell_length_b   11.56140000
_cell_length_c   14.98510000
_cell_angle_alpha   108.87500000
_cell_angle_beta   89.99710000
_cell_angle_gamma   89.99940000
_symmetry_Int_Tables_number   1
_chemical_formula_structural   AgH8C10N3
_chemical_formula_sum   'Ag4 H32 C40 N12'
_cell_volume   901.14712977
_cell_formula_units_Z   4
loop_
 _symmetry_equiv_pos_site_id
 _symmetry_equiv_pos_as_xyz
  1  'x, y, z'
loop_
 _atom_site_type_symbol
 _atom_site_label
 _atom_site_symmetry_multiplicity
 _atom_site_fract_x
 _atom_site_fract_y
 _atom_site_fract_z
 _atom_site_occupancy
  Ag  Ag0  1  0.74853000  0.01797000  0.99753000  1.0
  Ag  Ag1  1  0.75146000  0.51799000  0.49753000  1.0
  Ag  Ag2  1  0.25149000  0.98200000  0.00247000  1.0
  Ag  Ag3  1  0.24850000  0.48202000  0.50248000  1.0
  H  H4  1  0.42104000  0.79702000  0.81005000  1.0
  H  H5  1  0.07896000  0.29704000  0.31005000  1.0
  H  H6  1  0.57895000  0.20297000  0.18995000  1.0
  H  H7  1  0.92102000  0.70297000  0.68994000  1.0
  H  H8  1  0.38560000  0.57346000  0.72370000  1.0
  H  H9  1  0.11440000  0.07347000  0.22371000  1.0
  H  H10  1  0.61439000  0.42653000  0.27629000  1.0
  H  H11  1  0.88558000  0.92654000  0.77629000  1.0
  H  H12  1  0.02126000  0.46166000  0.75997000  1.0
  H  H13  1  0.47873000  0.96166000  0.25998000  1.0
  H  H14  1  0.97874000  0.53833000  0.24001000  1.0
  H  H15  1  0.52121000  0.03834000  0.74003000  1.0
  H  H16  1  0.71977000  0.57722000  0.87858000  1.0
  H  H17  1  0.78024000  0.07723000  0.37857000  1.0
  H  H18  1  0.28026000  0.42276000  0.12142000  1.0
  H  H19  1  0.21971000  0.92277000  0.62144000  1.0
  H  H20  1  0.84767000  0.62641000  0.03567000  1.0
  H  H21  1  0.65230000  0.12641000  0.53566000  1.0
  H  H22  1  0.15233000  0.37357000  0.96433000  1.0
  H  H23  1  0.34768000  0.87361000  0.46435000  1.0
  H  H24  1  0.57887000  0.55898000  0.14103000  1.0
  H  H25  1  0.92110000  0.05896000  0.64099000  1.0
  H  H26  1  0.42112000  0.44100000  0.85897000  1.0
  H  H27  1  0.07893000  0.94105000  0.35900000  1.0
  H  H28  1  0.18532000  0.67642000  0.19958000  1.0
  H  H29  1  0.31463000  0.17639000  0.69953000  1.0
  H  H30  1  0.81467000  0.32356000  0.80042000  1.0
  H  H31  1  0.68541000  0.82361000  0.30044000  1.0
  H  H32  1  0.09632000  0.85632000  0.14844000  1.0
  H  H33  1  0.40363000  0.35631000  0.64842000  1.0
  H  H34  1  0.90368000  0.14368000  0.85157000  1.0
  H  H35  1  0.59638000  0.64371000  0.35157000  1.0
  C  C36  1  0.27008000  0.74403000  0.82376000  1.0
  C  C37  1  0.22993000  0.24405000  0.32377000  1.0
  C  C38  1  0.72992000  0.25596000  0.17624000  1.0
  C  C39  1  0.77005000  0.75597000  0.67624000  1.0
  C  C40  1  0.25067000  0.61940000  0.77648000  1.0
  C  C41  1  0.24934000  0.11940000  0.27648000  1.0
  C  C42  1  0.74933000  0.38059000  0.22352000  1.0
  C  C43  1  0.75065000  0.88060000  0.72352000  1.0
  C  C44  1  0.04847000  0.55869000  0.79726000  1.0
  C  C45  1  0.45158000  0.05870000  0.29725000  1.0
  C  C46  1  0.95156000  0.44129000  0.20275000  1.0
  C  C47  1  0.54841000  0.94131000  0.70276000  1.0
  C  C48  1  0.88029000  0.62267000  0.86362000  1.0
  C  C49  1  0.61971000  0.12267000  0.36362000  1.0
  C  C50  1  0.11972000  0.37732000  0.13638000  1.0
  C  C51  1  0.38026000  0.87734000  0.63640000  1.0
  C  C52  1  0.91418000  0.74939000  0.91141000  1.0
  C  C53  1  0.58580000  0.24941000  0.41141000  1.0
  C  C54  1  0.08582000  0.25060000  0.08859000  1.0
  C  C55  1  0.41417000  0.75062000  0.58859000  1.0
  C  C56  1  0.61346000  0.77642000  0.03213000  1.0
  C  C57  1  0.88653000  0.27643000  0.53211000  1.0
  C  C58  1  0.38658000  0.22357000  0.96788000  1.0
  C  C59  1  0.11346000  0.72359000  0.46788000  1.0
  C  C60  1  0.67677000  0.67368000  0.05992000  1.0
  C  C61  1  0.82320000  0.17367000  0.55989000  1.0
  C  C62  1  0.32323000  0.32630000  0.94009000  1.0
  C  C63  1  0.17681000  0.82634000  0.44011000  1.0
  C  C64  1  0.52616000  0.63701000  0.11953000  1.0
  C  C65  1  0.97380000  0.13700000  0.61950000  1.0
  C  C66  1  0.47384000  0.36297000  0.88047000  1.0
  C  C67  1  0.02619000  0.86303000  0.38050000  1.0
  C  C68  1  0.31001000  0.70137000  0.15246000  1.0
  C  C69  1  0.18994000  0.20136000  0.65243000  1.0
  C  C70  1  0.69000000  0.29862000  0.84755000  1.0
  C  C71  1  0.81008000  0.79865000  0.34756000  1.0
  C  C72  1  0.26097000  0.80226000  0.12448000  1.0
  C  C73  1  0.23900000  0.30225000  0.62445000  1.0
  C  C74  1  0.73905000  0.19773000  0.87553000  1.0
  C  C75  1  0.76102000  0.69776000  0.37553000  1.0
  N  N76  1  0.75614000  0.82137000  0.97644000  1.0
  N  N77  1  0.74386000  0.32138000  0.47643000  1.0
  N  N78  1  0.24389000  0.17862000  0.02357000  1.0
  N  N79  1  0.25614000  0.67864000  0.52357000  1.0
  N  N80  1  0.10885000  0.80737000  0.88874000  1.0
  N  N81  1  0.39119000  0.30739000  0.38872000  1.0
  N  N82  1  0.89120000  0.19260000  0.11128000  1.0
  N  N83  1  0.60881000  0.69262000  0.61127000  1.0
  N  N84  1  0.40651000  0.84038000  0.06740000  1.0
  N  N85  1  0.09345000  0.34038000  0.56740000  1.0
  N  N86  1  0.59350000  0.15961000  0.93260000  1.0
  N  N87  1  0.90654000  0.65964000  0.43261000  1.0
