# generated using pymatgen
data_CdH13C8S2N3O2
_symmetry_space_group_name_H-M   'P 1'
_cell_length_a   7.55739000
_cell_length_b   8.70001000
_cell_length_c   9.93266000
_cell_angle_alpha   81.92350000
_cell_angle_beta   74.24480000
_cell_angle_gamma   89.51170000
_symmetry_Int_Tables_number   1
_chemical_formula_structural   CdH13C8S2N3O2
_chemical_formula_sum   'Cd2 H26 C16 S4 N6 O4'
_cell_volume   621.99580996
_cell_formula_units_Z   2
loop_
 _symmetry_equiv_pos_site_id
 _symmetry_equiv_pos_as_xyz
  1  'x, y, z'
loop_
 _atom_site_type_symbol
 _atom_site_label
 _atom_site_symmetry_multiplicity
 _atom_site_fract_x
 _atom_site_fract_y
 _atom_site_fract_z
 _atom_site_occupancy
  Cd  Cd0  1  0.00761000  0.20675000  0.39918000  1.0
  Cd  Cd1  1  0.99237000  0.79325000  0.60083000  1.0
  H  H2  1  0.57128000  0.98933000  0.36633000  1.0
  H  H3  1  0.42871000  0.01067000  0.63366000  1.0
  H  H4  1  0.43814000  0.81666000  0.43820000  1.0
  H  H5  1  0.56186000  0.18333000  0.56180000  1.0
  H  H6  1  0.56099000  0.94519000  0.11961000  1.0
  H  H7  1  0.43901000  0.05481000  0.88039000  1.0
  H  H8  1  0.44416000  0.76379000  0.19507000  1.0
  H  H9  1  0.55586000  0.23621000  0.80492000  1.0
  H  H10  1  0.90414000  0.65949000  0.03100000  1.0
  H  H11  1  0.09586000  0.34051000  0.96899000  1.0
  H  H12  1  0.76420000  0.80474000  0.96596000  1.0
  H  H13  1  0.23580000  0.19525000  0.03404000  1.0
  H  H14  1  0.66392000  0.61917000  0.05540000  1.0
  H  H15  1  0.33609000  0.38083000  0.94460000  1.0
  H  H16  1  0.87038000  0.98407000  0.10484000  1.0
  H  H17  1  0.12963000  0.01592000  0.89516000  1.0
  H  H18  1  0.00570000  0.82815000  0.15922000  1.0
  H  H19  1  0.99430000  0.17185000  0.84078000  1.0
  H  H20  1  0.84748000  0.92261000  0.28924000  1.0
  H  H21  1  0.15252000  0.07739000  0.71076000  1.0
  H  H22  1  0.60200000  0.55881000  0.30943000  1.0
  H  H23  1  0.39800000  0.44118000  0.69057000  1.0
  H  H24  1  0.69810000  0.68277000  0.40470000  1.0
  H  H25  1  0.30190000  0.31723000  0.59531000  1.0
  H  H26  1  0.84578000  0.57781000  0.27873000  1.0
  H  H27  1  0.15423000  0.42219000  0.72127000  1.0
  C  C28  1  0.81648000  0.43556000  0.63828000  1.0
  C  C29  1  0.18352000  0.56445000  0.36172000  1.0
  C  C30  1  0.76422000  0.26978000  0.17044000  1.0
  C  C31  1  0.23580000  0.73022000  0.82958000  1.0
  C  C32  1  0.29718000  0.00181000  0.35257000  1.0
  C  C33  1  0.70281000  0.99819000  0.64744000  1.0
  C  C34  1  0.47008000  0.91015000  0.34786000  1.0
  C  C35  1  0.52991000  0.08985000  0.65214000  1.0
  C  C36  1  0.54136000  0.84975000  0.20760000  1.0
  C  C37  1  0.45864000  0.15025000  0.79240000  1.0
  C  C38  1  0.76734000  0.70904000  0.04959000  1.0
  C  C39  1  0.23267000  0.29096000  0.95040000  1.0
  C  C40  1  0.87337000  0.88500000  0.18540000  1.0
  C  C41  1  0.12663000  0.11500000  0.81460000  1.0
  C  C42  1  0.71615000  0.63821000  0.30431000  1.0
  C  C43  1  0.28385000  0.36179000  0.69569000  1.0
  S  S44  1  0.71327000  0.58046000  0.71146000  1.0
  S  S45  1  0.28674000  0.41954000  0.28855000  1.0
  S  S46  1  0.69802000  0.28216000  0.02863000  1.0
  S  S47  1  0.30196000  0.71785000  0.97138000  1.0
  N  N48  1  0.88717000  0.32594000  0.59026000  1.0
  N  N49  1  0.11283000  0.67406000  0.40974000  1.0
  N  N50  1  0.81124000  0.26162000  0.27631000  1.0
  N  N51  1  0.18876000  0.73839000  0.72367000  1.0
  N  N52  1  0.72433000  0.77072000  0.18861000  1.0
  N  N53  1  0.27567000  0.22928000  0.81139000  1.0
  O  O54  1  0.25203000  0.05243000  0.24223000  1.0
  O  O55  1  0.74796000  0.94757000  0.75775000  1.0
  O  O56  1  0.20215000  0.02866000  0.47695000  1.0
  O  O57  1  0.79785000  0.97134000  0.52304000  1.0
