# generated using pymatgen
data_AgH21C28(NO)2
_symmetry_space_group_name_H-M   'P 1'
_cell_length_a   7.68109000
_cell_length_b   10.44300000
_cell_length_c   30.09910000
_cell_angle_alpha   89.99930000
_cell_angle_beta   90.00000000
_cell_angle_gamma   89.99970000
_symmetry_Int_Tables_number   1
_chemical_formula_structural   AgH21C28(NO)2
_chemical_formula_sum   'Ag4 H84 C112 N8 O8'
_cell_volume   2414.35785591
_cell_formula_units_Z   4
loop_
 _symmetry_equiv_pos_site_id
 _symmetry_equiv_pos_as_xyz
  1  'x, y, z'
loop_
 _atom_site_type_symbol
 _atom_site_label
 _atom_site_symmetry_multiplicity
 _atom_site_fract_x
 _atom_site_fract_y
 _atom_site_fract_z
 _atom_site_occupancy
  Ag  Ag0  1  0.47013000  0.61245000  0.48940000  1.0
  Ag  Ag1  1  0.97014000  0.38755000  0.51060000  1.0
  Ag  Ag2  1  0.97015000  0.88754000  0.98940000  1.0
  Ag  Ag3  1  0.47015000  0.11246000  0.01060000  1.0
  H  H4  1  0.54294000  0.81358000  0.87946000  1.0
  H  H5  1  0.04294000  0.18642000  0.12054000  1.0
  H  H6  1  0.04293000  0.68642000  0.37947000  1.0
  H  H7  1  0.54294000  0.31358000  0.62053000  1.0
  H  H8  1  0.55536000  0.78477000  0.10178000  1.0
  H  H9  1  0.05537000  0.21523000  0.89822000  1.0
  H  H10  1  0.05537000  0.71522000  0.60178000  1.0
  H  H11  1  0.55536000  0.28477000  0.39822000  1.0
  H  H12  1  0.55168000  0.78615000  0.18428000  1.0
  H  H13  1  0.05171000  0.21385000  0.81572000  1.0
  H  H14  1  0.05171000  0.71384000  0.68428000  1.0
  H  H15  1  0.55169000  0.28614000  0.31572000  1.0
  H  H16  1  0.09392000  0.68674000  0.52571000  1.0
  H  H17  1  0.59393000  0.31326000  0.47429000  1.0
  H  H18  1  0.59394000  0.81325000  0.02571000  1.0
  H  H19  1  0.09394000  0.18676000  0.97429000  1.0
  H  H20  1  0.07954000  0.81887000  0.48791000  1.0
  H  H21  1  0.57955000  0.18113000  0.51209000  1.0
  H  H22  1  0.57955000  0.68112000  0.98791000  1.0
  H  H23  1  0.07954000  0.31889000  0.01210000  1.0
  H  H24  1  0.09363000  0.65734000  0.46849000  1.0
  H  H25  1  0.59364000  0.34267000  0.53151000  1.0
  H  H26  1  0.59365000  0.84266000  0.96849000  1.0
  H  H27  1  0.09365000  0.15735000  0.03151000  1.0
  H  H28  1  0.55130000  0.82200000  0.79688000  1.0
  H  H29  1  0.05130000  0.17801000  0.20311000  1.0
  H  H30  1  0.05129000  0.67798000  0.29689000  1.0
  H  H31  1  0.55129000  0.32201000  0.70311000  1.0
  H  H32  1  0.57755000  0.78536000  0.32886000  1.0
  H  H33  1  0.07757000  0.21465000  0.67113000  1.0
  H  H34  1  0.07757000  0.71466000  0.82886000  1.0
  H  H35  1  0.57757000  0.28534000  0.17114000  1.0
  H  H36  1  0.58032000  0.78324000  0.41197000  1.0
  H  H37  1  0.08033000  0.21676000  0.58803000  1.0
  H  H38  1  0.08035000  0.71677000  0.91196000  1.0
  H  H39  1  0.58034000  0.28324000  0.08804000  1.0
  H  H40  1  0.58096000  0.81625000  0.64574000  1.0
  H  H41  1  0.08095000  0.18376000  0.35426000  1.0
  H  H42  1  0.08096000  0.68374000  0.14574000  1.0
  H  H43  1  0.58096000  0.31626000  0.85426000  1.0
  H  H44  1  0.57222000  0.80509000  0.56280000  1.0
  H  H45  1  0.07222000  0.19491000  0.43720000  1.0
  H  H46  1  0.07223000  0.69490000  0.06280000  1.0
  H  H47  1  0.57224000  0.30510000  0.93720000  1.0
  H  H48  1  0.41315000  0.60662000  0.06001000  1.0
  H  H49  1  0.91315000  0.39338000  0.93999000  1.0
  H  H50  1  0.91315000  0.89337000  0.56001000  1.0
  H  H51  1  0.41314000  0.10662000  0.44000000  1.0
  H  H52  1  0.27590000  0.45713000  0.41727000  1.0
  H  H53  1  0.77589000  0.54286000  0.58273000  1.0
  H  H54  1  0.77590000  0.04286000  0.91727000  1.0
  H  H55  1  0.27590000  0.95714000  0.08273000  1.0
  H  H56  1  0.25907000  0.47603000  0.64805000  1.0
  H  H57  1  0.75906000  0.52398000  0.35195000  1.0
  H  H58  1  0.75908000  0.02396000  0.14804000  1.0
  H  H59  1  0.25908000  0.97604000  0.85196000  1.0
  H  H60  1  0.25917000  0.44369000  0.33403000  1.0
  H  H61  1  0.75917000  0.55631000  0.66597000  1.0
  H  H62  1  0.75916000  0.05631000  0.83403000  1.0
  H  H63  1  0.25916000  0.94369000  0.16597000  1.0
  H  H64  1  0.25888000  0.43340000  0.18385000  1.0
  H  H65  1  0.75892000  0.56661000  0.81615000  1.0
  H  H66  1  0.75890000  0.06659000  0.68385000  1.0
  H  H67  1  0.25888000  0.93340000  0.31616000  1.0
  H  H68  1  0.26294000  0.45655000  0.87344000  1.0
  H  H69  1  0.76292000  0.54346000  0.12656000  1.0
  H  H70  1  0.76293000  0.04346000  0.37343000  1.0
  H  H71  1  0.26295000  0.95654000  0.62657000  1.0
  H  H72  1  0.39333000  0.63262000  0.91802000  1.0
  H  H73  1  0.89333000  0.36738000  0.08198000  1.0
  H  H74  1  0.89332000  0.86738000  0.41802000  1.0
  H  H75  1  0.39333000  0.13262000  0.58198000  1.0
  H  H76  1  0.26458000  0.43189000  0.10149000  1.0
  H  H77  1  0.76459000  0.56811000  0.89850000  1.0
  H  H78  1  0.76459000  0.06811000  0.60149000  1.0
  H  H79  1  0.26457000  0.93189000  0.39851000  1.0
  H  H80  1  0.27608000  0.46199000  0.79097000  1.0
  H  H81  1  0.77605000  0.53802000  0.20902000  1.0
  H  H82  1  0.77607000  0.03800000  0.29097000  1.0
  H  H83  1  0.27609000  0.96199000  0.70903000  1.0
  H  H84  1  0.26238000  0.48114000  0.56487000  1.0
  H  H85  1  0.76237000  0.51886000  0.43512000  1.0
  H  H86  1  0.76241000  0.01886000  0.06487000  1.0
  H  H87  1  0.26241000  0.98115000  0.93513000  1.0
  C  C88  1  0.48417000  0.73657000  0.86015000  1.0
  C  C89  1  0.98417000  0.26343000  0.13985000  1.0
  C  C90  1  0.98416000  0.76342000  0.36015000  1.0
  C  C91  1  0.48417000  0.23657000  0.63985000  1.0
  C  C92  1  0.49066000  0.70757000  0.11965000  1.0
  C  C93  1  0.99068000  0.29242000  0.88035000  1.0
  C  C94  1  0.99068000  0.79242000  0.61965000  1.0
  C  C95  1  0.49067000  0.20757000  0.38035000  1.0
  C  C96  1  0.84089000  0.70630000  0.49439000  1.0
  C  C97  1  0.34089000  0.29370000  0.50561000  1.0
  C  C98  1  0.34090000  0.79371000  0.99439000  1.0
  C  C99  1  0.84090000  0.20630000  0.00561000  1.0
  C  C100  1  0.48853000  0.70918000  0.16589000  1.0
  C  C101  1  0.98856000  0.29082000  0.83411000  1.0
  C  C102  1  0.98856000  0.79081000  0.66589000  1.0
  C  C103  1  0.48853000  0.20917000  0.33411000  1.0
  C  C104  1  0.03824000  0.72010000  0.49423000  1.0
  C  C105  1  0.53825000  0.27990000  0.50577000  1.0
  C  C106  1  0.53826000  0.77989000  0.99423000  1.0
  C  C107  1  0.03826000  0.22011000  0.00577000  1.0
  C  C108  1  0.48941000  0.74195000  0.81395000  1.0
  C  C109  1  0.98940000  0.25806000  0.18605000  1.0
  C  C110  1  0.98940000  0.75804000  0.31395000  1.0
  C  C111  1  0.48940000  0.24195000  0.68605000  1.0
  C  C112  1  0.50832000  0.71094000  0.34699000  1.0
  C  C113  1  0.00833000  0.28906000  0.65301000  1.0
  C  C114  1  0.00833000  0.78906000  0.84699000  1.0
  C  C115  1  0.50833000  0.21093000  0.15302000  1.0
  C  C116  1  0.50944000  0.71094000  0.39309000  1.0
  C  C117  1  0.00945000  0.28906000  0.60691000  1.0
  C  C118  1  0.00947000  0.78906000  0.89309000  1.0
  C  C119  1  0.50946000  0.21094000  0.10691000  1.0
  C  C120  1  0.50887000  0.74032000  0.62920000  1.0
  C  C121  1  0.00886000  0.25969000  0.37080000  1.0
  C  C122  1  0.00887000  0.75967000  0.12920000  1.0
  C  C123  1  0.50888000  0.24033000  0.87080000  1.0
  C  C124  1  0.50349000  0.73496000  0.58315000  1.0
  C  C125  1  0.00349000  0.26505000  0.41685000  1.0
  C  C126  1  0.00350000  0.76503000  0.08315000  1.0
  C  C127  1  0.50351000  0.23497000  0.91685000  1.0
  C  C128  1  0.41119000  0.60773000  0.09623000  1.0
  C  C129  1  0.91120000  0.39227000  0.90377000  1.0
  C  C130  1  0.91120000  0.89226000  0.59623000  1.0
  C  C131  1  0.41118000  0.10773000  0.40378000  1.0
  C  C132  1  0.41698000  0.61410000  0.32412000  1.0
  C  C133  1  0.91699000  0.38590000  0.67588000  1.0
  C  C134  1  0.91698000  0.88590000  0.82412000  1.0
  C  C135  1  0.41698000  0.11409000  0.17588000  1.0
  C  C136  1  0.40537000  0.60982000  0.18961000  1.0
  C  C137  1  0.90541000  0.39018000  0.81039000  1.0
  C  C138  1  0.90539000  0.89017000  0.68961000  1.0
  C  C139  1  0.40537000  0.10981000  0.31039000  1.0
  C  C140  1  0.41166000  0.61117000  0.27721000  1.0
  C  C141  1  0.91168000  0.38884000  0.72279000  1.0
  C  C142  1  0.91164000  0.88883000  0.77721000  1.0
  C  C143  1  0.41164000  0.11116000  0.22279000  1.0
  C  C144  1  0.41408000  0.64263000  0.78854000  1.0
  C  C145  1  0.91407000  0.35738000  0.21146000  1.0
  C  C146  1  0.91407000  0.85736000  0.28854000  1.0
  C  C147  1  0.41408000  0.14263000  0.71147000  1.0
  C  C148  1  0.40655000  0.61011000  0.23666000  1.0
  C  C149  1  0.90659000  0.38990000  0.76334000  1.0
  C  C150  1  0.90656000  0.88988000  0.73665000  1.0
  C  C151  1  0.40655000  0.11010000  0.26335000  1.0
  C  C152  1  0.42031000  0.64774000  0.70102000  1.0
  C  C153  1  0.92030000  0.35227000  0.29898000  1.0
  C  C154  1  0.92029000  0.85223000  0.20102000  1.0
  C  C155  1  0.42031000  0.14775000  0.79898000  1.0
  C  C156  1  0.41832000  0.64632000  0.74158000  1.0
  C  C157  1  0.91831000  0.35369000  0.25842000  1.0
  C  C158  1  0.91830000  0.85366000  0.24158000  1.0
  C  C159  1  0.41832000  0.14633000  0.75842000  1.0
  C  C160  1  0.33902000  0.52787000  0.39596000  1.0
  C  C161  1  0.83901000  0.47212000  0.60403000  1.0
  C  C162  1  0.83902000  0.97213000  0.89597000  1.0
  C  C163  1  0.33902000  0.02788000  0.10404000  1.0
  C  C164  1  0.32930000  0.55103000  0.63047000  1.0
  C  C165  1  0.82929000  0.44898000  0.36953000  1.0
  C  C166  1  0.82931000  0.94896000  0.13047000  1.0
  C  C167  1  0.32931000  0.05104000  0.86953000  1.0
  C  C168  1  0.41964000  0.64677000  0.65413000  1.0
  C  C169  1  0.91963000  0.35324000  0.34586000  1.0
  C  C170  1  0.91963000  0.85321000  0.15413000  1.0
  C  C171  1  0.41964000  0.14678000  0.84587000  1.0
  C  C172  1  0.33102000  0.52080000  0.34998000  1.0
  C  C173  1  0.83102000  0.47920000  0.65001000  1.0
  C  C174  1  0.83101000  0.97920000  0.84998000  1.0
  C  C175  1  0.33101000  0.02080000  0.15002000  1.0
  C  C176  1  0.32417000  0.50992000  0.16577000  1.0
  C  C177  1  0.82421000  0.49009000  0.83423000  1.0
  C  C178  1  0.82420000  0.99008000  0.66577000  1.0
  C  C179  1  0.32417000  0.00991000  0.33424000  1.0
  C  C180  1  0.32792000  0.53578000  0.85677000  1.0
  C  C181  1  0.82791000  0.46421000  0.14323000  1.0
  C  C182  1  0.82792000  0.96421000  0.35676000  1.0
  C  C183  1  0.32793000  0.03578000  0.64324000  1.0
  C  C184  1  0.40302000  0.63416000  0.88181000  1.0
  C  C185  1  0.90302000  0.36584000  0.11819000  1.0
  C  C186  1  0.90301000  0.86584000  0.38181000  1.0
  C  C187  1  0.40302000  0.13416000  0.61819000  1.0
  C  C188  1  0.32784000  0.50947000  0.11951000  1.0
  C  C189  1  0.82786000  0.49052000  0.88049000  1.0
  C  C190  1  0.82785000  0.99052000  0.61951000  1.0
  C  C191  1  0.32784000  0.00947000  0.38050000  1.0
  C  C192  1  0.33385000  0.53878000  0.81056000  1.0
  C  C193  1  0.83383000  0.46123000  0.18944000  1.0
  C  C194  1  0.83385000  0.96122000  0.31056000  1.0
  C  C195  1  0.33386000  0.03878000  0.68944000  1.0
  C  C196  1  0.33085000  0.55327000  0.58442000  1.0
  C  C197  1  0.83085000  0.44673000  0.41558000  1.0
  C  C198  1  0.83087000  0.94672000  0.08442000  1.0
  C  C199  1  0.33088000  0.05328000  0.91559000  1.0
  N  N200  1  0.42634000  0.62143000  0.41757000  1.0
  N  N201  1  0.92634000  0.37857000  0.58243000  1.0
  N  N202  1  0.92635000  0.87857000  0.91757000  1.0
  N  N203  1  0.42634000  0.12143000  0.08244000  1.0
  N  N204  1  0.41587000  0.64353000  0.56074000  1.0
  N  N205  1  0.91587000  0.35647000  0.43926000  1.0
  N  N206  1  0.91589000  0.85647000  0.06074000  1.0
  N  N207  1  0.41590000  0.14354000  0.93926000  1.0
  O  O208  1  0.78142000  0.59743000  0.50779000  1.0
  O  O209  1  0.28143000  0.40257000  0.49221000  1.0
  O  O210  1  0.28144000  0.90257000  0.00779000  1.0
  O  O211  1  0.78144000  0.09743000  0.99221000  1.0
  O  O212  1  0.74729000  0.79766000  0.48096000  1.0
  O  O213  1  0.24730000  0.20234000  0.51904000  1.0
  O  O214  1  0.24730000  0.70235000  0.98096000  1.0
  O  O215  1  0.74730000  0.29766000  0.01904000  1.0
