# generated using pymatgen
data_SmH10C9S3N3O8
_symmetry_space_group_name_H-M   'P 1'
_cell_length_a   8.58998000
_cell_length_b   8.73770000
_cell_length_c   11.39530000
_cell_angle_alpha   105.44400000
_cell_angle_beta   96.91660000
_cell_angle_gamma   94.49360000
_symmetry_Int_Tables_number   1
_chemical_formula_structural   SmH10C9S3N3O8
_chemical_formula_sum   'Sm2 H20 C18 S6 N6 O16'
_cell_volume   812.94298455
_cell_formula_units_Z   2
loop_
 _symmetry_equiv_pos_site_id
 _symmetry_equiv_pos_as_xyz
  1  'x, y, z'
loop_
 _atom_site_type_symbol
 _atom_site_label
 _atom_site_symmetry_multiplicity
 _atom_site_fract_x
 _atom_site_fract_y
 _atom_site_fract_z
 _atom_site_occupancy
  Sm  Sm0  1  0.54666000  0.16395000  0.41295000  1.0
  Sm  Sm1  1  0.45334000  0.83604000  0.58705000  1.0
  H  H2  1  0.02243000  0.91612000  0.21936000  1.0
  H  H3  1  0.97758000  0.08389000  0.78064000  1.0
  H  H4  1  0.94743000  0.01223000  0.35388000  1.0
  H  H5  1  0.05257000  0.98778000  0.64612000  1.0
  H  H6  1  0.56704000  0.73721000  0.15706000  1.0
  H  H7  1  0.43296000  0.26278000  0.84294000  1.0
  H  H8  1  0.37187000  0.79086000  0.16548000  1.0
  H  H9  1  0.62814000  0.20912000  0.83452000  1.0
  H  H10  1  0.63874000  0.27300000  0.06060000  1.0
  H  H11  1  0.36128000  0.72704000  0.93942000  1.0
  H  H12  1  0.60132000  0.06528000  0.98148000  1.0
  H  H13  1  0.39866000  0.93477000  0.01851000  1.0
  H  H14  1  0.76682000  0.41727000  0.33756000  1.0
  H  H15  1  0.23319000  0.58272000  0.66245000  1.0
  H  H16  1  0.70451000  0.51271000  0.46164000  1.0
  H  H17  1  0.29550000  0.48727000  0.53838000  1.0
  H  H18  1  0.25965000  0.27643000  0.33654000  1.0
  H  H19  1  0.74034000  0.72356000  0.66348000  1.0
  H  H20  1  0.37082000  0.44329000  0.35797000  1.0
  H  H21  1  0.62917000  0.55670000  0.64204000  1.0
  C  C22  1  0.98332000  0.58537000  0.22494000  1.0
  C  C23  1  0.01669000  0.41464000  0.77506000  1.0
  C  C24  1  0.18814000  0.49161000  0.13363000  1.0
  C  C25  1  0.81186000  0.50839000  0.86637000  1.0
  C  C26  1  0.96629000  0.32551000  0.11539000  1.0
  C  C27  1  0.03370000  0.67449000  0.88459000  1.0
  C  C28  1  0.01450000  0.91360000  0.31419000  1.0
  C  C29  1  0.98550000  0.08641000  0.68580000  1.0
  C  C30  1  0.18012000  0.94299000  0.38701000  1.0
  C  C31  1  0.81987000  0.05701000  0.61299000  1.0
  C  C32  1  0.45402000  0.70866000  0.18720000  1.0
  C  C33  1  0.54599000  0.29132000  0.81280000  1.0
  C  C34  1  0.47976000  0.74058000  0.32543000  1.0
  C  C35  1  0.52026000  0.25941000  0.67457000  1.0
  C  C36  1  0.66993000  0.15385000  0.06211000  1.0
  C  C37  1  0.33006000  0.84618000  0.93789000  1.0
  C  C38  1  0.62563000  0.12173000  0.17841000  1.0
  C  C39  1  0.37436000  0.87828000  0.82159000  1.0
  S  S40  1  0.38214000  0.50627000  0.10230000  1.0
  S  S41  1  0.61787000  0.49372000  0.89771000  1.0
  S  S42  1  0.88958000  0.73676000  0.31106000  1.0
  S  S43  1  0.11042000  0.26324000  0.68893000  1.0
  S  S44  1  0.87007000  0.13720000  0.03736000  1.0
  S  S45  1  0.12992000  0.86281000  0.96264000  1.0
  N  N46  1  0.12694000  0.61965000  0.19685000  1.0
  N  N47  1  0.87307000  0.38036000  0.80315000  1.0
  N  N48  1  0.11312000  0.34386000  0.08703000  1.0
  N  N49  1  0.88687000  0.65616000  0.91294000  1.0
  N  N50  1  0.89907000  0.43835000  0.19187000  1.0
  N  N51  1  0.10094000  0.56166000  0.80812000  1.0
  O  O52  1  0.27111000  0.04823000  0.36152000  1.0
  O  O53  1  0.72890000  0.95176000  0.63849000  1.0
  O  O54  1  0.21557000  0.86869000  0.46602000  1.0
  O  O55  1  0.78442000  0.13130000  0.53399000  1.0
  O  O56  1  0.53694000  0.88222000  0.38917000  1.0
  O  O57  1  0.46308000  0.11776000  0.61083000  1.0
  O  O58  1  0.44320000  0.63614000  0.37873000  1.0
  O  O59  1  0.55681000  0.36385000  0.62127000  1.0
  O  O60  1  0.72838000  0.09964000  0.26026000  1.0
  O  O61  1  0.27159000  0.90034000  0.73972000  1.0
  O  O62  1  0.47967000  0.12391000  0.19167000  1.0
  O  O63  1  0.52032000  0.87611000  0.80833000  1.0
  O  O64  1  0.70198000  0.40764000  0.40125000  1.0
  O  O65  1  0.29802000  0.59236000  0.59875000  1.0
  O  O66  1  0.34187000  0.35391000  0.39320000  1.0
  O  O67  1  0.65813000  0.64609000  0.60682000  1.0
