# generated using pymatgen
data_CuH14C18S2(NO)4
_symmetry_space_group_name_H-M   'P 1'
_cell_length_a   8.65757000
_cell_length_b   9.29004000
_cell_length_c   12.56360000
_cell_angle_alpha   90.00010000
_cell_angle_beta   90.00000000
_cell_angle_gamma   112.32300000
_symmetry_Int_Tables_number   1
_chemical_formula_structural   CuH14C18S2(NO)4
_chemical_formula_sum   'Cu2 H28 C36 S4 N8 O8'
_cell_volume   934.75186591
_cell_formula_units_Z   2
loop_
 _symmetry_equiv_pos_site_id
 _symmetry_equiv_pos_as_xyz
  1  'x, y, z'
loop_
 _atom_site_type_symbol
 _atom_site_label
 _atom_site_symmetry_multiplicity
 _atom_site_fract_x
 _atom_site_fract_y
 _atom_site_fract_z
 _atom_site_occupancy
  Cu  Cu0  1  0.50000000  0.50000000  0.50000000  1.0
  Cu  Cu1  1  0.00000000  0.50000000  0.00000000  1.0
  H  H2  1  0.01998000  0.39506000  0.39222000  1.0
  H  H3  1  0.48003000  0.60493000  0.89222000  1.0
  H  H4  1  0.98002000  0.60493000  0.60778000  1.0
  H  H5  1  0.51998000  0.39506000  0.10778000  1.0
  H  H6  1  0.25404000  0.82161000  0.38176000  1.0
  H  H7  1  0.24596000  0.17839000  0.88177000  1.0
  H  H8  1  0.74596000  0.17839000  0.61824000  1.0
  H  H9  1  0.75404000  0.82161000  0.11824000  1.0
  H  H10  1  0.05426000  0.66618000  0.39986000  1.0
  H  H11  1  0.44574000  0.33382000  0.89986000  1.0
  H  H12  1  0.94574000  0.33382000  0.60014000  1.0
  H  H13  1  0.55426000  0.66618000  0.10014000  1.0
  H  H14  1  0.71218000  0.16845000  0.01819000  1.0
  H  H15  1  0.78782000  0.83155000  0.51819000  1.0
  H  H16  1  0.28782000  0.83155000  0.98181000  1.0
  H  H17  1  0.21218000  0.16845000  0.48181000  1.0
  H  H18  1  0.73285000  0.09062000  0.41491000  1.0
  H  H19  1  0.76715000  0.90938000  0.91491000  1.0
  H  H20  1  0.26715000  0.90938000  0.58509000  1.0
  H  H21  1  0.23285000  0.09062000  0.08509000  1.0
  H  H22  1  0.52686000  0.89013000  0.30223000  1.0
  H  H23  1  0.97314000  0.10987000  0.80223000  1.0
  H  H24  1  0.47314000  0.10987000  0.69777000  1.0
  H  H25  1  0.02686000  0.89013000  0.19777000  1.0
  H  H26  1  0.51044000  0.92919000  0.10770000  1.0
  H  H27  1  0.98956000  0.07081000  0.60770000  1.0
  H  H28  1  0.48955000  0.07081000  0.89230000  1.0
  H  H29  1  0.01044000  0.92919000  0.39230000  1.0
  C  C30  1  0.26807000  0.60855000  0.44499000  1.0
  C  C31  1  0.23193000  0.39145000  0.94499000  1.0
  C  C32  1  0.73193000  0.39145000  0.55500000  1.0
  C  C33  1  0.76807000  0.60855000  0.05501000  1.0
  C  C34  1  0.03235000  0.46829000  0.23213000  1.0
  C  C35  1  0.46765000  0.53171000  0.73213000  1.0
  C  C36  1  0.96764000  0.53171000  0.76787000  1.0
  C  C37  1  0.53235000  0.46829000  0.26787000  1.0
  C  C38  1  0.18524000  0.69541000  0.37757000  1.0
  C  C39  1  0.31476000  0.30459000  0.87757000  1.0
  C  C40  1  0.81476000  0.30459000  0.62243000  1.0
  C  C41  1  0.68524000  0.69541000  0.12243000  1.0
  C  C42  1  0.83873000  0.24113000  0.27881000  1.0
  C  C43  1  0.66127000  0.75887000  0.77881000  1.0
  C  C44  1  0.16126000  0.75887000  0.72119000  1.0
  C  C45  1  0.33874000  0.24113000  0.22119000  1.0
  C  C46  1  0.83326000  0.26266000  0.16737000  1.0
  C  C47  1  0.66666667  0.73734000  0.66737000  1.0
  C  C48  1  0.16673000  0.73734000  0.83263000  1.0
  C  C49  1  0.33327000  0.26265000  0.33263000  1.0
  C  C50  1  0.71563000  0.15089000  0.10373000  1.0
  C  C51  1  0.78437000  0.84911000  0.60373000  1.0
  C  C52  1  0.28437000  0.84911000  0.89627000  1.0
  C  C53  1  0.21563000  0.15089000  0.39627000  1.0
  C  C54  1  0.72858000  0.10809000  0.32940000  1.0
  C  C55  1  0.77142000  0.89191000  0.82940000  1.0
  C  C56  1  0.27142000  0.89191000  0.67060000  1.0
  C  C57  1  0.22858000  0.10809000  0.17060000  1.0
  C  C58  1  0.61159000  0.99711000  0.26530000  1.0
  C  C59  1  0.88841000  0.00289000  0.76530000  1.0
  C  C60  1  0.38840000  0.00289000  0.73470000  1.0
  C  C61  1  0.11159000  0.99711000  0.23470000  1.0
  C  C62  1  0.60475000  0.01863000  0.15457000  1.0
  C  C63  1  0.89524000  0.98137000  0.65457000  1.0
  C  C64  1  0.39524000  0.98137000  0.84543000  1.0
  C  C65  1  0.10476000  0.01863000  0.34543000  1.0
  S  S66  1  0.19512000  0.64831000  0.23764000  1.0
  S  S67  1  0.30488000  0.35169000  0.73764000  1.0
  S  S68  1  0.80487000  0.35169000  0.76236000  1.0
  S  S69  1  0.69512000  0.64831000  0.26236000  1.0
  N  N70  1  0.95499000  0.40632000  0.14129000  1.0
  N  N71  1  0.54500000  0.59367000  0.64129000  1.0
  N  N72  1  0.04500000  0.59368000  0.85871000  1.0
  N  N73  1  0.45500000  0.40632000  0.35871000  1.0
  N  N74  1  0.96671000  0.37264000  0.31658000  1.0
  N  N75  1  0.53329000  0.62735000  0.81658000  1.0
  N  N76  1  0.03329000  0.62735000  0.68342000  1.0
  N  N77  1  0.46671000  0.37264000  0.18342000  1.0
  O  O78  1  0.17991000  0.47822000  0.48483000  1.0
  O  O79  1  0.32009000  0.52178000  0.98483000  1.0
  O  O80  1  0.82009000  0.52178000  0.51517000  1.0
  O  O81  1  0.67991000  0.47822000  0.01517000  1.0
  O  O82  1  0.42748000  0.67225000  0.45115000  1.0
  O  O83  1  0.07252000  0.32775000  0.95115000  1.0
  O  O84  1  0.57252000  0.32775000  0.54885000  1.0
  O  O85  1  0.92748000  0.67225000  0.04885000  1.0
