# generated using pymatgen
data_HoH30C30(SO3)3
_symmetry_space_group_name_H-M   'P 1'
_cell_length_a   11.77780000
_cell_length_b   11.77790000
_cell_length_c   11.77790000
_cell_angle_alpha   79.79430000
_cell_angle_beta   79.79510000
_cell_angle_gamma   79.79470000
_symmetry_Int_Tables_number   1
_chemical_formula_structural   HoH30C30(SO3)3
_chemical_formula_sum   'Ho2 H60 C60 S6 O18'
_cell_volume   1564.48957437
_cell_formula_units_Z   2
loop_
 _symmetry_equiv_pos_site_id
 _symmetry_equiv_pos_as_xyz
  1  'x, y, z'
loop_
 _atom_site_type_symbol
 _atom_site_label
 _atom_site_symmetry_multiplicity
 _atom_site_fract_x
 _atom_site_fract_y
 _atom_site_fract_z
 _atom_site_occupancy
  Ho  Ho0  1  0.82652000  0.82652000  0.82652000  1.0
  Ho  Ho1  1  0.17348000  0.17348000  0.17348000  1.0
  H  H2  1  0.72418000  0.76429000  0.55679000  1.0
  H  H3  1  0.76430000  0.55679000  0.72418000  1.0
  H  H4  1  0.55679000  0.72418000  0.76429000  1.0
  H  H5  1  0.27582000  0.23571000  0.44321000  1.0
  H  H6  1  0.23570000  0.44322000  0.27582000  1.0
  H  H7  1  0.44321000  0.27582000  0.23571000  1.0
  H  H8  1  0.70774000  0.62603000  0.42884000  1.0
  H  H9  1  0.62603000  0.42884000  0.70775000  1.0
  H  H10  1  0.42884000  0.70774000  0.62603000  1.0
  H  H11  1  0.29226000  0.37397000  0.57116000  1.0
  H  H12  1  0.37397000  0.57116000  0.29225000  1.0
  H  H13  1  0.57116000  0.29226000  0.37398000  1.0
  H  H14  1  0.55905000  0.67523000  0.29292000  1.0
  H  H15  1  0.67523000  0.29292000  0.55907000  1.0
  H  H16  1  0.29292000  0.55905000  0.67523000  1.0
  H  H17  1  0.44095000  0.32477000  0.70708000  1.0
  H  H18  1  0.32478000  0.70708000  0.44094000  1.0
  H  H19  1  0.70708000  0.44095000  0.32477000  1.0
  H  H20  1  0.42226000  0.86032000  0.29190000  1.0
  H  H21  1  0.86031000  0.29189000  0.42228000  1.0
  H  H22  1  0.29189000  0.42227000  0.86032000  1.0
  H  H23  1  0.57773000  0.13968000  0.70810000  1.0
  H  H24  1  0.13969000  0.70810000  0.57772000  1.0
  H  H25  1  0.70811000  0.57773000  0.13969000  1.0
  H  H26  1  0.62168000  0.93624000  0.12987000  1.0
  H  H27  1  0.93624000  0.12987000  0.62168000  1.0
  H  H28  1  0.12987000  0.62169000  0.93624000  1.0
  H  H29  1  0.37831000  0.06376000  0.87013000  1.0
  H  H30  1  0.06376000  0.87013000  0.37832000  1.0
  H  H31  1  0.87012000  0.37832000  0.06376000  1.0
  H  H32  1  0.54204000  0.08090000  0.13586000  1.0
  H  H33  1  0.08090000  0.13586000  0.54204000  1.0
  H  H34  1  0.13586000  0.54203000  0.08091000  1.0
  H  H35  1  0.45796000  0.91910000  0.86415000  1.0
  H  H36  1  0.91910000  0.86414000  0.45796000  1.0
  H  H37  1  0.86414000  0.45796000  0.91909000  1.0
  H  H38  1  0.70011000  0.05571000  0.12736000  1.0
  H  H39  1  0.05572000  0.12736000  0.70011000  1.0
  H  H40  1  0.12736000  0.70011000  0.05572000  1.0
  H  H41  1  0.29988000  0.94429000  0.87264000  1.0
  H  H42  1  0.94429000  0.87264000  0.29989000  1.0
  H  H43  1  0.87263000  0.29989000  0.94428000  1.0
  H  H44  1  0.71866000  0.21898000  0.97145000  1.0
  H  H45  1  0.21898000  0.97144000  0.71866000  1.0
  H  H46  1  0.97145000  0.71867000  0.21897000  1.0
  H  H47  1  0.28134000  0.78102000  0.02856000  1.0
  H  H48  1  0.78102000  0.02855000  0.28134000  1.0
  H  H49  1  0.02855000  0.28133000  0.78103000  1.0
  H  H50  1  0.56919000  0.25293000  0.94222000  1.0
  H  H51  1  0.25293000  0.94222000  0.56920000  1.0
  H  H52  1  0.94222000  0.56921000  0.25292000  1.0
  H  H53  1  0.43080000  0.74708000  0.05778000  1.0
  H  H54  1  0.74708000  0.05778000  0.43081000  1.0
  H  H55  1  0.05778000  0.43080000  0.74707000  1.0
  H  H56  1  0.68780000  0.22496000  0.82587000  1.0
  H  H57  1  0.22496000  0.82586000  0.68780000  1.0
  H  H58  1  0.82586000  0.68781000  0.22495000  1.0
  H  H59  1  0.31220000  0.77504000  0.17414000  1.0
  H  H60  1  0.77504000  0.17414000  0.31220000  1.0
  H  H61  1  0.17414000  0.31219000  0.77505000  1.0
  C  C62  1  0.67565000  0.94693000  0.65624000  1.0
  C  C63  1  0.94695000  0.65623000  0.67565000  1.0
  C  C64  1  0.65624000  0.67566000  0.94693000  1.0
  C  C65  1  0.32435000  0.05307000  0.34376000  1.0
  C  C66  1  0.05306000  0.34376000  0.32435000  1.0
  C  C67  1  0.34376000  0.32435000  0.05307000  1.0
  C  C68  1  0.58600000  0.97378000  0.57489000  1.0
  C  C69  1  0.97379000  0.57490000  0.58599000  1.0
  C  C70  1  0.57490000  0.58599000  0.97378000  1.0
  C  C71  1  0.41401000  0.02622000  0.42511000  1.0
  C  C72  1  0.02622000  0.42510000  0.41400000  1.0
  C  C73  1  0.42510000  0.41401000  0.02622000  1.0
  C  C74  1  0.57978000  0.89345000  0.50141000  1.0
  C  C75  1  0.89345000  0.50140000  0.57978000  1.0
  C  C76  1  0.50141000  0.57978000  0.89345000  1.0
  C  C77  1  0.42022000  0.10655000  0.49860000  1.0
  C  C78  1  0.10655000  0.49859000  0.42022000  1.0
  C  C79  1  0.49859000  0.42022000  0.10655000  1.0
  C  C80  1  0.65770000  0.78567000  0.49939000  1.0
  C  C81  1  0.78568000  0.49939000  0.65771000  1.0
  C  C82  1  0.49939000  0.65770000  0.78567000  1.0
  C  C83  1  0.34230000  0.21433000  0.50061000  1.0
  C  C84  1  0.21432000  0.50061000  0.34229000  1.0
  C  C85  1  0.50061000  0.34230000  0.21433000  1.0
  C  C86  1  0.64931000  0.70908000  0.42678000  1.0
  C  C87  1  0.70909000  0.42679000  0.64932000  1.0
  C  C88  1  0.42678000  0.64931000  0.70908000  1.0
  C  C89  1  0.35069000  0.29092000  0.57322000  1.0
  C  C90  1  0.29092000  0.57321000  0.35068000  1.0
  C  C91  1  0.57322000  0.35069000  0.29092000  1.0
  C  C92  1  0.56395000  0.73639000  0.35067000  1.0
  C  C93  1  0.73640000  0.35067000  0.56396000  1.0
  C  C94  1  0.35067000  0.56395000  0.73639000  1.0
  C  C95  1  0.43605000  0.26360000  0.64933000  1.0
  C  C96  1  0.26360000  0.64933000  0.43604000  1.0
  C  C97  1  0.64933000  0.43605000  0.26361000  1.0
  C  C98  1  0.48794000  0.83929000  0.34996000  1.0
  C  C99  1  0.83929000  0.34995000  0.48795000  1.0
  C  C100  1  0.34995000  0.48795000  0.83930000  1.0
  C  C101  1  0.51205000  0.16070000  0.65005000  1.0
  C  C102  1  0.16071000  0.65004000  0.51205000  1.0
  C  C103  1  0.65004000  0.51205000  0.16071000  1.0
  C  C104  1  0.49211000  0.92080000  0.42497000  1.0
  C  C105  1  0.92080000  0.42496000  0.49211000  1.0
  C  C106  1  0.42496000  0.49211000  0.92080000  1.0
  C  C107  1  0.50789000  0.07919000  0.57504000  1.0
  C  C108  1  0.07920000  0.57504000  0.50789000  1.0
  C  C109  1  0.57503000  0.50789000  0.07920000  1.0
  C  C110  1  0.62447000  0.02968000  0.10181000  1.0
  C  C111  1  0.02968000  0.10181000  0.62447000  1.0
  C  C112  1  0.10182000  0.62447000  0.02968000  1.0
  C  C113  1  0.37553000  0.97032000  0.89819000  1.0
  C  C114  1  0.97032000  0.89819000  0.37553000  1.0
  C  C115  1  0.89818000  0.37553000  0.97032000  1.0
  C  C116  1  0.65604000  0.20372000  0.91924000  1.0
  C  C117  1  0.20372000  0.91923000  0.65604000  1.0
  C  C118  1  0.91924000  0.65605000  0.20371000  1.0
  C  C119  1  0.34396000  0.79629000  0.08076000  1.0
  C  C120  1  0.79629000  0.08076000  0.34396000  1.0
  C  C121  1  0.08076000  0.34395000  0.79629000  1.0
  S  S122  1  0.64152000  0.05226000  0.94576000  1.0
  S  S123  1  0.05226000  0.94575000  0.64153000  1.0
  S  S124  1  0.94576000  0.64153000  0.05225000  1.0
  S  S125  1  0.35848000  0.94774000  0.05425000  1.0
  S  S126  1  0.94774000  0.05425000  0.35848000  1.0
  S  S127  1  0.05424000  0.35848000  0.94774000  1.0
  O  O128  1  0.65129000  0.87714000  0.75114000  1.0
  O  O129  1  0.87715000  0.75113000  0.65130000  1.0
  O  O130  1  0.75114000  0.65129000  0.87714000  1.0
  O  O131  1  0.34871000  0.12286000  0.24886000  1.0
  O  O132  1  0.12285000  0.24887000  0.34870000  1.0
  O  O133  1  0.24886000  0.34871000  0.12286000  1.0
  O  O134  1  0.76824000  0.99187000  0.63076000  1.0
  O  O135  1  0.99191000  0.63075000  0.76823000  1.0
  O  O136  1  0.63075000  0.76825000  0.99188000  1.0
  O  O137  1  0.23176000  0.00812000  0.36925000  1.0
  O  O138  1  0.00810000  0.36925000  0.23176000  1.0
  O  O139  1  0.36924000  0.23177000  0.00811000  1.0
  O  O140  1  0.76491000  0.99172000  0.90710000  1.0
  O  O141  1  0.99171000  0.90710000  0.76492000  1.0
  O  O142  1  0.90710000  0.76492000  0.99170000  1.0
  O  O143  1  0.23508000  0.00829000  0.09290000  1.0
  O  O144  1  0.00829000  0.09290000  0.23509000  1.0
  O  O145  1  0.09290000  0.23509000  0.00829000  1.0
