# generated using pymatgen
data_CdH18C21S(N2O3)2
_symmetry_space_group_name_H-M   'P 1'
_cell_length_a   9.31388000
_cell_length_b   10.60530000
_cell_length_c   12.46010000
_cell_angle_alpha   102.47300000
_cell_angle_beta   98.15200000
_cell_angle_gamma   106.69100000
_symmetry_Int_Tables_number   1
_chemical_formula_structural   CdH18C21S(N2O3)2
_chemical_formula_sum   'Cd2 H36 C42 S2 N8 O12'
_cell_volume   1123.41538625
_cell_formula_units_Z   2
loop_
 _symmetry_equiv_pos_site_id
 _symmetry_equiv_pos_as_xyz
  1  'x, y, z'
loop_
 _atom_site_type_symbol
 _atom_site_label
 _atom_site_symmetry_multiplicity
 _atom_site_fract_x
 _atom_site_fract_y
 _atom_site_fract_z
 _atom_site_occupancy
  Cd  Cd0  1  0.08182000  0.86824000  0.90648000  1.0
  Cd  Cd1  1  0.91817000  0.13176000  0.09353000  1.0
  H  H2  1  0.48767000  0.78608000  0.44113000  1.0
  H  H3  1  0.51233000  0.21392000  0.55887000  1.0
  H  H4  1  0.23307000  0.78923000  0.66234000  1.0
  H  H5  1  0.76693000  0.21076000  0.33766000  1.0
  H  H6  1  0.24969000  0.45207000  0.65603000  1.0
  H  H7  1  0.75032000  0.54793000  0.34398000  1.0
  H  H8  1  0.26034000  0.21363000  0.68831000  1.0
  H  H9  1  0.73966000  0.78637000  0.31170000  1.0
  H  H10  1  0.76316000  0.64002000  0.84262000  1.0
  H  H11  1  0.23684000  0.35998000  0.15738000  1.0
  H  H12  1  0.51302000  0.54323000  0.69767000  1.0
  H  H13  1  0.48698000  0.45677000  0.30233000  1.0
  H  H14  1  0.69580000  0.86142000  0.53943000  1.0
  H  H15  1  0.30420000  0.13858000  0.46057000  1.0
  H  H16  1  0.93373000  0.94181000  0.68818000  1.0
  H  H17  1  0.06627000  0.05819000  0.31182000  1.0
  H  H18  1  0.17647000  0.58001000  0.39655000  1.0
  H  H19  1  0.82354000  0.42000000  0.60345000  1.0
  H  H20  1  0.25513000  0.63718000  0.28769000  1.0
  H  H21  1  0.74487000  0.36282000  0.71231000  1.0
  H  H22  1  0.28192000  0.88328000  0.39643000  1.0
  H  H23  1  0.71808000  0.11672000  0.60357000  1.0
  H  H24  1  0.09564000  0.77066000  0.32820000  1.0
  H  H25  1  0.90437000  0.22934000  0.67180000  1.0
  H  H26  1  0.08538000  0.90011000  0.50986000  1.0
  H  H27  1  0.91462000  0.09989000  0.49013000  1.0
  H  H28  1  0.04290000  0.72521000  0.50858000  1.0
  H  H29  1  0.95710000  0.27479000  0.49142000  1.0
  H  H30  1  0.76215000  0.27587000  0.93936000  1.0
  H  H31  1  0.23785000  0.72412000  0.06064000  1.0
  H  H32  1  0.55347000  0.22135000  0.76698000  1.0
  H  H33  1  0.44653000  0.77864000  0.23301000  1.0
  H  H34  1  0.42102000  0.80038000  0.77785000  1.0
  H  H35  1  0.57898000  0.19961000  0.22215000  1.0
  H  H36  1  0.63149000  0.87132000  0.94753000  1.0
  H  H37  1  0.36851000  0.12868000  0.05248000  1.0
  C  C38  1  0.12233000  0.61007000  0.81685000  1.0
  C  C39  1  0.87767000  0.38993000  0.18316000  1.0
  C  C40  1  0.14701000  0.47610000  0.80266000  1.0
  C  C41  1  0.85299000  0.52391000  0.19734000  1.0
  C  C42  1  0.21079000  0.40996000  0.72345000  1.0
  C  C43  1  0.78922000  0.59004000  0.27655000  1.0
  C  C44  1  0.21623000  0.28387000  0.74046000  1.0
  C  C45  1  0.78377000  0.71614000  0.25955000  1.0
  C  C46  1  0.15701000  0.25617000  0.83246000  1.0
  C  C47  1  0.84299000  0.74383000  0.16755000  1.0
  C  C48  1  0.14026000  0.13280000  0.87269000  1.0
  C  C49  1  0.85973000  0.86720000  0.12731000  1.0
  C  C50  1  0.74155000  0.68503000  0.77366000  1.0
  C  C51  1  0.25845000  0.31497000  0.22634000  1.0
  C  C52  1  0.60445000  0.63186000  0.69363000  1.0
  C  C53  1  0.39555000  0.36814000  0.30637000  1.0
  C  C54  1  0.58333000  0.69368000  0.60679000  1.0
  C  C55  1  0.41667000  0.30633000  0.39321000  1.0
  C  C56  1  0.70311000  0.80735000  0.60404000  1.0
  C  C57  1  0.29689000  0.19265000  0.39596000  1.0
  C  C58  1  0.83706000  0.85404000  0.68732000  1.0
  C  C59  1  0.16295000  0.14596000  0.31268000  1.0
  C  C60  1  0.42994000  0.63558000  0.52511000  1.0
  C  C61  1  0.57006000  0.36443000  0.47489000  1.0
  C  C62  1  0.25218000  0.66880000  0.37731000  1.0
  C  C63  1  0.74782000  0.33120000  0.62269000  1.0
  C  C64  1  0.19254000  0.79033000  0.39819000  1.0
  C  C65  1  0.80746000  0.20968000  0.60181000  1.0
  C  C66  1  0.13459000  0.81688000  0.50739000  1.0
  C  C67  1  0.86541000  0.18312000  0.49260000  1.0
  C  C68  1  0.36007000  0.97602000  0.64757000  1.0
  C  C69  1  0.63993000  0.02397000  0.35242000  1.0
  C  C70  1  0.68323000  0.17220000  0.90008000  1.0
  C  C71  1  0.31677000  0.82779000  0.09992000  1.0
  C  C72  1  0.56898000  0.14140000  0.80463000  1.0
  C  C73  1  0.43102000  0.85859000  0.19536000  1.0
  C  C74  1  0.47345000  0.00609000  0.75605000  1.0
  C  C75  1  0.52655000  0.99390000  0.24394000  1.0
  C  C76  1  0.49390000  0.90697000  0.80910000  1.0
  C  C77  1  0.50610000  0.09302000  0.19089000  1.0
  C  C78  1  0.61052000  0.94596000  0.90485000  1.0
  C  C79  1  0.38949000  0.05403000  0.09515000  1.0
  S  S80  1  0.09445000  0.38460000  0.89743000  1.0
  S  S81  1  0.90554000  0.61540000  0.10257000  1.0
  N  N82  1  0.85614000  0.79492000  0.77095000  1.0
  N  N83  1  0.14386000  0.20508000  0.22905000  1.0
  N  N84  1  0.40472000  0.70127000  0.44645000  1.0
  N  N85  1  0.59528000  0.29873000  0.55355000  1.0
  N  N86  1  0.25100000  0.85312000  0.61064000  1.0
  N  N87  1  0.74900000  0.14687000  0.38936000  1.0
  N  N88  1  0.70513000  0.07556000  0.94892000  1.0
  N  N89  1  0.29487000  0.92443000  0.05107000  1.0
  O  O90  1  0.05143000  0.64111000  0.89462000  1.0
  O  O91  1  0.94857000  0.35889000  0.10537000  1.0
  O  O92  1  0.17327000  0.68786000  0.75704000  1.0
  O  O93  1  0.82674000  0.31214000  0.24296000  1.0
  O  O94  1  0.08366000  0.12188000  0.95938000  1.0
  O  O95  1  0.91632000  0.87813000  0.04062000  1.0
  O  O96  1  0.18216000  0.03833000  0.81739000  1.0
  O  O97  1  0.81783000  0.96167000  0.18262000  1.0
  O  O98  1  0.33118000  0.53279000  0.53390000  1.0
  O  O99  1  0.66882000  0.46722000  0.46610000  1.0
  O  O100  1  0.37289000  0.06469000  0.59372000  1.0
  O  O101  1  0.62711000  0.93530000  0.40628000  1.0
