# generated using pymatgen
data_CaH8C4O7
_symmetry_space_group_name_H-M   'P 1'
_cell_length_a   6.60035000
_cell_length_b   6.91682000
_cell_length_c   17.58090000
_cell_angle_alpha   90.00000000
_cell_angle_beta   89.99960000
_cell_angle_gamma   89.99990000
_symmetry_Int_Tables_number   1
_chemical_formula_structural   CaH8C4O7
_chemical_formula_sum   'Ca4 H32 C16 O28'
_cell_volume   802.62843822
_cell_formula_units_Z   4
loop_
 _symmetry_equiv_pos_site_id
 _symmetry_equiv_pos_as_xyz
  1  'x, y, z'
loop_
 _atom_site_type_symbol
 _atom_site_label
 _atom_site_symmetry_multiplicity
 _atom_site_fract_x
 _atom_site_fract_y
 _atom_site_fract_z
 _atom_site_occupancy
  Ca  Ca0  1  0.56189000  0.74728000  0.79613000  1.0
  Ca  Ca1  1  0.43811000  0.24728000  0.20387000  1.0
  Ca  Ca2  1  0.93811000  0.24728000  0.29613000  1.0
  Ca  Ca3  1  0.06189000  0.74728000  0.70387000  1.0
  H  H4  1  0.74290000  0.66911000  0.52706000  1.0
  H  H5  1  0.25710000  0.16910000  0.47294000  1.0
  H  H6  1  0.75708000  0.16910000  0.02706000  1.0
  H  H7  1  0.24291000  0.66910000  0.97294000  1.0
  H  H8  1  0.27460000  0.68233000  0.52579000  1.0
  H  H9  1  0.72541000  0.18233000  0.47421000  1.0
  H  H10  1  0.22539000  0.18234000  0.02579000  1.0
  H  H11  1  0.77459000  0.68233000  0.97421000  1.0
  H  H12  1  0.44003000  0.35339000  0.85779000  1.0
  H  H13  1  0.55997000  0.85339000  0.14221000  1.0
  H  H14  1  0.05997000  0.85339000  0.35779000  1.0
  H  H15  1  0.94003000  0.35339000  0.64221000  1.0
  H  H16  1  0.43286000  0.03120000  0.90974000  1.0
  H  H17  1  0.56714000  0.53119000  0.09025000  1.0
  H  H18  1  0.06714000  0.53119000  0.40974000  1.0
  H  H19  1  0.93287000  0.03119000  0.59025000  1.0
  H  H20  1  0.26333000  0.08981000  0.79048000  1.0
  H  H21  1  0.73667000  0.58981000  0.20952000  1.0
  H  H22  1  0.23667000  0.58981000  0.29048000  1.0
  H  H23  1  0.76333000  0.08981000  0.70952000  1.0
  H  H24  1  0.68058000  0.35162000  0.85897000  1.0
  H  H25  1  0.31942000  0.85162000  0.14103000  1.0
  H  H26  1  0.81942000  0.85162000  0.35897000  1.0
  H  H27  1  0.18059000  0.35162000  0.64103000  1.0
  H  H28  1  0.67198000  0.02708000  0.91182000  1.0
  H  H29  1  0.32802000  0.52708000  0.08818000  1.0
  H  H30  1  0.82802000  0.52708000  0.41182000  1.0
  H  H31  1  0.17198000  0.02708000  0.58818000  1.0
  H  H32  1  0.35252000  0.08784000  0.70484000  1.0
  H  H33  1  0.64748000  0.58784000  0.29516000  1.0
  H  H34  1  0.14749000  0.58784000  0.20484000  1.0
  H  H35  1  0.85251000  0.08784000  0.79516000  1.0
  C  C36  1  0.56650000  0.67018000  0.63306000  1.0
  C  C37  1  0.43351000  0.17017000  0.36694000  1.0
  C  C38  1  0.93349000  0.17017000  0.13306000  1.0
  C  C39  1  0.06651000  0.67017000  0.86694000  1.0
  C  C40  1  0.58817000  0.67179000  0.54892000  1.0
  C  C41  1  0.41183000  0.17179000  0.45108000  1.0
  C  C42  1  0.91181000  0.17179000  0.04892000  1.0
  C  C43  1  0.08817000  0.67178000  0.95109000  1.0
  C  C44  1  0.42768000  0.67792000  0.50229000  1.0
  C  C45  1  0.57234000  0.17792000  0.49771000  1.0
  C  C46  1  0.07231000  0.17791000  0.00229000  1.0
  C  C47  1  0.92769000  0.67792000  0.99771000  1.0
  C  C48  1  0.44333000  0.67770000  0.41780000  1.0
  C  C49  1  0.55668000  0.17770000  0.58221000  1.0
  C  C50  1  0.05667000  0.17771000  0.91779000  1.0
  C  C51  1  0.94333000  0.67770000  0.08221000  1.0
  O  O52  1  0.72785000  0.66627000  0.67299000  1.0
  O  O53  1  0.27216000  0.16627000  0.32701000  1.0
  O  O54  1  0.77216000  0.16627000  0.17299000  1.0
  O  O55  1  0.22784000  0.66627000  0.82701000  1.0
  O  O56  1  0.39289000  0.67489000  0.66400000  1.0
  O  O57  1  0.60711000  0.17489000  0.33600000  1.0
  O  O58  1  0.10711000  0.17489000  0.16400000  1.0
  O  O59  1  0.89289000  0.67489000  0.83600000  1.0
  O  O60  1  0.27588000  0.67673000  0.38111000  1.0
  O  O61  1  0.72412000  0.17673000  0.61889000  1.0
  O  O62  1  0.22411000  0.17674000  0.88111000  1.0
  O  O63  1  0.77589000  0.67673000  0.11889000  1.0
  O  O64  1  0.61711000  0.67542000  0.38600000  1.0
  O  O65  1  0.38289000  0.17542000  0.61400000  1.0
  O  O66  1  0.88289000  0.17542000  0.88600000  1.0
  O  O67  1  0.11711000  0.67542000  0.11400000  1.0
  O  O68  1  0.56138000  0.42132000  0.83994000  1.0
  O  O69  1  0.43862000  0.92132000  0.16006000  1.0
  O  O70  1  0.93862000  0.92132000  0.33994000  1.0
  O  O71  1  0.06138000  0.42132000  0.66006000  1.0
  O  O72  1  0.55090000  0.94244000  0.91040000  1.0
  O  O73  1  0.44909000  0.44244000  0.08960000  1.0
  O  O74  1  0.94909000  0.44244000  0.41040000  1.0
  O  O75  1  0.05091000  0.94244000  0.58960000  1.0
  O  O76  1  0.31111000  0.00472000  0.74847000  1.0
  O  O77  1  0.68888000  0.50472000  0.25153000  1.0
  O  O78  1  0.18889000  0.50471000  0.24847000  1.0
  O  O79  1  0.81111000  0.00471000  0.75153000  1.0
