# generated using pymatgen
data_Co3H33C57N3O13
_symmetry_space_group_name_H-M   'P 1'
_cell_length_a   18.75410000
_cell_length_b   18.75370000
_cell_length_c   18.75410000
_cell_angle_alpha   60.21530000
_cell_angle_beta   60.21580000
_cell_angle_gamma   60.21450000
_symmetry_Int_Tables_number   1
_chemical_formula_structural   Co3H33C57N3O13
_chemical_formula_sum   'Co6 H66 C114 N6 O26'
_cell_volume   4686.78860079
_cell_formula_units_Z   2
loop_
 _symmetry_equiv_pos_site_id
 _symmetry_equiv_pos_as_xyz
  1  'x, y, z'
loop_
 _atom_site_type_symbol
 _atom_site_label
 _atom_site_symmetry_multiplicity
 _atom_site_fract_x
 _atom_site_fract_y
 _atom_site_fract_z
 _atom_site_occupancy
  Co  Co0  1  0.34817000  0.15182000  0.25002000  1.0
  Co  Co1  1  0.24999000  0.34814000  0.15186000  1.0
  Co  Co2  1  0.15182000  0.24998000  0.34819000  1.0
  Co  Co3  1  0.65179000  0.84820000  0.75001000  1.0
  Co  Co4  1  0.74996000  0.65187000  0.84816000  1.0
  Co  Co5  1  0.84813000  0.75004000  0.65184000  1.0
  H  H6  1  0.45525000  0.11965000  0.40694000  1.0
  H  H7  1  0.51622000  0.07705000  0.51859000  1.0
  H  H8  1  0.25614000  0.13381000  0.70273000  1.0
  H  H9  1  0.19584000  0.17845000  0.58897000  1.0
  H  H10  1  0.53281000  0.96034000  0.64409000  1.0
  H  H11  1  0.40694000  0.45523000  0.11966000  1.0
  H  H12  1  0.51856000  0.51623000  0.07706000  1.0
  H  H13  1  0.70274000  0.25616000  0.13380000  1.0
  H  H14  1  0.58901000  0.19583000  0.17842000  1.0
  H  H15  1  0.64405000  0.53285000  0.96035000  1.0
  H  H16  1  0.11968000  0.40693000  0.45521000  1.0
  H  H17  1  0.07709000  0.51855000  0.51622000  1.0
  H  H18  1  0.13385000  0.70271000  0.25615000  1.0
  H  H19  1  0.17846000  0.58899000  0.19583000  1.0
  H  H20  1  0.96036000  0.64407000  0.53282000  1.0
  H  H21  1  0.38035000  0.04477000  0.09305000  1.0
  H  H22  1  0.42295000  0.98378000  0.98140000  1.0
  H  H23  1  0.36618000  0.24387000  0.79727000  1.0
  H  H24  1  0.32155000  0.30418000  0.91101000  1.0
  H  H25  1  0.53964000  0.96719000  0.85593000  1.0
  H  H26  1  0.04480000  0.09307000  0.38032000  1.0
  H  H27  1  0.98379000  0.98144000  0.42293000  1.0
  H  H28  1  0.24387000  0.79727000  0.36621000  1.0
  H  H29  1  0.30418000  0.91100000  0.32157000  1.0
  H  H30  1  0.96716000  0.85595000  0.53964000  1.0
  H  H31  1  0.09306000  0.38034000  0.04476000  1.0
  H  H32  1  0.98144000  0.42293000  0.98377000  1.0
  H  H33  1  0.79728000  0.36617000  0.24383000  1.0
  H  H34  1  0.91101000  0.32155000  0.30414000  1.0
  H  H35  1  0.85593000  0.53965000  0.96714000  1.0
  H  H36  1  0.54476000  0.88034000  0.59306000  1.0
  H  H37  1  0.48378000  0.92293000  0.48141000  1.0
  H  H38  1  0.74388000  0.86616000  0.29728000  1.0
  H  H39  1  0.80416000  0.82154000  0.41104000  1.0
  H  H40  1  0.46719000  0.03965000  0.35592000  1.0
  H  H41  1  0.59305000  0.54478000  0.88033000  1.0
  H  H42  1  0.48141000  0.48379000  0.92294000  1.0
  H  H43  1  0.29725000  0.74387000  0.86617000  1.0
  H  H44  1  0.41100000  0.80418000  0.82155000  1.0
  H  H45  1  0.35593000  0.46720000  0.03965000  1.0
  H  H46  1  0.88035000  0.59306000  0.54480000  1.0
  H  H47  1  0.92294000  0.48144000  0.48379000  1.0
  H  H48  1  0.86617000  0.29728000  0.74386000  1.0
  H  H49  1  0.82155000  0.41101000  0.80418000  1.0
  H  H50  1  0.03966000  0.35592000  0.46718000  1.0
  H  H51  1  0.61968000  0.95521000  0.90695000  1.0
  H  H52  1  0.57708000  0.01621000  0.01857000  1.0
  H  H53  1  0.63384000  0.75612000  0.20273000  1.0
  H  H54  1  0.67846000  0.69581000  0.08900000  1.0
  H  H55  1  0.46037000  0.03282000  0.14406000  1.0
  H  H56  1  0.95520000  0.90694000  0.61968000  1.0
  H  H57  1  0.01621000  0.01857000  0.57705000  1.0
  H  H58  1  0.75613000  0.20274000  0.63382000  1.0
  H  H59  1  0.69582000  0.08900000  0.67847000  1.0
  H  H60  1  0.03281000  0.14407000  0.46035000  1.0
  H  H61  1  0.90696000  0.61961000  0.95522000  1.0
  H  H62  1  0.01859000  0.57705000  0.01621000  1.0
  H  H63  1  0.20272000  0.63384000  0.75613000  1.0
  H  H64  1  0.08899000  0.67843000  0.69583000  1.0
  H  H65  1  0.14409000  0.46034000  0.03281000  1.0
  H  H66  1  0.33406000  0.16595000  0.74999000  1.0
  H  H67  1  0.75000000  0.33407000  0.16590000  1.0
  H  H68  1  0.16596000  0.74999000  0.33409000  1.0
  H  H69  1  0.66595000  0.83404000  0.25000000  1.0
  H  H70  1  0.25002000  0.66592000  0.83404000  1.0
  H  H71  1  0.83409000  0.24999000  0.66595000  1.0
  C  C72  1  0.28687000  0.16530000  0.42665000  1.0
  C  C73  1  0.32183000  0.14868000  0.49198000  1.0
  C  C74  1  0.41198000  0.12149000  0.47228000  1.0
  C  C75  1  0.44593000  0.09816000  0.53488000  1.0
  C  C76  1  0.39052000  0.10101000  0.61918000  1.0
  C  C77  1  0.30002000  0.13181000  0.63746000  1.0
  C  C78  1  0.26598000  0.15600000  0.57438000  1.0
  C  C79  1  0.42784000  0.06890000  0.68708000  1.0
  C  C80  1  0.50206000  0.99418000  0.69048000  1.0
  C  C81  1  0.42666000  0.28685000  0.16532000  1.0
  C  C82  1  0.49199000  0.32181000  0.14869000  1.0
  C  C83  1  0.47227000  0.41198000  0.12149000  1.0
  C  C84  1  0.53486000  0.44595000  0.09816000  1.0
  C  C85  1  0.61918000  0.39053000  0.10100000  1.0
  C  C86  1  0.63748000  0.30002000  0.13180000  1.0
  C  C87  1  0.57441000  0.26597000  0.15599000  1.0
  C  C88  1  0.68708000  0.42788000  0.06886000  1.0
  C  C89  1  0.69046000  0.50209000  0.99417000  1.0
  C  C90  1  0.16530000  0.42664000  0.28687000  1.0
  C  C91  1  0.14870000  0.49198000  0.32181000  1.0
  C  C92  1  0.12151000  0.47227000  0.41197000  1.0
  C  C93  1  0.09819000  0.53485000  0.44593000  1.0
  C  C94  1  0.10104000  0.61917000  0.39051000  1.0
  C  C95  1  0.13184000  0.63745000  0.30001000  1.0
  C  C96  1  0.15603000  0.57439000  0.26596000  1.0
  C  C97  1  0.06891000  0.68708000  0.42786000  1.0
  C  C98  1  0.99419000  0.69047000  0.50207000  1.0
  C  C99  1  0.33471000  0.21313000  0.07335000  1.0
  C  C100  1  0.35133000  0.17818000  0.00800000  1.0
  C  C101  1  0.37851000  0.08803000  0.02772000  1.0
  C  C102  1  0.40184000  0.05408000  0.96511000  1.0
  C  C103  1  0.39898000  0.10949000  0.88081000  1.0
  C  C104  1  0.36818000  0.20000000  0.86253000  1.0
  C  C105  1  0.34400000  0.23404000  0.92560000  1.0
  C  C106  1  0.43110000  0.07216000  0.81291000  1.0
  C  C107  1  0.50581000  0.99794000  0.80953000  1.0
  C  C108  1  0.21314000  0.07336000  0.33469000  1.0
  C  C109  1  0.17821000  0.00801000  0.35131000  1.0
  C  C110  1  0.08804000  0.02773000  0.37850000  1.0
  C  C111  1  0.05409000  0.96514000  0.40183000  1.0
  C  C112  1  0.10951000  0.88081000  0.39898000  1.0
  C  C113  1  0.20000000  0.86253000  0.36820000  1.0
  C  C114  1  0.23405000  0.92560000  0.34400000  1.0
  C  C115  1  0.07216000  0.81291000  0.43111000  1.0
  C  C116  1  0.99793000  0.80954000  0.50581000  1.0
  C  C117  1  0.07334000  0.33468000  0.21314000  1.0
  C  C118  1  0.00803000  0.35129000  0.17818000  1.0
  C  C119  1  0.02773000  0.37849000  0.08802000  1.0
  C  C120  1  0.96515000  0.40183000  0.05405000  1.0
  C  C121  1  0.88083000  0.39897000  0.10946000  1.0
  C  C122  1  0.86254000  0.36817000  0.19996000  1.0
  C  C123  1  0.92561000  0.34398000  0.23401000  1.0
  C  C124  1  0.81292000  0.43111000  0.07212000  1.0
  C  C125  1  0.80952000  0.50583000  0.99790000  1.0
  C  C126  1  0.71311000  0.83469000  0.57337000  1.0
  C  C127  1  0.67818000  0.85131000  0.50802000  1.0
  C  C128  1  0.58802000  0.87851000  0.52773000  1.0
  C  C129  1  0.55408000  0.90184000  0.46512000  1.0
  C  C130  1  0.60949000  0.89898000  0.38080000  1.0
  C  C131  1  0.69999000  0.86818000  0.36255000  1.0
  C  C132  1  0.73403000  0.84399000  0.42563000  1.0
  C  C133  1  0.57216000  0.93110000  0.31292000  1.0
  C  C134  1  0.49795000  0.00581000  0.30952000  1.0
  C  C135  1  0.57330000  0.71317000  0.83473000  1.0
  C  C136  1  0.50800000  0.67819000  0.85131000  1.0
  C  C137  1  0.52772000  0.58804000  0.87849000  1.0
  C  C138  1  0.46513000  0.55408000  0.90182000  1.0
  C  C139  1  0.38081000  0.60949000  0.89896000  1.0
  C  C140  1  0.36252000  0.70000000  0.86816000  1.0
  C  C141  1  0.42559000  0.73405000  0.84398000  1.0
  C  C142  1  0.31292000  0.57215000  0.93109000  1.0
  C  C143  1  0.30953000  0.49794000  0.00581000  1.0
  C  C144  1  0.83466000  0.57338000  0.71314000  1.0
  C  C145  1  0.85132000  0.50801000  0.67821000  1.0
  C  C146  1  0.87852000  0.52772000  0.58804000  1.0
  C  C147  1  0.90185000  0.46514000  0.55407000  1.0
  C  C148  1  0.89899000  0.38082000  0.60950000  1.0
  C  C149  1  0.86819000  0.36254000  0.69998000  1.0
  C  C150  1  0.84400000  0.42562000  0.73404000  1.0
  C  C151  1  0.93112000  0.31291000  0.57216000  1.0
  C  C152  1  0.00583000  0.30952000  0.49794000  1.0
  C  C153  1  0.66528000  0.78686000  0.92667000  1.0
  C  C154  1  0.64868000  0.82179000  0.99201000  1.0
  C  C155  1  0.62150000  0.91197000  0.97228000  1.0
  C  C156  1  0.59818000  0.94591000  0.03486000  1.0
  C  C157  1  0.60103000  0.89050000  0.11920000  1.0
  C  C158  1  0.63183000  0.80000000  0.13746000  1.0
  C  C159  1  0.65601000  0.76595000  0.07439000  1.0
  C  C160  1  0.56891000  0.92783000  0.18707000  1.0
  C  C161  1  0.49420000  0.00206000  0.19046000  1.0
  C  C162  1  0.78683000  0.92668000  0.66531000  1.0
  C  C163  1  0.82179000  0.99200000  0.64871000  1.0
  C  C164  1  0.91196000  0.97227000  0.62151000  1.0
  C  C165  1  0.94591000  0.03486000  0.59818000  1.0
  C  C166  1  0.89050000  0.11919000  0.60103000  1.0
  C  C167  1  0.80001000  0.13747000  0.63184000  1.0
  C  C168  1  0.76595000  0.07439000  0.65604000  1.0
  C  C169  1  0.92785000  0.18708000  0.56890000  1.0
  C  C170  1  0.00206000  0.19047000  0.49419000  1.0
  C  C171  1  0.92663000  0.66533000  0.78686000  1.0
  C  C172  1  0.99197000  0.64868000  0.82181000  1.0
  C  C173  1  0.97229000  0.62147000  0.91197000  1.0
  C  C174  1  0.03488000  0.59814000  0.94593000  1.0
  C  C175  1  0.11918000  0.60101000  0.89051000  1.0
  C  C176  1  0.13747000  0.63181000  0.80001000  1.0
  C  C177  1  0.07439000  0.65599000  0.76597000  1.0
  C  C178  1  0.18709000  0.56889000  0.92784000  1.0
  C  C179  1  0.19048000  0.49418000  0.00206000  1.0
  C  C180  1  0.39208000  0.10793000  0.74999000  1.0
  C  C181  1  0.75001000  0.39208000  0.10790000  1.0
  C  C182  1  0.10794000  0.74999000  0.39209000  1.0
  C  C183  1  0.60793000  0.89207000  0.25000000  1.0
  C  C184  1  0.25001000  0.60792000  0.89205000  1.0
  C  C185  1  0.89209000  0.24999000  0.60794000  1.0
  N  N186  1  0.54027000  0.95973000  0.75001000  1.0
  N  N187  1  0.75000000  0.54027000  0.95972000  1.0
  N  N188  1  0.95974000  0.75001000  0.54026000  1.0
  N  N189  1  0.45974000  0.04026000  0.24999000  1.0
  N  N190  1  0.25001000  0.45974000  0.04026000  1.0
  N  N191  1  0.04027000  0.24999000  0.45974000  1.0
  O  O192  1  0.33527000  0.12025000  0.37601000  1.0
  O  O193  1  0.21129000  0.22106000  0.42809000  1.0
  O  O194  1  0.37600000  0.33525000  0.12030000  1.0
  O  O195  1  0.42811000  0.21127000  0.22108000  1.0
  O  O196  1  0.12027000  0.37598000  0.33530000  1.0
  O  O197  1  0.22106000  0.42807000  0.21129000  1.0
  O  O198  1  0.37974000  0.16471000  0.12401000  1.0
  O  O199  1  0.27894000  0.28871000  0.07192000  1.0
  O  O200  1  0.16473000  0.12400000  0.37973000  1.0
  O  O201  1  0.28872000  0.07192000  0.27893000  1.0
  O  O202  1  0.12400000  0.37971000  0.16474000  1.0
  O  O203  1  0.07189000  0.27893000  0.28873000  1.0
  O  O204  1  0.66470000  0.87974000  0.62400000  1.0
  O  O205  1  0.78869000  0.77891000  0.57194000  1.0
  O  O206  1  0.62395000  0.66475000  0.87976000  1.0
  O  O207  1  0.57183000  0.78876000  0.77899000  1.0
  O  O208  1  0.87972000  0.62402000  0.66474000  1.0
  O  O209  1  0.77886000  0.57197000  0.78870000  1.0
  O  O210  1  0.62022000  0.83529000  0.87603000  1.0
  O  O211  1  0.72105000  0.71128000  0.92809000  1.0
  O  O212  1  0.83525000  0.87602000  0.62026000  1.0
  O  O213  1  0.71125000  0.92812000  0.72106000  1.0
  O  O214  1  0.87597000  0.62030000  0.83525000  1.0
  O  O215  1  0.92805000  0.72113000  0.71130000  1.0
  O  O216  1  0.24999000  0.24998000  0.25004000  1.0
  O  O217  1  0.74995000  0.75004000  0.75001000  1.0
