# generated using pymatgen
data_AlH12C21(NO6)3
_symmetry_space_group_name_H-M   'P 1'
_cell_length_a   3.93817000
_cell_length_b   27.93700000
_cell_length_c   27.93700000
_cell_angle_alpha   60.00000000
_cell_angle_beta   89.99920000
_cell_angle_gamma   90.00000000
_symmetry_Int_Tables_number   1
_chemical_formula_structural   AlH12C21(NO6)3
_chemical_formula_sum   'Al2 H24 C42 N6 O36'
_cell_volume   2661.85642448
_cell_formula_units_Z   2
loop_
 _symmetry_equiv_pos_site_id
 _symmetry_equiv_pos_as_xyz
  1  'x, y, z'
loop_
 _atom_site_type_symbol
 _atom_site_label
 _atom_site_symmetry_multiplicity
 _atom_site_fract_x
 _atom_site_fract_y
 _atom_site_fract_z
 _atom_site_occupancy
  Al  Al0  1  0.01577000  0.50000000  1.00000000  1.0
  Al  Al1  1  0.01574000  0.16667000  0.66667000  1.0
  H  H2  1  0.16593000  0.14897000  0.56113000  1.0
  H  H3  1  0.23163000  0.23080000  0.37148000  1.0
  H  H4  1  0.86150000  0.28380000  0.55133000  1.0
  H  H5  1  0.68709000  0.37929000  0.36311000  1.0
  H  H6  1  0.23150000  0.43590000  0.29514000  1.0
  H  H7  1  0.16585000  0.51770000  0.10550000  1.0
  H  H8  1  0.68721000  0.28738000  0.30350000  1.0
  H  H9  1  0.86163000  0.38291000  0.11528000  1.0
  H  H10  1  0.16592000  0.28990000  0.64898000  1.0
  H  H11  1  0.23164000  0.39771000  0.73082000  1.0
  H  H12  1  0.86148000  0.16486000  0.78380000  1.0
  H  H13  1  0.68710000  0.25758000  0.87930000  1.0
  H  H14  1  0.23155000  0.26895000  0.93592000  1.0
  H  H15  1  0.16588000  0.37680000  0.01771000  1.0
  H  H16  1  0.68722000  0.40910000  0.78740000  1.0
  H  H17  1  0.86165000  0.50181000  0.88290000  1.0
  H  H18  1  0.16591000  0.06113000  0.78990000  1.0
  H  H19  1  0.23162000  0.87148000  0.89772000  1.0
  H  H20  1  0.86150000  0.05134000  0.66487000  1.0
  H  H21  1  0.68712000  0.86312000  0.75759000  1.0
  H  H22  1  0.23158000  0.79514000  0.76895000  1.0
  H  H23  1  0.16589000  0.60550000  0.87680000  1.0
  H  H24  1  0.68721000  0.80351000  0.90911000  1.0
  H  H25  1  0.86163000  0.61529000  0.00181000  1.0
  C  C26  1  0.51571000  0.58660000  0.95229000  1.0
  C  C27  1  0.51569000  0.46111000  0.08660000  1.0
  C  C28  1  0.51571000  0.45229000  0.96111000  1.0
  C  C29  1  0.51568000  0.20557000  0.58004000  1.0
  C  C30  1  0.51567000  0.21439000  0.70557000  1.0
  C  C31  1  0.51567000  0.08005000  0.71439000  1.0
  C  C32  1  0.51314000  0.23237000  0.52036000  1.0
  C  C33  1  0.68126000  0.28433000  0.48849000  1.0
  C  C34  1  0.64951000  0.31274000  0.43078000  1.0
  C  C35  1  0.49407000  0.28543000  0.40510000  1.0
  C  C36  1  0.34511000  0.23229000  0.43650000  1.0
  C  C37  1  0.33587000  0.20706000  0.49398000  1.0
  C  C38  1  0.34504000  0.43438000  0.23013000  1.0
  C  C39  1  0.49405000  0.38125000  0.26152000  1.0
  C  C40  1  0.64956000  0.35394000  0.23585000  1.0
  C  C41  1  0.68135000  0.38235000  0.17815000  1.0
  C  C42  1  0.51314000  0.43431000  0.14627000  1.0
  C  C43  1  0.33578000  0.45961000  0.17266000  1.0
  C  C44  1  0.51311000  0.24726000  0.73237000  1.0
  C  C45  1  0.68125000  0.22718000  0.78433000  1.0
  C  C46  1  0.64950000  0.25647000  0.81275000  1.0
  C  C47  1  0.49407000  0.30946000  0.78544000  1.0
  C  C48  1  0.34510000  0.33120000  0.73231000  1.0
  C  C49  1  0.33585000  0.29896000  0.70707000  1.0
  C  C50  1  0.34509000  0.33548000  0.93440000  1.0
  C  C51  1  0.49410000  0.35722000  0.88126000  1.0
  C  C52  1  0.64960000  0.41020000  0.85395000  1.0
  C  C53  1  0.68138000  0.43950000  0.88236000  1.0
  C  C54  1  0.51318000  0.41942000  0.93432000  1.0
  C  C55  1  0.33583000  0.36772000  0.95963000  1.0
  C  C56  1  0.51313000  0.02037000  0.74727000  1.0
  C  C57  1  0.68127000  0.98849000  0.72718000  1.0
  C  C58  1  0.64952000  0.93078000  0.75648000  1.0
  C  C59  1  0.49408000  0.90511000  0.80946000  1.0
  C  C60  1  0.34510000  0.93650000  0.83121000  1.0
  C  C61  1  0.33586000  0.99398000  0.79896000  1.0
  C  C62  1  0.34510000  0.73013000  0.83548000  1.0
  C  C63  1  0.49409000  0.76152000  0.85723000  1.0
  C  C64  1  0.64958000  0.73585000  0.91021000  1.0
  C  C65  1  0.68136000  0.67815000  0.93950000  1.0
  C  C66  1  0.51316000  0.64627000  0.91942000  1.0
  C  C67  1  0.33583000  0.67266000  0.86773000  1.0
  N  N68  1  0.48380000  0.30663000  0.34872000  1.0
  N  N69  1  0.48378000  0.36004000  0.31792000  1.0
  N  N70  1  0.48381000  0.34464000  0.80665000  1.0
  N  N71  1  0.48381000  0.32203000  0.86005000  1.0
  N  N72  1  0.48381000  0.84872000  0.84465000  1.0
  N  N73  1  0.48381000  0.81792000  0.82204000  1.0
  O  O74  1  0.28507000  0.44391000  0.99777000  1.0
  O  O75  1  0.28507000  0.55832000  0.94391000  1.0
  O  O76  1  0.28506000  0.49777000  0.05832000  1.0
  O  O77  1  0.74798000  0.48983000  0.94826000  1.0
  O  O78  1  0.74797000  0.44826000  0.06191000  1.0
  O  O79  1  0.74798000  0.56191000  0.98984000  1.0
  O  O80  1  0.28503000  0.10833000  0.72276000  1.0
  O  O81  1  0.28504000  0.16891000  0.60832000  1.0
  O  O82  1  0.28503000  0.22277000  0.66891000  1.0
  O  O83  1  0.74795000  0.10474000  0.67684000  1.0
  O  O84  1  0.74794000  0.17685000  0.71842000  1.0
  O  O85  1  0.74795000  0.21842000  0.60473000  1.0
  O  O86  1  0.16885000  0.15849000  0.52198000  1.0
  O  O87  1  0.19271000  0.20718000  0.41131000  1.0
  O  O88  1  0.85151000  0.31008000  0.51115000  1.0
  O  O89  1  0.78382000  0.36405000  0.40089000  1.0
  O  O90  1  0.19255000  0.45950000  0.25531000  1.0
  O  O91  1  0.16870000  0.50818000  0.14465000  1.0
  O  O92  1  0.78399000  0.30264000  0.26573000  1.0
  O  O93  1  0.85168000  0.35662000  0.15547000  1.0
  O  O94  1  0.16883000  0.31953000  0.65850000  1.0
  O  O95  1  0.19270000  0.38151000  0.70719000  1.0
  O  O96  1  0.85150000  0.17877000  0.81007000  1.0
  O  O97  1  0.78382000  0.23504000  0.86406000  1.0
  O  O98  1  0.19261000  0.28518000  0.95952000  1.0
  O  O99  1  0.16876000  0.34717000  0.00819000  1.0
  O  O100  1  0.78401000  0.43162000  0.80265000  1.0
  O  O101  1  0.85171000  0.48790000  0.85662000  1.0
  O  O102  1  0.16882000  0.02198000  0.81953000  1.0
  O  O103  1  0.19269000  0.91131000  0.88151000  1.0
  O  O104  1  0.85153000  0.01116000  0.67877000  1.0
  O  O105  1  0.78384000  0.90090000  0.73505000  1.0
  O  O106  1  0.19262000  0.75531000  0.78518000  1.0
  O  O107  1  0.16876000  0.64465000  0.84717000  1.0
  O  O108  1  0.78399000  0.76573000  0.93163000  1.0
  O  O109  1  0.85168000  0.65548000  0.98790000  1.0
