# generated using pymatgen
data_MnH30C20S2(N4O)4
_symmetry_space_group_name_H-M   'P 1'
_cell_length_a   8.65443000
_cell_length_b   8.85398000
_cell_length_c   10.56680000
_cell_angle_alpha   82.63860000
_cell_angle_beta   83.63110000
_cell_angle_gamma   69.89130000
_symmetry_Int_Tables_number   1
_chemical_formula_structural   MnH30C20S2(N4O)4
_chemical_formula_sum   'Mn1 H30 C20 S2 N16 O4'
_cell_volume   752.12217592
_cell_formula_units_Z   1
loop_
 _symmetry_equiv_pos_site_id
 _symmetry_equiv_pos_as_xyz
  1  'x, y, z'
loop_
 _atom_site_type_symbol
 _atom_site_label
 _atom_site_symmetry_multiplicity
 _atom_site_fract_x
 _atom_site_fract_y
 _atom_site_fract_z
 _atom_site_occupancy
  Mn  Mn0  1  0.00000000  0.50000000  0.00001000  1.0
  H  H1  1  0.32331000  0.99079000  0.13162000  1.0
  H  H2  1  0.67670000  0.00921000  0.86838000  1.0
  H  H3  1  0.43876000  0.78949000  0.18446000  1.0
  H  H4  1  0.56124000  0.21051000  0.81554000  1.0
  H  H5  1  0.39443000  0.97131000  0.35433000  1.0
  H  H6  1  0.60557000  0.02869000  0.64567000  1.0
  H  H7  1  0.17797000  0.03421000  0.34682000  1.0
  H  H8  1  0.82204000  0.96578000  0.65318000  1.0
  H  H9  1  0.17891000  0.75456000  0.41646000  1.0
  H  H10  1  0.82109000  0.24543000  0.58354000  1.0
  H  H11  1  0.39698000  0.68364000  0.41778000  1.0
  H  H12  1  0.60302000  0.31636000  0.58222000  1.0
  H  H13  1  0.38272000  0.84215000  0.59627000  1.0
  H  H14  1  0.61728000  0.15784000  0.40373000  1.0
  H  H15  1  0.16717000  0.93783000  0.58952000  1.0
  H  H16  1  0.83282000  0.06217000  0.41048000  1.0
  H  H17  1  0.82698000  0.87760000  0.11233000  1.0
  H  H18  1  0.17302000  0.12241000  0.88767000  1.0
  H  H19  1  0.32786000  0.58956000  0.11042000  1.0
  H  H20  1  0.67213000  0.41045000  0.88958000  1.0
  H  H21  1  0.30078000  0.33306000  0.76408000  1.0
  H  H22  1  0.69921000  0.66694000  0.23592000  1.0
  H  H23  1  0.04372000  0.82805000  0.78965000  1.0
  H  H24  1  0.95628000  0.17195000  0.21035000  1.0
  H  H25  1  0.13865000  0.46824000  0.35318000  1.0
  H  H26  1  0.86135000  0.53176000  0.64682000  1.0
  H  H27  1  0.33358000  0.31002000  0.31853000  1.0
  H  H28  1  0.66642000  0.68998000  0.68147000  1.0
  H  H29  1  0.32434000  0.45263000  0.42721000  1.0
  H  H30  1  0.67566000  0.54737000  0.57279000  1.0
  C  C31  1  0.32096000  0.88678000  0.19938000  1.0
  C  C32  1  0.67904000  0.11322000  0.80062000  1.0
  C  C33  1  0.29271000  0.93070000  0.33703000  1.0
  C  C34  1  0.70729000  0.06930000  0.66297000  1.0
  C  C35  1  0.28516000  0.78859000  0.43276000  1.0
  C  C36  1  0.71484000  0.21141000  0.56723000  1.0
  C  C37  1  0.26974000  0.82637000  0.57118000  1.0
  C  C38  1  0.73026000  0.17362000  0.42882000  1.0
  C  C39  1  0.95847000  0.83499000  0.12441000  1.0
  C  C40  1  0.04153000  0.16501000  0.87558000  1.0
  C  C41  1  0.21100000  0.68646000  0.12211000  1.0
  C  C42  1  0.78899000  0.31354000  0.87789000  1.0
  C  C43  1  0.26019000  0.46354000  0.74523000  1.0
  C  C44  1  0.73981000  0.53646000  0.25477000  1.0
  C  C45  1  0.12450000  0.71206000  0.75946000  1.0
  C  C46  1  0.87549000  0.28794000  0.24054000  1.0
  C  C47  1  0.36393000  0.26370000  0.07982000  1.0
  C  C48  1  0.63608000  0.73629000  0.92019000  1.0
  C  C49  1  0.25438000  0.38756000  0.39020000  1.0
  C  C50  1  0.74562000  0.61244000  0.60980000  1.0
  S  S51  1  0.54790000  0.19473000  0.12959000  1.0
  S  S52  1  0.45211000  0.80527000  0.87042000  1.0
  N  N53  1  0.19429000  0.82860000  0.16425000  1.0
  N  N54  1  0.80571000  0.17140000  0.83575000  1.0
  N  N55  1  0.03334000  0.92517000  0.16640000  1.0
  N  N56  1  0.96666000  0.07483000  0.83359000  1.0
  N  N57  1  0.06320000  0.68623000  0.09605000  1.0
  N  N58  1  0.93680000  0.31377000  0.90395000  1.0
  N  N59  1  0.23741000  0.69758000  0.65947000  1.0
  N  N60  1  0.76259000  0.30241000  0.34053000  1.0
  N  N61  1  0.32631000  0.53894000  0.64880000  1.0
  N  N62  1  0.67368000  0.46106000  0.35121000  1.0
  N  N63  1  0.13552000  0.56497000  0.81608000  1.0
  N  N64  1  0.86448000  0.43503000  0.18392000  1.0
  N  N65  1  0.22705000  0.31445000  0.04590000  1.0
  N  N66  1  0.77295000  0.68556000  0.95411000  1.0
  N  N67  1  0.21652000  0.27962000  0.49942000  1.0
  N  N68  1  0.78348000  0.72038000  0.50058000  1.0
  O  O69  1  0.07021000  0.29241000  0.52953000  1.0
  O  O70  1  0.92979000  0.70759000  0.47047000  1.0
  O  O71  1  0.33466000  0.18094000  0.55472000  1.0
  O  O72  1  0.66534000  0.81906000  0.44528000  1.0
