# generated using pymatgen
data_ZnH14C14(NO2)4
_symmetry_space_group_name_H-M   'P 1'
_cell_length_a   7.41330000
_cell_length_b   9.38449000
_cell_length_c   12.67040000
_cell_angle_alpha   105.52000000
_cell_angle_beta   90.00280000
_cell_angle_gamma   113.24900000
_symmetry_Int_Tables_number   1
_chemical_formula_structural   ZnH14C14(NO2)4
_chemical_formula_sum   'Zn2 H28 C28 N8 O16'
_cell_volume   774.79223447
_cell_formula_units_Z   2
loop_
 _symmetry_equiv_pos_site_id
 _symmetry_equiv_pos_as_xyz
  1  'x, y, z'
loop_
 _atom_site_type_symbol
 _atom_site_label
 _atom_site_symmetry_multiplicity
 _atom_site_fract_x
 _atom_site_fract_y
 _atom_site_fract_z
 _atom_site_occupancy
  Zn  Zn0  1  0.85419000  0.99999000  0.74988000  1.0
  Zn  Zn1  1  0.14581000  0.00001000  0.25013000  1.0
  H  H2  1  0.21299000  0.86649000  0.65129000  1.0
  H  H3  1  0.34685000  0.13365000  0.84872000  1.0
  H  H4  1  0.78701000  0.13351000  0.34871000  1.0
  H  H5  1  0.65315000  0.86635000  0.15128000  1.0
  H  H6  1  0.24440000  0.85623000  0.50989000  1.0
  H  H7  1  0.38859000  0.14391000  0.99011000  1.0
  H  H8  1  0.75560000  0.14377000  0.49011000  1.0
  H  H9  1  0.61141000  0.85609000  0.00989000  1.0
  H  H10  1  0.38251000  0.67575000  0.71935000  1.0
  H  H11  1  0.70702000  0.32424000  0.78062000  1.0
  H  H12  1  0.61749000  0.32425000  0.28064000  1.0
  H  H13  1  0.29298000  0.67576000  0.21938000  1.0
  H  H14  1  0.17389000  0.58768000  0.38678000  1.0
  H  H15  1  0.58651000  0.41262000  0.11320000  1.0
  H  H16  1  0.82611000  0.41232000  0.61322000  1.0
  H  H17  1  0.41349000  0.58738000  0.88680000  1.0
  H  H18  1  0.20606000  0.30821000  0.41067000  1.0
  H  H19  1  0.89815000  0.69196000  0.08923000  1.0
  H  H20  1  0.79393000  0.69179000  0.58933000  1.0
  H  H21  1  0.10185000  0.30804000  0.91077000  1.0
  H  H22  1  0.44063000  0.40144000  0.69379000  1.0
  H  H23  1  0.03930000  0.59845000  0.80605000  1.0
  H  H24  1  0.55937000  0.59856000  0.30621000  1.0
  H  H25  1  0.96070000  0.40155000  0.19395000  1.0
  H  H26  1  0.32984000  0.24327000  0.56947000  1.0
  H  H27  1  0.08658000  0.75678000  0.93032000  1.0
  H  H28  1  0.67016000  0.75672000  0.43053000  1.0
  H  H29  1  0.91342000  0.24322000  0.06968000  1.0
  C  C30  1  0.51566000  0.96447000  0.62090000  1.0
  C  C31  1  0.55170000  0.03574000  0.87910000  1.0
  C  C32  1  0.48434000  0.03553000  0.37910000  1.0
  C  C33  1  0.44830000  0.96426000  0.12090000  1.0
  C  C34  1  0.30005000  0.84092000  0.58434000  1.0
  C  C35  1  0.45952000  0.15924000  0.91567000  1.0
  C  C36  1  0.69995000  0.15908000  0.41566000  1.0
  C  C37  1  0.54048000  0.84076000  0.08433000  1.0
  C  C38  1  0.32391000  0.61015000  0.63346000  1.0
  C  C39  1  0.71403000  0.38992000  0.86650000  1.0
  C  C40  1  0.67609000  0.38985000  0.36654000  1.0
  C  C41  1  0.28597000  0.61008000  0.13350000  1.0
  C  C42  1  0.22154000  0.56029000  0.45695000  1.0
  C  C43  1  0.66154000  0.43992000  0.04301000  1.0
  C  C44  1  0.77846000  0.43971000  0.54305000  1.0
  C  C45  1  0.33846000  0.56008000  0.95699000  1.0
  C  C46  1  0.23366000  0.42399000  0.46957000  1.0
  C  C47  1  0.80994000  0.57617000  0.03036000  1.0
  C  C48  1  0.76634000  0.57601000  0.53043000  1.0
  C  C49  1  0.19006000  0.42383000  0.96964000  1.0
  C  C50  1  0.31014000  0.34090000  0.63166000  1.0
  C  C51  1  0.96933000  0.65904000  0.86817000  1.0
  C  C52  1  0.68986000  0.65910000  0.36834000  1.0
  C  C53  1  0.03067000  0.34096000  0.13183000  1.0
  C  C54  1  0.12453000  0.27261000  0.68823000  1.0
  C  C55  1  0.85174000  0.72713000  0.81156000  1.0
  C  C56  1  0.87547000  0.72739000  0.31177000  1.0
  C  C57  1  0.14826000  0.27287000  0.18844000  1.0
  N  N58  1  0.27683000  0.67348000  0.55991000  1.0
  N  N59  1  0.60360000  0.32668000  0.94006000  1.0
  N  N60  1  0.72317000  0.32652000  0.44009000  1.0
  N  N61  1  0.39640000  0.67332000  0.05994000  1.0
  N  N62  1  0.29874000  0.45813000  0.57961000  1.0
  N  N63  1  0.84088000  0.54191000  0.92032000  1.0
  N  N64  1  0.70126000  0.54187000  0.42039000  1.0
  N  N65  1  0.15912000  0.45809000  0.07968000  1.0
  O  O66  1  0.64570000  0.90475000  0.62371000  1.0
  O  O67  1  0.74137000  0.09552000  0.87613000  1.0
  O  O68  1  0.35429000  0.09525000  0.37629000  1.0
  O  O69  1  0.25863000  0.90448000  0.12387000  1.0
  O  O70  1  0.54550000  0.10996000  0.64627000  1.0
  O  O71  1  0.43624000  0.89022000  0.85380000  1.0
  O  O72  1  0.45450000  0.89004000  0.35374000  1.0
  O  O73  1  0.56376000  0.10978000  0.14620000  1.0
  O  O74  1  0.10990000  0.14632000  0.71636000  1.0
  O  O75  1  0.96327000  0.85344000  0.78342000  1.0
  O  O76  1  0.89009000  0.85368000  0.28364000  1.0
  O  O77  1  0.03674000  0.14657000  0.21658000  1.0
  O  O78  1  0.00930000  0.34113000  0.70519000  1.0
  O  O79  1  0.66806000  0.65848000  0.79459000  1.0
  O  O80  1  0.99070000  0.65887000  0.29481000  1.0
  O  O81  1  0.33194000  0.34152000  0.20541000  1.0
