# generated using pymatgen
data_CdB5H9C2N2O9
_symmetry_space_group_name_H-M   'P 1'
_cell_length_a   6.67253000
_cell_length_b   11.27780000
_cell_length_c   14.35400000
_cell_angle_alpha   90.00010000
_cell_angle_beta   90.00000000
_cell_angle_gamma   92.02610000
_symmetry_Int_Tables_number   1
_chemical_formula_structural   CdB5H9C2N2O9
_chemical_formula_sum   'Cd4 B20 H36 C8 N8 O36'
_cell_volume   1079.48415199
_cell_formula_units_Z   4
loop_
 _symmetry_equiv_pos_site_id
 _symmetry_equiv_pos_as_xyz
  1  'x, y, z'
loop_
 _atom_site_type_symbol
 _atom_site_label
 _atom_site_symmetry_multiplicity
 _atom_site_fract_x
 _atom_site_fract_y
 _atom_site_fract_z
 _atom_site_occupancy
  Cd  Cd0  1  0.88730000  0.29123000  0.26738000  1.0
  Cd  Cd1  1  0.61270000  0.20877000  0.76738000  1.0
  Cd  Cd2  1  0.11269000  0.70877000  0.73262000  1.0
  Cd  Cd3  1  0.38731000  0.79123000  0.23262000  1.0
  B  B4  1  0.29711000  0.42781000  0.44200000  1.0
  B  B5  1  0.20289000  0.07219000  0.94200000  1.0
  B  B6  1  0.70289000  0.57219000  0.55800000  1.0
  B  B7  1  0.79711000  0.92781000  0.05800000  1.0
  B  B8  1  0.42114000  0.32756000  0.30598000  1.0
  B  B9  1  0.07885000  0.17244000  0.80598000  1.0
  B  B10  1  0.57885000  0.67244000  0.69402000  1.0
  B  B11  1  0.92115000  0.82756000  0.19402000  1.0
  B  B12  1  0.19825000  0.48587000  0.28184000  1.0
  B  B13  1  0.30175000  0.01413000  0.78185000  1.0
  B  B14  1  0.80175000  0.51413000  0.71815000  1.0
  B  B15  1  0.69825000  0.98587000  0.21815000  1.0
  B  B16  1  0.89983000  0.60707000  0.22754000  1.0
  B  B17  1  0.60017000  0.89293000  0.72754000  1.0
  B  B18  1  0.10017000  0.39293000  0.77246000  1.0
  B  B19  1  0.39983000  0.10707000  0.27246000  1.0
  B  B20  1  0.54559000  0.52341000  0.24155000  1.0
  B  B21  1  0.95441000  0.97659000  0.74155000  1.0
  B  B22  1  0.45441000  0.47659000  0.75845000  1.0
  B  B23  1  0.04559000  0.02341000  0.25845000  1.0
  H  H24  1  0.33063000  0.38329000  0.57386000  1.0
  H  H25  1  0.16938000  0.11671000  0.07386000  1.0
  H  H26  1  0.66938000  0.61671000  0.42615000  1.0
  H  H27  1  0.83062000  0.88329000  0.92614000  1.0
  H  H28  1  0.68772000  0.42420000  0.09379000  1.0
  H  H29  1  0.81228000  0.07580000  0.59379000  1.0
  H  H30  1  0.31228000  0.57580000  0.90621000  1.0
  H  H31  1  0.18772000  0.92420000  0.40621000  1.0
  H  H32  1  0.53405000  0.29412000  0.10465000  1.0
  H  H33  1  0.96595000  0.20588000  0.60465000  1.0
  H  H34  1  0.46595000  0.70588000  0.89535000  1.0
  H  H35  1  0.03405000  0.79412000  0.39535000  1.0
  H  H36  1  0.51828000  0.37160000  0.94510000  1.0
  H  H37  1  0.98172000  0.12840000  0.44510000  1.0
  H  H38  1  0.48173000  0.62840000  0.05490000  1.0
  H  H39  1  0.01828000  0.87160000  0.55490000  1.0
  H  H40  1  0.78154000  0.37905000  0.93418000  1.0
  H  H41  1  0.71846000  0.12095000  0.43418000  1.0
  H  H42  1  0.21847000  0.62095000  0.06582000  1.0
  H  H43  1  0.28153000  0.87905000  0.56582000  1.0
  H  H44  1  0.96890000  0.28732000  0.07450000  1.0
  H  H45  1  0.53109000  0.21268000  0.57450000  1.0
  H  H46  1  0.03109000  0.71268000  0.92551000  1.0
  H  H47  1  0.46891000  0.78732000  0.42550000  1.0
  H  H48  1  0.80978000  0.17521000  0.10258000  1.0
  H  H49  1  0.69022000  0.32479000  0.60258000  1.0
  H  H50  1  0.19021000  0.82480000  0.89742000  1.0
  H  H51  1  0.30978000  0.67521000  0.39742000  1.0
  H  H52  1  0.55462000  0.15130000  0.95657000  1.0
  H  H53  1  0.94539000  0.34870000  0.45657000  1.0
  H  H54  1  0.44539000  0.84870000  0.04343000  1.0
  H  H55  1  0.05461000  0.65130000  0.54343000  1.0
  H  H56  1  0.79350000  0.17249000  0.93158000  1.0
  H  H57  1  0.70650000  0.32752000  0.43158000  1.0
  H  H58  1  0.20650000  0.82752000  0.06842000  1.0
  H  H59  1  0.29350000  0.67248000  0.56842000  1.0
  C  C60  1  0.67135000  0.33102000  0.07189000  1.0
  C  C61  1  0.82865000  0.16899000  0.57189000  1.0
  C  C62  1  0.32865000  0.66899000  0.92811000  1.0
  C  C63  1  0.17135000  0.83101000  0.42811000  1.0
  C  C64  1  0.65601000  0.32800000  0.96601000  1.0
  C  C65  1  0.84399000  0.17201000  0.46601000  1.0
  C  C66  1  0.34399000  0.67201000  0.03399000  1.0
  C  C67  1  0.15601000  0.82800000  0.53399000  1.0
  N  N68  1  0.84046000  0.26530000  0.11050000  1.0
  N  N69  1  0.65954000  0.23470000  0.61050000  1.0
  N  N70  1  0.15954000  0.73470000  0.88950000  1.0
  N  N71  1  0.34046000  0.76530000  0.38950000  1.0
  N  N72  1  0.65479000  0.20871000  0.92437000  1.0
  N  N73  1  0.84521000  0.29130000  0.42437000  1.0
  N  N74  1  0.34522000  0.79130000  0.07563000  1.0
  N  N75  1  0.15478000  0.70871000  0.57563000  1.0
  O  O76  1  0.26596000  0.44326000  0.53720000  1.0
  O  O77  1  0.23405000  0.05675000  0.03720000  1.0
  O  O78  1  0.73404000  0.55675000  0.46279000  1.0
  O  O79  1  0.76596000  0.94326000  0.96280000  1.0
  O  O80  1  0.40194000  0.33341000  0.40994000  1.0
  O  O81  1  0.09806000  0.16659000  0.90994000  1.0
  O  O82  1  0.59806000  0.66659000  0.59006000  1.0
  O  O83  1  0.90195000  0.83341000  0.09006000  1.0
  O  O84  1  0.23433000  0.36077000  0.26191000  1.0
  O  O85  1  0.26567000  0.13923000  0.76192000  1.0
  O  O86  1  0.76568000  0.63923000  0.73809000  1.0
  O  O87  1  0.73433000  0.86077000  0.23808000  1.0
  O  O88  1  0.21190000  0.50959000  0.38472000  1.0
  O  O89  1  0.28810000  0.99041000  0.88472000  1.0
  O  O90  1  0.78810000  0.49041000  0.61528000  1.0
  O  O91  1  0.71190000  0.00959000  0.11528000  1.0
  O  O92  1  0.99567000  0.50564000  0.24808000  1.0
  O  O93  1  0.50433000  0.99436000  0.74808000  1.0
  O  O94  1  0.00432000  0.49436000  0.75192000  1.0
  O  O95  1  0.49568000  0.00564000  0.25192000  1.0
  O  O96  1  0.99974000  0.71374000  0.22114000  1.0
  O  O97  1  0.50025000  0.78626000  0.72115000  1.0
  O  O98  1  0.00025000  0.28626000  0.77885000  1.0
  O  O99  1  0.49975000  0.21374000  0.27885000  1.0
  O  O100  1  0.69400000  0.60318000  0.21119000  1.0
  O  O101  1  0.80599000  0.89682000  0.71119000  1.0
  O  O102  1  0.30600000  0.39682000  0.78880000  1.0
  O  O103  1  0.19401000  0.10318000  0.28881000  1.0
  O  O104  1  0.35420000  0.56429000  0.23608000  1.0
  O  O105  1  0.14580000  0.93571000  0.73608000  1.0
  O  O106  1  0.64580000  0.43571000  0.76392000  1.0
  O  O107  1  0.85420000  0.06429000  0.26392000  1.0
  O  O108  1  0.58663000  0.41472000  0.27649000  1.0
  O  O109  1  0.91337000  0.08528000  0.77648000  1.0
  O  O110  1  0.41337000  0.58528000  0.72352000  1.0
  O  O111  1  0.08663000  0.91472000  0.22352000  1.0
