# generated using pymatgen
data_ZnH10C14N3O4
_symmetry_space_group_name_H-M   'P 1'
_cell_length_a   8.54535000
_cell_length_b   12.81470000
_cell_length_c   13.59500000
_cell_angle_alpha   90.00000000
_cell_angle_beta   108.12600000
_cell_angle_gamma   89.99990000
_symmetry_Int_Tables_number   1
_chemical_formula_structural   ZnH10C14N3O4
_chemical_formula_sum   'Zn4 H40 C56 N12 O16'
_cell_volume   1414.85637428
_cell_formula_units_Z   4
loop_
 _symmetry_equiv_pos_site_id
 _symmetry_equiv_pos_as_xyz
  1  'x, y, z'
loop_
 _atom_site_type_symbol
 _atom_site_label
 _atom_site_symmetry_multiplicity
 _atom_site_fract_x
 _atom_site_fract_y
 _atom_site_fract_z
 _atom_site_occupancy
  Zn  Zn0  1  0.76567000  0.07477000  0.63077000  1.0
  Zn  Zn1  1  0.23433000  0.57477000  0.86923000  1.0
  Zn  Zn2  1  0.23433000  0.92523000  0.36923000  1.0
  Zn  Zn3  1  0.76567000  0.42523000  0.13077000  1.0
  H  H4  1  0.72992000  0.12889000  0.04318000  1.0
  H  H5  1  0.27008000  0.62889000  0.45682000  1.0
  H  H6  1  0.27008000  0.87111000  0.95682000  1.0
  H  H7  1  0.72991000  0.37111000  0.54318000  1.0
  H  H8  1  0.86874000  0.28630000  0.32429000  1.0
  H  H9  1  0.13126000  0.78630000  0.17571000  1.0
  H  H10  1  0.13127000  0.71370000  0.67571000  1.0
  H  H11  1  0.86873000  0.21370000  0.82429000  1.0
  H  H12  1  0.00454000  0.91041000  0.88858000  1.0
  H  H13  1  0.99546000  0.41041000  0.61142000  1.0
  H  H14  1  0.99545000  0.08960000  0.11142000  1.0
  H  H15  1  0.00454000  0.58959000  0.38858000  1.0
  H  H16  1  0.87195000  0.01933000  0.84735000  1.0
  H  H17  1  0.12805000  0.51933000  0.65265000  1.0
  H  H18  1  0.12805000  0.98067000  0.15265000  1.0
  H  H19  1  0.87195000  0.48067000  0.34735000  1.0
  H  H20  1  0.06486000  0.03393000  0.94668000  1.0
  H  H21  1  0.93514000  0.53393000  0.55332000  1.0
  H  H22  1  0.93514000  0.96607000  0.05332000  1.0
  H  H23  1  0.06486000  0.46607000  0.44668000  1.0
  H  H24  1  0.29855000  0.18675000  0.13863000  1.0
  H  H25  1  0.70145000  0.68675000  0.36137000  1.0
  H  H26  1  0.70145000  0.81325000  0.86137000  1.0
  H  H27  1  0.29854000  0.31325000  0.63863000  1.0
  H  H28  1  0.39812000  0.04898000  0.71133000  1.0
  H  H29  1  0.60188000  0.54898000  0.78867000  1.0
  H  H30  1  0.60188000  0.95102000  0.28867000  1.0
  H  H31  1  0.39813000  0.45102000  0.21133000  1.0
  H  H32  1  0.50424000  0.14364000  0.87886000  1.0
  H  H33  1  0.49575000  0.64364000  0.62114000  1.0
  H  H34  1  0.49575000  0.85636000  0.12114000  1.0
  H  H35  1  0.50424000  0.35636000  0.37886000  1.0
  H  H36  1  0.46275000  0.29858000  0.05760000  1.0
  H  H37  1  0.53726000  0.79858000  0.44240000  1.0
  H  H38  1  0.53726000  0.70142000  0.94240000  1.0
  H  H39  1  0.46274000  0.20142000  0.55760000  1.0
  H  H40  1  0.09192000  0.09249000  0.56862000  1.0
  H  H41  1  0.90808000  0.59249000  0.93138000  1.0
  H  H42  1  0.90808000  0.90751000  0.43138000  1.0
  H  H43  1  0.09193000  0.40751000  0.06862000  1.0
  C  C44  1  0.63163000  0.07106000  0.02450000  1.0
  C  C45  1  0.36836000  0.57106000  0.47550000  1.0
  C  C46  1  0.36837000  0.92893000  0.97550000  1.0
  C  C47  1  0.63163000  0.42894000  0.52450000  1.0
  C  C48  1  0.37387000  0.00888000  0.90679000  1.0
  C  C49  1  0.62613000  0.50888000  0.59321000  1.0
  C  C50  1  0.62613000  0.99111000  0.09321000  1.0
  C  C51  1  0.37386000  0.49112000  0.40679000  1.0
  C  C52  1  0.74192000  0.26301000  0.28467000  1.0
  C  C53  1  0.25808000  0.76301000  0.21533000  1.0
  C  C54  1  0.25809000  0.73699000  0.71533000  1.0
  C  C55  1  0.74191000  0.23699000  0.78467000  1.0
  C  C56  1  0.65862000  0.20143000  0.33677000  1.0
  C  C57  1  0.34138000  0.70143000  0.16324000  1.0
  C  C58  1  0.34138000  0.79857000  0.66323000  1.0
  C  C59  1  0.65862000  0.29857000  0.83677000  1.0
  C  C60  1  0.49461000  0.17314000  0.28453000  1.0
  C  C61  1  0.50540000  0.67314000  0.21548000  1.0
  C  C62  1  0.50540000  0.82686000  0.71548000  1.0
  C  C63  1  0.49460000  0.32686000  0.78452000  1.0
  C  C64  1  0.00113000  0.99487000  0.87340000  1.0
  C  C65  1  0.99887000  0.49487000  0.62660000  1.0
  C  C66  1  0.99887000  0.00513000  0.12660000  1.0
  C  C67  1  0.00113000  0.50513000  0.37340000  1.0
  C  C68  1  0.42511000  0.20677000  0.18218000  1.0
  C  C69  1  0.57490000  0.70677000  0.31782000  1.0
  C  C70  1  0.57490000  0.79323000  0.81782000  1.0
  C  C71  1  0.42510000  0.29323000  0.68218000  1.0
  C  C72  1  0.08082000  0.02115000  0.79412000  1.0
  C  C73  1  0.91918000  0.52115000  0.70588000  1.0
  C  C74  1  0.91918000  0.97885000  0.20588000  1.0
  C  C75  1  0.08082000  0.47885000  0.29411000  1.0
  C  C76  1  0.74468000  0.17305000  0.44799000  1.0
  C  C77  1  0.25532000  0.67305000  0.05201000  1.0
  C  C78  1  0.25532000  0.82695000  0.55201000  1.0
  C  C79  1  0.74468000  0.32695000  0.94799000  1.0
  C  C80  1  0.27529000  0.04970000  0.71854000  1.0
  C  C81  1  0.72471000  0.54971000  0.78146000  1.0
  C  C82  1  0.72471000  0.95029000  0.28146000  1.0
  C  C83  1  0.27529000  0.45030000  0.21854000  1.0
  C  C84  1  0.50482000  0.07956000  0.93132000  1.0
  C  C85  1  0.49518000  0.57956000  0.56868000  1.0
  C  C86  1  0.49517000  0.92044000  0.06868000  1.0
  C  C87  1  0.50482000  0.42044000  0.43132000  1.0
  C  C88  1  0.51604000  0.26895000  0.13641000  1.0
  C  C89  1  0.48397000  0.76895000  0.36359000  1.0
  C  C90  1  0.48397000  0.73105000  0.86360000  1.0
  C  C91  1  0.51603000  0.23105000  0.63641000  1.0
  C  C92  1  0.38819000  0.11429000  0.33607000  1.0
  C  C93  1  0.61182000  0.61429000  0.16393000  1.0
  C  C94  1  0.61182000  0.88571000  0.66393000  1.0
  C  C95  1  0.38818000  0.38572000  0.83607000  1.0
  C  C96  1  0.12409000  0.06766000  0.64862000  1.0
  C  C97  1  0.87591000  0.56767000  0.85138000  1.0
  C  C98  1  0.87591000  0.93233000  0.35138000  1.0
  C  C99  1  0.12409000  0.43233000  0.14862000  1.0
  N  N100  1  0.24737000  0.02100000  0.81031000  1.0
  N  N101  1  0.75263000  0.52100000  0.68969000  1.0
  N  N102  1  0.75263000  0.97900000  0.18969000  1.0
  N  N103  1  0.24736000  0.47900000  0.31031000  1.0
  N  N104  1  0.67277000  0.29721000  0.18734000  1.0
  N  N105  1  0.32724000  0.79721000  0.31266000  1.0
  N  N106  1  0.32724000  0.70279000  0.81266000  1.0
  N  N107  1  0.67276000  0.20279000  0.68734000  1.0
  N  N108  1  0.00471000  0.05023000  0.69637000  1.0
  N  N109  1  0.99529000  0.55023000  0.80363000  1.0
  N  N110  1  0.99529000  0.94977000  0.30363000  1.0
  N  N111  1  0.00471000  0.44978000  0.19637000  1.0
  O  O112  1  0.68544000  0.09166000  0.48058000  1.0
  O  O113  1  0.31456000  0.59165000  0.01942000  1.0
  O  O114  1  0.31456000  0.90834000  0.51942000  1.0
  O  O115  1  0.68544000  0.40835000  0.98058000  1.0
  O  O116  1  0.86124000  0.22833000  0.50077000  1.0
  O  O117  1  0.13876000  0.72833000  0.99923000  1.0
  O  O118  1  0.13876000  0.77167000  0.49923000  1.0
  O  O119  1  0.86123000  0.27167000  0.00077000  1.0
  O  O120  1  0.32437000  0.16238000  0.39316000  1.0
  O  O121  1  0.67563000  0.66237000  0.10684000  1.0
  O  O122  1  0.67564000  0.83762000  0.60684000  1.0
  O  O123  1  0.32436000  0.33762000  0.89316000  1.0
  O  O124  1  0.36685000  0.01738000  0.30854000  1.0
  O  O125  1  0.63316000  0.51738000  0.19146000  1.0
  O  O126  1  0.63315000  0.98262000  0.69146000  1.0
  O  O127  1  0.36685000  0.48262000  0.80854000  1.0
