# generated using pymatgen
data_AlH15C25N2O7
_symmetry_space_group_name_H-M   'P 1'
_cell_length_a   6.56224000
_cell_length_b   25.52090000
_cell_length_c   30.35400000
_cell_angle_alpha   67.15600000
_cell_angle_beta   89.19020000
_cell_angle_gamma   88.58350000
_symmetry_Int_Tables_number   1
_chemical_formula_structural   AlH15C25N2O7
_chemical_formula_sum   'Al4 H60 C100 N8 O28'
_cell_volume   4683.30167708
_cell_formula_units_Z   4
loop_
 _symmetry_equiv_pos_site_id
 _symmetry_equiv_pos_as_xyz
  1  'x, y, z'
loop_
 _atom_site_type_symbol
 _atom_site_label
 _atom_site_symmetry_multiplicity
 _atom_site_fract_x
 _atom_site_fract_y
 _atom_site_fract_z
 _atom_site_occupancy
  Al  Al0  1  0.79951000  0.24573000  0.75369000  1.0
  Al  Al1  1  0.17929000  0.75381000  0.24766000  1.0
  Al  Al2  1  0.29927000  0.24930000  0.74882000  1.0
  Al  Al3  1  0.67925000  0.75216000  0.25140000  1.0
  H  H4  1  0.71858000  0.09772000  0.04226000  1.0
  H  H5  1  0.28548000  0.90597000  0.95983000  1.0
  H  H6  1  0.32447000  0.40073000  0.45149000  1.0
  H  H7  1  0.67844000  0.59897000  0.54971000  1.0
  H  H8  1  0.91682000  0.12150000  0.89670000  1.0
  H  H9  1  0.07559000  0.88098000  0.10425000  1.0
  H  H10  1  0.46426000  0.37307000  0.59933000  1.0
  H  H11  1  0.55506000  0.62540000  0.40074000  1.0
  H  H12  1  0.28485000  0.06119000  0.80784000  1.0
  H  H13  1  0.69655000  0.93965000  0.19245000  1.0
  H  H14  1  0.66315000  0.44107000  0.69999000  1.0
  H  H15  1  0.29069000  0.56168000  0.30329000  1.0
  H  H16  1  0.65962000  0.03486000  0.12575000  1.0
  H  H17  1  0.33232000  0.96706000  0.87578000  1.0
  H  H18  1  0.27314000  0.46503000  0.36804000  1.0
  H  H19  1  0.69935000  0.53652000  0.63449000  1.0
  H  H20  1  0.84580000  0.11314000  0.96212000  1.0
  H  H21  1  0.16043000  0.89108000  0.03992000  1.0
  H  H22  1  0.41565000  0.38455000  0.53362000  1.0
  H  H23  1  0.60423000  0.61453000  0.46699000  1.0
  H  H24  1  0.96176000  0.34923000  0.07191000  1.0
  H  H25  1  0.99142000  0.64915000  0.92957000  1.0
  H  H26  1  0.11434000  0.10122000  0.47766000  1.0
  H  H27  1  0.95255000  0.90168000  0.51919000  1.0
  H  H28  1  0.94287000  0.40548000  0.12466000  1.0
  H  H29  1  0.03623000  0.59275000  0.87736000  1.0
  H  H30  1  0.10228000  0.05122000  0.42010000  1.0
  H  H31  1  0.97363000  0.95539000  0.57359000  1.0
  H  H32  1  0.24153000  0.64193000  0.07954000  1.0
  H  H33  1  0.32146000  0.34893000  0.92580000  1.0
  H  H34  1  0.25351000  0.84531000  0.43734000  1.0
  H  H35  1  0.50796000  0.18765000  0.54835000  1.0
  H  H36  1  0.64585000  0.64826000  0.17927000  1.0
  H  H37  1  0.74815000  0.35836000  0.81871000  1.0
  H  H38  1  0.65028000  0.88707000  0.28811000  1.0
  H  H39  1  0.64137000  0.08929000  0.72171000  1.0
  H  H40  1  0.63913000  0.58672000  0.13216000  1.0
  H  H41  1  0.73782000  0.41952000  0.86622000  1.0
  H  H42  1  0.70632000  0.94408000  0.33772000  1.0
  H  H43  1  0.62911000  0.03296000  0.67084000  1.0
  H  H44  1  0.39759000  0.70158000  0.10194000  1.0
  H  H45  1  0.42527000  0.79025000  0.10385000  1.0
  H  H46  1  0.19609000  0.78322000  0.13677000  1.0
  H  H47  1  0.18638000  0.79350000  0.07509000  1.0
  H  H48  1  0.47400000  0.28547000  0.90513000  1.0
  H  H49  1  0.49020000  0.19520000  0.90762000  1.0
  H  H50  1  0.28072000  0.20732000  0.86871000  1.0
  H  H51  1  0.23816000  0.19939000  0.92932000  1.0
  H  H52  1  0.14676000  0.76642000  0.42952000  1.0
  H  H53  1  0.89083000  0.74247000  0.38481000  1.0
  H  H54  1  0.98526000  0.79636000  0.33233000  1.0
  H  H55  1  0.86942000  0.81518000  0.37801000  1.0
  H  H56  1  0.52196000  0.27248000  0.56017000  1.0
  H  H57  1  0.22673000  0.31479000  0.58130000  1.0
  H  H58  1  0.20474000  0.25242000  0.63438000  1.0
  H  H59  1  0.16287000  0.24880000  0.57762000  1.0
  H  H60  1  0.53565000  0.25204000  0.80655000  1.0
  H  H61  1  0.44401000  0.74798000  0.19470000  1.0
  H  H62  1  0.03179000  0.29924000  0.69385000  1.0
  H  H63  1  0.94102000  0.70212000  0.30710000  1.0
  C  C64  1  0.56924000  0.20039000  0.69709000  1.0
  C  C65  1  0.40884000  0.80226000  0.30283000  1.0
  C  C66  1  0.03561000  0.29195000  0.80974000  1.0
  C  C67  1  0.94422000  0.70740000  0.19147000  1.0
  C  C68  1  0.54173000  0.34420000  0.69081000  1.0
  C  C69  1  0.43837000  0.65654000  0.31068000  1.0
  C  C70  1  0.07292000  0.15267000  0.80973000  1.0
  C  C71  1  0.90927000  0.84815000  0.19042000  1.0
  C  C72  1  0.89164000  0.90560000  0.15137000  1.0
  C  C73  1  0.09546000  0.09583000  0.84939000  1.0
  C  C74  1  0.42830000  0.59832000  0.34910000  1.0
  C  C75  1  0.55729000  0.40239000  0.65241000  1.0
  C  C76  1  0.74772000  0.00071000  0.12080000  1.0
  C  C77  1  0.24439000  0.00139000  0.88050000  1.0
  C  C78  1  0.33304000  0.50037000  0.37531000  1.0
  C  C79  1  0.64759000  0.50070000  0.62675000  1.0
  C  C80  1  0.76994000  0.94848000  0.15796000  1.0
  C  C81  1  0.21669000  0.05289000  0.84279000  1.0
  C  C82  1  0.34418000  0.55369000  0.33923000  1.0
  C  C83  1  0.62665000  0.44795000  0.66319000  1.0
  C  C84  1  0.98226000  0.91514000  0.10749000  1.0
  C  C85  1  0.01046000  0.08723000  0.89367000  1.0
  C  C86  1  0.49248000  0.58963000  0.39471000  1.0
  C  C87  1  0.51350000  0.40984000  0.60586000  1.0
  C  C88  1  0.94802000  0.96656000  0.06767000  1.0
  C  C89  1  0.04952000  0.03650000  0.93385000  1.0
  C  C90  1  0.47128000  0.53632000  0.43300000  1.0
  C  C91  1  0.53779000  0.46309000  0.56771000  1.0
  C  C92  1  0.83253000  0.01071000  0.07510000  1.0
  C  C93  1  0.16486000  0.99225000  0.92649000  1.0
  C  C94  1  0.39457000  0.49052000  0.42244000  1.0
  C  C95  1  0.60487000  0.50945000  0.57877000  1.0
  C  C96  1  0.02086000  0.97544000  0.02008000  1.0
  C  C97  1  0.97985000  0.02812000  0.98158000  1.0
  C  C98  1  0.51990000  0.52701000  0.48193000  1.0
  C  C99  1  0.49634000  0.47216000  0.51851000  1.0
  C  C100  1  0.87254000  0.07198000  0.99112000  1.0
  C  C101  1  0.13059000  0.93183000  0.01075000  1.0
  C  C102  1  0.42929000  0.42701000  0.50593000  1.0
  C  C103  1  0.58677000  0.57214000  0.49461000  1.0
  C  C104  1  0.80166000  0.06369000  0.03592000  1.0
  C  C105  1  0.20037000  0.93985000  0.96596000  1.0
  C  C106  1  0.37904000  0.43576000  0.45999000  1.0
  C  C107  1  0.62781000  0.56374000  0.54097000  1.0
  C  C108  1  0.04165000  0.48003000  0.90489000  1.0
  C  C109  1  0.94790000  0.51796000  0.09743000  1.0
  C  C110  1  0.71944000  0.03622000  0.57808000  1.0
  C  C111  1  0.35748000  0.97140000  0.41503000  1.0
  C  C112  1  0.99568000  0.38946000  0.97711000  1.0
  C  C113  1  0.94974000  0.60895000  0.02425000  1.0
  C  C114  1  0.38920000  0.08706000  0.54479000  1.0
  C  C115  1  0.67103000  0.91385000  0.45287000  1.0
  C  C116  1  0.98605000  0.42319000  0.00736000  1.0
  C  C117  1  0.97297000  0.57513000  0.99425000  1.0
  C  C118  1  0.38660000  0.05740000  0.51140000  1.0
  C  C119  1  0.68226000  0.94591000  0.48448000  1.0
  C  C120  1  0.99231000  0.48328000  0.98610000  1.0
  C  C121  1  0.97413000  0.51499000  0.01566000  1.0
  C  C122  1  0.54028000  0.01678000  0.51329000  1.0
  C  C123  1  0.53112000  0.98765000  0.48173000  1.0
  C  C124  1  0.01606000  0.51241000  0.93607000  1.0
  C  C125  1  0.95748000  0.48582000  0.06585000  1.0
  C  C126  1  0.70265000  0.00474000  0.54615000  1.0
  C  C127  1  0.37050000  0.00104000  0.44825000  1.0
  C  C128  1  0.96678000  0.39553000  0.05666000  1.0
  C  C129  1  0.99334000  0.60281000  0.94497000  1.0
  C  C130  1  0.23023000  0.06963000  0.47827000  1.0
  C  C131  1  0.83887000  0.93427000  0.51750000  1.0
  C  C132  1  0.95471000  0.42676000  0.08590000  1.0
  C  C133  1  0.01709000  0.57150000  0.91597000  1.0
  C  C134  1  0.22310000  0.04180000  0.44652000  1.0
  C  C135  1  0.84995000  0.96385000  0.54798000  1.0
  C  C136  1  0.11320000  0.64230000  0.10270000  1.0
  C  C137  1  0.19849000  0.35192000  0.90103000  1.0
  C  C138  1  0.34196000  0.85379000  0.40465000  1.0
  C  C139  1  0.53671000  0.16586000  0.58649000  1.0
  C  C140  1  0.11857000  0.67824000  0.12801000  1.0
  C  C141  1  0.20442000  0.31573000  0.87573000  1.0
  C  C142  1  0.30305000  0.82256000  0.37649000  1.0
  C  C143  1  0.52645000  0.19733000  0.61536000  1.0
  C  C144  1  0.94651000  0.67883000  0.15696000  1.0
  C  C145  1  0.03914000  0.31997000  0.84452000  1.0
  C  C146  1  0.41620000  0.83607000  0.33349000  1.0
  C  C147  1  0.56774000  0.16902000  0.66453000  1.0
  C  C148  1  0.77586000  0.64657000  0.15706000  1.0
  C  C149  1  0.87298000  0.35679000  0.84249000  1.0
  C  C150  1  0.55986000  0.87926000  0.32037000  1.0
  C  C151  1  0.60788000  0.11037000  0.68368000  1.0
  C  C152  1  0.77099000  0.61236000  0.13091000  1.0
  C  C153  1  0.86673000  0.39084000  0.86865000  1.0
  C  C154  1  0.59413000  0.91058000  0.34817000  1.0
  C  C155  1  0.60344000  0.07877000  0.65523000  1.0
  C  C156  1  0.94341000  0.61051000  0.10398000  1.0
  C  C157  1  0.03335000  0.38807000  0.89771000  1.0
  C  C158  1  0.48411000  0.89672000  0.39061000  1.0
  C  C159  1  0.57023000  0.10713000  0.60624000  1.0
  C  C160  1  0.27168000  0.77269000  0.10882000  1.0
  C  C161  1  0.34103000  0.21682000  0.89811000  1.0
  C  C162  1  0.96698000  0.78359000  0.37086000  1.0
  C  C163  1  0.25489000  0.26858000  0.59701000  1.0
  N  N164  1  0.02668000  0.42037000  0.92766000  1.0
  N  N165  1  0.94587000  0.57786000  0.07430000  1.0
  N  N166  1  0.56061000  0.07604000  0.57543000  1.0
  N  N167  1  0.50771000  0.92885000  0.42031000  1.0
  N  N168  1  0.29052000  0.71116000  0.12238000  1.0
  N  N169  1  0.37011000  0.27803000  0.88378000  1.0
  N  N170  1  0.16807000  0.77694000  0.39379000  1.0
  N  N171  1  0.47579000  0.25657000  0.59507000  1.0
  O  O172  1  0.36624000  0.32682000  0.70778000  1.0
  O  O173  1  0.61301000  0.67546000  0.29414000  1.0
  O  O174  1  0.90196000  0.17907000  0.80459000  1.0
  O  O175  1  0.07949000  0.82116000  0.19641000  1.0
  O  O176  1  0.73339000  0.19937000  0.71913000  1.0
  O  O177  1  0.24282000  0.79909000  0.28301000  1.0
  O  O178  1  0.20446000  0.27450000  0.79853000  1.0
  O  O179  1  0.77260000  0.72471000  0.20171000  1.0
  O  O180  1  0.70904000  0.31628000  0.70278000  1.0
  O  O181  1  0.26857000  0.68297000  0.29801000  1.0
  O  O182  1  0.23224000  0.17177000  0.78487000  1.0
  O  O183  1  0.74758000  0.82916000  0.21432000  1.0
  O  O184  1  0.86302000  0.28868000  0.79221000  1.0
  O  O185  1  0.11466000  0.71119000  0.20947000  1.0
  O  O186  1  0.40421000  0.22533000  0.70102000  1.0
  O  O187  1  0.57744000  0.77934000  0.29795000  1.0
  O  O188  1  0.54441000  0.23674000  0.78180000  1.0
  O  O189  1  0.43389000  0.76352000  0.21926000  1.0
  O  O190  1  0.04585000  0.26293000  0.72073000  1.0
  O  O191  1  0.93158000  0.73789000  0.27953000  1.0
  O  O192  1  0.07355000  0.50296000  0.86171000  1.0
  O  O193  1  0.94383000  0.49463000  0.14122000  1.0
  O  O194  1  0.86400000  0.02831000  0.60532000  1.0
  O  O195  1  0.22331000  0.98229000  0.38476000  1.0
  O  O196  1  0.97690000  0.33759000  0.99354000  1.0
  O  O197  1  0.93595000  0.66112000  0.00713000  1.0
  O  O198  1  0.25064000  0.11992000  0.54551000  1.0
  O  O199  1  0.79401000  0.87585000  0.45493000  1.0
