# generated using pymatgen
data_Cd3H64C84(N3O7)2
_symmetry_space_group_name_H-M   'P 1'
_cell_length_a   11.64890000
_cell_length_b   19.00520000
_cell_length_c   21.90230000
_cell_angle_alpha   90.00000000
_cell_angle_beta   96.75200000
_cell_angle_gamma   89.99980000
_symmetry_Int_Tables_number   1
_chemical_formula_structural   Cd3H64C84(N3O7)2
_chemical_formula_sum   'Cd6 H128 C168 N12 O28'
_cell_volume   4815.31250807
_cell_formula_units_Z   2
loop_
 _symmetry_equiv_pos_site_id
 _symmetry_equiv_pos_as_xyz
  1  'x, y, z'
loop_
 _atom_site_type_symbol
 _atom_site_label
 _atom_site_symmetry_multiplicity
 _atom_site_fract_x
 _atom_site_fract_y
 _atom_site_fract_z
 _atom_site_occupancy
  Cd  Cd0  1  0.35766000  0.02362000  0.94850000  1.0
  Cd  Cd1  1  0.64234000  0.02362000  0.55150000  1.0
  Cd  Cd2  1  0.64233000  0.97637000  0.05150000  1.0
  Cd  Cd3  1  0.35766000  0.97638000  0.44850000  1.0
  Cd  Cd4  1  0.00001000  0.49999000  0.00000000  1.0
  Cd  Cd5  1  0.00000000  0.50000000  0.50000000  1.0
  H  H6  1  0.31738000  0.17287000  0.00534000  1.0
  H  H7  1  0.68262000  0.17288000  0.49466000  1.0
  H  H8  1  0.68262000  0.82712000  0.99466000  1.0
  H  H9  1  0.31738000  0.82713000  0.50534000  1.0
  H  H10  1  0.18207000  0.23966000  0.06365000  1.0
  H  H11  1  0.81794000  0.23966000  0.43634000  1.0
  H  H12  1  0.81795000  0.76034000  0.93635000  1.0
  H  H13  1  0.18207000  0.76034000  0.56365000  1.0
  H  H14  1  0.99806000  0.04448000  0.08274000  1.0
  H  H15  1  0.00194000  0.04448000  0.41726000  1.0
  H  H16  1  0.00194000  0.95553000  0.91726000  1.0
  H  H17  1  0.99806000  0.95553000  0.58274000  1.0
  H  H18  1  0.14568000  0.98544000  0.02483000  1.0
  H  H19  1  0.85432000  0.98544000  0.47518000  1.0
  H  H20  1  0.85431000  0.01456000  0.97518000  1.0
  H  H21  1  0.14568000  0.01457000  0.52482000  1.0
  H  H22  1  0.92572000  0.14486000  0.12590000  1.0
  H  H23  1  0.07429000  0.14486000  0.37410000  1.0
  H  H24  1  0.07430000  0.85515000  0.87411000  1.0
  H  H25  1  0.92571000  0.85515000  0.62590000  1.0
  H  H26  1  0.06323000  0.28338000  0.12052000  1.0
  H  H27  1  0.93678000  0.28337000  0.37949000  1.0
  H  H28  1  0.93679000  0.71663000  0.87949000  1.0
  H  H29  1  0.06323000  0.71663000  0.62051000  1.0
  H  H30  1  0.97104000  0.38489000  0.15064000  1.0
  H  H31  1  0.02897000  0.38489000  0.34936000  1.0
  H  H32  1  0.02899000  0.61511000  0.84936000  1.0
  H  H33  1  0.97103000  0.61511000  0.65064000  1.0
  H  H34  1  0.83815000  0.44453000  0.21600000  1.0
  H  H35  1  0.16186000  0.44453000  0.28401000  1.0
  H  H36  1  0.16188000  0.55548000  0.78401000  1.0
  H  H37  1  0.83813000  0.55548000  0.71599000  1.0
  H  H38  1  0.70953000  0.37310000  0.27446000  1.0
  H  H39  1  0.29047000  0.37310000  0.22554000  1.0
  H  H40  1  0.29048000  0.62691000  0.72554000  1.0
  H  H41  1  0.70952000  0.62691000  0.77445000  1.0
  H  H42  1  0.84162000  0.18371000  0.20015000  1.0
  H  H43  1  0.15838000  0.18371000  0.29984000  1.0
  H  H44  1  0.15839000  0.81629000  0.79985000  1.0
  H  H45  1  0.84161000  0.81629000  0.70015000  1.0
  H  H46  1  0.62857000  0.26427000  0.29876000  1.0
  H  H47  1  0.37144000  0.26428000  0.20124000  1.0
  H  H48  1  0.37144000  0.73573000  0.70124000  1.0
  H  H49  1  0.62856000  0.73573000  0.79876000  1.0
  H  H50  1  0.75838000  0.13103000  0.26531000  1.0
  H  H51  1  0.24162000  0.13103000  0.23469000  1.0
  H  H52  1  0.24162000  0.86898000  0.73469000  1.0
  H  H53  1  0.75837000  0.86898000  0.76531000  1.0
  H  H54  1  0.71442000  0.02535000  0.31431000  1.0
  H  H55  1  0.28557000  0.02535000  0.18568000  1.0
  H  H56  1  0.28557000  0.97465000  0.68569000  1.0
  H  H57  1  0.71443000  0.97465000  0.81431000  1.0
  H  H58  1  0.58750000  0.95634000  0.37586000  1.0
  H  H59  1  0.41248000  0.95634000  0.12413000  1.0
  H  H60  1  0.41248000  0.04366000  0.62414000  1.0
  H  H61  1  0.58751000  0.04366000  0.87586000  1.0
  H  H62  1  0.37481000  0.12783000  0.39376000  1.0
  H  H63  1  0.62518000  0.12783000  0.10623000  1.0
  H  H64  1  0.62519000  0.87218000  0.60624000  1.0
  H  H65  1  0.37481000  0.87217000  0.89376000  1.0
  H  H66  1  0.49305000  0.20486000  0.33485000  1.0
  H  H67  1  0.50695000  0.20485000  0.16515000  1.0
  H  H68  1  0.50696000  0.79515000  0.66515000  1.0
  H  H69  1  0.49304000  0.79515000  0.83485000  1.0
  H  H70  1  0.94471000  0.66136000  0.03460000  1.0
  H  H71  1  0.05528000  0.66136000  0.46539000  1.0
  H  H72  1  0.05530000  0.33863000  0.96540000  1.0
  H  H73  1  0.94471000  0.33864000  0.53461000  1.0
  H  H74  1  0.82078000  0.73244000  0.09624000  1.0
  H  H75  1  0.17921000  0.73244000  0.40375000  1.0
  H  H76  1  0.17923000  0.26756000  0.90376000  1.0
  H  H77  1  0.82078000  0.26756000  0.59624000  1.0
  H  H78  1  0.67549000  0.53637000  0.15281000  1.0
  H  H79  1  0.32450000  0.53638000  0.34718000  1.0
  H  H80  1  0.32450000  0.46363000  0.84718000  1.0
  H  H81  1  0.67549000  0.46363000  0.65282000  1.0
  H  H82  1  0.80324000  0.47409000  0.08637000  1.0
  H  H83  1  0.19676000  0.47410000  0.41363000  1.0
  H  H84  1  0.19676000  0.52590000  0.91363000  1.0
  H  H85  1  0.80324000  0.52591000  0.58637000  1.0
  H  H86  1  0.60554000  0.64083000  0.19245000  1.0
  H  H87  1  0.39445000  0.64083000  0.30754000  1.0
  H  H88  1  0.39447000  0.35917000  0.80755000  1.0
  H  H89  1  0.60553000  0.35917000  0.69246000  1.0
  H  H90  1  0.71256000  0.78191000  0.15771000  1.0
  H  H91  1  0.28744000  0.78192000  0.34229000  1.0
  H  H92  1  0.28745000  0.21809000  0.84229000  1.0
  H  H93  1  0.71256000  0.21809000  0.65771000  1.0
  H  H94  1  0.50000000  0.68811000  0.25000000  1.0
  H  H95  1  0.50000000  0.31189000  0.75000000  1.0
  H  H96  1  0.63673000  0.88390000  0.19116000  1.0
  H  H97  1  0.36328000  0.88390000  0.30884000  1.0
  H  H98  1  0.36329000  0.11610000  0.80885000  1.0
  H  H99  1  0.63673000  0.11610000  0.69116000  1.0
  H  H100  1  0.50001000  0.94958000  0.25000000  1.0
  H  H101  1  0.50001000  0.05041000  0.75001000  1.0
  H  H102  1  0.87548000  0.28483000  0.02738000  1.0
  H  H103  1  0.12452000  0.28484000  0.47261000  1.0
  H  H104  1  0.12450000  0.71515000  0.97261000  1.0
  H  H105  1  0.87548000  0.71516000  0.52738000  1.0
  H  H106  1  0.78813000  0.16390000  0.02905000  1.0
  H  H107  1  0.21187000  0.16391000  0.47094000  1.0
  H  H108  1  0.21185000  0.83609000  0.97094000  1.0
  H  H109  1  0.78813000  0.83609000  0.52906000  1.0
  H  H110  1  0.48707000  0.23811000  0.91560000  1.0
  H  H111  1  0.51293000  0.23811000  0.58439000  1.0
  H  H112  1  0.51292000  0.76189000  0.08439000  1.0
  H  H113  1  0.48707000  0.76189000  0.41560000  1.0
  H  H114  1  0.57899000  0.35745000  0.90955000  1.0
  H  H115  1  0.42102000  0.35745000  0.59045000  1.0
  H  H116  1  0.42101000  0.64255000  0.09045000  1.0
  H  H117  1  0.57898000  0.64255000  0.40954000  1.0
  H  H118  1  0.07544000  0.91932000  0.79585000  1.0
  H  H119  1  0.92457000  0.91932000  0.70416000  1.0
  H  H120  1  0.92456000  0.08068000  0.20416000  1.0
  H  H121  1  0.07543000  0.08068000  0.29585000  1.0
  H  H122  1  0.07910000  0.14484000  0.79451000  1.0
  H  H123  1  0.92090000  0.14484000  0.70549000  1.0
  H  H124  1  0.92089000  0.85516000  0.20549000  1.0
  H  H125  1  0.07909000  0.85516000  0.29451000  1.0
  H  H126  1  0.91837000  0.52155000  0.87010000  1.0
  H  H127  1  0.08164000  0.52156000  0.62990000  1.0
  H  H128  1  0.08165000  0.47843000  0.12991000  1.0
  H  H129  1  0.91835000  0.47843000  0.37010000  1.0
  H  H130  1  0.82085000  0.50456000  0.91241000  1.0
  H  H131  1  0.17915000  0.50457000  0.58760000  1.0
  H  H132  1  0.17916000  0.49543000  0.08760000  1.0
  H  H133  1  0.82084000  0.49543000  0.41240000  1.0
  C  C134  1  0.24540000  0.14681000  0.02378000  1.0
  C  C135  1  0.75461000  0.14681000  0.47622000  1.0
  C  C136  1  0.75461000  0.85319000  0.97622000  1.0
  C  C137  1  0.24540000  0.85320000  0.52378000  1.0
  C  C138  1  0.16931000  0.18336000  0.05624000  1.0
  C  C139  1  0.83070000  0.18336000  0.44376000  1.0
  C  C140  1  0.83070000  0.81664000  0.94376000  1.0
  C  C141  1  0.16931000  0.81664000  0.55624000  1.0
  C  C142  1  0.07768000  0.14725000  0.07906000  1.0
  C  C143  1  0.92233000  0.14725000  0.42094000  1.0
  C  C144  1  0.92233000  0.85276000  0.92094000  1.0
  C  C145  1  0.07768000  0.85276000  0.57906000  1.0
  C  C146  1  0.06849000  0.07456000  0.06669000  1.0
  C  C147  1  0.93152000  0.07455000  0.43331000  1.0
  C  C148  1  0.93151000  0.92545000  0.93331000  1.0
  C  C149  1  0.06849000  0.92545000  0.56669000  1.0
  C  C150  1  0.14926000  0.04182000  0.03433000  1.0
  C  C151  1  0.85075000  0.04182000  0.46567000  1.0
  C  C152  1  0.85074000  0.95818000  0.96567000  1.0
  C  C153  1  0.14926000  0.95818000  0.53433000  1.0
  C  C154  1  0.99449000  0.18008000  0.11473000  1.0
  C  C155  1  0.00552000  0.18008000  0.38527000  1.0
  C  C156  1  0.00553000  0.81992000  0.88527000  1.0
  C  C157  1  0.99449000  0.81992000  0.61473000  1.0
  C  C158  1  0.99652000  0.24782000  0.13373000  1.0
  C  C159  1  0.00349000  0.24781000  0.36627000  1.0
  C  C160  1  0.00350000  0.75219000  0.86628000  1.0
  C  C161  1  0.99652000  0.75219000  0.63372000  1.0
  C  C162  1  0.91564000  0.28029000  0.17135000  1.0
  C  C163  1  0.08437000  0.28029000  0.32865000  1.0
  C  C164  1  0.08438000  0.71971000  0.82866000  1.0
  C  C165  1  0.91563000  0.71971000  0.67134000  1.0
  C  C166  1  0.91357000  0.35426000  0.17627000  1.0
  C  C167  1  0.08643000  0.35426000  0.32373000  1.0
  C  C168  1  0.08644000  0.64574000  0.82374000  1.0
  C  C169  1  0.91357000  0.64574000  0.67627000  1.0
  C  C170  1  0.83896000  0.38723000  0.21254000  1.0
  C  C171  1  0.16105000  0.38723000  0.28747000  1.0
  C  C172  1  0.16106000  0.61277000  0.78747000  1.0
  C  C173  1  0.83894000  0.61277000  0.71253000  1.0
  C  C174  1  0.76609000  0.34728000  0.24495000  1.0
  C  C175  1  0.23392000  0.34728000  0.25506000  1.0
  C  C176  1  0.23392000  0.65272000  0.75506000  1.0
  C  C177  1  0.76607000  0.65272000  0.74494000  1.0
  C  C178  1  0.76641000  0.27316000  0.24117000  1.0
  C  C179  1  0.23359000  0.27316000  0.25883000  1.0
  C  C180  1  0.23360000  0.72685000  0.75883000  1.0
  C  C181  1  0.76640000  0.72685000  0.74116000  1.0
  C  C182  1  0.84096000  0.24088000  0.20372000  1.0
  C  C183  1  0.15904000  0.24088000  0.29628000  1.0
  C  C184  1  0.15905000  0.75912000  0.79628000  1.0
  C  C185  1  0.84095000  0.75912000  0.70372000  1.0
  C  C186  1  0.69078000  0.23290000  0.27666000  1.0
  C  C187  1  0.30922000  0.23290000  0.22334000  1.0
  C  C188  1  0.30922000  0.76710000  0.72334000  1.0
  C  C189  1  0.69078000  0.76710000  0.77665000  1.0
  C  C190  1  0.69319000  0.16239000  0.28498000  1.0
  C  C191  1  0.30681000  0.16239000  0.21502000  1.0
  C  C192  1  0.30681000  0.83761000  0.71502000  1.0
  C  C193  1  0.69319000  0.83761000  0.78497000  1.0
  C  C194  1  0.61710000  0.12216000  0.31982000  1.0
  C  C195  1  0.38290000  0.12216000  0.18018000  1.0
  C  C196  1  0.38290000  0.87784000  0.68018000  1.0
  C  C197  1  0.61710000  0.87784000  0.81982000  1.0
  C  C198  1  0.64027000  0.05046000  0.33142000  1.0
  C  C199  1  0.35972000  0.05046000  0.16858000  1.0
  C  C200  1  0.35972000  0.94955000  0.66858000  1.0
  C  C201  1  0.64028000  0.94954000  0.83142000  1.0
  C  C202  1  0.56959000  0.01155000  0.36558000  1.0
  C  C203  1  0.43039000  0.01155000  0.13442000  1.0
  C  C204  1  0.43040000  0.98845000  0.63442000  1.0
  C  C205  1  0.56960000  0.98845000  0.86558000  1.0
  C  C206  1  0.45205000  0.10763000  0.37601000  1.0
  C  C207  1  0.54794000  0.10763000  0.12399000  1.0
  C  C208  1  0.54794000  0.89237000  0.62400000  1.0
  C  C209  1  0.45206000  0.89237000  0.87601000  1.0
  C  C210  1  0.51890000  0.15028000  0.34298000  1.0
  C  C211  1  0.48109000  0.15028000  0.15702000  1.0
  C  C212  1  0.48110000  0.84973000  0.65702000  1.0
  C  C213  1  0.51890000  0.84972000  0.84298000  1.0
  C  C214  1  0.88314000  0.63613000  0.06156000  1.0
  C  C215  1  0.11686000  0.63614000  0.43844000  1.0
  C  C216  1  0.11687000  0.36386000  0.93844000  1.0
  C  C217  1  0.88314000  0.36386000  0.56156000  1.0
  C  C218  1  0.81430000  0.67521000  0.09650000  1.0
  C  C219  1  0.18570000  0.67521000  0.40350000  1.0
  C  C220  1  0.18570000  0.32479000  0.90350000  1.0
  C  C221  1  0.81430000  0.32479000  0.59650000  1.0
  C  C222  1  0.73733000  0.64049000  0.13166000  1.0
  C  C223  1  0.26266000  0.64050000  0.36834000  1.0
  C  C224  1  0.26267000  0.35951000  0.86834000  1.0
  C  C225  1  0.73733000  0.35951000  0.63166000  1.0
  C  C226  1  0.73426000  0.56643000  0.12753000  1.0
  C  C227  1  0.26573000  0.56643000  0.37246000  1.0
  C  C228  1  0.26574000  0.43357000  0.87247000  1.0
  C  C229  1  0.73426000  0.43357000  0.62754000  1.0
  C  C230  1  0.80508000  0.53134000  0.09086000  1.0
  C  C231  1  0.19492000  0.53134000  0.40914000  1.0
  C  C232  1  0.19492000  0.46866000  0.90914000  1.0
  C  C233  1  0.80508000  0.46866000  0.59086000  1.0
  C  C234  1  0.66244000  0.67596000  0.17034000  1.0
  C  C235  1  0.33755000  0.67597000  0.32966000  1.0
  C  C236  1  0.33757000  0.32403000  0.82966000  1.0
  C  C237  1  0.66243000  0.32403000  0.67034000  1.0
  C  C238  1  0.65653000  0.74621000  0.17995000  1.0
  C  C239  1  0.34347000  0.74621000  0.32005000  1.0
  C  C240  1  0.34348000  0.25379000  0.82006000  1.0
  C  C241  1  0.65653000  0.25379000  0.67995000  1.0
  C  C242  1  0.50000000  0.74546000  0.25000000  1.0
  C  C243  1  0.50000000  0.25454000  0.75000000  1.0
  C  C244  1  0.57722000  0.78160000  0.21666000  1.0
  C  C245  1  0.42278000  0.78160000  0.28334000  1.0
  C  C246  1  0.42278000  0.21840000  0.78334000  1.0
  C  C247  1  0.57722000  0.21840000  0.71666000  1.0
  C  C248  1  0.57667000  0.85591000  0.21726000  1.0
  C  C249  1  0.42334000  0.85591000  0.28274000  1.0
  C  C250  1  0.42334000  0.14408000  0.78275000  1.0
  C  C251  1  0.57667000  0.14409000  0.71726000  1.0
  C  C252  1  0.50001000  0.89223000  0.25000000  1.0
  C  C253  1  0.50001000  0.10777000  0.75001000  1.0
  C  C254  1  0.78902000  0.39817000  0.96487000  1.0
  C  C255  1  0.21098000  0.39818000  0.53513000  1.0
  C  C256  1  0.21097000  0.60182000  0.03513000  1.0
  C  C257  1  0.78902000  0.60183000  0.46486000  1.0
  C  C258  1  0.73255000  0.32761000  0.96808000  1.0
  C  C259  1  0.26744000  0.32762000  0.53192000  1.0
  C  C260  1  0.26743000  0.67238000  0.03192000  1.0
  C  C261  1  0.73256000  0.67239000  0.46808000  1.0
  C  C262  1  0.79121000  0.27353000  0.00235000  1.0
  C  C263  1  0.20879000  0.27354000  0.49765000  1.0
  C  C264  1  0.20878000  0.72646000  0.99765000  1.0
  C  C265  1  0.79121000  0.72646000  0.50235000  1.0
  C  C266  1  0.74256000  0.20693000  0.00373000  1.0
  C  C267  1  0.25745000  0.20693000  0.49626000  1.0
  C  C268  1  0.25743000  0.79307000  0.99626000  1.0
  C  C269  1  0.74256000  0.79307000  0.50373000  1.0
  C  C270  1  0.63255000  0.19454000  0.97237000  1.0
  C  C271  1  0.36745000  0.19455000  0.52762000  1.0
  C  C272  1  0.36744000  0.80545000  0.02762000  1.0
  C  C273  1  0.63255000  0.80546000  0.47237000  1.0
  C  C274  1  0.57258000  0.24895000  0.93934000  1.0
  C  C275  1  0.42742000  0.24896000  0.56066000  1.0
  C  C276  1  0.42741000  0.75104000  0.06066000  1.0
  C  C277  1  0.57258000  0.75104000  0.43934000  1.0
  C  C278  1  0.62304000  0.31492000  0.93627000  1.0
  C  C279  1  0.37697000  0.31492000  0.56373000  1.0
  C  C280  1  0.37696000  0.68508000  0.06372000  1.0
  C  C281  1  0.62304000  0.68508000  0.43627000  1.0
  C  C282  1  0.57906000  0.12322000  0.97420000  1.0
  C  C283  1  0.42094000  0.12322000  0.52579000  1.0
  C  C284  1  0.42092000  0.87678000  0.02579000  1.0
  C  C285  1  0.57906000  0.87678000  0.47420000  1.0
  C  C286  1  0.17850000  0.03031000  0.85389000  1.0
  C  C287  1  0.82150000  0.03030000  0.64611000  1.0
  C  C288  1  0.82149000  0.96970000  0.14611000  1.0
  C  C289  1  0.17849000  0.96969000  0.35389000  1.0
  C  C290  1  0.08604000  0.03194000  0.80037000  1.0
  C  C291  1  0.91396000  0.03194000  0.69964000  1.0
  C  C292  1  0.91396000  0.96806000  0.19964000  1.0
  C  C293  1  0.08603000  0.96805000  0.30037000  1.0
  C  C294  1  0.04203000  0.96834000  0.77519000  1.0
  C  C295  1  0.95797000  0.96835000  0.72481000  1.0
  C  C296  1  0.95796000  0.03165000  0.22481000  1.0
  C  C297  1  0.04202000  0.03165000  0.27519000  1.0
  C  C298  1  0.04340000  0.09575000  0.77475000  1.0
  C  C299  1  0.95659000  0.09575000  0.72525000  1.0
  C  C300  1  0.95659000  0.90425000  0.22525000  1.0
  C  C301  1  0.04340000  0.90425000  0.27475000  1.0
  N  N302  1  0.23659000  0.07703000  0.01318000  1.0
  N  N303  1  0.76341000  0.07703000  0.48682000  1.0
  N  N304  1  0.76340000  0.92297000  0.98682000  1.0
  N  N305  1  0.23659000  0.92297000  0.51318000  1.0
  N  N306  1  0.47688000  0.03930000  0.38786000  1.0
  N  N307  1  0.52310000  0.03930000  0.11213000  1.0
  N  N308  1  0.52311000  0.96071000  0.61214000  1.0
  N  N309  1  0.47689000  0.96070000  0.88787000  1.0
  N  N310  1  0.87957000  0.56522000  0.05859000  1.0
  N  N311  1  0.12043000  0.56522000  0.44141000  1.0
  N  N312  1  0.12044000  0.43478000  0.94142000  1.0
  N  N313  1  0.87956000  0.43478000  0.55859000  1.0
  O  O314  1  0.88441000  0.54061000  0.90509000  1.0
  O  O315  1  0.11560000  0.54062000  0.59491000  1.0
  O  O316  1  0.11561000  0.45937000  0.09492000  1.0
  O  O317  1  0.88439000  0.45937000  0.40509000  1.0
  O  O318  1  0.74260000  0.44309000  0.92688000  1.0
  O  O319  1  0.25741000  0.44310000  0.57312000  1.0
  O  O320  1  0.25740000  0.55691000  0.07313000  1.0
  O  O321  1  0.74260000  0.55691000  0.42687000  1.0
  O  O322  1  0.88245000  0.40663000  0.00155000  1.0
  O  O323  1  0.11755000  0.40664000  0.49845000  1.0
  O  O324  1  0.11754000  0.59336000  0.99845000  1.0
  O  O325  1  0.88246000  0.59337000  0.50154000  1.0
  O  O326  1  0.64620000  0.07171000  0.98909000  1.0
  O  O327  1  0.35380000  0.07171000  0.51090000  1.0
  O  O328  1  0.35377000  0.92829000  0.01090000  1.0
  O  O329  1  0.64621000  0.92829000  0.48909000  1.0
  O  O330  1  0.46989000  0.11989000  0.95992000  1.0
  O  O331  1  0.53011000  0.11990000  0.54007000  1.0
  O  O332  1  0.53010000  0.88010000  0.04008000  1.0
  O  O333  1  0.46989000  0.88011000  0.45992000  1.0
  O  O334  1  0.19670000  0.97210000  0.88288000  1.0
  O  O335  1  0.80330000  0.97210000  0.61712000  1.0
  O  O336  1  0.80329000  0.02790000  0.11713000  1.0
  O  O337  1  0.19669000  0.02789000  0.38288000  1.0
  O  O338  1  0.23600000  0.08623000  0.86786000  1.0
  O  O339  1  0.76400000  0.08623000  0.63214000  1.0
  O  O340  1  0.76399000  0.91377000  0.13214000  1.0
  O  O341  1  0.23600000  0.91376000  0.36786000  1.0
