# generated using pymatgen
data_ZnH24C36(NO2)4
_symmetry_space_group_name_H-M   'P 1'
_cell_length_a   8.73321000
_cell_length_b   9.70880000
_cell_length_c   17.99281554
_cell_angle_alpha   103.33770051
_cell_angle_beta   104.03846866
_cell_angle_gamma   90.00610000
_symmetry_Int_Tables_number   1
_chemical_formula_structural   ZnH24C36(NO2)4
_chemical_formula_sum   'Zn2 H48 C72 N8 O16'
_cell_volume   1437.56520538
_cell_formula_units_Z   2
loop_
 _symmetry_equiv_pos_site_id
 _symmetry_equiv_pos_as_xyz
  1  'x, y, z'
loop_
 _atom_site_type_symbol
 _atom_site_label
 _atom_site_symmetry_multiplicity
 _atom_site_fract_x
 _atom_site_fract_y
 _atom_site_fract_z
 _atom_site_occupancy
  Zn  Zn0  1  0.94766000  0.75000000  0.99998000  1.0
  Zn  Zn1  1  0.05234000  0.25000000  0.00002000  1.0
  H  H2  1  0.03003000  0.59023000  0.84566000  1.0
  H  H3  1  0.18472000  0.91007000  0.15427000  1.0
  H  H4  1  0.96997000  0.40977000  0.15434000  1.0
  H  H5  1  0.81528000  0.08994000  0.84573000  1.0
  H  H6  1  0.93302000  0.55752000  0.70064000  1.0
  H  H7  1  0.23260000  0.94288000  0.29932000  1.0
  H  H8  1  0.06698000  0.44248000  0.29936000  1.0
  H  H9  1  0.76739000  0.05712000  0.70068000  1.0
  H  H10  1  0.56239000  0.83728000  0.74608000  1.0
  H  H11  1  0.81680000  0.66272000  0.25387000  1.0
  H  H12  1  0.43760000  0.16272000  0.25392000  1.0
  H  H13  1  0.18320000  0.33728000  0.74613000  1.0
  H  H14  1  0.67887000  0.85871000  0.88865000  1.0
  H  H15  1  0.79091000  0.64115000  0.11130000  1.0
  H  H16  1  0.32113000  0.14130000  0.11135000  1.0
  H  H17  1  0.20908000  0.35885000  0.88869000  1.0
  H  H18  1  0.78538000  0.48461000  0.58706000  1.0
  H  H19  1  0.19843000  0.01557000  0.41293000  1.0
  H  H20  1  0.21462000  0.51539000  0.41294000  1.0
  H  H21  1  0.80158000  0.98443000  0.58707000  1.0
  H  H22  1  0.69762000  0.47923000  0.44388000  1.0
  H  H23  1  0.25372000  0.02079000  0.55609000  1.0
  H  H24  1  0.30238000  0.52077000  0.55612000  1.0
  H  H25  1  0.74629000  0.97921000  0.44391000  1.0
  H  H26  1  0.47282000  0.85336000  0.48813000  1.0
  H  H27  1  0.98424000  0.64680000  0.51169000  1.0
  H  H28  1  0.52717000  0.14664000  0.51187000  1.0
  H  H29  1  0.01576000  0.35320000  0.48831000  1.0
  H  H30  1  0.54931000  0.87755000  0.63264000  1.0
  H  H31  1  0.91652000  0.62272000  0.36720000  1.0
  H  H32  1  0.45069000  0.12245000  0.36736000  1.0
  H  H33  1  0.08349000  0.37728000  0.63281000  1.0
  H  H34  1  0.54893000  0.94204000  0.07409000  1.0
  H  H35  1  0.47469000  0.55810000  0.92583000  1.0
  H  H36  1  0.45107000  0.05796000  0.92591000  1.0
  H  H37  1  0.52532000  0.44191000  0.07417000  1.0
  H  H38  1  0.61245000  0.95714000  0.21856000  1.0
  H  H39  1  0.39354000  0.54294000  0.78137000  1.0
  H  H40  1  0.38756000  0.04286000  0.78144000  1.0
  H  H41  1  0.60646000  0.45706000  0.21863000  1.0
  H  H42  1  0.33270000  0.56740000  0.17350000  1.0
  H  H43  1  0.15904000  0.93277000  0.82651000  1.0
  H  H44  1  0.66730000  0.43260000  0.82650000  1.0
  H  H45  1  0.84095000  0.06723000  0.17348000  1.0
  H  H46  1  0.53247000  0.66160000  0.37205000  1.0
  H  H47  1  0.16011000  0.83839000  0.62788000  1.0
  H  H48  1  0.46754000  0.33840000  0.62796000  1.0
  H  H49  1  0.83989000  0.16161000  0.37212000  1.0
  C  C50  1  0.92719000  0.64320000  0.82047000  1.0
  C  C51  1  0.10706000  0.85707000  0.17948000  1.0
  C  C52  1  0.07282000  0.35680000  0.17954000  1.0
  C  C53  1  0.89294000  0.14293000  0.82052000  1.0
  C  C54  1  0.86994000  0.62401000  0.73938000  1.0
  C  C55  1  0.13083000  0.87634000  0.26057000  1.0
  C  C56  1  0.13006000  0.37599000  0.26062000  1.0
  C  C57  1  0.86917000  0.12366000  0.73943000  1.0
  C  C58  1  0.73796000  0.69537000  0.70943000  1.0
  C  C59  1  0.02881000  0.80490000  0.29052000  1.0
  C  C60  1  0.26204000  0.30463000  0.29057000  1.0
  C  C61  1  0.97119000  0.19510000  0.70948000  1.0
  C  C62  1  0.66748000  0.78101000  0.76449000  1.0
  C  C63  1  0.90341000  0.71908000  0.23545000  1.0
  C  C64  1  0.33252000  0.21899000  0.23551000  1.0
  C  C65  1  0.09659000  0.28092000  0.76455000  1.0
  C  C66  1  0.73165000  0.79401000  0.84460000  1.0
  C  C67  1  0.88758000  0.70601000  0.15535000  1.0
  C  C68  1  0.26835000  0.20599000  0.15540000  1.0
  C  C69  1  0.11242000  0.29399000  0.84465000  1.0
  C  C70  1  0.67904000  0.68334000  0.62380000  1.0
  C  C71  1  0.05530000  0.81689000  0.37613000  1.0
  C  C72  1  0.32096000  0.31666000  0.37620000  1.0
  C  C73  1  0.94471000  0.18311000  0.62387000  1.0
  C  C74  1  0.71752000  0.57005000  0.56837000  1.0
  C  C75  1  0.14921000  0.93012000  0.43160000  1.0
  C  C76  1  0.28248000  0.42995000  0.43163000  1.0
  C  C77  1  0.85079000  0.06988000  0.56840000  1.0
  C  C78  1  0.66756000  0.56505000  0.48827000  1.0
  C  C79  1  0.17925000  0.93502000  0.51168000  1.0
  C  C80  1  0.33244000  0.43495000  0.51173000  1.0
  C  C81  1  0.82076000  0.06498000  0.48832000  1.0
  C  C82  1  0.54180000  0.77372000  0.51308000  1.0
  C  C83  1  0.02844000  0.72644000  0.48678000  1.0
  C  C84  1  0.45820000  0.22627000  0.48692000  1.0
  C  C85  1  0.97156000  0.27356000  0.51322000  1.0
  C  C86  1  0.58592000  0.78629000  0.59414000  1.0
  C  C87  1  0.99165000  0.71394000  0.40573000  1.0
  C  C88  1  0.41408000  0.21371000  0.40586000  1.0
  C  C89  1  0.00835000  0.28606000  0.59427000  1.0
  C  C90  1  0.21231000  0.53781000  0.01786000  1.0
  C  C91  1  0.19439000  0.96231000  0.98212000  1.0
  C  C92  1  0.78770000  0.46219000  0.98214000  1.0
  C  C93  1  0.80561000  0.03769000  0.01788000  1.0
  C  C94  1  0.33544000  0.64743000  0.07190000  1.0
  C  C95  1  0.26348000  0.85269000  0.92807000  1.0
  C  C96  1  0.66456000  0.35257000  0.92810000  1.0
  C  C97  1  0.73652000  0.14731000  0.07193000  1.0
  C  C98  1  0.39569000  0.75294000  0.04291000  1.0
  C  C99  1  0.35275000  0.74720000  0.95705000  1.0
  C  C100  1  0.60431000  0.24706000  0.95709000  1.0
  C  C101  1  0.64725000  0.25280000  0.04295000  1.0
  C  C102  1  0.49732000  0.86299000  0.09640000  1.0
  C  C103  1  0.40080000  0.63715000  0.90355000  1.0
  C  C104  1  0.50268000  0.13701000  0.90360000  1.0
  C  C105  1  0.59921000  0.36285000  0.09645000  1.0
  C  C106  1  0.53482000  0.87045000  0.17704000  1.0
  C  C107  1  0.35755000  0.62968000  0.82291000  1.0
  C  C108  1  0.46518000  0.12955000  0.82296000  1.0
  C  C109  1  0.64245000  0.37032000  0.17709000  1.0
  C  C110  1  0.47685000  0.76346000  0.20549000  1.0
  C  C111  1  0.27113000  0.73665000  0.79447000  1.0
  C  C112  1  0.52315000  0.23655000  0.79451000  1.0
  C  C113  1  0.72887000  0.26335000  0.20553000  1.0
  C  C114  1  0.38007000  0.65043000  0.15221000  1.0
  C  C115  1  0.22772000  0.84970000  0.84777000  1.0
  C  C116  1  0.61993000  0.34957000  0.84779000  1.0
  C  C117  1  0.77228000  0.15029000  0.15223000  1.0
  C  C118  1  0.51244000  0.77418000  0.29184000  1.0
  C  C119  1  0.22028000  0.72586000  0.70811000  1.0
  C  C120  1  0.48756000  0.22582000  0.70816000  1.0
  C  C121  1  0.77972000  0.27414000  0.29189000  1.0
  N  N122  1  0.86098000  0.72841000  0.87265000  1.0
  N  N123  1  0.98878000  0.77173000  0.12731000  1.0
  N  N124  1  0.13902000  0.27159000  0.12735000  1.0
  N  N125  1  0.01122000  0.22827000  0.87269000  1.0
  N  N126  1  0.58209000  0.66620000  0.46094000  1.0
  N  N127  1  0.12094000  0.83387000  0.53896000  1.0
  N  N128  1  0.41790000  0.33380000  0.53905000  1.0
  N  N129  1  0.87906000  0.16614000  0.46104000  1.0
  O  O130  1  0.09681000  0.58003000  0.97215000  1.0
  O  O131  1  0.12462000  0.92006000  0.02784000  1.0
  O  O132  1  0.90321000  0.41997000  0.02786000  1.0
  O  O133  1  0.87538000  0.07994000  0.97216000  1.0
  O  O134  1  0.23401000  0.40995000  0.02151000  1.0
  O  O135  1  0.21242000  0.09016000  0.97844000  1.0
  O  O136  1  0.76599000  0.59005000  0.97849000  1.0
  O  O137  1  0.78758000  0.90984000  0.02156000  1.0
  O  O138  1  0.54842000  0.88883000  0.34168000  1.0
  O  O139  1  0.20641000  0.61118000  0.65830000  1.0
  O  O140  1  0.45158000  0.11117000  0.65832000  1.0
  O  O141  1  0.79359000  0.38882000  0.34170000  1.0
  O  O142  1  0.50040000  0.65012000  0.31007000  1.0
  O  O143  1  0.18995000  0.84988000  0.68985000  1.0
  O  O144  1  0.49961000  0.34987000  0.68993000  1.0
  O  O145  1  0.81005000  0.15011000  0.31015000  1.0
