# generated using pymatgen
data_TbH5(C3O4)2
_symmetry_space_group_name_H-M   'P 1'
_cell_length_a   6.22955000
_cell_length_b   8.65780000
_cell_length_c   8.81435000
_cell_angle_alpha   111.15000000
_cell_angle_beta   109.97700000
_cell_angle_gamma   91.32560000
_symmetry_Int_Tables_number   1
_chemical_formula_structural   TbH5(C3O4)2
_chemical_formula_sum   'Tb2 H10 C12 O16'
_cell_volume   410.84052427
_cell_formula_units_Z   2
loop_
 _symmetry_equiv_pos_site_id
 _symmetry_equiv_pos_as_xyz
  1  'x, y, z'
loop_
 _atom_site_type_symbol
 _atom_site_label
 _atom_site_symmetry_multiplicity
 _atom_site_fract_x
 _atom_site_fract_y
 _atom_site_fract_z
 _atom_site_occupancy
  Tb  Tb0  1  0.18113000  0.64869000  0.31791000  1.0
  Tb  Tb1  1  0.81887000  0.35131000  0.68210000  1.0
  H  H2  1  0.72567000  0.64419000  0.03283000  1.0
  H  H3  1  0.27433000  0.35580000  0.96716000  1.0
  H  H4  1  0.68937000  0.71852000  0.21729000  1.0
  H  H5  1  0.31063000  0.28148000  0.78271000  1.0
  H  H6  1  0.01243000  0.66945000  0.60854000  1.0
  H  H7  1  0.98757000  0.33055000  0.39147000  1.0
  H  H8  1  0.81853000  0.72721000  0.47246000  1.0
  H  H9  1  0.18147000  0.27278000  0.52754000  1.0
  H  H10  1  0.75796000  0.96971000  0.83347000  1.0
  H  H11  1  0.24203000  0.03029000  0.16653000  1.0
  C  C12  1  0.49488000  0.84121000  0.87494000  1.0
  C  C13  1  0.50512000  0.15880000  0.12508000  1.0
  C  C14  1  0.50371000  0.67308000  0.74411000  1.0
  C  C15  1  0.49629000  0.32693000  0.25589000  1.0
  C  C16  1  0.35063000  0.85931000  0.97109000  1.0
  C  C17  1  0.64935000  0.14068000  0.02890000  1.0
  C  C18  1  0.64206000  0.98238000  0.90473000  1.0
  C  C19  1  0.35794000  0.01761000  0.09527000  1.0
  C  C20  1  0.39322000  0.03902000  0.50989000  1.0
  C  C21  1  0.60680000  0.96099000  0.49012000  1.0
  C  C22  1  0.18513000  0.71224000  0.94077000  1.0
  C  C23  1  0.81486000  0.28776000  0.05921000  1.0
  O  O24  1  0.60966000  0.57100000  0.80570000  1.0
  O  O25  1  0.39034000  0.42900000  0.19431000  1.0
  O  O26  1  0.20220000  0.94320000  0.43912000  1.0
  O  O27  1  0.79780000  0.05680000  0.56089000  1.0
  O  O28  1  0.80350000  0.68616000  0.16281000  1.0
  O  O29  1  0.19650000  0.31384000  0.83719000  1.0
  O  O30  1  0.56960000  0.80186000  0.40329000  1.0
  O  O31  1  0.43041000  0.19814000  0.59672000  1.0
  O  O32  1  0.96918000  0.68682000  0.49716000  1.0
  O  O33  1  0.03082000  0.31318000  0.50284000  1.0
  O  O34  1  0.41580000  0.64644000  0.58376000  1.0
  O  O35  1  0.58420000  0.35357000  0.41623000  1.0
  O  O36  1  0.05406000  0.62190000  0.78244000  1.0
  O  O37  1  0.94594000  0.37809000  0.21755000  1.0
  O  O38  1  0.18204000  0.68395000  0.07077000  1.0
  O  O39  1  0.81795000  0.31605000  0.92921000  1.0
