# generated using pymatgen
data_CuH7C9(N3O)2
_symmetry_space_group_name_H-M   'P 1'
_cell_length_a   9.18047000
_cell_length_b   10.28440000
_cell_length_c   12.20090000
_cell_angle_alpha   90.00000000
_cell_angle_beta   106.60200000
_cell_angle_gamma   89.99980000
_symmetry_Int_Tables_number   1
_chemical_formula_structural   CuH7C9(N3O)2
_chemical_formula_sum   'Cu4 H28 C36 N24 O8'
_cell_volume   1103.93357473
_cell_formula_units_Z   4
loop_
 _symmetry_equiv_pos_site_id
 _symmetry_equiv_pos_as_xyz
  1  'x, y, z'
loop_
 _atom_site_type_symbol
 _atom_site_label
 _atom_site_symmetry_multiplicity
 _atom_site_fract_x
 _atom_site_fract_y
 _atom_site_fract_z
 _atom_site_occupancy
  Cu  Cu0  1  0.92518000  0.41680000  0.10123000  1.0
  Cu  Cu1  1  0.57482000  0.91680000  0.89877000  1.0
  Cu  Cu2  1  0.07482000  0.58320000  0.89877000  1.0
  Cu  Cu3  1  0.42518000  0.08320000  0.10123000  1.0
  H  H4  1  0.61463000  0.43493000  0.09983000  1.0
  H  H5  1  0.88537000  0.93493000  0.90016000  1.0
  H  H6  1  0.38537000  0.56507000  0.90016000  1.0
  H  H7  1  0.11463000  0.06507000  0.09984000  1.0
  H  H8  1  0.47203000  0.41897000  0.24430000  1.0
  H  H9  1  0.02798000  0.91898000  0.75569000  1.0
  H  H10  1  0.52798000  0.58103000  0.75570000  1.0
  H  H11  1  0.97202000  0.08103000  0.24430000  1.0
  H  H12  1  0.49037000  0.83595000  0.28322000  1.0
  H  H13  1  0.00963000  0.33595000  0.71678000  1.0
  H  H14  1  0.50964000  0.16405000  0.71679000  1.0
  H  H15  1  0.99037000  0.66405000  0.28322000  1.0
  H  H16  1  0.62874000  0.85304000  0.13616000  1.0
  H  H17  1  0.87126000  0.35304000  0.86384000  1.0
  H  H18  1  0.37126000  0.14696000  0.86384000  1.0
  H  H19  1  0.12874000  0.64696000  0.13615000  1.0
  H  H20  1  0.78693000  0.44030000  0.46925000  1.0
  H  H21  1  0.71307000  0.94030000  0.53075000  1.0
  H  H22  1  0.21307000  0.55970000  0.53076000  1.0
  H  H23  1  0.28692000  0.05971000  0.46925000  1.0
  H  H24  1  0.89813000  0.29504000  0.49005000  1.0
  H  H25  1  0.60187000  0.79504000  0.50995000  1.0
  H  H26  1  0.10187000  0.70496000  0.50995000  1.0
  H  H27  1  0.39813000  0.20496000  0.49005000  1.0
  H  H28  1  0.71435000  0.29790000  0.38825000  1.0
  H  H29  1  0.78565000  0.79789000  0.61176000  1.0
  H  H30  1  0.28565000  0.70211000  0.61176000  1.0
  H  H31  1  0.21435000  0.20210000  0.38824000  1.0
  C  C32  1  0.63118000  0.64525000  0.10779000  1.0
  C  C33  1  0.86882000  0.14525000  0.89221000  1.0
  C  C34  1  0.36882000  0.35475000  0.89221000  1.0
  C  C35  1  0.13118000  0.85475000  0.10779000  1.0
  C  C36  1  0.58720000  0.52291000  0.13921000  1.0
  C  C37  1  0.91280000  0.02291000  0.86079000  1.0
  C  C38  1  0.41280000  0.47709000  0.86079000  1.0
  C  C39  1  0.08720000  0.97709000  0.13921000  1.0
  C  C40  1  0.50874000  0.51282000  0.22064000  1.0
  C  C41  1  0.99126000  0.01283000  0.77936000  1.0
  C  C42  1  0.49126000  0.48717000  0.77936000  1.0
  C  C43  1  0.00874000  0.98717000  0.22064000  1.0
  C  C44  1  0.47618000  0.62623000  0.27221000  1.0
  C  C45  1  0.02382000  0.12623000  0.72779000  1.0
  C  C46  1  0.52382000  0.37377000  0.72779000  1.0
  C  C47  1  0.97618000  0.87377000  0.27220000  1.0
  C  C48  1  0.51825000  0.74902000  0.24262000  1.0
  C  C49  1  0.98175000  0.24903000  0.75739000  1.0
  C  C50  1  0.48175000  0.25097000  0.75739000  1.0
  C  C51  1  0.01825000  0.75097000  0.24262000  1.0
  C  C52  1  0.59514000  0.75788000  0.15996000  1.0
  C  C53  1  0.90486000  0.25788000  0.84004000  1.0
  C  C54  1  0.40486000  0.24212000  0.84004000  1.0
  C  C55  1  0.09515000  0.74212000  0.15996000  1.0
  C  C56  1  0.71526000  0.65491000  0.02308000  1.0
  C  C57  1  0.78474000  0.15491000  0.97693000  1.0
  C  C58  1  0.28475000  0.34509000  0.97693000  1.0
  C  C59  1  0.21525000  0.84509000  0.02307000  1.0
  C  C60  1  0.88412000  0.39290000  0.33745000  1.0
  C  C61  1  0.61587000  0.89290000  0.66255000  1.0
  C  C62  1  0.11588000  0.60709000  0.66255000  1.0
  C  C63  1  0.38412000  0.10710000  0.33745000  1.0
  C  C64  1  0.81757000  0.35511000  0.42619000  1.0
  C  C65  1  0.68243000  0.85511000  0.57381000  1.0
  C  C66  1  0.18244000  0.64490000  0.57381000  1.0
  C  C67  1  0.31756000  0.14489000  0.42619000  1.0
  N  N68  1  0.82186000  0.56934000  0.01174000  1.0
  N  N69  1  0.67814000  0.06934000  0.98826000  1.0
  N  N70  1  0.17814000  0.43066000  0.98826000  1.0
  N  N71  1  0.32186000  0.93066000  0.01174000  1.0
  N  N72  1  0.87321000  0.61721000  0.92643000  1.0
  N  N73  1  0.62679000  0.11721000  0.07357000  1.0
  N  N74  1  0.12678000  0.38279000  0.07357000  1.0
  N  N75  1  0.37321000  0.88279000  0.92643000  1.0
  N  N76  1  0.80009000  0.72520000  0.88598000  1.0
  N  N77  1  0.69991000  0.22520000  0.11402000  1.0
  N  N78  1  0.19990000  0.27480000  0.11402000  1.0
  N  N79  1  0.30009000  0.77480000  0.88598000  1.0
  N  N80  1  0.70136000  0.75182000  0.94555000  1.0
  N  N81  1  0.79864000  0.25182000  0.05445000  1.0
  N  N82  1  0.29864000  0.24818000  0.05446000  1.0
  N  N83  1  0.20136000  0.74818000  0.94554000  1.0
  N  N84  1  0.39628000  0.61595000  0.35960000  1.0
  N  N85  1  0.10373000  0.11595000  0.64040000  1.0
  N  N86  1  0.60373000  0.38405000  0.64040000  1.0
  N  N87  1  0.89627000  0.88404000  0.35960000  1.0
  N  N88  1  0.93295000  0.42110000  0.26229000  1.0
  N  N89  1  0.56705000  0.92110000  0.73770000  1.0
  N  N90  1  0.06705000  0.57891000  0.73770000  1.0
  N  N91  1  0.43295000  0.07890000  0.26229000  1.0
  O  O92  1  0.37595000  0.71767000  0.40906000  1.0
  O  O93  1  0.12405000  0.21768000  0.59094000  1.0
  O  O94  1  0.62405000  0.28233000  0.59094000  1.0
  O  O95  1  0.87595000  0.78233000  0.40906000  1.0
  O  O96  1  0.35194000  0.50688000  0.38050000  1.0
  O  O97  1  0.14806000  0.00689000  0.61950000  1.0
  O  O98  1  0.64806000  0.49312000  0.61950000  1.0
  O  O99  1  0.85194000  0.99312000  0.38051000  1.0
