# generated using pymatgen
data_ZnH5C5O6
_symmetry_space_group_name_H-M   'P 1'
_cell_length_a   7.03132000
_cell_length_b   7.38784000
_cell_length_c   8.32083000
_cell_angle_alpha   90.28920000
_cell_angle_beta   110.68600000
_cell_angle_gamma   94.94640000
_symmetry_Int_Tables_number   1
_chemical_formula_structural   ZnH5C5O6
_chemical_formula_sum   'Zn2 H10 C10 O12'
_cell_volume   402.57158440
_cell_formula_units_Z   2
loop_
 _symmetry_equiv_pos_site_id
 _symmetry_equiv_pos_as_xyz
  1  'x, y, z'
loop_
 _atom_site_type_symbol
 _atom_site_label
 _atom_site_symmetry_multiplicity
 _atom_site_fract_x
 _atom_site_fract_y
 _atom_site_fract_z
 _atom_site_occupancy
  Zn  Zn0  1  0.50000000  0.00000000  0.50000000  1.0
  Zn  Zn1  1  0.00000000  0.50000000  0.50000000  1.0
  H  H2  1  0.42142000  0.81039000  0.05333000  1.0
  H  H3  1  0.57858000  0.18961000  0.94668000  1.0
  H  H4  1  0.17783000  0.64941000  0.28539000  1.0
  H  H5  1  0.82217000  0.35059000  0.71461000  1.0
  H  H6  1  0.03475000  0.47628000  0.19306000  1.0
  H  H7  1  0.96525000  0.52372000  0.80694000  1.0
  H  H8  1  0.16777000  0.13727000  0.43341000  1.0
  H  H9  1  0.83223000  0.86273000  0.56659000  1.0
  H  H10  1  0.14317000  0.92607000  0.47795000  1.0
  H  H11  1  0.85683000  0.07393000  0.52205000  1.0
  C  C12  1  0.45370000  0.67326000  0.02846000  1.0
  C  C13  1  0.54630000  0.32674000  0.97154000  1.0
  C  C14  1  0.42165000  0.61348000  0.86076000  1.0
  C  C15  1  0.57835000  0.38652000  0.13924000  1.0
  C  C16  1  0.46776000  0.43756000  0.83169000  1.0
  C  C17  1  0.53225000  0.56244000  0.16831000  1.0
  C  C18  1  0.42818000  0.35155000  0.65795000  1.0
  C  C19  1  0.57182000  0.64845000  0.34205000  1.0
  C  C20  1  0.35720000  0.74949000  0.72210000  1.0
  C  C21  1  0.64280000  0.25051000  0.27790000  1.0
  O  O22  1  0.49246000  0.87414000  0.72474000  1.0
  O  O23  1  0.50754000  0.12586000  0.27526000  1.0
  O  O24  1  0.17253000  0.73729000  0.61471000  1.0
  O  O25  1  0.82747000  0.26271000  0.38529000  1.0
  O  O26  1  0.56669000  0.26106000  0.64131000  1.0
  O  O27  1  0.43331000  0.73894000  0.35869000  1.0
  O  O28  1  0.25569000  0.35939000  0.53789000  1.0
  O  O29  1  0.74432000  0.64061000  0.46211000  1.0
  O  O30  1  0.03846000  0.58597000  0.25981000  1.0
  O  O31  1  0.96155000  0.41403000  0.74019000  1.0
  O  O32  1  0.18380000  0.01180000  0.40166000  1.0
  O  O33  1  0.81620000  0.98820000  0.59834000  1.0
