# generated using pymatgen
data_Ag2H16C16S(NO2)3
_symmetry_space_group_name_H-M   'P 1'
_cell_length_a   8.89128000
_cell_length_b   10.49760000
_cell_length_c   11.81840000
_cell_angle_alpha   85.86350000
_cell_angle_beta   69.16250000
_cell_angle_gamma   65.03640000
_symmetry_Int_Tables_number   1
_chemical_formula_structural   Ag2H16C16S(NO2)3
_chemical_formula_sum   'Ag4 H32 C32 S2 N6 O12'
_cell_volume   930.66176190
_cell_formula_units_Z   2
loop_
 _symmetry_equiv_pos_site_id
 _symmetry_equiv_pos_as_xyz
  1  'x, y, z'
loop_
 _atom_site_type_symbol
 _atom_site_label
 _atom_site_symmetry_multiplicity
 _atom_site_fract_x
 _atom_site_fract_y
 _atom_site_fract_z
 _atom_site_occupancy
  Ag  Ag0  1  0.32583000  0.72246000  0.77341000  1.0
  Ag  Ag1  1  0.67417000  0.27755000  0.22659000  1.0
  Ag  Ag2  1  0.40197000  0.04235000  0.62635000  1.0
  Ag  Ag3  1  0.59802000  0.95765000  0.37365000  1.0
  H  H4  1  0.87448000  0.61401000  0.49216000  1.0
  H  H5  1  0.12552000  0.38599000  0.50784000  1.0
  H  H6  1  0.13544000  0.58794000  0.30767000  1.0
  H  H7  1  0.86456000  0.41206000  0.69232000  1.0
  H  H8  1  0.97234000  0.89588000  0.67294000  1.0
  H  H9  1  0.02766000  0.10412000  0.32706000  1.0
  H  H10  1  0.95337000  0.74339000  0.88719000  1.0
  H  H11  1  0.04663000  0.25660000  0.11281000  1.0
  H  H12  1  0.54169000  0.89909000  0.14557000  1.0
  H  H13  1  0.45831000  0.10090000  0.85443000  1.0
  H  H14  1  0.65430000  0.71178000  0.13511000  1.0
  H  H15  1  0.34571000  0.28821000  0.86489000  1.0
  H  H16  1  0.65186000  0.79881000  0.00063000  1.0
  H  H17  1  0.34814000  0.20119000  0.99938000  1.0
  H  H18  1  0.99804000  0.91648000  0.23791000  1.0
  H  H19  1  0.00196000  0.08353000  0.76209000  1.0
  H  H20  1  0.35351000  0.88368000  0.93930000  1.0
  H  H21  1  0.64649000  0.11633000  0.06069000  1.0
  H  H22  1  0.40104000  0.74804000  0.03687000  1.0
  H  H23  1  0.59896000  0.25196000  0.96312000  1.0
  H  H24  1  0.28106000  0.92648000  0.09907000  1.0
  H  H25  1  0.71895000  0.07352000  0.90093000  1.0
  H  H26  1  0.60939000  0.66870000  0.52312000  1.0
  H  H27  1  0.39060000  0.33130000  0.47688000  1.0
  H  H28  1  0.24345000  0.49186000  0.79107000  1.0
  H  H29  1  0.75655000  0.50814000  0.20893000  1.0
  H  H30  1  0.23232000  0.36719000  0.70205000  1.0
  H  H31  1  0.76768000  0.63281000  0.29795000  1.0
  H  H32  1  0.09454000  0.54921000  0.71067000  1.0
  H  H33  1  0.90545000  0.45080000  0.28933000  1.0
  H  H34  1  0.38877000  0.77820000  0.30320000  1.0
  H  H35  1  0.61123000  0.22180000  0.69681000  1.0
  C  C36  1  0.90435000  0.75948000  0.59365000  1.0
  C  C37  1  0.09565000  0.24051000  0.40635000  1.0
  C  C38  1  0.95080000  0.67291000  0.49025000  1.0
  C  C39  1  0.04921000  0.32708000  0.50975000  1.0
  C  C40  1  0.09591000  0.65852000  0.38673000  1.0
  C  C41  1  0.90409000  0.34147000  0.61327000  1.0
  C  C42  1  0.19795000  0.73161000  0.38468000  1.0
  C  C43  1  0.80205000  0.26839000  0.61532000  1.0
  C  C44  1  0.15477000  0.81635000  0.48982000  1.0
  C  C45  1  0.84523000  0.18366000  0.51019000  1.0
  C  C46  1  0.00668000  0.82948000  0.59290000  1.0
  C  C47  1  0.99332000  0.17052000  0.40710000  1.0
  C  C48  1  0.26849000  0.88517000  0.49435000  1.0
  C  C49  1  0.73151000  0.11483000  0.50565000  1.0
  C  C50  1  0.96548000  0.78075000  0.96578000  1.0
  C  C51  1  0.03452000  0.21925000  0.03422000  1.0
  C  C52  1  0.82478000  0.81727000  0.07789000  1.0
  C  C53  1  0.17523000  0.18272000  0.92211000  1.0
  C  C54  1  0.65829000  0.80640000  0.09050000  1.0
  C  C55  1  0.34171000  0.19359000  0.90950000  1.0
  C  C56  1  0.99094000  0.87586000  0.15854000  1.0
  C  C57  1  0.00907000  0.12414000  0.84145000  1.0
  C  C58  1  0.13253000  0.84005000  0.04657000  1.0
  C  C59  1  0.86747000  0.15996000  0.95342000  1.0
  C  C60  1  0.30014000  0.85146000  0.02982000  1.0
  C  C61  1  0.69986000  0.14854000  0.97017000  1.0
  C  C62  1  0.37013000  0.48734000  0.59986000  1.0
  C  C63  1  0.62986000  0.51267000  0.40014000  1.0
  C  C64  1  0.56254000  0.59179000  0.51131000  1.0
  C  C65  1  0.43746000  0.40821000  0.48869000  1.0
  C  C66  1  0.22781000  0.47286000  0.70662000  1.0
  C  C67  1  0.77218000  0.52715000  0.29338000  1.0
  S  S68  1  0.72467000  0.77049000  0.72916000  1.0
  S  S69  1  0.27533000  0.22950000  0.27084000  1.0
  N  N70  1  0.11665000  0.79190000  0.95015000  1.0
  N  N71  1  0.88335000  0.20810000  0.04985000  1.0
  N  N72  1  0.84004000  0.86484000  0.17457000  1.0
  N  N73  1  0.15996000  0.13517000  0.82542000  1.0
  N  N74  1  0.43593000  0.57933000  0.60902000  1.0
  N  N75  1  0.56407000  0.42068000  0.39099000  1.0
  O  O76  1  0.57613000  0.79162000  0.68764000  1.0
  O  O77  1  0.42387000  0.20839000  0.31237000  1.0
  O  O78  1  0.78553000  0.63525000  0.78157000  1.0
  O  O79  1  0.21445000  0.36474000  0.21843000  1.0
  O  O80  1  0.68590000  0.89168000  0.80637000  1.0
  O  O81  1  0.31412000  0.10831000  0.19363000  1.0
  O  O82  1  0.33649000  0.71753000  0.28223000  1.0
  O  O83  1  0.66351000  0.28247000  0.71776000  1.0
  O  O84  1  0.40132000  0.87063000  0.39539000  1.0
  O  O85  1  0.59868000  0.12937000  0.60461000  1.0
  O  O86  1  0.23378000  0.94861000  0.59372000  1.0
  O  O87  1  0.76621000  0.05140000  0.40628000  1.0
