# generated using pymatgen
data_AgH6C8N5O
_symmetry_space_group_name_H-M   'P 1'
_cell_length_a   7.18813000
_cell_length_b   9.89526000
_cell_length_c   12.68557731
_cell_angle_alpha   89.99932705
_cell_angle_beta   74.16683839
_cell_angle_gamma   89.99970000
_symmetry_Int_Tables_number   1
_chemical_formula_structural   AgH6C8N5O
_chemical_formula_sum   'Ag4 H24 C32 N20 O4'
_cell_volume   868.07177746
_cell_formula_units_Z   4
loop_
 _symmetry_equiv_pos_site_id
 _symmetry_equiv_pos_as_xyz
  1  'x, y, z'
loop_
 _atom_site_type_symbol
 _atom_site_label
 _atom_site_symmetry_multiplicity
 _atom_site_fract_x
 _atom_site_fract_y
 _atom_site_fract_z
 _atom_site_occupancy
  Ag  Ag0  1  0.06527000  0.15645000  0.89318000  1.0
  Ag  Ag1  1  0.43473000  0.65645000  0.60682000  1.0
  Ag  Ag2  1  0.93473000  0.84355000  0.10682000  1.0
  Ag  Ag3  1  0.56528000  0.34355000  0.39318000  1.0
  H  H4  1  0.74961000  0.48425000  0.14689000  1.0
  H  H5  1  0.75039000  0.98425000  0.35311000  1.0
  H  H6  1  0.25039000  0.51575000  0.85311000  1.0
  H  H7  1  0.24961000  0.01575000  0.64689000  1.0
  H  H8  1  0.87613000  0.55032000  0.78591000  1.0
  H  H9  1  0.62388000  0.05032000  0.71408000  1.0
  H  H10  1  0.12388000  0.44968000  0.21408000  1.0
  H  H11  1  0.37612000  0.94968000  0.28592000  1.0
  H  H12  1  0.79917000  0.78363000  0.73097000  1.0
  H  H13  1  0.70082000  0.28363000  0.76903000  1.0
  H  H14  1  0.20082000  0.21637000  0.26903000  1.0
  H  H15  1  0.29917000  0.71637000  0.23098000  1.0
  H  H16  1  0.63035000  0.94566000  0.87327000  1.0
  H  H17  1  0.86964000  0.44566000  0.62673000  1.0
  H  H18  1  0.36964000  0.05434000  0.12673000  1.0
  H  H19  1  0.13036000  0.55434000  0.37327000  1.0
  H  H20  1  0.51967000  0.87361000  0.06900000  1.0
  H  H21  1  0.98033000  0.37361000  0.43100000  1.0
  H  H22  1  0.48032000  0.12639000  0.93100000  1.0
  H  H23  1  0.01967000  0.62639000  0.56901000  1.0
  H  H24  1  0.58539000  0.64260000  0.12168000  1.0
  H  H25  1  0.91462000  0.14259000  0.37832000  1.0
  H  H26  1  0.41461000  0.35740000  0.87832000  1.0
  H  H27  1  0.08539000  0.85740000  0.62168000  1.0
  C  C28  1  0.79862000  0.62303000  0.84667000  1.0
  C  C29  1  0.70138000  0.12302000  0.65333000  1.0
  C  C30  1  0.20138000  0.37697000  0.15333000  1.0
  C  C31  1  0.29861000  0.87697000  0.34668000  1.0
  C  C32  1  0.75895000  0.75281000  0.81664000  1.0
  C  C33  1  0.74105000  0.25280000  0.68336000  1.0
  C  C34  1  0.24104000  0.24719000  0.18336000  1.0
  C  C35  1  0.25895000  0.74719000  0.31665000  1.0
  C  C36  1  0.66091000  0.84397000  0.89686000  1.0
  C  C37  1  0.83909000  0.34396000  0.60314000  1.0
  C  C38  1  0.33908000  0.15603000  0.10314000  1.0
  C  C39  1  0.16090000  0.65603000  0.39687000  1.0
  C  C40  1  0.60164000  0.80462000  0.00656000  1.0
  C  C41  1  0.89836000  0.30462000  0.49344000  1.0
  C  C42  1  0.39835000  0.19538000  0.99344000  1.0
  C  C43  1  0.10164000  0.69538000  0.50657000  1.0
  C  C44  1  0.64021000  0.67391000  0.03668000  1.0
  C  C45  1  0.85980000  0.17391000  0.46332000  1.0
  C  C46  1  0.35979000  0.32609000  0.96332000  1.0
  C  C47  1  0.14021000  0.82609000  0.53668000  1.0
  C  C48  1  0.73974000  0.58224000  0.95692000  1.0
  C  C49  1  0.76026000  0.08224000  0.54308000  1.0
  C  C50  1  0.26025000  0.41777000  0.04308000  1.0
  C  C51  1  0.23975000  0.91777000  0.45692000  1.0
  C  C52  1  0.77811000  0.43932000  0.98126000  1.0
  C  C53  1  0.72189000  0.93931000  0.51875000  1.0
  C  C54  1  0.22189000  0.56068000  0.01874000  1.0
  C  C55  1  0.27812000  0.06068000  0.48126000  1.0
  C  C56  1  0.78628000  0.27874000  0.12594000  1.0
  C  C57  1  0.71371000  0.77874000  0.37406000  1.0
  C  C58  1  0.21371000  0.72126000  0.87406000  1.0
  C  C59  1  0.28629000  0.22126000  0.62594000  1.0
  N  N60  1  0.76705000  0.40785000  0.08873000  1.0
  N  N61  1  0.73295000  0.90785000  0.41127000  1.0
  N  N62  1  0.23295000  0.59215000  0.91127000  1.0
  N  N63  1  0.26706000  0.09215000  0.58873000  1.0
  N  N64  1  0.72199000  0.24369000  0.23271000  1.0
  N  N65  1  0.77801000  0.74369000  0.26729000  1.0
  N  N66  1  0.27801000  0.75631000  0.76729000  1.0
  N  N67  1  0.22200000  0.25631000  0.73271000  1.0
  N  N68  1  0.76676000  0.11206000  0.23657000  1.0
  N  N69  1  0.73324000  0.61206000  0.26343000  1.0
  N  N70  1  0.23324000  0.88794000  0.76343000  1.0
  N  N71  1  0.26676000  0.38795000  0.73657000  1.0
  N  N72  1  0.85381000  0.06993000  0.13744000  1.0
  N  N73  1  0.64619000  0.56993000  0.36256000  1.0
  N  N74  1  0.14619000  0.93007000  0.86256000  1.0
  N  N75  1  0.35381000  0.43007000  0.63744000  1.0
  N  N76  1  0.86887000  0.17185000  0.06514000  1.0
  N  N77  1  0.63114000  0.67185000  0.43485000  1.0
  N  N78  1  0.13113000  0.82815000  0.93485000  1.0
  N  N79  1  0.36887000  0.32815000  0.56515000  1.0
  O  O80  1  0.81580000  0.35374000  0.90692000  1.0
  O  O81  1  0.68421000  0.85374000  0.59307000  1.0
  O  O82  1  0.18422000  0.64626000  0.09307000  1.0
  O  O83  1  0.31582000  0.14626000  0.40692000  1.0
