# generated using pymatgen
data_ZnH8C12(NO2)2
_symmetry_space_group_name_H-M   'P 1'
_cell_length_a   6.94013000
_cell_length_b   15.58350000
_cell_length_c   15.58444306
_cell_angle_alpha   87.15974491
_cell_angle_beta   77.13673597
_cell_angle_gamma   77.13110000
_symmetry_Int_Tables_number   1
_chemical_formula_structural   ZnH8C12(NO2)2
_chemical_formula_sum   'Zn4 H32 C48 N8 O16'
_cell_volume   1601.90944966
_cell_formula_units_Z   4
loop_
 _symmetry_equiv_pos_site_id
 _symmetry_equiv_pos_as_xyz
  1  'x, y, z'
loop_
 _atom_site_type_symbol
 _atom_site_label
 _atom_site_symmetry_multiplicity
 _atom_site_fract_x
 _atom_site_fract_y
 _atom_site_fract_z
 _atom_site_occupancy
  Zn  Zn0  1  0.13819000  0.23690000  0.73683000  1.0
  Zn  Zn1  1  0.11183000  0.76313000  0.26312000  1.0
  Zn  Zn2  1  0.62486000  0.26312000  0.23689000  1.0
  Zn  Zn3  1  0.12504000  0.73689000  0.76315000  1.0
  H  H4  1  0.26154000  0.25844000  0.16079000  1.0
  H  H5  1  0.18751000  0.25426000  0.00919000  1.0
  H  H6  1  0.47039000  0.24701000  0.87802000  1.0
  H  H7  1  0.86734000  0.25262000  0.05353000  1.0
  H  H8  1  0.68080000  0.74159000  0.83911000  1.0
  H  H9  1  0.45090000  0.74576000  0.99070000  1.0
  H  H10  1  0.59529000  0.75299000  0.12189000  1.0
  H  H11  1  0.17346000  0.74731000  0.94649000  1.0
  H  H12  1  0.48003000  0.83911000  0.25843000  1.0
  H  H13  1  0.55834000  0.99070000  0.25423000  1.0
  H  H14  1  0.28279000  0.12192000  0.24695000  1.0
  H  H15  1  0.88002000  0.94649000  0.25266000  1.0
  H  H16  1  0.57759000  0.16091000  0.74160000  1.0
  H  H17  1  0.80332000  0.00931000  0.74579000  1.0
  H  H18  1  0.65177000  0.87810000  0.75304000  1.0
  H  H19  1  0.07923000  0.05351000  0.74733000  1.0
  H  H20  1  0.98838000  0.33909000  0.24163000  1.0
  H  H21  1  0.06254000  0.49068000  0.24579000  1.0
  H  H22  1  0.77975000  0.62189000  0.25307000  1.0
  H  H23  1  0.38260000  0.44650000  0.24739000  1.0
  H  H24  1  0.56925000  0.66091000  0.75835000  1.0
  H  H25  1  0.79920000  0.50931000  0.75413000  1.0
  H  H26  1  0.65487000  0.37808000  0.74690000  1.0
  H  H27  1  0.07659000  0.55350000  0.75270000  1.0
  H  H28  1  0.76982000  0.24162000  0.66089000  1.0
  H  H29  1  0.69142000  0.24578000  0.50931000  1.0
  H  H30  1  0.96699000  0.25301000  0.37809000  1.0
  H  H31  1  0.36982000  0.24734000  0.55347000  1.0
  H  H32  1  0.67255000  0.75837000  0.33914000  1.0
  H  H33  1  0.44684000  0.75416000  0.49074000  1.0
  H  H34  1  0.59846000  0.74697000  0.62192000  1.0
  H  H35  1  0.17092000  0.75270000  0.44650000  1.0
  C  C36  1  0.37895000  0.25701000  0.10108000  1.0
  C  C37  1  0.33915000  0.25373000  0.01783000  1.0
  C  C38  1  0.49746000  0.24909000  0.94408000  1.0
  C  C39  1  0.69211000  0.24756000  0.95607000  1.0
  C  C40  1  0.71828000  0.25279000  0.04176000  1.0
  C  C41  1  0.87191000  0.24069000  0.88097000  1.0
  C  C42  1  0.73704000  0.74302000  0.89883000  1.0
  C  C43  1  0.61068000  0.74632000  0.98206000  1.0
  C  C44  1  0.69049000  0.75093000  0.05583000  1.0
  C  C45  1  0.89558000  0.75247000  0.04389000  1.0
  C  C46  1  0.01279000  0.74715000  0.95823000  1.0
  C  C47  1  0.99342000  0.75933000  0.11897000  1.0
  C  C48  1  0.36408000  0.89884000  0.25699000  1.0
  C  C49  1  0.40722000  0.98208000  0.25368000  1.0
  C  C50  1  0.25365000  0.05586000  0.24901000  1.0
  C  C51  1  0.06049000  0.04389000  0.24751000  1.0
  C  C52  1  0.02897000  0.95822000  0.25282000  1.0
  C  C53  1  0.88750000  0.11897000  0.24064000  1.0
  C  C54  1  0.51993000  0.10118000  0.74304000  1.0
  C  C55  1  0.64300000  0.01794000  0.74635000  1.0
  C  C56  1  0.55859000  0.94416000  0.75099000  1.0
  C  C57  1  0.35195000  0.95611000  0.75252000  1.0
  C  C58  1  0.24005000  0.04178000  0.74717000  1.0
  C  C59  1  0.24717000  0.88103000  0.75944000  1.0
  C  C60  1  0.87096000  0.39882000  0.24311000  1.0
  C  C61  1  0.91084000  0.48205000  0.24639000  1.0
  C  C62  1  0.75260000  0.55584000  0.25107000  1.0
  C  C63  1  0.55790000  0.54391000  0.25260000  1.0
  C  C64  1  0.53165000  0.45823000  0.24730000  1.0
  C  C65  1  0.37809000  0.61901000  0.25941000  1.0
  C  C66  1  0.51306000  0.60118000  0.75688000  1.0
  C  C67  1  0.63947000  0.51794000  0.75354000  1.0
  C  C68  1  0.55971000  0.44415000  0.74892000  1.0
  C  C69  1  0.35458000  0.45611000  0.74745000  1.0
  C  C70  1  0.23730000  0.54177000  0.75280000  1.0
  C  C71  1  0.25673000  0.38102000  0.74060000  1.0
  C  C72  1  0.88575000  0.24307000  0.60116000  1.0
  C  C73  1  0.84254000  0.24634000  0.51793000  1.0
  C  C74  1  0.99611000  0.25097000  0.44416000  1.0
  C  C75  1  0.18928000  0.25246000  0.45609000  1.0
  C  C76  1  0.22088000  0.24718000  0.54175000  1.0
  C  C77  1  0.36221000  0.25933000  0.38101000  1.0
  C  C78  1  0.73022000  0.75693000  0.39886000  1.0
  C  C79  1  0.60717000  0.75360000  0.48210000  1.0
  C  C80  1  0.69165000  0.74899000  0.55586000  1.0
  C  C81  1  0.89826000  0.74750000  0.54393000  1.0
  C  C82  1  0.01009000  0.75285000  0.45826000  1.0
  C  C83  1  0.00285000  0.74063000  0.61906000  1.0
  N  N84  1  0.56580000  0.25749000  0.11274000  1.0
  N  N85  1  0.93603000  0.74247000  0.88723000  1.0
  N  N86  1  0.17672000  0.88721000  0.25750000  1.0
  N  N87  1  0.32146000  0.11279000  0.74250000  1.0
  N  N88  1  0.68409000  0.38721000  0.24259000  1.0
  N  N89  1  0.31403000  0.61279000  0.75746000  1.0
  N  N90  1  0.07313000  0.24253000  0.61277000  1.0
  N  N91  1  0.92864000  0.75751000  0.38726000  1.0
  O  O92  1  0.84749000  0.22815000  0.80321000  1.0
  O  O93  1  0.03974000  0.24735000  0.89524000  1.0
  O  O94  1  0.87873000  0.77190000  0.19675000  1.0
  O  O95  1  0.18217000  0.75264000  0.10470000  1.0
  O  O96  1  0.92431000  0.19676000  0.22817000  1.0
  O  O97  1  0.71305000  0.10464000  0.24720000  1.0
  O  O98  1  0.34932000  0.80324000  0.77200000  1.0
  O  O99  1  0.06505000  0.89533000  0.75282000  1.0
  O  O100  1  0.40251000  0.69680000  0.27190000  1.0
  O  O101  1  0.21029000  0.60472000  0.25276000  1.0
  O  O102  1  0.37139000  0.30323000  0.72802000  1.0
  O  O103  1  0.06797000  0.39531000  0.74727000  1.0
  O  O104  1  0.32532000  0.27190000  0.30322000  1.0
  O  O105  1  0.53668000  0.25268000  0.39529000  1.0
  O  O106  1  0.90059000  0.72809000  0.69680000  1.0
  O  O107  1  0.18495000  0.74730000  0.60484000  1.0
