# generated using pymatgen
data_CdH16C18(NO2)2
_symmetry_space_group_name_H-M   'P 1'
_cell_length_a   8.63610000
_cell_length_b   10.32340000
_cell_length_c   11.12980000
_cell_angle_alpha   84.03260000
_cell_angle_beta   68.08690000
_cell_angle_gamma   77.48160000
_symmetry_Int_Tables_number   1
_chemical_formula_structural   CdH16C18(NO2)2
_chemical_formula_sum   'Cd2 H32 C36 N4 O8'
_cell_volume   898.39807833
_cell_formula_units_Z   2
loop_
 _symmetry_equiv_pos_site_id
 _symmetry_equiv_pos_as_xyz
  1  'x, y, z'
loop_
 _atom_site_type_symbol
 _atom_site_label
 _atom_site_symmetry_multiplicity
 _atom_site_fract_x
 _atom_site_fract_y
 _atom_site_fract_z
 _atom_site_occupancy
  Cd  Cd0  1  0.42878000  0.56836000  0.16271000  1.0
  Cd  Cd1  1  0.57123000  0.43164000  0.83729000  1.0
  H  H2  1  0.44144000  0.87333000  0.22761000  1.0
  H  H3  1  0.55855000  0.12667000  0.77240000  1.0
  H  H4  1  0.54161000  0.98672000  0.36694000  1.0
  H  H5  1  0.45839000  0.01329000  0.63306000  1.0
  H  H6  1  0.70995000  0.84577000  0.49235000  1.0
  H  H7  1  0.29006000  0.15424000  0.50764000  1.0
  H  H8  1  0.82386000  0.61836000  0.56343000  1.0
  H  H9  1  0.17614000  0.38165000  0.43657000  1.0
  H  H10  1  0.87652000  0.37548000  0.54485000  1.0
  H  H11  1  0.12348000  0.62452000  0.45515000  1.0
  H  H12  1  0.86104000  0.17933000  0.43809000  1.0
  H  H13  1  0.13898000  0.82067000  0.56190000  1.0
  H  H14  1  0.75614000  0.09072000  0.28693000  1.0
  H  H15  1  0.24386000  0.90928000  0.71307000  1.0
  H  H16  1  0.57710000  0.24908000  0.18087000  1.0
  H  H17  1  0.42289000  0.75092000  0.81914000  1.0
  H  H18  1  0.02164000  0.30898000  0.14386000  1.0
  H  H19  1  0.97837000  0.69103000  0.85613000  1.0
  H  H20  1  0.20559000  0.25028000  0.00945000  1.0
  H  H21  1  0.79440000  0.74972000  0.99054000  1.0
  H  H22  1  0.16301000  0.45779000  0.88427000  1.0
  H  H23  1  0.83700000  0.54222000  0.11572000  1.0
  H  H24  1  0.98200000  0.38386000  0.93352000  1.0
  H  H25  1  0.01801000  0.61615000  0.06647000  1.0
  H  H26  1  0.94141000  0.89814000  0.21009000  1.0
  H  H27  1  0.05859000  0.10185000  0.78995000  1.0
  H  H28  1  0.08783000  0.00558000  0.17905000  1.0
  H  H29  1  0.91216000  0.99441000  0.82096000  1.0
  H  H30  1  0.05859000  0.85182000  0.96931000  1.0
  H  H31  1  0.94135000  0.14816000  0.03074000  1.0
  H  H32  1  0.19595000  0.96392000  0.94385000  1.0
  H  H33  1  0.80400000  0.03606000  0.05617000  1.0
  C  C34  1  0.65342000  0.46507000  0.33912000  1.0
  C  C35  1  0.34659000  0.53493000  0.66087000  1.0
  C  C36  1  0.62402000  0.60769000  0.34898000  1.0
  C  C37  1  0.37599000  0.39232000  0.65101000  1.0
  C  C38  1  0.51042000  0.81648000  0.28670000  1.0
  C  C39  1  0.48958000  0.18352000  0.71330000  1.0
  C  C40  1  0.56906000  0.87884000  0.36336000  1.0
  C  C41  1  0.43095000  0.12117000  0.63663000  1.0
  C  C42  1  0.66028000  0.80136000  0.43296000  1.0
  C  C43  1  0.33972000  0.19865000  0.56703000  1.0
  C  C44  1  0.69074000  0.66171000  0.42750000  1.0
  C  C45  1  0.30927000  0.33829000  0.57249000  1.0
  C  C46  1  0.78171000  0.57553000  0.49830000  1.0
  C  C47  1  0.21829000  0.42447000  0.50170000  1.0
  C  C48  1  0.81052000  0.44103000  0.48835000  1.0
  C  C49  1  0.18949000  0.55897000  0.51164000  1.0
  C  C50  1  0.75055000  0.38305000  0.40691000  1.0
  C  C51  1  0.24945000  0.61696000  0.59308000  1.0
  C  C52  1  0.78537000  0.24498000  0.38845000  1.0
  C  C53  1  0.21463000  0.75502000  0.61154000  1.0
  C  C54  1  0.72575000  0.19604000  0.30662000  1.0
  C  C55  1  0.27425000  0.80396000  0.69338000  1.0
  C  C56  1  0.62663000  0.28409000  0.24605000  1.0
  C  C57  1  0.37337000  0.71591000  0.75395000  1.0
  C  C58  1  0.23358000  0.39945000  0.11297000  1.0
  C  C59  1  0.76644000  0.60054000  0.88701000  1.0
  C  C60  1  0.12482000  0.34084000  0.06082000  1.0
  C  C61  1  0.87518000  0.65917000  0.93916000  1.0
  C  C62  1  0.05558000  0.43501000  0.96892000  1.0
  C  C63  1  0.94443000  0.56500000  0.03107000  1.0
  C  C64  1  0.20132000  0.79942000  0.15538000  1.0
  C  C65  1  0.79866000  0.20059000  0.84463000  1.0
  C  C66  1  0.06620000  0.91714000  0.14431000  1.0
  C  C67  1  0.93378000  0.08286000  0.85572000  1.0
  C  C68  1  0.07004000  0.94326000  0.00564000  1.0
  C  C69  1  0.92992000  0.05672000  0.99440000  1.0
  N  N70  1  0.53739000  0.68523000  0.28014000  1.0
  N  N71  1  0.46261000  0.31477000  0.71986000  1.0
  N  N72  1  0.59105000  0.41435000  0.26299000  1.0
  N  N73  1  0.40896000  0.58565000  0.73701000  1.0
  O  O74  1  0.22723000  0.37682000  0.22732000  1.0
  O  O75  1  0.77283000  0.62316000  0.77264000  1.0
  O  O76  1  0.33090000  0.47544000  0.03336000  1.0
  O  O77  1  0.66910000  0.52457000  0.96664000  1.0
  O  O78  1  0.34869000  0.78449000  0.06690000  1.0
  O  O79  1  0.65129000  0.21551000  0.93311000  1.0
  O  O80  1  0.16133000  0.71933000  0.25283000  1.0
  O  O81  1  0.83869000  0.28066000  0.74717000  1.0
