# generated using pymatgen
data_AlH18C24NO6
_symmetry_space_group_name_H-M   'P 1'
_cell_length_a   4.09917000
_cell_length_b   23.34200000
_cell_length_c   23.34240281
_cell_angle_alpha   59.99971257
_cell_angle_beta   89.99990000
_cell_angle_gamma   89.99940000
_symmetry_Int_Tables_number   1
_chemical_formula_structural   AlH18C24NO6
_chemical_formula_sum   'Al3 H54 C72 N3 O18'
_cell_volume   1934.23361896
_cell_formula_units_Z   3
loop_
 _symmetry_equiv_pos_site_id
 _symmetry_equiv_pos_as_xyz
  1  'x, y, z'
loop_
 _atom_site_type_symbol
 _atom_site_label
 _atom_site_symmetry_multiplicity
 _atom_site_fract_x
 _atom_site_fract_y
 _atom_site_fract_z
 _atom_site_occupancy
  Al  Al0  1  0.99157000  0.50035000  0.50032000  1.0
  Al  Al1  1  0.99164000  0.83266000  0.83370000  1.0
  Al  Al2  1  0.99164000  0.16699000  0.16600000  1.0
  H  H3  1  0.20732000  0.05194000  0.07992000  1.0
  H  H4  1  0.20668000  0.94728000  0.07799000  1.0
  H  H5  1  0.77168000  0.85591000  0.25722000  1.0
  H  H6  1  0.77169000  0.92388000  0.05354000  1.0
  H  H7  1  0.20740000  0.74658000  0.03482000  1.0
  H  H8  1  0.20674000  0.74465000  0.14140000  1.0
  H  H9  1  0.77171000  0.72020000  0.18925000  1.0
  H  H10  1  0.20728000  0.70149000  0.38526000  1.0
  H  H11  1  0.20667000  0.80807000  0.28061000  1.0
  H  H12  1  0.77833000  0.94714000  0.63164000  1.0
  H  H13  1  0.78695000  0.05206000  0.52542000  1.0
  H  H14  1  0.22393000  0.14411000  0.61286000  1.0
  H  H15  1  0.22394000  0.07636000  0.47745000  1.0
  H  H16  1  0.77829000  0.25456000  0.28049000  1.0
  H  H17  1  0.78688000  0.25586000  0.38540000  1.0
  H  H18  1  0.22389000  0.27952000  0.40971000  1.0
  H  H19  1  0.77833000  0.29830000  0.58789000  1.0
  H  H20  1  0.78695000  0.19208000  0.58919000  1.0
  H  H21  1  0.77910000  0.63167000  0.92109000  1.0
  H  H22  1  0.78823000  0.52533000  0.92250000  1.0
  H  H23  1  0.22390000  0.61249000  0.74320000  1.0
  H  H24  1  0.22395000  0.47766000  0.94581000  1.0
  H  H25  1  0.77900000  0.28057000  0.96500000  1.0
  H  H26  1  0.78817000  0.38549000  0.85867000  1.0
  H  H27  1  0.22393000  0.40987000  0.81098000  1.0
  H  H28  1  0.77899000  0.58777000  0.61390000  1.0
  H  H29  1  0.78817000  0.58917000  0.71883000  1.0
  H  H30  1  0.71631000  0.91886000  0.32490000  1.0
  H  H31  1  0.77752000  0.00574000  0.27664000  1.0
  H  H32  1  0.07657000  0.95100000  0.27715000  1.0
  H  H33  1  0.71631000  0.99157000  0.92290000  1.0
  H  H34  1  0.77751000  0.94331000  0.88429000  1.0
  H  H35  1  0.07657000  0.94382000  0.93851000  1.0
  H  H36  1  0.71631000  0.58957000  0.25220000  1.0
  H  H37  1  0.77746000  0.55094000  0.33908000  1.0
  H  H38  1  0.07656000  0.60517000  0.28435000  1.0
  H  H39  1  0.27147000  0.08098000  0.74320000  1.0
  H  H40  1  0.21065000  0.99410000  0.78191000  1.0
  H  H41  1  0.91202000  0.04875000  0.72741000  1.0
  H  H42  1  0.27143000  0.00916000  0.41431000  1.0
  H  H43  1  0.21066000  0.05733000  0.32743000  1.0
  H  H44  1  0.91200000  0.05719000  0.38207000  1.0
  H  H45  1  0.27130000  0.40987000  0.34250000  1.0
  H  H46  1  0.21055000  0.44857000  0.39067000  1.0
  H  H47  1  0.91194000  0.39407000  0.39054000  1.0
  H  H48  1  0.26966000  0.74275000  0.67599000  1.0
  H  H49  1  0.20779000  0.78153000  0.72408000  1.0
  H  H50  1  0.91041000  0.72677000  0.72409000  1.0
  H  H51  1  0.26961000  0.41461000  0.07607000  1.0
  H  H52  1  0.20780000  0.32773000  0.11486000  1.0
  H  H53  1  0.91038000  0.38249000  0.06008000  1.0
  H  H54  1  0.26956000  0.34266000  0.74795000  1.0
  H  H55  1  0.20783000  0.39074000  0.66107000  1.0
  H  H56  1  0.91035000  0.39078000  0.71580000  1.0
  C  C57  1  0.48976000  0.49968000  0.58819000  1.0
  C  C58  1  0.49442000  0.58748000  0.41171000  1.0
  C  C59  1  0.49004000  0.41246000  0.49969000  1.0
  C  C60  1  0.49446000  0.83414000  0.92082000  1.0
  C  C61  1  0.48981000  0.74547000  0.83301000  1.0
  C  C62  1  0.49005000  0.92119000  0.74581000  1.0
  C  C63  1  0.49445000  0.07838000  0.16748000  1.0
  C  C64  1  0.48979000  0.25486000  0.07880000  1.0
  C  C65  1  0.49005000  0.16634000  0.25453000  1.0
  C  C66  1  0.33749000  0.00908000  0.11817000  1.0
  C  C67  1  0.33450000  0.95008000  0.11729000  1.0
  C  C68  1  0.49426000  0.89393000  0.16711000  1.0
  C  C69  1  0.64969000  0.89909000  0.21780000  1.0
  C  C70  1  0.65034000  0.95772000  0.22025000  1.0
  C  C71  1  0.49576000  0.01355000  0.16898000  1.0
  C  C72  1  0.64972000  0.88447000  0.04978000  1.0
  C  C73  1  0.65036000  0.88691000  0.98870000  1.0
  C  C74  1  0.49579000  0.83564000  0.98415000  1.0
  C  C75  1  0.33754000  0.78484000  0.03942000  1.0
  C  C76  1  0.33455000  0.78395000  0.09931000  1.0
  C  C77  1  0.49429000  0.83378000  0.10563000  1.0
  C  C78  1  0.64970000  0.71645000  0.23242000  1.0
  C  C79  1  0.65031000  0.65536000  0.29106000  1.0
  C  C80  1  0.49574000  0.65081000  0.34688000  1.0
  C  C81  1  0.33747000  0.70609000  0.34241000  1.0
  C  C82  1  0.33449000  0.76597000  0.28341000  1.0
  C  C83  1  0.49426000  0.77230000  0.22726000  1.0
  C  C84  1  0.65058000  0.99022000  0.62709000  1.0
  C  C85  1  0.65800000  0.04940000  0.56736000  1.0
  C  C86  1  0.50098000  0.10587000  0.56094000  1.0
  C  C87  1  0.34397000  0.10076000  0.61663000  1.0
  C  C88  1  0.33951000  0.04198000  0.67758000  1.0
  C  C89  1  0.49097000  0.98585000  0.68221000  1.0
  C  C90  1  0.34397000  0.11595000  0.43410000  1.0
  C  C91  1  0.33949000  0.11378000  0.37532000  1.0
  C  C92  1  0.49096000  0.16527000  0.31920000  1.0
  C  C93  1  0.65054000  0.21603000  0.32356000  1.0
  C  C94  1  0.65796000  0.21657000  0.38275000  1.0
  C  C95  1  0.50095000  0.16653000  0.43921000  1.0
  C  C96  1  0.34393000  0.28329000  0.44929000  1.0
  C  C97  1  0.33945000  0.34424000  0.44712000  1.0
  C  C98  1  0.49095000  0.34887000  0.49861000  1.0
  C  C99  1  0.65056000  0.29375000  0.54936000  1.0
  C  C100  1  0.65800000  0.23401000  0.54991000  1.0
  C  C101  1  0.50096000  0.22760000  0.49986000  1.0
  C  C102  1  0.65108000  0.62696000  0.88268000  1.0
  C  C103  1  0.65896000  0.56724000  0.88325000  1.0
  C  C104  1  0.50197000  0.56086000  0.83320000  1.0
  C  C105  1  0.34402000  0.61638000  0.78270000  1.0
  C  C106  1  0.33871000  0.67729000  0.78053000  1.0
  C  C107  1  0.49064000  0.68193000  0.83195000  1.0
  C  C108  1  0.34401000  0.43426000  0.94971000  1.0
  C  C109  1  0.33870000  0.37552000  0.01062000  1.0
  C  C110  1  0.49064000  0.31946000  0.01526000  1.0
  C  C111  1  0.65106000  0.32370000  0.96029000  1.0
  C  C112  1  0.65893000  0.38284000  0.90058000  1.0
  C  C113  1  0.50195000  0.43927000  0.89419000  1.0
  C  C114  1  0.34402000  0.44937000  0.76759000  1.0
  C  C115  1  0.33869000  0.44721000  0.70885000  1.0
  C  C116  1  0.49061000  0.49863000  0.65278000  1.0
  C  C117  1  0.65107000  0.54935000  0.65703000  1.0
  C  C118  1  0.65893000  0.54991000  0.71618000  1.0
  C  C119  1  0.50194000  0.49988000  0.77260000  1.0
  C  C120  1  0.81251000  0.95870000  0.27768000  1.0
  C  C121  1  0.81252000  0.94435000  0.93028000  1.0
  C  C122  1  0.81250000  0.59694000  0.29205000  1.0
  C  C123  1  0.17602000  0.04108000  0.73584000  1.0
  C  C124  1  0.17602000  0.05642000  0.37442000  1.0
  C  C125  1  0.17592000  0.40250000  0.38976000  1.0
  C  C126  1  0.17420000  0.73540000  0.72323000  1.0
  C  C127  1  0.17417000  0.37472000  0.06872000  1.0
  C  C128  1  0.17416000  0.38990000  0.70804000  1.0
  N  N129  1  0.49390000  0.83333000  0.16667000  1.0
  N  N130  1  0.50532000  0.16665667  0.50001000  1.0
  N  N131  1  0.50684000  0.50000333  0.83333000  1.0
  O  O132  1  0.72560000  0.45238000  0.47093000  1.0
  O  O133  1  0.72527000  0.47095000  0.57702000  1.0
  O  O134  1  0.72907000  0.57801000  0.45136000  1.0
  O  O135  1  0.25439000  0.42219000  0.52956000  1.0
  O  O136  1  0.25786000  0.54766000  0.42315000  1.0
  O  O137  1  0.25437000  0.52959000  0.54856000  1.0
  O  O138  1  0.25442000  0.88160000  0.75552000  1.0
  O  O139  1  0.25790000  0.86253000  0.88101000  1.0
  O  O140  1  0.25443000  0.75520000  0.86291000  1.0
  O  O141  1  0.72564000  0.91003000  0.78572000  1.0
  O  O142  1  0.72533000  0.78536000  0.80429000  1.0
  O  O143  1  0.72911000  0.80396000  0.91135000  1.0
  O  O144  1  0.25441000  0.19623000  0.21493000  1.0
  O  O145  1  0.25790000  0.08981000  0.19587000  1.0
  O  O146  1  0.25441000  0.21523000  0.08853000  1.0
  O  O147  1  0.72566000  0.13760000  0.24337000  1.0
  O  O148  1  0.72530000  0.24369000  0.11870000  1.0
  O  O149  1  0.72912000  0.11802000  0.13731000  1.0
