# generated using pymatgen
data_CaH14C8(NO5)2
_symmetry_space_group_name_H-M   'P 1'
_cell_length_a   5.94275000
_cell_length_b   9.92667000
_cell_length_c   10.80080000
_cell_angle_alpha   68.44800000
_cell_angle_beta   89.99990000
_cell_angle_gamma   89.99990000
_symmetry_Int_Tables_number   1
_chemical_formula_structural   CaH14C8(NO5)2
_chemical_formula_sum   'Ca2 H28 C16 N4 O20'
_cell_volume   592.61058421
_cell_formula_units_Z   2
loop_
 _symmetry_equiv_pos_site_id
 _symmetry_equiv_pos_as_xyz
  1  'x, y, z'
loop_
 _atom_site_type_symbol
 _atom_site_label
 _atom_site_symmetry_multiplicity
 _atom_site_fract_x
 _atom_site_fract_y
 _atom_site_fract_z
 _atom_site_occupancy
  Ca  Ca0  1  0.44714000  0.25000000  0.00000000  1.0
  Ca  Ca1  1  0.55286000  0.75000000  0.00000000  1.0
  H  H2  1  0.82238000  0.10049000  0.18551000  1.0
  H  H3  1  0.17762000  0.60049000  0.18551000  1.0
  H  H4  1  0.17761000  0.89951000  0.81449000  1.0
  H  H5  1  0.82238000  0.39951000  0.81449000  1.0
  H  H6  1  0.80141000  0.99224000  0.10691000  1.0
  H  H7  1  0.19859000  0.49224000  0.10691000  1.0
  H  H8  1  0.19859000  0.00775000  0.89308000  1.0
  H  H9  1  0.80141000  0.50776000  0.89309000  1.0
  H  H10  1  0.98676000  0.14507000  0.97464000  1.0
  H  H11  1  0.01324000  0.64507000  0.97464000  1.0
  H  H12  1  0.01324000  0.85493000  0.02536000  1.0
  H  H13  1  0.98676000  0.35493000  0.02536000  1.0
  H  H14  1  0.05499000  0.23668000  0.82591000  1.0
  H  H15  1  0.94501000  0.73668000  0.82591000  1.0
  H  H16  1  0.94501000  0.76332000  0.17409000  1.0
  H  H17  1  0.05499000  0.26332000  0.17409000  1.0
  H  H18  1  0.13263000  0.98793000  0.40302000  1.0
  H  H19  1  0.86736000  0.48793000  0.40302000  1.0
  H  H20  1  0.86736000  0.01207000  0.59698000  1.0
  H  H21  1  0.13264000  0.51207000  0.59698000  1.0
  H  H22  1  0.65665000  0.71861000  0.37431000  1.0
  H  H23  1  0.34335000  0.21861000  0.37432000  1.0
  H  H24  1  0.34335000  0.28139000  0.62569000  1.0
  H  H25  1  0.65665000  0.78139000  0.62568000  1.0
  H  H26  1  0.67601000  0.88971000  0.39093000  1.0
  H  H27  1  0.32399000  0.38971000  0.39093000  1.0
  H  H28  1  0.32399000  0.11029000  0.60907000  1.0
  H  H29  1  0.67601000  0.61029000  0.60907000  1.0
  C  C30  1  0.33626000  0.82062000  0.37510000  1.0
  C  C31  1  0.66374000  0.32062000  0.37511000  1.0
  C  C32  1  0.66374000  0.17938000  0.62490000  1.0
  C  C33  1  0.33626000  0.67938000  0.62490000  1.0
  C  C34  1  0.21036000  0.67475000  0.41528000  1.0
  C  C35  1  0.78963000  0.17476000  0.41528000  1.0
  C  C36  1  0.78963000  0.32524000  0.58472000  1.0
  C  C37  1  0.21036000  0.82525000  0.58472000  1.0
  C  C38  1  0.58340000  0.78678000  0.42396000  1.0
  C  C39  1  0.41661000  0.28678000  0.42396000  1.0
  C  C40  1  0.41661000  0.21322000  0.57604000  1.0
  C  C41  1  0.58339000  0.71322000  0.57604000  1.0
  C  C42  1  0.34293000  0.91273000  0.22525000  1.0
  C  C43  1  0.65708000  0.41274000  0.22526000  1.0
  C  C44  1  0.65708000  0.08726000  0.77474000  1.0
  C  C45  1  0.34293000  0.58727000  0.77475000  1.0
  N  N46  1  0.22759000  0.89663000  0.45295000  1.0
  N  N47  1  0.77241000  0.39663000  0.45295000  1.0
  N  N48  1  0.77241000  0.10337000  0.54705000  1.0
  N  N49  1  0.22759000  0.60337000  0.54705000  1.0
  O  O50  1  0.78011000  0.09489000  0.09953000  1.0
  O  O51  1  0.21989000  0.59488000  0.09953000  1.0
  O  O52  1  0.21989000  0.90511000  0.90047000  1.0
  O  O53  1  0.78010000  0.40511000  0.90047000  1.0
  O  O54  1  0.11195000  0.16357000  0.90862000  1.0
  O  O55  1  0.88805000  0.66357000  0.90862000  1.0
  O  O56  1  0.88804000  0.83643000  0.09138000  1.0
  O  O57  1  0.11195000  0.33643000  0.09138000  1.0
  O  O58  1  0.09864000  0.63001000  0.33918000  1.0
  O  O59  1  0.90136000  0.13000000  0.33917000  1.0
  O  O60  1  0.90136000  0.37000000  0.66083000  1.0
  O  O61  1  0.09863000  0.87000000  0.66082000  1.0
  O  O62  1  0.29371000  0.04511000  0.19108000  1.0
  O  O63  1  0.70629000  0.54511000  0.19109000  1.0
  O  O64  1  0.70629000  0.95489000  0.80891000  1.0
  O  O65  1  0.29371000  0.45489000  0.80892000  1.0
  O  O66  1  0.41222000  0.84608000  0.15368000  1.0
  O  O67  1  0.58778000  0.34608000  0.15367000  1.0
  O  O68  1  0.58778000  0.15392000  0.84633000  1.0
  O  O69  1  0.41222000  0.65392000  0.84632000  1.0
