# generated using pymatgen
data_Zn4H18C36O13
_symmetry_space_group_name_H-M   'P 1'
_cell_length_a   15.11310000
_cell_length_b   20.14420000
_cell_length_c   22.51590000
_cell_angle_alpha   90.56950000
_cell_angle_beta   90.43610000
_cell_angle_gamma   90.52680000
_symmetry_Int_Tables_number   1
_chemical_formula_structural   Zn4H18C36O13
_chemical_formula_sum   'Zn8 H36 C72 O26'
_cell_volume   6853.93836078
_cell_formula_units_Z   2
loop_
 _symmetry_equiv_pos_site_id
 _symmetry_equiv_pos_as_xyz
  1  'x, y, z'
loop_
 _atom_site_type_symbol
 _atom_site_label
 _atom_site_symmetry_multiplicity
 _atom_site_fract_x
 _atom_site_fract_y
 _atom_site_fract_z
 _atom_site_occupancy
  Zn  Zn0  1  0.43443000  0.58368000  0.00270000  1.0
  Zn  Zn1  1  0.43503000  0.08117000  0.49383000  1.0
  Zn  Zn2  1  0.41630000  0.42438000  0.00034000  1.0
  Zn  Zn3  1  0.41964000  0.92194000  0.49993000  1.0
  Zn  Zn4  1  0.57838000  0.49270000  0.06791000  1.0
  Zn  Zn5  1  0.57141000  0.50018000  0.92751000  1.0
  Zn  Zn6  1  0.56796000  0.99331000  0.57480000  1.0
  Zn  Zn7  1  0.58331000  0.99691000  0.43290000  1.0
  H  H8  1  0.60490000  0.34202000  0.19215000  1.0
  H  H9  1  0.55119000  0.34943000  0.66970000  1.0
  H  H10  1  0.54228000  0.85028000  0.83106000  1.0
  H  H11  1  0.68545000  0.76644000  0.23364000  1.0
  H  H12  1  0.44688000  0.64778000  0.67170000  1.0
  H  H13  1  0.32125000  0.73540000  0.26266000  1.0
  H  H14  1  0.31452000  0.23320000  0.23445000  1.0
  H  H15  1  0.44994000  0.15070000  0.82651000  1.0
  H  H16  1  0.53814000  0.76309000  0.90894000  1.0
  H  H17  1  0.67117000  0.67833000  0.15532000  1.0
  H  H18  1  0.66666667  0.18164000  0.34342000  1.0
  H  H19  1  0.53774000  0.38274000  0.77642000  1.0
  H  H20  1  0.54312000  0.26154000  0.59106000  1.0
  H  H21  1  0.47783000  0.61390000  0.77632000  1.0
  H  H22  1  0.38926000  0.67126000  0.17954000  1.0
  H  H23  1  0.38466000  0.17005000  0.31726000  1.0
  H  H24  1  0.48163000  0.11480000  0.72242000  1.0
  H  H25  1  0.14472000  0.42972000  0.02802000  1.0
  H  H26  1  0.14679000  0.92323000  0.54920000  1.0
  H  H27  1  0.16808000  0.61562000  0.93718000  1.0
  H  H28  1  0.16837000  0.10567000  0.45279000  1.0
  H  H29  1  0.00410000  0.62093000  0.92598000  1.0
  H  H30  1  0.52458000  0.88212000  0.72502000  1.0
  H  H31  1  0.00402000  0.11028000  0.44222000  1.0
  H  H32  1  0.32838000  0.31438000  0.15214000  1.0
  H  H33  1  0.44628000  0.24047000  0.90358000  1.0
  H  H34  1  0.44185000  0.73626000  0.59508000  1.0
  H  H35  1  0.33764000  0.81676000  0.34635000  1.0
  H  H36  1  0.99640000  0.38585000  0.05443000  1.0
  H  H37  1  0.99734000  0.88023000  0.57767000  1.0
  H  H38  1  0.61529000  0.83820000  0.31052000  1.0
  H  H39  1  0.83203000  0.39523000  0.05022000  1.0
  H  H40  1  0.83318000  0.89053000  0.57475000  1.0
  H  H41  1  0.85418000  0.56995000  0.94276000  1.0
  H  H42  1  0.85573000  0.06056000  0.46144000  1.0
  H  H43  1  0.67753000  0.27078000  0.26767000  1.0
  C  C44  1  0.49464000  0.36991000  0.89062000  1.0
  C  C45  1  0.51540000  0.28312000  0.74105000  1.0
  C  C46  1  0.50715000  0.78242000  0.75910000  1.0
  C  C47  1  0.54546000  0.76663000  0.25405000  1.0
  C  C48  1  0.54206000  0.31738000  0.20150000  1.0
  C  C49  1  0.51760000  0.33200000  0.78656000  1.0
  C  C50  1  0.50697000  0.83082000  0.71416000  1.0
  C  C51  1  0.55160000  0.81502000  0.29986000  1.0
  C  C52  1  0.38537000  0.30166000  0.17951000  1.0
  C  C53  1  0.46657000  0.25093000  0.85827000  1.0
  C  C54  1  0.46069000  0.74778000  0.64085000  1.0
  C  C55  1  0.47646000  0.38180000  0.11893000  1.0
  C  C56  1  0.39418000  0.80267000  0.31942000  1.0
  C  C57  1  0.37812000  0.25660000  0.22480000  1.0
  C  C58  1  0.46824000  0.20164000  0.81551000  1.0
  C  C59  1  0.46327000  0.69916000  0.68336000  1.0
  C  C60  1  0.38559000  0.75760000  0.27342000  1.0
  C  C61  1  0.16540000  0.52123000  0.98245000  1.0
  C  C62  1  0.16629000  0.01336000  0.50121000  1.0
  C  C63  1  0.83435000  0.48295000  0.99530000  1.0
  C  C64  1  0.83559000  0.97631000  0.51724000  1.0
  C  C65  1  0.96507000  0.42647000  0.03071000  1.0
  C  C66  1  0.48642000  0.88133000  0.38234000  1.0
  C  C67  1  0.96616000  0.92038000  0.55327000  1.0
  C  C68  1  0.87447000  0.43117000  0.02809000  1.0
  C  C69  1  0.87541000  0.92563000  0.55137000  1.0
  C  C70  1  0.88599000  0.53037000  0.96756000  1.0
  C  C71  1  0.88742000  0.02211000  0.48766000  1.0
  C  C72  1  0.52028000  0.61996000  0.11450000  1.0
  C  C73  1  0.50904000  0.63084000  0.89245000  1.0
  C  C74  1  0.51265000  0.12941000  0.60650000  1.0
  C  C75  1  0.51790000  0.12072000  0.38240000  1.0
  C  C76  1  0.97950000  0.52896000  0.97259000  1.0
  C  C77  1  0.48443000  0.86735000  0.61038000  1.0
  C  C78  1  0.98070000  0.02052000  0.49220000  1.0
  C  C79  1  0.01988000  0.47491000  0.00350000  1.0
  C  C80  1  0.02122000  0.96748000  0.52439000  1.0
  C  C81  1  0.11313000  0.47155000  0.00629000  1.0
  C  C82  1  0.11466000  0.96429000  0.52665000  1.0
  C  C83  1  0.12557000  0.57642000  0.95442000  1.0
  C  C84  1  0.12600000  0.06731000  0.47156000  1.0
  C  C85  1  0.03488000  0.57933000  0.94866000  1.0
  C  C86  1  0.03541000  0.06986000  0.46616000  1.0
  C  C87  1  0.26369000  0.51619000  0.98730000  1.0
  C  C88  1  0.48658000  0.71476000  0.74322000  1.0
  C  C89  1  0.26473000  0.00973000  0.50446000  1.0
  C  C90  1  0.73584000  0.48692000  0.99381000  1.0
  C  C91  1  0.73730000  0.98157000  0.51291000  1.0
  C  C92  1  0.46795000  0.33313000  0.16817000  1.0
  C  C93  1  0.49326000  0.31661000  0.84403000  1.0
  C  C94  1  0.48396000  0.81429000  0.65615000  1.0
  C  C95  1  0.47783000  0.83245000  0.33238000  1.0
  C  C96  1  0.50837000  0.68342000  0.84633000  1.0
  C  C97  1  0.52867000  0.67070000  0.16290000  1.0
  C  C98  1  0.52420000  0.17162000  0.33490000  1.0
  C  C99  1  0.46031000  0.73826000  0.23962000  1.0
  C  C100  1  0.51303000  0.18285000  0.65298000  1.0
  C  C101  1  0.52665000  0.79873000  0.81941000  1.0
  C  C102  1  0.62097000  0.74476000  0.22238000  1.0
  C  C103  1  0.61382000  0.24787000  0.27796000  1.0
  C  C104  1  0.53446000  0.29828000  0.68092000  1.0
  C  C105  1  0.52515000  0.75071000  0.86244000  1.0
  C  C106  1  0.61336000  0.69660000  0.17883000  1.0
  C  C107  1  0.60797000  0.19912000  0.32018000  1.0
  C  C108  1  0.53085000  0.24977000  0.63744000  1.0
  C  C109  1  0.49034000  0.66591000  0.78782000  1.0
  C  C110  1  0.45339000  0.23860000  0.25911000  1.0
  C  C111  1  0.45374000  0.69173000  0.19235000  1.0
  C  C112  1  0.44852000  0.19165000  0.30534000  1.0
  C  C113  1  0.49521000  0.16643000  0.71125000  1.0
  C  C114  1  0.49266000  0.21600000  0.75613000  1.0
  C  C115  1  0.53753000  0.26869000  0.24617000  1.0
  O  O116  1  0.49892000  0.49969000  0.99924000  1.0
  O  O117  1  0.44935000  0.12219000  0.41516000  1.0
  O  O118  1  0.29477000  0.45814000  0.99477000  1.0
  O  O119  1  0.29839000  0.95290000  0.51433000  1.0
  O  O120  1  0.69634000  0.46638000  0.04025000  1.0
  O  O121  1  0.69868000  0.51015000  0.94732000  1.0
  O  O122  1  0.69316000  0.97167000  0.56030000  1.0
  O  O123  1  0.70616000  0.99629000  0.46198000  1.0
  O  O124  1  0.41909000  0.37782000  0.07707000  1.0
  O  O125  1  0.44486000  0.36156000  0.93570000  1.0
  O  O126  1  0.44790000  0.85441000  0.56002000  1.0
  O  O127  1  0.50148000  0.99833000  0.50002000  1.0
  O  O128  1  0.42375000  0.88162000  0.42011000  1.0
  O  O129  1  0.53440000  0.57333000  0.87585000  1.0
  O  O130  1  0.58527000  0.58039000  0.10770000  1.0
  O  O131  1  0.58170000  0.07981000  0.38656000  1.0
  O  O132  1  0.54623000  0.07413000  0.62167000  1.0
  O  O133  1  0.30828000  0.57031000  0.98378000  1.0
  O  O134  1  0.30714000  0.06413000  0.49682000  1.0
  O  O135  1  0.54568000  0.41948000  0.88110000  1.0
  O  O136  1  0.54119000  0.42299000  0.12258000  1.0
  O  O137  1  0.55562000  0.91844000  0.38340000  1.0
  O  O138  1  0.52151000  0.92232000  0.62524000  1.0
  O  O139  1  0.44874000  0.61995000  0.08382000  1.0
  O  O140  1  0.48379000  0.64714000  0.94467000  1.0
  O  O141  1  0.47874000  0.14345000  0.55601000  1.0
