# generated using pymatgen
data_Zn4H58C51N20O
_symmetry_space_group_name_H-M   'P 1'
_cell_length_a   14.86030000
_cell_length_b   15.15160000
_cell_length_c   14.88050000
_cell_angle_alpha   112.96460000
_cell_angle_beta   110.85220000
_cell_angle_gamma   103.60700000
_symmetry_Int_Tables_number   1
_chemical_formula_structural   Zn4H58C51N20O
_chemical_formula_sum   'Zn4 H58 C51 N20 O1'
_cell_volume   2596.05547209
_cell_formula_units_Z   1
loop_
 _symmetry_equiv_pos_site_id
 _symmetry_equiv_pos_as_xyz
  1  'x, y, z'
loop_
 _atom_site_type_symbol
 _atom_site_label
 _atom_site_symmetry_multiplicity
 _atom_site_fract_x
 _atom_site_fract_y
 _atom_site_fract_z
 _atom_site_occupancy
  Zn  Zn0  1  0.48827000  0.13035000  0.14980000  1.0
  Zn  Zn1  1  0.49890000  0.85875000  0.86970000  1.0
  Zn  Zn2  1  0.36645000  0.00237000  0.87549000  1.0
  Zn  Zn3  1  0.63986000  0.00867000  0.14361000  1.0
  H  H4  1  0.29925000  0.20119000  0.18511000  1.0
  H  H5  1  0.44869000  0.76403000  0.60120000  1.0
  H  H6  1  0.51519000  0.15546000  0.83602000  1.0
  H  H7  1  0.82386000  0.20378000  0.17233000  1.0
  H  H8  1  0.64589000  0.34912000  0.19605000  1.0
  H  H9  1  0.86079000  0.19505000  0.38448000  1.0
  H  H10  1  0.44644000  0.75191000  0.27603000  1.0
  H  H11  1  0.30678000  0.69983000  0.21514000  1.0
  H  H12  1  0.33419000  0.69395000  0.37749000  1.0
  H  H13  1  0.51259000  0.63092000  0.84903000  1.0
  H  H14  1  0.47247000  0.77927000  0.45118000  1.0
  H  H15  1  0.55584000  0.95142000  0.41876000  1.0
  H  H16  1  0.54049000  0.97302000  0.57695000  1.0
  H  H17  1  0.30143000  0.96712000  0.33049000  1.0
  H  H18  1  0.20815000  0.76992000  0.33472000  1.0
  H  H19  1  0.23583000  0.90106000  0.42560000  1.0
  H  H20  1  0.49758000  0.03970000  0.41790000  1.0
  H  H21  1  0.45624000  0.03548000  0.55428000  1.0
  H  H22  1  0.14700000  0.83489000  0.83011000  1.0
  H  H23  1  0.68343000  0.42619000  0.99777000  1.0
  H  H24  1  0.47132000  0.51314000  0.93069000  1.0
  H  H25  1  0.70855000  0.62669000  0.11303000  1.0
  H  H26  1  0.04633000  0.59230000  0.77432000  1.0
  H  H27  1  0.00500000  0.35643000  0.52911000  1.0
  H  H28  1  0.87707000  0.48383000  0.57552000  1.0
  H  H29  1  0.83761000  0.08171000  0.82324000  1.0
  H  H30  1  0.96085000  0.21324000  0.08238000  1.0
  H  H31  1  0.01241000  0.12645000  0.83694000  1.0
  H  H32  1  0.53380000  0.83933000  0.20028000  1.0
  H  H33  1  0.09036000  0.16710000  0.07658000  1.0
  H  H34  1  0.34326000  0.66550000  0.85648000  1.0
  H  H35  1  0.31643000  0.98678000  0.17949000  1.0
  H  H36  1  0.74402000  0.85209000  0.20324000  1.0
  H  H37  1  0.16150000  0.06955000  0.82573000  1.0
  H  H38  1  0.65593000  0.35312000  0.41257000  1.0
  H  H39  1  0.65656000  0.81754000  0.67823000  1.0
  H  H40  1  0.59664000  0.80408000  0.75939000  1.0
  H  H41  1  0.83799000  0.89464000  0.84612000  1.0
  H  H42  1  0.77790000  0.88552000  0.92761000  1.0
  H  H43  1  0.68046000  0.68633000  0.79984000  1.0
  H  H44  1  0.82034000  0.72987000  0.85725000  1.0
  H  H45  1  0.73922000  0.69247000  0.71569000  1.0
  H  H46  1  0.25117000  0.00232000  0.67821000  1.0
  H  H47  1  0.27647000  0.12729000  0.63201000  1.0
  H  H48  1  0.31940000  0.06197000  0.53965000  1.0
  H  H49  1  0.40851000  0.13709000  0.68808000  1.0
  H  H50  1  0.17950000  0.74460000  0.14631000  1.0
  H  H51  1  0.02906000  0.78137000  0.09384000  1.0
  H  H52  1  0.10705000  0.91223000  0.21434000  1.0
  H  H53  1  0.06852000  0.80172000  0.23118000  1.0
  H  H54  1  0.44510000  0.31034000  0.00127000  1.0
  H  H55  1  0.34196000  0.37762000  0.05485000  1.0
  H  H56  1  0.33909000  0.44567000  0.98109000  1.0
  H  H57  1  0.44861000  0.50496000  0.11946000  1.0
  H  H58  1  0.23286000  0.60392000  0.67415000  1.0
  H  H59  1  0.20704000  0.51758000  0.49444000  1.0
  H  H60  1  0.09113000  0.54129000  0.47386000  1.0
  H  H61  1  0.08419000  0.41355000  0.44547000  1.0
  C  C62  1  0.28091000  0.16640000  0.09794000  1.0
  C  C63  1  0.63200000  0.70279000  0.03201000  1.0
  C  C64  1  0.20304000  0.70655000  0.81861000  1.0
  C  C65  1  0.40722000  0.89326000  0.21446000  1.0
  C  C66  1  0.69150000  0.29901000  0.38967000  1.0
  C  C67  1  0.41364000  0.81830000  0.62500000  1.0
  C  C68  1  0.54019000  0.18770000  0.92461000  1.0
  C  C69  1  0.77379000  0.13744000  0.08556000  1.0
  C  C70  1  0.70007000  0.01789000  0.90471000  1.0
  C  C71  1  0.60649000  0.28630000  0.10810000  1.0
  C  C72  1  0.79617000  0.21891000  0.37550000  1.0
  C  C73  1  0.56633000  0.69941000  0.93409000  1.0
  C  C74  1  0.33697000  0.92775000  0.63765000  1.0
  C  C75  1  0.79873000  0.31629000  0.44377000  1.0
  C  C76  1  0.36912000  0.86502000  0.56767000  1.0
  C  C77  1  0.59878000  0.29416000  0.01466000  1.0
  C  C78  1  0.79200000  0.11385000  0.99378000  1.0
  C  C79  1  0.38206000  0.76654000  0.28968000  1.0
  C  C80  1  0.39229000  0.76945000  0.39884000  1.0
  C  C81  1  0.48479000  0.96384000  0.41477000  1.0
  C  C82  1  0.28530000  0.88251000  0.29868000  1.0
  C  C83  1  0.38673000  0.87266000  0.29817000  1.0
  C  C84  1  0.20990000  0.80839000  0.84327000  1.0
  C  C85  1  0.37292000  0.86264000  0.46724000  1.0
  C  C86  1  0.46917000  0.96616000  0.51186000  1.0
  C  C87  1  0.26864000  0.85326000  0.38241000  1.0
  C  C88  1  0.54085000  0.42735000  0.99883000  1.0
  C  C89  1  0.61745000  0.39037000  0.00738000  1.0
  C  C90  1  0.54714000  0.52035000  0.98848000  1.0
  C  C91  1  0.63438000  0.61422000  0.04730000  1.0
  C  C92  1  0.09080000  0.52487000  0.65267000  1.0
  C  C93  1  0.10745000  0.60476000  0.75040000  1.0
  C  C94  1  0.99274000  0.42588000  0.57222000  1.0
  C  C95  1  0.48794000  0.88411000  0.18857000  1.0
  C  C96  1  0.89124000  0.41435000  0.53752000  1.0
  C  C97  1  0.90752000  0.12873000  0.90788000  1.0
  C  C98  1  0.89115000  0.15882000  0.99754000  1.0
  C  C99  1  0.00942000  0.14107000  0.91370000  1.0
  C  C100  1  0.09551000  0.15567000  0.00160000  1.0
  C  C101  1  0.30982000  0.72173000  0.85483000  1.0
  C  C102  1  0.37807000  0.96031000  0.17865000  1.0
  C  C103  1  0.68581000  0.81208000  0.11414000  1.0
  C  C104  1  0.21094000  0.10048000  0.91500000  1.0
  C  C105  1  0.19039000  0.14561000  0.00381000  1.0
  C  C106  1  0.66937000  0.85125000  0.76432000  1.0
  C  C107  1  0.76618000  0.84750000  0.84184000  1.0
  C  C108  1  0.75057000  0.73267000  0.80115000  1.0
  C  C109  1  0.32444000  0.08313000  0.62131000  1.0
  C  C110  1  0.09481000  0.82889000  0.18171000  1.0
  C  C111  1  0.39203000  0.42884000  0.03911000  1.0
  C  C112  1  0.13533000  0.49948000  0.50254000  1.0
  N  N113  1  0.34890000  0.13651000  0.06777000  1.0
  N  N114  1  0.40912000  0.84848000  0.72079000  1.0
  N  N115  1  0.51292000  0.12275000  0.96153000  1.0
  N  N116  1  0.68126000  0.06131000  0.05366000  1.0
  N  N117  1  0.63491000  0.98802000  0.94144000  1.0
  N  N118  1  0.55436000  0.18372000  0.07459000  1.0
  N  N119  1  0.69667000  0.15084000  0.28870000  1.0
  N  N120  1  0.36234000  0.91767000  0.72883000  1.0
  N  N121  1  0.57956000  0.79809000  0.95670000  1.0
  N  N122  1  0.31186000  0.87620000  0.88668000  1.0
  N  N123  1  0.50637000  0.94340000  0.14317000  1.0
  N  N124  1  0.37355000  0.82326000  0.89378000  1.0
  N  N125  1  0.43906000  0.99064000  0.13762000  1.0
  N  N126  1  0.65340000  0.86850000  0.06934000  1.0
  N  N127  1  0.30502000  0.09478000  0.95348000  1.0
  N  N128  1  0.63093000  0.20037000  0.29729000  1.0
  N  N129  1  0.27952000  0.98743000  0.62352000  1.0
  N  N130  1  0.19217000  0.82231000  0.18516000  1.0
  N  N131  1  0.44587000  0.37286000  0.99088000  1.0
  N  N132  1  0.16883000  0.53093000  0.61984000  1.0
  O  O133  1  0.67989000  0.95843000  0.79777000  1.0
