# generated using pymatgen
data_ZnH12C14N5O3
_symmetry_space_group_name_H-M   'P 1'
_cell_length_a   7.63143000
_cell_length_b   12.57970000
_cell_length_c   14.14410000
_cell_angle_alpha   94.04840000
_cell_angle_beta   89.99980000
_cell_angle_gamma   90.00000000
_symmetry_Int_Tables_number   1
_chemical_formula_structural   ZnH12C14N5O3
_chemical_formula_sum   'Zn4 H48 C56 N20 O12'
_cell_volume   1354.46100983
_cell_formula_units_Z   4
loop_
 _symmetry_equiv_pos_site_id
 _symmetry_equiv_pos_as_xyz
  1  'x, y, z'
loop_
 _atom_site_type_symbol
 _atom_site_label
 _atom_site_symmetry_multiplicity
 _atom_site_fract_x
 _atom_site_fract_y
 _atom_site_fract_z
 _atom_site_occupancy
  Zn  Zn0  1  0.95902000  0.80265000  0.03087000  1.0
  Zn  Zn1  1  0.45903000  0.69735000  0.46913000  1.0
  Zn  Zn2  1  0.04097000  0.19735000  0.96913000  1.0
  Zn  Zn3  1  0.54097000  0.30265000  0.53087000  1.0
  H  H4  1  0.37369000  0.92028000  0.94736000  1.0
  H  H5  1  0.87369000  0.57972000  0.55264000  1.0
  H  H6  1  0.62631000  0.07972000  0.05263000  1.0
  H  H7  1  0.12631000  0.42028000  0.44736000  1.0
  H  H8  1  0.53054000  0.99976000  0.89225000  1.0
  H  H9  1  0.03054000  0.50024000  0.60775000  1.0
  H  H10  1  0.46946000  0.00024000  0.10774000  1.0
  H  H11  1  0.96946000  0.49976000  0.39225000  1.0
  H  H12  1  0.85712000  0.12669000  0.14394000  1.0
  H  H13  1  0.35712000  0.37331000  0.35606000  1.0
  H  H14  1  0.14287000  0.87331000  0.85606000  1.0
  H  H15  1  0.64287000  0.62670000  0.64394000  1.0
  H  H16  1  0.69579000  0.21296000  0.27912000  1.0
  H  H17  1  0.19579000  0.28704000  0.22088000  1.0
  H  H18  1  0.30421000  0.78704000  0.72088000  1.0
  H  H19  1  0.80421000  0.71296000  0.77911000  1.0
  H  H20  1  0.66893000  0.41342000  0.29448000  1.0
  H  H21  1  0.16893000  0.08658000  0.20552000  1.0
  H  H22  1  0.33107000  0.58658000  0.70552000  1.0
  H  H23  1  0.83108000  0.91342000  0.79448000  1.0
  H  H24  1  0.97779000  0.41811000  0.03852000  1.0
  H  H25  1  0.47778000  0.08188000  0.46147000  1.0
  H  H26  1  0.02221000  0.58188000  0.96147000  1.0
  H  H27  1  0.52222000  0.91812000  0.53852000  1.0
  H  H28  1  0.72556000  0.90814000  0.16134000  1.0
  H  H29  1  0.22556000  0.59186000  0.33867000  1.0
  H  H30  1  0.27445000  0.09186000  0.83867000  1.0
  H  H31  1  0.77445000  0.40815000  0.66133000  1.0
  H  H32  1  0.82385000  0.09102000  0.41059000  1.0
  H  H33  1  0.32385000  0.40897000  0.08942000  1.0
  H  H34  1  0.17615000  0.90898000  0.58941000  1.0
  H  H35  1  0.67615000  0.59103000  0.91058000  1.0
  H  H36  1  0.90480000  0.92882000  0.49472000  1.0
  H  H37  1  0.40478000  0.57116000  0.00528000  1.0
  H  H38  1  0.09521000  0.07117000  0.50529000  1.0
  H  H39  1  0.59522000  0.42883000  0.99471000  1.0
  H  H40  1  0.90892000  0.75221000  0.40557000  1.0
  H  H41  1  0.40890000  0.74778000  0.09443000  1.0
  H  H42  1  0.09109000  0.24779000  0.59443000  1.0
  H  H43  1  0.59110000  0.25222000  0.90557000  1.0
  H  H44  1  0.19697000  0.89931000  0.15232000  1.0
  H  H45  1  0.69698000  0.60069000  0.34768000  1.0
  H  H46  1  0.80303000  0.10069000  0.84768000  1.0
  H  H47  1  0.30302000  0.39931000  0.65232000  1.0
  H  H48  1  0.15631000  0.97509000  0.06148000  1.0
  H  H49  1  0.65631000  0.52491000  0.43852000  1.0
  H  H50  1  0.84369000  0.02491000  0.93852000  1.0
  H  H51  1  0.34369000  0.47509000  0.56148000  1.0
  C  C52  1  0.63840000  0.87398000  0.96818000  1.0
  C  C53  1  0.13839000  0.62603000  0.53182000  1.0
  C  C54  1  0.36160000  0.12603000  0.03181000  1.0
  C  C55  1  0.86161000  0.37397000  0.46819000  1.0
  C  C56  1  0.50117000  0.95905000  0.95688000  1.0
  C  C57  1  0.00117000  0.54095000  0.54312000  1.0
  C  C58  1  0.49883000  0.04095000  0.04312000  1.0
  C  C59  1  0.99883000  0.45905000  0.45688000  1.0
  C  C60  1  0.84406000  0.21313000  0.15132000  1.0
  C  C61  1  0.34406000  0.28686000  0.34868000  1.0
  C  C62  1  0.15593000  0.78687000  0.84868000  1.0
  C  C63  1  0.65593000  0.71314000  0.65131000  1.0
  C  C64  1  0.75411000  0.26258000  0.22760000  1.0
  C  C65  1  0.25411000  0.23742000  0.27240000  1.0
  C  C66  1  0.24589000  0.73742000  0.77240000  1.0
  C  C67  1  0.74589000  0.76258000  0.72759000  1.0
  C  C68  1  0.74184000  0.37339000  0.23611000  1.0
  C  C69  1  0.24183000  0.12661000  0.26389000  1.0
  C  C70  1  0.25817000  0.62661000  0.76389000  1.0
  C  C71  1  0.75817000  0.87339000  0.73611000  1.0
  C  C72  1  0.82402000  0.43263000  0.16854000  1.0
  C  C73  1  0.32402000  0.06737000  0.33146000  1.0
  C  C74  1  0.17598000  0.56737000  0.83146000  1.0
  C  C75  1  0.67598000  0.93264000  0.66854000  1.0
  C  C76  1  0.91140000  0.37658000  0.09336000  1.0
  C  C77  1  0.41139000  0.12341000  0.40664000  1.0
  C  C78  1  0.08860000  0.62342000  0.90664000  1.0
  C  C79  1  0.58861000  0.87659000  0.59336000  1.0
  C  C80  1  0.82808000  0.54893000  0.17177000  1.0
  C  C81  1  0.32807000  0.95107000  0.32823000  1.0
  C  C82  1  0.17193000  0.45107000  0.82823000  1.0
  C  C83  1  0.67194000  0.04894000  0.67177000  1.0
  C  C84  1  0.82690000  0.71450000  0.21725000  1.0
  C  C85  1  0.32688000  0.78550000  0.28275000  1.0
  C  C86  1  0.17311000  0.28550000  0.78275000  1.0
  C  C87  1  0.67311000  0.21450000  0.71724000  1.0
  C  C88  1  0.81922000  0.81564000  0.27464000  1.0
  C  C89  1  0.31921000  0.68435000  0.22536000  1.0
  C  C90  1  0.18078000  0.18436000  0.72536000  1.0
  C  C91  1  0.68078000  0.31565000  0.77464000  1.0
  C  C92  1  0.76957000  0.91040000  0.23494000  1.0
  C  C93  1  0.26956000  0.58959000  0.26507000  1.0
  C  C94  1  0.23044000  0.08960000  0.76507000  1.0
  C  C95  1  0.73044000  0.41041000  0.73493000  1.0
  C  C96  1  0.82113000  0.01169000  0.37362000  1.0
  C  C97  1  0.32113000  0.48830000  0.12639000  1.0
  C  C98  1  0.17887000  0.98831000  0.62639000  1.0
  C  C99  1  0.67888000  0.51170000  0.87361000  1.0
  C  C100  1  0.86721000  0.92163000  0.42037000  1.0
  C  C101  1  0.36720000  0.57835000  0.07963000  1.0
  C  C102  1  0.13279000  0.07836000  0.57963000  1.0
  C  C103  1  0.63280000  0.42164000  0.92036000  1.0
  C  C104  1  0.86752000  0.82237000  0.37053000  1.0
  C  C105  1  0.36751000  0.67762000  0.12947000  1.0
  C  C106  1  0.13248000  0.17762000  0.62947000  1.0
  C  C107  1  0.63249000  0.32238000  0.87052000  1.0
  N  N108  1  0.91962000  0.26969000  0.08448000  1.0
  N  N109  1  0.41962000  0.23031000  0.41552000  1.0
  N  N110  1  0.08038000  0.73031000  0.91551000  1.0
  N  N111  1  0.58038000  0.76969000  0.58448000  1.0
  N  N112  1  0.79545000  0.61742000  0.24901000  1.0
  N  N113  1  0.29544000  0.88257000  0.25099000  1.0
  N  N114  1  0.20456000  0.38258000  0.75099000  1.0
  N  N115  1  0.70456000  0.11743000  0.74901000  1.0
  N  N116  1  0.87594000  0.70491000  0.12486000  1.0
  N  N117  1  0.37593000  0.79509000  0.37514000  1.0
  N  N118  1  0.12407000  0.29509000  0.87514000  1.0
  N  N119  1  0.62406000  0.20491000  0.62486000  1.0
  N  N120  1  0.87659000  0.59966000  0.09584000  1.0
  N  N121  1  0.37659000  0.90033000  0.40416000  1.0
  N  N122  1  0.12341000  0.40033000  0.90416000  1.0
  N  N123  1  0.62341000  0.09967000  0.59584000  1.0
  N  N124  1  0.77140000  0.00642000  0.28212000  1.0
  N  N125  1  0.27139000  0.49357000  0.21789000  1.0
  N  N126  1  0.22861000  0.99358000  0.71788000  1.0
  N  N127  1  0.72861000  0.50643000  0.78211000  1.0
  O  O128  1  0.79912000  0.91109000  0.98171000  1.0
  O  O129  1  0.29912000  0.58891000  0.51829000  1.0
  O  O130  1  0.20088000  0.08891000  0.01828000  1.0
  O  O131  1  0.70088000  0.41109000  0.48171000  1.0
  O  O132  1  0.60211000  0.77793000  0.96752000  1.0
  O  O133  1  0.10210000  0.72207000  0.53249000  1.0
  O  O134  1  0.39789000  0.22207000  0.03248000  1.0
  O  O135  1  0.89790000  0.27793000  0.46752000  1.0
  O  O136  1  0.12902000  0.90630000  0.09023000  1.0
  O  O137  1  0.62902000  0.59370000  0.40977000  1.0
  O  O138  1  0.87098000  0.09370000  0.90976000  1.0
  O  O139  1  0.37098000  0.40630000  0.59023000  1.0
