# generated using pymatgen
data_RbH6C9Cl4O3
_symmetry_space_group_name_H-M   'P 1'
_cell_length_a   7.69939000
_cell_length_b   10.51750000
_cell_length_c   17.10980000
_cell_angle_alpha   90.00000000
_cell_angle_beta   90.00010000
_cell_angle_gamma   103.77800000
_symmetry_Int_Tables_number   1
_chemical_formula_structural   RbH6C9Cl4O3
_chemical_formula_sum   'Rb4 H24 C36 Cl16 O12'
_cell_volume   1345.65578376
_cell_formula_units_Z   4
loop_
 _symmetry_equiv_pos_site_id
 _symmetry_equiv_pos_as_xyz
  1  'x, y, z'
loop_
 _atom_site_type_symbol
 _atom_site_label
 _atom_site_symmetry_multiplicity
 _atom_site_fract_x
 _atom_site_fract_y
 _atom_site_fract_z
 _atom_site_occupancy
  Rb  Rb0  1  0.43601000  0.79728000  0.23318000  1.0
  Rb  Rb1  1  0.06399000  0.20272000  0.73318000  1.0
  Rb  Rb2  1  0.56399000  0.20272000  0.76682000  1.0
  Rb  Rb3  1  0.93601000  0.79729000  0.26682000  1.0
  H  H4  1  0.36725000  0.47143000  0.32543000  1.0
  H  H5  1  0.13275000  0.52857000  0.82543000  1.0
  H  H6  1  0.63275000  0.52857000  0.67457000  1.0
  H  H7  1  0.86726000  0.47143000  0.17457000  1.0
  H  H8  1  0.25053000  0.43188000  0.41640000  1.0
  H  H9  1  0.24947000  0.56812000  0.91640000  1.0
  H  H10  1  0.74947000  0.56812000  0.58360000  1.0
  H  H11  1  0.75054000  0.43188000  0.08360000  1.0
  H  H12  1  0.19693000  0.32281000  0.33800000  1.0
  H  H13  1  0.30307000  0.67719000  0.83800000  1.0
  H  H14  1  0.80307000  0.67718000  0.66200000  1.0
  H  H15  1  0.69694000  0.32282000  0.16201000  1.0
  H  H16  1  0.82284000  0.50861000  0.33983000  1.0
  H  H17  1  0.67716000  0.49139000  0.83983000  1.0
  H  H18  1  0.17716000  0.49139000  0.66017000  1.0
  H  H19  1  0.32285000  0.50861000  0.16017000  1.0
  H  H20  1  0.85997000  0.34830000  0.35398000  1.0
  H  H21  1  0.64003000  0.65170000  0.85398000  1.0
  H  H22  1  0.14003000  0.65169000  0.64602000  1.0
  H  H23  1  0.35998000  0.34830000  0.14602000  1.0
  H  H24  1  0.92779000  0.46579000  0.42692000  1.0
  H  H25  1  0.57220000  0.53420000  0.92692000  1.0
  H  H26  1  0.07220000  0.53420000  0.57308000  1.0
  H  H27  1  0.42780000  0.46579000  0.07308000  1.0
  C  C28  1  0.78623000  0.96589000  0.08522000  1.0
  C  C29  1  0.71377000  0.03411000  0.58522000  1.0
  C  C30  1  0.21377000  0.03412000  0.91478000  1.0
  C  C31  1  0.28623000  0.96588000  0.41478000  1.0
  C  C32  1  0.68745000  0.91127000  0.01521000  1.0
  C  C33  1  0.81253000  0.08873000  0.51521000  1.0
  C  C34  1  0.31253000  0.08875000  0.98479000  1.0
  C  C35  1  0.18746000  0.91126000  0.48479000  1.0
  C  C36  1  0.71057000  0.97514000  0.94458000  1.0
  C  C37  1  0.78943000  0.02485000  0.44458000  1.0
  C  C38  1  0.28944000  0.02486000  0.05542000  1.0
  C  C39  1  0.21056000  0.97514000  0.55542000  1.0
  C  C40  1  0.83393000  0.10329000  0.93442000  1.0
  C  C41  1  0.66606000  0.89671000  0.43442000  1.0
  C  C42  1  0.16606000  0.89672000  0.06558000  1.0
  C  C43  1  0.33394000  0.10328000  0.56559000  1.0
  C  C44  1  0.92359000  0.16138000  0.00530000  1.0
  C  C45  1  0.57641000  0.83863000  0.50530000  1.0
  C  C46  1  0.07641000  0.83863000  0.99470000  1.0
  C  C47  1  0.42359000  0.16137000  0.49470000  1.0
  C  C48  1  0.90174000  0.09644000  0.07608000  1.0
  C  C49  1  0.59826000  0.90356000  0.57609000  1.0
  C  C50  1  0.09825000  0.90357000  0.92391000  1.0
  C  C51  1  0.40175000  0.09643000  0.42392000  1.0
  C  C52  1  0.09667000  0.49482000  0.32566000  1.0
  C  C53  1  0.40333000  0.50518000  0.82565000  1.0
  C  C54  1  0.90332000  0.50518000  0.67434000  1.0
  C  C55  1  0.59668000  0.49482000  0.17435000  1.0
  C  C56  1  0.23790000  0.42772000  0.35241000  1.0
  C  C57  1  0.26210000  0.57228000  0.85240000  1.0
  C  C58  1  0.76210000  0.57228000  0.64760000  1.0
  C  C59  1  0.73791000  0.42772000  0.14760000  1.0
  C  C60  1  0.91552000  0.45369000  0.36318000  1.0
  C  C61  1  0.58447000  0.54631000  0.86318000  1.0
  C  C62  1  0.08447000  0.54631000  0.63682000  1.0
  C  C63  1  0.41553000  0.45369000  0.13682000  1.0
  Cl  Cl64  1  0.53266000  0.76517000  0.02727000  1.0
  Cl  Cl65  1  0.96734000  0.23484000  0.52727000  1.0
  Cl  Cl66  1  0.46735000  0.23485000  0.97273000  1.0
  Cl  Cl67  1  0.03265000  0.76516000  0.47273000  1.0
  Cl  Cl68  1  0.58826000  0.91226000  0.86363000  1.0
  Cl  Cl69  1  0.91173000  0.08773000  0.36363000  1.0
  Cl  Cl70  1  0.41173000  0.08774000  0.13637000  1.0
  Cl  Cl71  1  0.08826000  0.91226000  0.63637000  1.0
  Cl  Cl72  1  0.04502000  0.32044000  0.99702000  1.0
  Cl  Cl73  1  0.45499000  0.67956000  0.49703000  1.0
  Cl  Cl74  1  0.95498000  0.67957000  0.00297000  1.0
  Cl  Cl75  1  0.54502000  0.32043000  0.50297000  1.0
  Cl  Cl76  1  0.99716000  0.17033000  0.16045000  1.0
  Cl  Cl77  1  0.50284000  0.82968000  0.66046000  1.0
  Cl  Cl78  1  0.00284000  0.82969000  0.83954000  1.0
  Cl  Cl79  1  0.49716000  0.17032000  0.33955000  1.0
  O  O80  1  0.76384000  0.90706000  0.14998000  1.0
  O  O81  1  0.73616000  0.09295000  0.64998000  1.0
  O  O82  1  0.23616000  0.09296000  0.85002000  1.0
  O  O83  1  0.26384000  0.90704000  0.35002000  1.0
  O  O84  1  0.85214000  0.16224000  0.86967000  1.0
  O  O85  1  0.64786000  0.83776000  0.36967000  1.0
  O  O86  1  0.14786000  0.83776000  0.13033000  1.0
  O  O87  1  0.35214000  0.16224000  0.63033000  1.0
  O  O88  1  0.12761000  0.57986000  0.27418000  1.0
  O  O89  1  0.37239000  0.42014000  0.77417000  1.0
  O  O90  1  0.87239000  0.42014000  0.72583000  1.0
  O  O91  1  0.62762000  0.57987000  0.22582000  1.0
