# generated using pymatgen
data_VAgH3C7NO6
_symmetry_space_group_name_H-M   'P 1'
_cell_length_a   6.55640000
_cell_length_b   8.33696431
_cell_length_c   9.34612000
_cell_angle_alpha   89.99972820
_cell_angle_beta   89.99940000
_cell_angle_gamma   66.86926744
_symmetry_Int_Tables_number   1
_chemical_formula_structural   VAgH3C7NO6
_chemical_formula_sum   'V2 Ag2 H6 C14 N2 O12'
_cell_volume   469.79550487
_cell_formula_units_Z   2
loop_
 _symmetry_equiv_pos_site_id
 _symmetry_equiv_pos_as_xyz
  1  'x, y, z'
loop_
 _atom_site_type_symbol
 _atom_site_label
 _atom_site_symmetry_multiplicity
 _atom_site_fract_x
 _atom_site_fract_y
 _atom_site_fract_z
 _atom_site_occupancy
  V  V0  1  0.01834000  0.96344000  0.75010000  1.0
  V  V1  1  0.98166000  0.03656000  0.25010000  1.0
  Ag  Ag2  1  0.65824000  0.00056000  0.50008000  1.0
  Ag  Ag3  1  0.34177000  0.99943000  0.00009000  1.0
  H  H4  1  0.99955000  0.57448000  0.63534000  1.0
  H  H5  1  0.00045000  0.42553000  0.13534000  1.0
  H  H6  1  0.42530000  0.57392000  0.86445000  1.0
  H  H7  1  0.57470000  0.42608000  0.36445000  1.0
  H  H8  1  0.63060000  0.73739000  0.74975000  1.0
  H  H9  1  0.36939000  0.26261000  0.24975000  1.0
  C  C10  1  0.99377000  0.32368000  0.68930000  1.0
  C  C11  1  0.00623000  0.67633000  0.18930000  1.0
  C  C12  1  0.68228000  0.32341000  0.81069000  1.0
  C  C13  1  0.31772000  0.67659000  0.31069000  1.0
  C  C14  1  0.90815000  0.50502000  0.68555000  1.0
  C  C15  1  0.09185000  0.49498000  0.18554000  1.0
  C  C16  1  0.58607000  0.50472000  0.81420000  1.0
  C  C17  1  0.41393000  0.49528000  0.31420000  1.0
  C  C18  1  0.70177000  0.59529000  0.74982000  1.0
  C  C19  1  0.29822000  0.40471000  0.24982000  1.0
  C  C20  1  0.21182000  0.19764000  0.63500000  1.0
  C  C21  1  0.78817000  0.80237000  0.13500000  1.0
  C  C22  1  0.59067000  0.19715000  0.86521000  1.0
  C  C23  1  0.40933000  0.80285000  0.36521000  1.0
  N  N24  1  0.88056000  0.23868000  0.75005000  1.0
  N  N25  1  0.11944000  0.76132000  0.25005000  1.0
  O  O26  1  0.98994000  0.84069000  0.61964000  1.0
  O  O27  1  0.01007000  0.15931000  0.11964000  1.0
  O  O28  1  0.16961000  0.84012000  0.88022000  1.0
  O  O29  1  0.83039000  0.15988000  0.38023000  1.0
  O  O30  1  0.24603000  0.03491000  0.66133000  1.0
  O  O31  1  0.75396000  0.96510000  0.16133000  1.0
  O  O32  1  0.71940000  0.03449000  0.83899000  1.0
  O  O33  1  0.28060000  0.96551000  0.33899000  1.0
  O  O34  1  0.34754000  0.24475000  0.57396000  1.0
  O  O35  1  0.65246000  0.75525000  0.07397000  1.0
  O  O36  1  0.40792000  0.24408000  0.92630000  1.0
  O  O37  1  0.59207000  0.75592000  0.42631000  1.0
