# generated using pymatgen
data_AgH27C38N8O3
_symmetry_space_group_name_H-M   'P 1'
_cell_length_a   9.07998000
_cell_length_b   14.57690000
_cell_length_c   14.57690000
_cell_angle_alpha   117.37400000
_cell_angle_beta   91.24050000
_cell_angle_gamma   91.24040000
_symmetry_Int_Tables_number   1
_chemical_formula_structural   AgH27C38N8O3
_chemical_formula_sum   'Ag2 H54 C76 N16 O6'
_cell_volume   1711.83898089
_cell_formula_units_Z   2
loop_
 _symmetry_equiv_pos_site_id
 _symmetry_equiv_pos_as_xyz
  1  'x, y, z'
loop_
 _atom_site_type_symbol
 _atom_site_label
 _atom_site_symmetry_multiplicity
 _atom_site_fract_x
 _atom_site_fract_y
 _atom_site_fract_z
 _atom_site_occupancy
  Ag  Ag0  1  0.25000000  0.79066000  0.20934000  1.0
  Ag  Ag1  1  0.75000000  0.20934000  0.79066000  1.0
  H  H2  1  0.97046000  0.67622000  0.11616000  1.0
  H  H3  1  0.52954000  0.88384000  0.32378000  1.0
  H  H4  1  0.02954000  0.32378000  0.88384000  1.0
  H  H5  1  0.47046000  0.11616000  0.67622000  1.0
  H  H6  1  0.83168000  0.57789000  0.94641000  1.0
  H  H7  1  0.66832000  0.05359000  0.42211000  1.0
  H  H8  1  0.16833000  0.42211000  0.05359000  1.0
  H  H9  1  0.33167000  0.94641000  0.57789000  1.0
  H  H10  1  0.97250000  0.52176000  0.78412000  1.0
  H  H11  1  0.52750000  0.21588000  0.47823000  1.0
  H  H12  1  0.02751000  0.47824000  0.21588000  1.0
  H  H13  1  0.47250000  0.78412000  0.52177000  1.0
  H  H14  1  0.24015000  0.57005000  0.79739000  1.0
  H  H15  1  0.25985000  0.20261000  0.42995000  1.0
  H  H16  1  0.75986000  0.42996000  0.20262000  1.0
  H  H17  1  0.74015000  0.79738000  0.57005000  1.0
  H  H18  1  0.31851000  0.80118000  0.88894000  1.0
  H  H19  1  0.18149000  0.11106000  0.19882000  1.0
  H  H20  1  0.68149000  0.19883000  0.11106000  1.0
  H  H21  1  0.81851000  0.88894000  0.80118000  1.0
  H  H22  1  0.44491000  0.80813000  0.74050000  1.0
  H  H23  1  0.05509000  0.25950000  0.19186000  1.0
  H  H24  1  0.55509000  0.19187000  0.25950000  1.0
  H  H25  1  0.94491000  0.74050000  0.80813000  1.0
  H  H26  1  0.66004000  0.69410000  0.66444000  1.0
  H  H27  1  0.83996000  0.33556000  0.30590000  1.0
  H  H28  1  0.33995000  0.30589000  0.33556000  1.0
  H  H29  1  0.16005000  0.66444000  0.69411000  1.0
  H  H30  1  0.74001000  0.58039000  0.74171000  1.0
  H  H31  1  0.75999000  0.25829000  0.41961000  1.0
  H  H32  1  0.25999000  0.41961000  0.25829000  1.0
  H  H33  1  0.24002000  0.74171000  0.58039000  1.0
  H  H34  1  0.36934000  0.54962000  0.05450000  1.0
  H  H35  1  0.13066000  0.94550000  0.45038000  1.0
  H  H36  1  0.63066000  0.45038000  0.94550000  1.0
  H  H37  1  0.86934000  0.05450000  0.54962000  1.0
  H  H38  1  0.51527000  0.54840000  0.19667000  1.0
  H  H39  1  0.98473000  0.80332000  0.45160000  1.0
  H  H40  1  0.48473000  0.45160000  0.80332000  1.0
  H  H41  1  0.01527000  0.19667000  0.54840000  1.0
  H  H42  1  0.62277000  0.81237000  0.07341000  1.0
  H  H43  1  0.87722000  0.92659000  0.18763000  1.0
  H  H44  1  0.37722000  0.18764000  0.92660000  1.0
  H  H45  1  0.12277000  0.07341000  0.81237000  1.0
  H  H46  1  0.51353000  0.64411000  0.37197000  1.0
  H  H47  1  0.98647000  0.62803000  0.35588000  1.0
  H  H48  1  0.48648000  0.35588000  0.62802000  1.0
  H  H49  1  0.01353000  0.37198000  0.64411000  1.0
  H  H50  1  0.51246000  0.54395000  0.46782000  1.0
  H  H51  1  0.98755000  0.53218000  0.45605000  1.0
  H  H52  1  0.48755000  0.45605000  0.53218000  1.0
  H  H53  1  0.01246000  0.46783000  0.54395000  1.0
  H  H54  1  0.75000000  0.48617000  0.51383000  1.0
  H  H55  1  0.25000000  0.51384000  0.48617000  1.0
  C  C56  1  0.02435000  0.65367000  0.04331000  1.0
  C  C57  1  0.47565000  0.95669000  0.34633000  1.0
  C  C58  1  0.97565000  0.34633000  0.95669000  1.0
  C  C59  1  0.52435000  0.04331000  0.65367000  1.0
  C  C60  1  0.94822000  0.59860000  0.94938000  1.0
  C  C61  1  0.55178000  0.05062000  0.40140000  1.0
  C  C62  1  0.05178000  0.40140000  0.05063000  1.0
  C  C63  1  0.44822000  0.94938000  0.59860000  1.0
  C  C64  1  0.02665000  0.56959000  0.85914000  1.0
  C  C65  1  0.47335000  0.14086000  0.43041000  1.0
  C  C66  1  0.97336000  0.43041000  0.14086000  1.0
  C  C67  1  0.52665000  0.85914000  0.56959000  1.0
  C  C68  1  0.17545000  0.59640000  0.86636000  1.0
  C  C69  1  0.32455000  0.13363000  0.40360000  1.0
  C  C70  1  0.82455000  0.40360000  0.13364000  1.0
  C  C71  1  0.67545000  0.86636000  0.59640000  1.0
  C  C72  1  0.24457000  0.65439000  0.96461000  1.0
  C  C73  1  0.25543000  0.03539000  0.34561000  1.0
  C  C74  1  0.75543000  0.34562000  0.03539000  1.0
  C  C75  1  0.74457000  0.96461000  0.65439000  1.0
  C  C76  1  0.46580000  0.68737000  0.89151000  1.0
  C  C77  1  0.03420000  0.10849000  0.31262000  1.0
  C  C78  1  0.53420000  0.31263000  0.10850000  1.0
  C  C79  1  0.96580000  0.89151000  0.68737000  1.0
  C  C80  1  0.41275000  0.75392000  0.85399000  1.0
  C  C81  1  0.08724000  0.14601000  0.24608000  1.0
  C  C82  1  0.58724000  0.24609000  0.14602000  1.0
  C  C83  1  0.91276000  0.85399000  0.75392000  1.0
  C  C84  1  0.48307000  0.75720000  0.77157000  1.0
  C  C85  1  0.01693000  0.22843000  0.24280000  1.0
  C  C86  1  0.51693000  0.24280000  0.22843000  1.0
  C  C87  1  0.98307000  0.77157000  0.75720000  1.0
  C  C88  1  0.60311000  0.69480000  0.72969000  1.0
  C  C89  1  0.89689000  0.27031000  0.30520000  1.0
  C  C90  1  0.39688000  0.30520000  0.27031000  1.0
  C  C91  1  0.10312000  0.72969000  0.69480000  1.0
  C  C92  1  0.64861000  0.63217000  0.77340000  1.0
  C  C93  1  0.85139000  0.22660000  0.36783000  1.0
  C  C94  1  0.35138000  0.36783000  0.22660000  1.0
  C  C95  1  0.14862000  0.77340000  0.63218000  1.0
  C  C96  1  0.48492000  0.68234000  0.05701000  1.0
  C  C97  1  0.01508000  0.94298000  0.31766000  1.0
  C  C98  1  0.51508000  0.31766000  0.94299000  1.0
  C  C99  1  0.98492000  0.05701000  0.68234000  1.0
  C  C100  1  0.45745000  0.60780000  0.09161000  1.0
  C  C101  1  0.04255000  0.90839000  0.39219000  1.0
  C  C102  1  0.54255000  0.39220000  0.90839000  1.0
  C  C103  1  0.95745000  0.09161000  0.60781000  1.0
  C  C104  1  0.54040000  0.60697000  0.17216000  1.0
  C  C105  1  0.95960000  0.82784000  0.39303000  1.0
  C  C106  1  0.45959000  0.39303000  0.82784000  1.0
  C  C107  1  0.04040000  0.17216000  0.60697000  1.0
  C  C108  1  0.65331000  0.68220000  0.21830000  1.0
  C  C109  1  0.84668000  0.78170000  0.31780000  1.0
  C  C110  1  0.34668000  0.31781000  0.78170000  1.0
  C  C111  1  0.15331000  0.21830000  0.68219000  1.0
  C  C112  1  0.68767000  0.75525000  0.18169000  1.0
  C  C113  1  0.81233000  0.81831000  0.24475000  1.0
  C  C114  1  0.31233000  0.24475000  0.81831000  1.0
  C  C115  1  0.18767000  0.18169000  0.75525000  1.0
  C  C116  1  0.60120000  0.75558000  0.10107000  1.0
  C  C117  1  0.89880000  0.89893000  0.24442000  1.0
  C  C118  1  0.39880000  0.24442000  0.89893000  1.0
  C  C119  1  0.10120000  0.10107000  0.75558000  1.0
  C  C120  1  0.75000000  0.64259000  0.35741000  1.0
  C  C121  1  0.25001000  0.35741000  0.64259000  1.0
  C  C122  1  0.61688000  0.61737000  0.38835000  1.0
  C  C123  1  0.88311000  0.61164000  0.38263000  1.0
  C  C124  1  0.38311000  0.38263000  0.61164000  1.0
  C  C125  1  0.11688000  0.38835000  0.61737000  1.0
  C  C126  1  0.61773000  0.56120000  0.44394000  1.0
  C  C127  1  0.88227000  0.55607000  0.43880000  1.0
  C  C128  1  0.38227000  0.43880000  0.55607000  1.0
  C  C129  1  0.11773000  0.44394000  0.56120000  1.0
  C  C130  1  0.75001000  0.53002000  0.46998000  1.0
  C  C131  1  0.25000000  0.46999000  0.53002000  1.0
  N  N132  1  0.16812000  0.68325000  0.05165000  1.0
  N  N133  1  0.33187000  0.94835000  0.31675000  1.0
  N  N134  1  0.83188000  0.31675000  0.94835000  1.0
  N  N135  1  0.66812000  0.05165000  0.68326000  1.0
  N  N136  1  0.39536000  0.68069000  0.97451000  1.0
  N  N137  1  0.10464000  0.02548000  0.31930000  1.0
  N  N138  1  0.60464000  0.31931000  0.02549000  1.0
  N  N139  1  0.89536000  0.97451000  0.68069000  1.0
  N  N140  1  0.58220000  0.62814000  0.85288000  1.0
  N  N141  1  0.91779000  0.14711000  0.37186000  1.0
  N  N142  1  0.41779000  0.37186000  0.14712000  1.0
  N  N143  1  0.08221000  0.85289000  0.62814000  1.0
  N  N144  1  0.75000000  0.69931000  0.30068000  1.0
  N  N145  1  0.25000000  0.30068000  0.69931000  1.0
  N  N146  1  0.25000000  0.66750000  0.33250000  1.0
  N  N147  1  0.75000000  0.33250000  0.66750000  1.0
  O  O148  1  0.16388000  0.64009000  0.25362000  1.0
  O  O149  1  0.33612000  0.74638000  0.35991000  1.0
  O  O150  1  0.83611000  0.35991000  0.74637000  1.0
  O  O151  1  0.66388000  0.25362000  0.64009000  1.0
  O  O152  1  0.25000000  0.61657000  0.38343000  1.0
  O  O153  1  0.74999000  0.38343000  0.61656000  1.0
