# generated using pymatgen
data_CdH6C7(NCl)2
_symmetry_space_group_name_H-M   'P 1'
_cell_length_a   7.17018000
_cell_length_b   11.78970000
_cell_length_c   21.18030000
_cell_angle_alpha   90.00030000
_cell_angle_beta   90.00020000
_cell_angle_gamma   89.99980000
_symmetry_Int_Tables_number   1
_chemical_formula_structural   CdH6C7(NCl)2
_chemical_formula_sum   'Cd8 H48 C56 N16 Cl16'
_cell_volume   1790.46122311
_cell_formula_units_Z   8
loop_
 _symmetry_equiv_pos_site_id
 _symmetry_equiv_pos_as_xyz
  1  'x, y, z'
loop_
 _atom_site_type_symbol
 _atom_site_label
 _atom_site_symmetry_multiplicity
 _atom_site_fract_x
 _atom_site_fract_y
 _atom_site_fract_z
 _atom_site_occupancy
  Cd  Cd0  1  0.36620000  0.38217000  0.53968000  1.0
  Cd  Cd1  1  0.63380000  0.11783000  0.03967000  1.0
  Cd  Cd2  1  0.86620000  0.61783000  0.96032000  1.0
  Cd  Cd3  1  0.13380000  0.88217000  0.46033000  1.0
  Cd  Cd4  1  0.63380000  0.61782000  0.46033000  1.0
  Cd  Cd5  1  0.36620000  0.88217000  0.96032000  1.0
  Cd  Cd6  1  0.13380000  0.38217000  0.03967000  1.0
  Cd  Cd7  1  0.86619000  0.11783000  0.53967000  1.0
  H  H8  1  0.06238000  0.43444000  0.70383000  1.0
  H  H9  1  0.93762000  0.06555000  0.20383000  1.0
  H  H10  1  0.56239000  0.56556000  0.79617000  1.0
  H  H11  1  0.43761000  0.93445000  0.29617000  1.0
  H  H12  1  0.93762000  0.56555000  0.29618000  1.0
  H  H13  1  0.06239000  0.93445000  0.79617000  1.0
  H  H14  1  0.43762000  0.43445000  0.20382000  1.0
  H  H15  1  0.56238000  0.06555000  0.70383000  1.0
  H  H16  1  0.13141000  0.53246000  0.80488000  1.0
  H  H17  1  0.86859000  0.96754000  0.30488000  1.0
  H  H18  1  0.63142000  0.46754000  0.69512000  1.0
  H  H19  1  0.36858000  0.03246000  0.19512000  1.0
  H  H20  1  0.86859000  0.46754000  0.19512000  1.0
  H  H21  1  0.13141000  0.03247000  0.69512000  1.0
  H  H22  1  0.36860000  0.53246000  0.30488000  1.0
  H  H23  1  0.63142000  0.96753000  0.80488000  1.0
  H  H24  1  0.29653000  0.71535000  0.59966000  1.0
  H  H25  1  0.70347000  0.78465000  0.09966000  1.0
  H  H26  1  0.79653000  0.28465000  0.90034000  1.0
  H  H27  1  0.20347000  0.21535000  0.40034000  1.0
  H  H28  1  0.70347000  0.28465000  0.40034000  1.0
  H  H29  1  0.29653000  0.21535000  0.90034000  1.0
  H  H30  1  0.20347000  0.71535000  0.09966000  1.0
  H  H31  1  0.79653000  0.78465000  0.59966000  1.0
  H  H32  1  0.36231000  0.81473000  0.70008000  1.0
  H  H33  1  0.63768000  0.68526000  0.20008000  1.0
  H  H34  1  0.86231000  0.18526000  0.79992000  1.0
  H  H35  1  0.13769000  0.31474000  0.29992000  1.0
  H  H36  1  0.63769000  0.18526000  0.29991000  1.0
  H  H37  1  0.36231000  0.31474000  0.79992000  1.0
  H  H38  1  0.13769000  0.81474000  0.20009000  1.0
  H  H39  1  0.86232000  0.68526000  0.70008000  1.0
  H  H40  1  0.10910000  0.56984000  0.55209000  1.0
  H  H41  1  0.89090000  0.93015000  0.05209000  1.0
  H  H42  1  0.60910000  0.43016000  0.94791000  1.0
  H  H43  1  0.39090000  0.06984000  0.44791000  1.0
  H  H44  1  0.89090000  0.43015000  0.44791000  1.0
  H  H45  1  0.10910000  0.06984000  0.94791000  1.0
  H  H46  1  0.39090000  0.56985000  0.05209000  1.0
  H  H47  1  0.60910000  0.93016000  0.55209000  1.0
  H  H48  1  0.02656000  0.45734000  0.59065000  1.0
  H  H49  1  0.97344000  0.04265000  0.09065000  1.0
  H  H50  1  0.52656000  0.54265000  0.90935000  1.0
  H  H51  1  0.47344000  0.95735000  0.40935000  1.0
  H  H52  1  0.97344000  0.54265000  0.40935000  1.0
  H  H53  1  0.02656000  0.95735000  0.90935000  1.0
  H  H54  1  0.47344000  0.45735000  0.09065000  1.0
  H  H55  1  0.52656000  0.04265000  0.59065000  1.0
  C  C56  1  0.29318000  0.73707000  0.81578000  1.0
  C  C57  1  0.70682000  0.76293000  0.31578000  1.0
  C  C58  1  0.79317000  0.26293000  0.68421000  1.0
  C  C59  1  0.20682000  0.23707000  0.18422000  1.0
  C  C60  1  0.70682000  0.26293000  0.18422000  1.0
  C  C61  1  0.29318000  0.23707000  0.68422000  1.0
  C  C62  1  0.20683000  0.73708000  0.31578000  1.0
  C  C63  1  0.79318000  0.76293000  0.81578000  1.0
  C  C64  1  0.25162000  0.67982000  0.75885000  1.0
  C  C65  1  0.74838000  0.82018000  0.25886000  1.0
  C  C66  1  0.75162000  0.32018000  0.74114000  1.0
  C  C67  1  0.24837000  0.17983000  0.24114000  1.0
  C  C68  1  0.74838000  0.32018000  0.24114000  1.0
  C  C69  1  0.25162000  0.17983000  0.74114000  1.0
  C  C70  1  0.24838000  0.67982000  0.25886000  1.0
  C  C71  1  0.75163000  0.82018000  0.75885000  1.0
  C  C72  1  0.17366000  0.56853000  0.64517000  1.0
  C  C73  1  0.82633000  0.93147000  0.14517000  1.0
  C  C74  1  0.67367000  0.43147000  0.85483000  1.0
  C  C75  1  0.32633000  0.06853000  0.35483000  1.0
  C  C76  1  0.82633000  0.43147000  0.35483000  1.0
  C  C77  1  0.17367000  0.06853000  0.85483000  1.0
  C  C78  1  0.32633000  0.56853000  0.14517000  1.0
  C  C79  1  0.67366000  0.93147000  0.64517000  1.0
  C  C80  1  0.12916000  0.51729000  0.70331000  1.0
  C  C81  1  0.87084000  0.98270000  0.20331000  1.0
  C  C82  1  0.62916000  0.48270000  0.79669000  1.0
  C  C83  1  0.37083000  0.01730000  0.29669000  1.0
  C  C84  1  0.87084000  0.48270000  0.29669000  1.0
  C  C85  1  0.12916000  0.01729000  0.79669000  1.0
  C  C86  1  0.37084000  0.51730000  0.20331000  1.0
  C  C87  1  0.62916000  0.98270000  0.70331000  1.0
  C  C88  1  0.16712000  0.57179000  0.75984000  1.0
  C  C89  1  0.83287000  0.92821000  0.25984000  1.0
  C  C90  1  0.66713000  0.42821000  0.74016000  1.0
  C  C91  1  0.33287000  0.07179000  0.24016000  1.0
  C  C92  1  0.83288000  0.42822000  0.24016000  1.0
  C  C93  1  0.16713000  0.07179000  0.74016000  1.0
  C  C94  1  0.33289000  0.57179000  0.25984000  1.0
  C  C95  1  0.66713000  0.92821000  0.75984000  1.0
  C  C96  1  0.26008000  0.67573000  0.64454000  1.0
  C  C97  1  0.73991000  0.82427000  0.14454000  1.0
  C  C98  1  0.76008000  0.32427000  0.85546000  1.0
  C  C99  1  0.23992000  0.17574000  0.35546000  1.0
  C  C100  1  0.73992000  0.32427000  0.35546000  1.0
  C  C101  1  0.26008000  0.17573000  0.85546000  1.0
  C  C102  1  0.23992000  0.67574000  0.14454000  1.0
  C  C103  1  0.76008000  0.82427000  0.64454000  1.0
  C  C104  1  0.29786000  0.73110000  0.70067000  1.0
  C  C105  1  0.70213000  0.76890000  0.20068000  1.0
  C  C106  1  0.79786000  0.26889000  0.79932000  1.0
  C  C107  1  0.20214000  0.23111000  0.29933000  1.0
  C  C108  1  0.70214000  0.26890000  0.29932000  1.0
  C  C109  1  0.29786000  0.23111000  0.79933000  1.0
  C  C110  1  0.20214000  0.73111000  0.20068000  1.0
  C  C111  1  0.79787000  0.76889000  0.70067000  1.0
  N  N112  1  0.33149000  0.78635000  0.86176000  1.0
  N  N113  1  0.66852000  0.71365000  0.36177000  1.0
  N  N114  1  0.83149000  0.21365000  0.63823000  1.0
  N  N115  1  0.16851000  0.28635000  0.13823000  1.0
  N  N116  1  0.66851000  0.21365000  0.13823000  1.0
  N  N117  1  0.33149000  0.28636000  0.63823000  1.0
  N  N118  1  0.16852000  0.78635000  0.36177000  1.0
  N  N119  1  0.83150000  0.71365000  0.86177000  1.0
  N  N120  1  0.13533000  0.51334000  0.58815000  1.0
  N  N121  1  0.86467000  0.98666000  0.08816000  1.0
  N  N122  1  0.63533000  0.48666000  0.91184000  1.0
  N  N123  1  0.36467000  0.01334000  0.41185000  1.0
  N  N124  1  0.86467000  0.48665000  0.41185000  1.0
  N  N125  1  0.13533000  0.01334000  0.91185000  1.0
  N  N126  1  0.36467000  0.51335000  0.08815000  1.0
  N  N127  1  0.63533000  0.98666000  0.58815000  1.0
  Cl  Cl128  1  0.64492000  0.50753000  0.57108000  1.0
  Cl  Cl129  1  0.35507000  0.99247000  0.07108000  1.0
  Cl  Cl130  1  0.14492000  0.49247000  0.92893000  1.0
  Cl  Cl131  1  0.85507000  0.00753000  0.42893000  1.0
  Cl  Cl132  1  0.35507000  0.49247000  0.42893000  1.0
  Cl  Cl133  1  0.64493000  0.00753000  0.92893000  1.0
  Cl  Cl134  1  0.85508000  0.50753000  0.07107000  1.0
  Cl  Cl135  1  0.14493000  0.99247000  0.57107000  1.0
  Cl  Cl136  1  0.54510000  0.20716000  0.49994000  1.0
  Cl  Cl137  1  0.45490000  0.29285000  0.99994000  1.0
  Cl  Cl138  1  0.04510000  0.79284000  0.00006000  1.0
  Cl  Cl139  1  0.95489000  0.70716000  0.50006000  1.0
  Cl  Cl140  1  0.45489000  0.79284000  0.50006000  1.0
  Cl  Cl141  1  0.54510000  0.70716000  0.00006000  1.0
  Cl  Cl142  1  0.95489000  0.20716000  0.99994000  1.0
  Cl  Cl143  1  0.04510000  0.29284000  0.49994000  1.0
