# generated using pymatgen
data_ZnH20C20(NO4)2
_symmetry_space_group_name_H-M   'P 1'
_cell_length_a   5.61937000
_cell_length_b   7.95042000
_cell_length_c   11.02280000
_cell_angle_alpha   107.37900000
_cell_angle_beta   97.08790000
_cell_angle_gamma   98.26380000
_symmetry_Int_Tables_number   1
_chemical_formula_structural   ZnH20C20(NO4)2
_chemical_formula_sum   'Zn1 H20 C20 N2 O8'
_cell_volume   457.82878068
_cell_formula_units_Z   1
loop_
 _symmetry_equiv_pos_site_id
 _symmetry_equiv_pos_as_xyz
  1  'x, y, z'
loop_
 _atom_site_type_symbol
 _atom_site_label
 _atom_site_symmetry_multiplicity
 _atom_site_fract_x
 _atom_site_fract_y
 _atom_site_fract_z
 _atom_site_occupancy
  Zn  Zn0  1  0.50001000  0.49998000  0.99999000  1.0
  H  H1  1  0.95495000  0.62223000  0.93762000  1.0
  H  H2  1  0.04503000  0.37775000  0.06234000  1.0
  H  H3  1  0.74743000  0.74403000  0.94655000  1.0
  H  H4  1  0.25257000  0.25597000  0.05346000  1.0
  H  H5  1  0.17963000  0.99450000  0.33533000  1.0
  H  H6  1  0.82037000  0.00546000  0.66463000  1.0
  H  H7  1  0.18997000  0.77720000  0.12592000  1.0
  H  H8  1  0.81003000  0.22275000  0.87404000  1.0
  H  H9  1  0.82362000  0.63902000  0.26957000  1.0
  H  H10  1  0.17638000  0.36095000  0.73040000  1.0
  H  H11  1  0.83649000  0.84461000  0.48816000  1.0
  H  H12  1  0.16352000  0.15538000  0.51180000  1.0
  H  H13  1  0.75421000  0.05627000  0.23738000  1.0
  H  H14  1  0.24582000  0.94377000  0.76265000  1.0
  H  H15  1  0.90995000  0.05131000  0.10574000  1.0
  H  H16  1  0.09009000  0.94873000  0.89430000  1.0
  H  H17  1  0.37632000  0.52791000  0.40612000  1.0
  H  H18  1  0.62367000  0.47214000  0.59391000  1.0
  H  H19  1  0.63739000  0.26336000  0.37881000  1.0
  H  H20  1  0.36259000  0.73669000  0.62123000  1.0
  C  C21  1  0.32460000  0.91693000  0.32827000  1.0
  C  C22  1  0.67541000  0.08304000  0.67170000  1.0
  C  C23  1  0.33114000  0.79612000  0.20841000  1.0
  C  C24  1  0.66887000  0.20383000  0.79155000  1.0
  C  C25  1  0.68352000  0.72011000  0.28894000  1.0
  C  C26  1  0.31648000  0.27986000  0.71103000  1.0
  C  C27  1  0.68869000  0.83718000  0.41193000  1.0
  C  C28  1  0.31132000  0.16280000  0.58804000  1.0
  C  C29  1  0.50339000  0.93839000  0.43511000  1.0
  C  C30  1  0.49661000  0.06158000  0.56486000  1.0
  C  C31  1  0.64438000  0.22226000  0.12488000  1.0
  C  C32  1  0.35562000  0.77774000  0.87513000  1.0
  C  C33  1  0.83875000  0.13921000  0.18454000  1.0
  C  C34  1  0.16127000  0.86082000  0.81549000  1.0
  C  C35  1  0.01162000  0.38117000  0.37878000  1.0
  C  C36  1  0.98836000  0.61887000  0.62126000  1.0
  C  C37  1  0.21128000  0.51692000  0.44777000  1.0
  C  C38  1  0.78869000  0.48311000  0.55228000  1.0
  C  C39  1  0.79784000  0.36514000  0.43130000  1.0
  C  C40  1  0.20211000  0.63491000  0.56873000  1.0
  N  N41  1  0.50615000  0.69713000  0.18817000  1.0
  N  N42  1  0.49385000  0.30283000  0.81179000  1.0
  O  O43  1  0.04594000  0.26816000  0.26346000  1.0
  O  O44  1  0.95404000  0.73190000  0.73658000  1.0
  O  O45  1  0.82851000  0.66331000  0.98824000  1.0
  O  O46  1  0.17150000  0.33666000  0.01174000  1.0
  O  O47  1  0.72376000  0.36205000  0.09509000  1.0
  O  O48  1  0.27623000  0.63791000  0.90488000  1.0
  O  O49  1  0.42533000  0.14577000  0.10765000  1.0
  O  O50  1  0.57468000  0.85426000  0.89239000  1.0
