# generated using pymatgen
data_ZnPH16C10NCl2O3
_symmetry_space_group_name_H-M   'P 1'
_cell_length_a   7.74685000
_cell_length_b   7.82311000
_cell_length_c   27.94460000
_cell_angle_alpha   89.99990000
_cell_angle_beta   90.00000000
_cell_angle_gamma   117.35900000
_symmetry_Int_Tables_number   1
_chemical_formula_structural   ZnPH16C10NCl2O3
_chemical_formula_sum   'Zn4 P4 H64 C40 N4 Cl8 O12'
_cell_volume   1504.13250699
_cell_formula_units_Z   4
loop_
 _symmetry_equiv_pos_site_id
 _symmetry_equiv_pos_as_xyz
  1  'x, y, z'
loop_
 _atom_site_type_symbol
 _atom_site_label
 _atom_site_symmetry_multiplicity
 _atom_site_fract_x
 _atom_site_fract_y
 _atom_site_fract_z
 _atom_site_occupancy
  Zn  Zn0  1  0.61344000  0.95568000  0.30049000  1.0
  Zn  Zn1  1  0.38657000  0.04432000  0.80049000  1.0
  Zn  Zn2  1  0.76849000  0.54933000  0.55208000  1.0
  Zn  Zn3  1  0.23151000  0.45067000  0.05208000  1.0
  P  P4  1  0.60182000  0.19372000  0.20337000  1.0
  P  P5  1  0.39817000  0.80628000  0.70337000  1.0
  P  P6  1  0.00712000  0.58931000  0.45011000  1.0
  P  P7  1  0.99289000  0.41069000  0.95011000  1.0
  H  H8  1  0.85975000  0.36823000  0.09607000  1.0
  H  H9  1  0.14025000  0.63177000  0.59608000  1.0
  H  H10  1  0.57801000  0.77095000  0.13788000  1.0
  H  H11  1  0.42200000  0.22905000  0.63788000  1.0
  H  H12  1  0.86003000  0.74039000  0.10168000  1.0
  H  H13  1  0.13997000  0.25961000  0.60168000  1.0
  H  H14  1  0.13386000  0.03331000  0.06610000  1.0
  H  H15  1  0.86614000  0.96669000  0.56610000  1.0
  H  H16  1  0.40437000  0.96711000  0.14606000  1.0
  H  H17  1  0.59564000  0.03289000  0.64606000  1.0
  H  H18  1  0.50679000  0.20536000  0.12241000  1.0
  H  H19  1  0.49321000  0.79464000  0.62241000  1.0
  H  H20  1  0.96147000  0.47641000  0.25397000  1.0
  H  H21  1  0.03852000  0.52357000  0.75398000  1.0
  H  H22  1  0.76201000  0.53071000  0.26052000  1.0
  H  H23  1  0.23799000  0.46929000  0.76052000  1.0
  H  H24  1  0.09641000  0.72757000  0.18849000  1.0
  H  H25  1  0.90359000  0.27243000  0.68849000  1.0
  H  H26  1  0.07900000  0.82787000  0.24465000  1.0
  H  H27  1  0.92100000  0.17212000  0.74465000  1.0
  H  H28  1  0.90412000  0.78871000  0.19928000  1.0
  H  H29  1  0.09589000  0.21129000  0.69928000  1.0
  H  H30  1  0.41861000  0.47405000  0.23672000  1.0
  H  H31  1  0.58139000  0.52594000  0.73672000  1.0
  H  H32  1  0.44848000  0.42290000  0.17574000  1.0
  H  H33  1  0.55152000  0.57710000  0.67574000  1.0
  H  H34  1  0.10666000  0.14991000  0.17621000  1.0
  H  H35  1  0.89334000  0.85009000  0.67621000  1.0
  H  H36  1  0.11127000  0.37439000  0.18903000  1.0
  H  H37  1  0.88872000  0.62561000  0.68903000  1.0
  H  H38  1  0.07670000  0.20770000  0.23626000  1.0
  H  H39  1  0.92329000  0.79229000  0.73626000  1.0
  H  H40  1  0.89277000  0.30194000  0.34927000  1.0
  H  H41  1  0.10723000  0.69806000  0.84927000  1.0
  H  H42  1  0.59676000  0.63182000  0.38954000  1.0
  H  H43  1  0.40324000  0.36818000  0.88954000  1.0
  H  H44  1  0.28783000  0.35838000  0.35982000  1.0
  H  H45  1  0.71217000  0.64162000  0.85982000  1.0
  H  H46  1  0.29892000  0.06656000  0.32620000  1.0
  H  H47  1  0.70108000  0.93344000  0.82621000  1.0
  H  H48  1  0.95338000  0.78270000  0.39258000  1.0
  H  H49  1  0.04661000  0.21729000  0.89258000  1.0
  H  H50  1  0.08128000  0.66538000  0.36724000  1.0
  H  H51  1  0.91872000  0.33461000  0.86724000  1.0
  H  H52  1  0.95105000  0.26351000  0.50461000  1.0
  H  H53  1  0.04895000  0.73649000  0.00461000  1.0
  H  H54  1  0.20948000  0.38822000  0.49889000  1.0
  H  H55  1  0.79052000  0.61178000  0.99889000  1.0
  H  H56  1  0.93837000  0.03928000  0.43753000  1.0
  H  H57  1  0.06164000  0.96072000  0.93753000  1.0
  H  H58  1  0.08507000  0.03248000  0.48600000  1.0
  H  H59  1  0.91493000  0.96752000  0.98600000  1.0
  H  H60  1  0.19589000  0.16347000  0.43333000  1.0
  H  H61  1  0.80411000  0.83653000  0.93333000  1.0
  H  H62  1  0.37753000  0.82007000  0.41099000  1.0
  H  H63  1  0.62247000  0.17994000  0.91099000  1.0
  H  H64  1  0.43695000  0.71813000  0.46211000  1.0
  H  H65  1  0.56305000  0.28187000  0.96211000  1.0
  H  H66  1  0.47272000  0.12751000  0.45791000  1.0
  H  H67  1  0.52728000  0.87249000  0.95791000  1.0
  H  H68  1  0.66809000  0.06954000  0.45348000  1.0
  H  H69  1  0.33191000  0.93046000  0.95348000  1.0
  H  H70  1  0.53416000  0.02358000  0.50781000  1.0
  H  H71  1  0.46584000  0.97642000  0.00781000  1.0
  C  C72  1  0.85253000  0.22586000  0.09808000  1.0
  C  C73  1  0.14747000  0.77414000  0.59808000  1.0
  C  C74  1  0.69703000  0.07267000  0.12032000  1.0
  C  C75  1  0.30298000  0.92733000  0.62032000  1.0
  C  C76  1  0.69863000  0.89458000  0.12149000  1.0
  C  C77  1  0.30137000  0.10542000  0.62149000  1.0
  C  C78  1  0.85430000  0.87677000  0.10139000  1.0
  C  C79  1  0.14571000  0.12323000  0.60139000  1.0
  C  C80  1  0.00591000  0.03794000  0.08101000  1.0
  C  C81  1  0.99410000  0.96207000  0.58101000  1.0
  C  C82  1  0.53857000  0.10374000  0.14335000  1.0
  C  C83  1  0.46143000  0.89625000  0.64335000  1.0
  C  C84  1  0.87290000  0.53271000  0.23562000  1.0
  C  C85  1  0.12710000  0.46729000  0.73562000  1.0
  C  C86  1  0.99536000  0.73105000  0.21558000  1.0
  C  C87  1  0.00464000  0.26895000  0.71558000  1.0
  C  C88  1  0.37042000  0.36078000  0.20930000  1.0
  C  C89  1  0.62957000  0.63922000  0.70930000  1.0
  C  C90  1  0.15330000  0.26691000  0.20250000  1.0
  C  C91  1  0.84670000  0.73309000  0.70250000  1.0
  C  C92  1  0.76272000  0.32174000  0.35273000  1.0
  C  C93  1  0.23728000  0.67825000  0.85273000  1.0
  C  C94  1  0.77006000  0.48873000  0.37251000  1.0
  C  C95  1  0.22994000  0.51127000  0.87251000  1.0
  C  C96  1  0.59631000  0.50196000  0.37528000  1.0
  C  C97  1  0.40369000  0.49804000  0.87529000  1.0
  C  C98  1  0.42416000  0.35015000  0.35890000  1.0
  C  C99  1  0.57584000  0.64986000  0.85890000  1.0
  C  C100  1  0.42917000  0.18824000  0.33994000  1.0
  C  C101  1  0.57083000  0.81177000  0.83994000  1.0
  C  C102  1  0.95910000  0.64519000  0.39075000  1.0
  C  C103  1  0.04090000  0.35481000  0.89075000  1.0
  C  C104  1  0.07305000  0.29951000  0.47982000  1.0
  C  C105  1  0.92695000  0.70050000  0.97982000  1.0
  C  C106  1  0.07258000  0.12354000  0.45779000  1.0
  C  C107  1  0.92742000  0.87646000  0.95779000  1.0
  C  C108  1  0.38902000  0.82360000  0.45032000  1.0
  C  C109  1  0.61098000  0.17640000  0.95032000  1.0
  C  C110  1  0.52257000  0.02263000  0.46865000  1.0
  C  C111  1  0.47743000  0.97737000  0.96865000  1.0
  N  N112  1  0.00355000  0.20905000  0.07921000  1.0
  N  N113  1  0.99645000  0.79095000  0.57921000  1.0
  N  N114  1  0.59663000  0.17581000  0.33682000  1.0
  N  N115  1  0.40337000  0.82419000  0.83682000  1.0
  Cl  Cl116  1  0.89710000  0.96968000  0.32143000  1.0
  Cl  Cl117  1  0.10290000  0.03032000  0.82144000  1.0
  Cl  Cl118  1  0.32933000  0.69173000  0.30518000  1.0
  Cl  Cl119  1  0.67067000  0.30827000  0.80518000  1.0
  Cl  Cl120  1  0.50350000  0.59159000  0.55470000  1.0
  Cl  Cl121  1  0.49650000  0.40841000  0.05470000  1.0
  Cl  Cl122  1  0.78988000  0.30296000  0.58708000  1.0
  Cl  Cl123  1  0.21012000  0.69704000  0.08708000  1.0
  O  O124  1  0.64968000  0.06298000  0.23359000  1.0
  O  O125  1  0.35032000  0.93703000  0.73359000  1.0
  O  O126  1  0.77439000  0.40318000  0.19519000  1.0
  O  O127  1  0.22560000  0.59682000  0.69519000  1.0
  O  O128  1  0.42611000  0.21497000  0.22672000  1.0
  O  O129  1  0.57388000  0.78502000  0.72672000  1.0
  O  O130  1  0.83936000  0.54718000  0.48293000  1.0
  O  O131  1  0.16064000  0.45282000  0.98293000  1.0
  O  O132  1  0.05422000  0.41559000  0.44053000  1.0
  O  O133  1  0.94578000  0.58441000  0.94053000  1.0
  O  O134  1  0.19535000  0.76508000  0.47102000  1.0
  O  O135  1  0.80465000  0.23492000  0.97102000  1.0
