# generated using pymatgen
data_GdH8C10NO9
_symmetry_space_group_name_H-M   'P 1'
_cell_length_a   9.48286000
_cell_length_b   11.06400000
_cell_length_c   13.39440000
_cell_angle_alpha   65.87350000
_cell_angle_beta   69.27120000
_cell_angle_gamma   64.62710000
_symmetry_Int_Tables_number   1
_chemical_formula_structural   GdH8C10NO9
_chemical_formula_sum   'Gd4 H32 C40 N4 O36'
_cell_volume   1131.27253283
_cell_formula_units_Z   4
loop_
 _symmetry_equiv_pos_site_id
 _symmetry_equiv_pos_as_xyz
  1  'x, y, z'
loop_
 _atom_site_type_symbol
 _atom_site_label
 _atom_site_symmetry_multiplicity
 _atom_site_fract_x
 _atom_site_fract_y
 _atom_site_fract_z
 _atom_site_occupancy
  Gd  Gd0  1  0.69867000  0.92654000  0.81117000  1.0
  Gd  Gd1  1  0.43639000  0.57348000  0.68879000  1.0
  Gd  Gd2  1  0.30134000  0.07346000  0.18883000  1.0
  Gd  Gd3  1  0.56361000  0.42652000  0.31121000  1.0
  H  H4  1  0.79171000  0.45086000  0.04811000  1.0
  H  H5  1  0.29053000  0.04918000  0.45196000  1.0
  H  H6  1  0.20829000  0.54914000  0.95189000  1.0
  H  H7  1  0.70947000  0.95082000  0.54804000  1.0
  H  H8  1  0.66441000  0.49319000  0.96800000  1.0
  H  H9  1  0.12547000  0.00679000  0.53207000  1.0
  H  H10  1  0.33559000  0.50681000  0.03200000  1.0
  H  H11  1  0.87453000  0.99321000  0.46793000  1.0
  H  H12  1  0.82068000  0.55412000  0.91477000  1.0
  H  H13  1  0.28947000  0.94586000  0.58526000  1.0
  H  H14  1  0.17931000  0.44589000  0.08523000  1.0
  H  H15  1  0.71053000  0.05414000  0.41474000  1.0
  H  H16  1  0.69254000  0.30424000  0.91520000  1.0
  H  H17  1  0.91185000  0.19569000  0.58493000  1.0
  H  H18  1  0.30747000  0.69576000  0.08480000  1.0
  H  H19  1  0.08815000  0.80430000  0.41507000  1.0
  H  H20  1  0.16497000  0.00577000  0.85048000  1.0
  H  H21  1  0.02117000  0.49421000  0.64955000  1.0
  H  H22  1  0.83503000  0.99423000  0.14952000  1.0
  H  H23  1  0.97883000  0.50580000  0.35045000  1.0
  H  H24  1  0.09413000  0.34925000  0.95742000  1.0
  H  H25  1  0.40069000  0.15078000  0.54256000  1.0
  H  H26  1  0.90587000  0.65075000  0.04258000  1.0
  H  H27  1  0.59931000  0.84921000  0.45744000  1.0
  H  H28  1  0.62162000  0.18044000  0.59009000  1.0
  H  H29  1  0.39218000  0.31950000  0.90990000  1.0
  H  H30  1  0.37837000  0.81956000  0.40991000  1.0
  H  H31  1  0.60782000  0.68050000  0.09010000  1.0
  H  H32  1  0.68022000  0.22285000  0.65961000  1.0
  H  H33  1  0.56270000  0.27715000  0.84038000  1.0
  H  H34  1  0.31978000  0.77715000  0.34039000  1.0
  H  H35  1  0.43730000  0.72285000  0.15962000  1.0
  C  C36  1  0.51785000  0.82323000  0.70666000  1.0
  C  C37  1  0.04776000  0.67677000  0.79316000  1.0
  C  C38  1  0.48215000  0.17677000  0.29335000  1.0
  C  C39  1  0.95224000  0.32323000  0.20684000  1.0
  C  C40  1  0.92304000  0.14802000  0.87741000  1.0
  C  C41  1  0.94835000  0.35192000  0.62269000  1.0
  C  C42  1  0.07696000  0.85198000  0.12259000  1.0
  C  C43  1  0.05165000  0.64808000  0.37731000  1.0
  C  C44  1  0.85375000  0.06991000  0.85030000  1.0
  C  C45  1  0.77385000  0.43003000  0.64977000  1.0
  C  C46  1  0.14624000  0.93009000  0.14970000  1.0
  C  C47  1  0.22615000  0.56997000  0.35023000  1.0
  C  C48  1  0.08688000  0.10081000  0.87353000  1.0
  C  C49  1  0.06113000  0.39915000  0.62651000  1.0
  C  C50  1  0.91312000  0.89919000  0.12647000  1.0
  C  C51  1  0.93888000  0.60085000  0.37349000  1.0
  C  C52  1  0.14785000  0.17229000  0.90407000  1.0
  C  C53  1  0.22411000  0.32775000  0.59593000  1.0
  C  C54  1  0.85215000  0.82772000  0.09593000  1.0
  C  C55  1  0.77588000  0.67225000  0.40407000  1.0
  C  C56  1  0.88533000  0.34181000  0.93354000  1.0
  C  C57  1  0.16056000  0.15816000  0.56654000  1.0
  C  C58  1  0.11467000  0.65819000  0.06646000  1.0
  C  C59  1  0.83944000  0.84184000  0.43345000  1.0
  C  C60  1  0.82071000  0.26858000  0.90923000  1.0
  C  C61  1  0.99842000  0.23134000  0.59088000  1.0
  C  C62  1  0.17929000  0.73142000  0.09077000  1.0
  C  C63  1  0.00158000  0.76866000  0.40912000  1.0
  C  C64  1  0.04667000  0.29478000  0.93246000  1.0
  C  C65  1  0.27382000  0.20525000  0.56753000  1.0
  C  C66  1  0.95333000  0.70522000  0.06754000  1.0
  C  C67  1  0.72618000  0.79475000  0.43247000  1.0
  C  C68  1  0.51658000  0.72182000  0.82721000  1.0
  C  C69  1  0.06581000  0.77831000  0.67270000  1.0
  C  C70  1  0.48342000  0.27818000  0.17279000  1.0
  C  C71  1  0.93418000  0.22169000  0.32730000  1.0
  C  C72  1  0.31779000  0.11654000  0.91579000  1.0
  C  C73  1  0.35002000  0.38353000  0.58420000  1.0
  C  C74  1  0.68221000  0.88346000  0.08421000  1.0
  C  C75  1  0.64998000  0.61647000  0.41580000  1.0
  N  N76  1  0.78293000  0.46778000  0.96656000  1.0
  N  N77  1  0.21714000  0.03221000  0.53351000  1.0
  N  N78  1  0.21708000  0.53222000  0.03344000  1.0
  N  N79  1  0.78286000  0.96779000  0.46649000  1.0
  O  O80  1  0.70254000  0.11843000  0.85415000  1.0
  O  O81  1  0.67503000  0.38150000  0.64591000  1.0
  O  O82  1  0.29746000  0.88157000  0.14585000  1.0
  O  O83  1  0.32496000  0.61850000  0.35409000  1.0
  O  O84  1  0.93966000  0.95680000  0.82570000  1.0
  O  O85  1  0.72203000  0.54313000  0.67440000  1.0
  O  O86  1  0.06034000  0.04320000  0.17430000  1.0
  O  O87  1  0.27796000  0.45687000  0.32560000  1.0
  O  O88  1  0.59411000  0.90789000  0.67450000  1.0
  O  O89  1  0.17642000  0.59201000  0.82539000  1.0
  O  O90  1  0.40589000  0.09211000  0.32549000  1.0
  O  O91  1  0.82358000  0.40799000  0.17462000  1.0
  O  O92  1  0.57516000  0.74357000  0.88730000  1.0
  O  O93  1  0.20629000  0.75653000  0.61269000  1.0
  O  O94  1  0.42485000  0.25643000  0.11270000  1.0
  O  O95  1  0.79371000  0.24347000  0.38731000  1.0
  O  O96  1  0.46114000  0.62438000  0.85448000  1.0
  O  O97  1  0.94031000  0.87588000  0.64541000  1.0
  O  O98  1  0.53886000  0.37562000  0.14553000  1.0
  O  O99  1  0.05969000  0.12411000  0.35459000  1.0
  O  O100  1  0.34229000  0.14548000  0.99043000  1.0
  O  O101  1  0.47813000  0.35454000  0.50960000  1.0
  O  O102  1  0.65771000  0.85451000  0.00957000  1.0
  O  O103  1  0.52187000  0.64546000  0.49040000  1.0
  O  O104  1  0.42325000  0.04694000  0.85227000  1.0
  O  O105  1  0.32231000  0.45323000  0.64765000  1.0
  O  O106  1  0.57675000  0.95306000  0.14773000  1.0
  O  O107  1  0.67768000  0.54677000  0.35236000  1.0
  O  O108  1  0.44465000  0.81313000  0.64907000  1.0
  O  O109  1  0.90682000  0.68692000  0.85067000  1.0
  O  O110  1  0.55534000  0.18687000  0.35093000  1.0
  O  O111  1  0.09318000  0.31308000  0.14933000  1.0
  O  O112  1  0.67589000  0.13795000  0.65259000  1.0
  O  O113  1  0.46643000  0.36202000  0.84740000  1.0
  O  O114  1  0.32411000  0.86205000  0.34741000  1.0
  O  O115  1  0.53357000  0.63798000  0.15260000  1.0
