# generated using pymatgen
data_Zn2H16C27N6O7
_symmetry_space_group_name_H-M   'P 1'
_cell_length_a   8.86974000
_cell_length_b   9.48313000
_cell_length_c   17.07250000
_cell_angle_alpha   83.89960000
_cell_angle_beta   88.68730000
_cell_angle_gamma   72.89870000
_symmetry_Int_Tables_number   1
_chemical_formula_structural   Zn2H16C27N6O7
_chemical_formula_sum   'Zn4 H32 C54 N12 O14'
_cell_volume   1364.70095614
_cell_formula_units_Z   2
loop_
 _symmetry_equiv_pos_site_id
 _symmetry_equiv_pos_as_xyz
  1  'x, y, z'
loop_
 _atom_site_type_symbol
 _atom_site_label
 _atom_site_symmetry_multiplicity
 _atom_site_fract_x
 _atom_site_fract_y
 _atom_site_fract_z
 _atom_site_occupancy
  Zn  Zn0  1  0.60507000  0.59009000  0.96182000  1.0
  Zn  Zn1  1  0.39492000  0.40991000  0.03817000  1.0
  Zn  Zn2  1  0.30123000  0.56945000  0.84883000  1.0
  Zn  Zn3  1  0.69877000  0.43055000  0.15118000  1.0
  H  H4  1  0.54972000  0.36614000  0.91073000  1.0
  H  H5  1  0.45031000  0.63385000  0.08928000  1.0
  H  H6  1  0.01297000  0.96390000  0.26311000  1.0
  H  H7  1  0.98706000  0.03607000  0.73690000  1.0
  H  H8  1  0.66977000  0.71257000  0.49249000  1.0
  H  H9  1  0.33024000  0.28743000  0.50752000  1.0
  H  H10  1  0.03180000  0.41885000  0.89718000  1.0
  H  H11  1  0.96820000  0.58115000  0.10282000  1.0
  H  H12  1  0.46882000  0.99815000  0.70209000  1.0
  H  H13  1  0.53122000  0.00183000  0.29792000  1.0
  H  H14  1  0.78562000  0.23108000  0.52253000  1.0
  H  H15  1  0.21438000  0.76893000  0.47747000  1.0
  H  H16  1  0.03749000  0.44249000  0.28766000  1.0
  H  H17  1  0.96251000  0.55750000  0.71233000  1.0
  H  H18  1  0.21508000  0.00858000  0.20444000  1.0
  H  H19  1  0.78493000  0.99140000  0.79556000  1.0
  H  H20  1  0.19961000  0.53282000  0.18230000  1.0
  H  H21  1  0.80039000  0.46718000  0.81769000  1.0
  H  H22  1  0.33566000  0.87604000  0.80664000  1.0
  H  H23  1  0.66435000  0.12395000  0.19337000  1.0
  H  H24  1  0.07962000  0.04409000  0.07035000  1.0
  H  H25  1  0.92039000  0.95592000  0.92966000  1.0
  H  H26  1  0.36305000  0.11736000  0.10415000  1.0
  H  H27  1  0.63695000  0.88262000  0.89585000  1.0
  H  H28  1  0.84447000  0.79324000  0.36038000  1.0
  H  H29  1  0.15553000  0.20675000  0.63963000  1.0
  H  H30  1  0.43618000  0.48971000  0.69753000  1.0
  H  H31  1  0.56382000  0.51030000  0.30247000  1.0
  H  H32  1  0.40423000  0.01753000  0.87743000  1.0
  H  H33  1  0.59576000  0.98248000  0.12256000  1.0
  H  H34  1  0.58226000  0.59009000  0.59006000  1.0
  H  H35  1  0.41774000  0.40991000  0.40995000  1.0
  C  C36  1  0.73963000  0.01959000  0.51388000  1.0
  C  C37  1  0.26037000  0.98041000  0.48612000  1.0
  C  C38  1  0.62500000  0.87073000  0.57767000  1.0
  C  C39  1  0.37501000  0.12927000  0.42234000  1.0
  C  C40  1  0.54027000  0.80382000  0.63725000  1.0
  C  C41  1  0.45973000  0.19617000  0.36276000  1.0
  C  C42  1  0.10937000  0.21842000  0.25457000  1.0
  C  C43  1  0.89062000  0.78157000  0.74542000  1.0
  C  C44  1  0.01517000  0.16120000  0.31337000  1.0
  C  C45  1  0.98483000  0.83880000  0.68663000  1.0
  C  C46  1  0.88058000  0.12661000  0.41701000  1.0
  C  C47  1  0.11942000  0.87338000  0.58299000  1.0
  C  C48  1  0.90006000  0.33322000  0.02749000  1.0
  C  C49  1  0.09995000  0.66679000  0.97251000  1.0
  C  C50  1  0.22245000  0.22430000  0.87807000  1.0
  C  C51  1  0.77753000  0.77572000  0.12193000  1.0
  C  C52  1  0.89907000  0.00040000  0.37351000  1.0
  C  C53  1  0.10094000  0.99959000  0.62649000  1.0
  C  C54  1  0.34963000  0.86031000  0.00993000  1.0
  C  C55  1  0.65038000  0.13969000  0.99007000  1.0
  C  C56  1  0.09303000  0.30472000  0.91870000  1.0
  C  C57  1  0.90696000  0.69529000  0.08130000  1.0
  C  C58  1  0.46704000  0.88466000  0.69904000  1.0
  C  C59  1  0.53297000  0.11533000  0.30096000  1.0
  C  C60  1  0.79952000  0.13749000  0.48832000  1.0
  C  C61  1  0.20049000  0.86251000  0.51168000  1.0
  C  C62  1  0.76058000  0.89617000  0.46815000  1.0
  C  C63  1  0.23942000  0.10383000  0.53186000  1.0
  C  C64  1  0.11000000  0.36729000  0.24840000  1.0
  C  C65  1  0.89000000  0.63270000  0.75160000  1.0
  C  C66  1  0.20361000  0.12650000  0.20211000  1.0
  C  C67  1  0.79639000  0.87349000  0.79788000  1.0
  C  C68  1  0.19874000  0.41737000  0.18985000  1.0
  C  C69  1  0.80125000  0.58262000  0.81014000  1.0
  C  C70  1  0.03960000  0.24005000  0.98727000  1.0
  C  C71  1  0.96040000  0.75997000  0.01273000  1.0
  C  C72  1  0.39108000  0.81789000  0.75694000  1.0
  C  C73  1  0.60893000  0.18210000  0.24307000  1.0
  C  C74  1  0.12019000  0.09450000  0.01695000  1.0
  C  C75  1  0.87982000  0.90552000  0.98305000  1.0
  C  C76  1  0.28893000  0.18562000  0.14564000  1.0
  C  C77  1  0.71106000  0.81437000  0.85436000  1.0
  C  C78  1  0.83866000  0.88270000  0.39651000  1.0
  C  C79  1  0.16134000  0.11729000  0.60349000  1.0
  C  C80  1  0.25395000  0.01424000  0.97817000  1.0
  C  C81  1  0.74606000  0.98576000  0.02183000  1.0
  C  C82  1  0.44919000  0.60084000  0.69597000  1.0
  C  C83  1  0.55081000  0.39916000  0.30404000  1.0
  C  C84  1  0.30202000  0.07950000  0.90846000  1.0
  C  C85  1  0.69797000  0.92052000  0.09153000  1.0
  C  C86  1  0.27144000  0.28815000  0.80033000  1.0
  C  C87  1  0.72853000  0.71186000  0.19966000  1.0
  C  C88  1  0.52831000  0.65934000  0.63616000  1.0
  C  C89  1  0.47169000  0.34066000  0.36384000  1.0
  N  N90  1  0.38297000  0.67826000  0.75625000  1.0
  N  N91  1  0.61702000  0.32174000  0.24376000  1.0
  N  N92  1  0.95341000  0.22366000  0.37723000  1.0
  N  N93  1  0.04660000  0.77634000  0.62277000  1.0
  N  N94  1  0.28637000  0.32894000  0.13828000  1.0
  N  N95  1  0.71363000  0.67104000  0.86171000  1.0
  N  N96  1  0.98474000  0.02721000  0.30848000  1.0
  N  N97  1  0.01527000  0.97277000  0.69152000  1.0
  N  N98  1  0.68726000  0.80450000  0.51100000  1.0
  N  N99  1  0.31274000  0.19551000  0.48901000  1.0
  N  N100  1  0.65506000  0.99923000  0.58105000  1.0
  N  N101  1  0.34493000  0.00077000  0.41896000  1.0
  O  O102  1  0.82719000  0.45786000  0.99121000  1.0
  O  O103  1  0.17281000  0.54214000  0.00879000  1.0
  O  O104  1  0.24067000  0.43169000  0.78829000  1.0
  O  O105  1  0.75930000  0.56833000  0.21172000  1.0
  O  O106  1  0.86513000  0.28540000  0.09675000  1.0
  O  O107  1  0.13487000  0.71460000  0.90324000  1.0
  O  O108  1  0.45423000  0.79457000  0.96167000  1.0
  O  O109  1  0.54575000  0.20542000  0.03832000  1.0
  O  O110  1  0.32552000  0.80739000  0.07843000  1.0
  O  O111  1  0.67451000  0.19263000  0.92158000  1.0
  O  O112  1  0.33084000  0.20259000  0.74999000  1.0
  O  O113  1  0.66905000  0.79744000  0.24999000  1.0
  O  O114  1  0.47802000  0.46610000  0.92212000  1.0
  O  O115  1  0.52199000  0.53389000  0.07788000  1.0
