# generated using pymatgen
data_Cu2H10C11S(IN)2
_symmetry_space_group_name_H-M   'P 1'
_cell_length_a   7.74641000
_cell_length_b   8.15078000
_cell_length_c   11.94290000
_cell_angle_alpha   92.93200000
_cell_angle_beta   93.51770000
_cell_angle_gamma   110.03900000
_symmetry_Int_Tables_number   1
_chemical_formula_structural   Cu2H10C11S(IN)2
_chemical_formula_sum   'Cu4 H20 C22 S2 I4 N4'
_cell_volume   704.98226090
_cell_formula_units_Z   2
loop_
 _symmetry_equiv_pos_site_id
 _symmetry_equiv_pos_as_xyz
  1  'x, y, z'
loop_
 _atom_site_type_symbol
 _atom_site_label
 _atom_site_symmetry_multiplicity
 _atom_site_fract_x
 _atom_site_fract_y
 _atom_site_fract_z
 _atom_site_occupancy
  Cu  Cu0  1  0.56996000  0.59475000  0.92045000  1.0
  Cu  Cu1  1  0.43003000  0.40526000  0.07954000  1.0
  Cu  Cu2  1  0.60729000  0.55532000  0.58923000  1.0
  Cu  Cu3  1  0.39271000  0.44468000  0.41076000  1.0
  H  H4  1  0.98011000  0.71142000  0.97781000  1.0
  H  H5  1  0.01989000  0.28859000  0.02220000  1.0
  H  H6  1  0.26022000  0.94612000  0.92431000  1.0
  H  H7  1  0.73978000  0.05388000  0.07570000  1.0
  H  H8  1  0.22282000  0.15085000  0.78237000  1.0
  H  H9  1  0.77718000  0.84916000  0.21763000  1.0
  H  H10  1  0.90182000  0.11292000  0.70185000  1.0
  H  H11  1  0.09818000  0.88708000  0.29815000  1.0
  H  H12  1  0.57877000  0.93343000  0.67890000  1.0
  H  H13  1  0.42123000  0.06657000  0.32110000  1.0
  H  H14  1  0.50672000  0.92156000  0.81976000  1.0
  H  H15  1  0.49328000  0.07844000  0.18024000  1.0
  H  H16  1  0.97476000  0.79411000  0.53314000  1.0
  H  H17  1  0.02524000  0.20589000  0.46686000  1.0
  H  H18  1  0.30356000  0.83295000  0.58138000  1.0
  H  H19  1  0.69644000  0.16704000  0.41862000  1.0
  H  H20  1  0.11741000  0.40705000  0.79786000  1.0
  H  H21  1  0.88259000  0.59295000  0.20214000  1.0
  H  H22  1  0.79431000  0.37702000  0.73281000  1.0
  H  H23  1  0.20570000  0.62298000  0.26719000  1.0
  C  C24  1  0.96866000  0.80657000  0.91942000  1.0
  C  C25  1  0.03133000  0.19343000  0.08058000  1.0
  C  C26  1  0.12418000  0.93604000  0.88798000  1.0
  C  C27  1  0.87582000  0.06396000  0.11202000  1.0
  C  C28  1  0.10247000  0.05058000  0.81013000  1.0
  C  C29  1  0.89753000  0.94943000  0.18987000  1.0
  C  C30  1  0.92499000  0.03059000  0.76598000  1.0
  C  C31  1  0.07501000  0.96942000  0.23402000  1.0
  C  C32  1  0.77479000  0.90028000  0.80319000  1.0
  C  C33  1  0.22522000  0.09972000  0.19680000  1.0
  C  C34  1  0.58088000  0.87204000  0.75837000  1.0
  C  C35  1  0.41913000  0.12797000  0.24163000  1.0
  C  C36  1  0.01252000  0.70891000  0.59005000  1.0
  C  C37  1  0.98748000  0.29109000  0.40995000  1.0
  C  C38  1  0.19604000  0.73137000  0.61843000  1.0
  C  C39  1  0.80396000  0.26862000  0.38157000  1.0
  C  C40  1  0.23696000  0.62106000  0.69370000  1.0
  C  C41  1  0.76304000  0.37894000  0.30630000  1.0
  C  C42  1  0.09125000  0.49134000  0.73615000  1.0
  C  C43  1  0.90875000  0.50866000  0.26385000  1.0
  C  C44  1  0.91161000  0.47561000  0.70106000  1.0
  C  C45  1  0.08839000  0.52438000  0.29894000  1.0
  S  S46  1  0.46445000  0.63489000  0.73528000  1.0
  S  S47  1  0.53555000  0.36511000  0.26472000  1.0
  I  I48  1  0.37166000  0.69599000  0.05757000  1.0
  I  I49  1  0.62833000  0.30401000  0.94243000  1.0
  I  I50  1  0.60157000  0.78062000  0.43809000  1.0
  I  I51  1  0.39843000  0.21938000  0.56191000  1.0
  N  N52  1  0.79666000  0.78958000  0.87923000  1.0
  N  N53  1  0.20334000  0.21042000  0.12077000  1.0
  N  N54  1  0.87068000  0.58308000  0.62977000  1.0
  N  N55  1  0.12933000  0.41692000  0.37024000  1.0
