# generated using pymatgen
data_Dy2Zn3H36(C2O3)12
_symmetry_space_group_name_H-M   'P 1'
_cell_length_a   14.55737996
_cell_length_b   14.55760000
_cell_length_c   16.04340000
_cell_angle_alpha   90.00010000
_cell_angle_beta   89.99990000
_cell_angle_gamma   119.99950000
_symmetry_Int_Tables_number   1
_chemical_formula_structural   Dy2Zn3H36(C2O3)12
_chemical_formula_sum   'Dy4 Zn6 H72 C48 O72'
_cell_volume   2944.43676049
_cell_formula_units_Z   2
loop_
 _symmetry_equiv_pos_site_id
 _symmetry_equiv_pos_as_xyz
  1  'x, y, z'
loop_
 _atom_site_type_symbol
 _atom_site_label
 _atom_site_symmetry_multiplicity
 _atom_site_fract_x
 _atom_site_fract_y
 _atom_site_fract_z
 _atom_site_occupancy
  Dy  Dy0  1  0.66666667  0.33333333  0.75000000  1.0
  Dy  Dy1  1  0.33333333  0.66666667  0.75000000  1.0
  Dy  Dy2  1  0.33333333  0.66666667  0.25000000  1.0
  Dy  Dy3  1  0.66666667  0.33333333  0.25000000  1.0
  Zn  Zn4  1  0.50000000  1.00000000  0.50000000  1.0
  Zn  Zn5  1  0.50000000  0.50000000  0.50000000  1.0
  Zn  Zn6  1  0.00000000  0.50000000  0.50000000  1.0
  Zn  Zn7  1  0.50000000  1.00000000  1.00000000  1.0
  Zn  Zn8  1  0.00000000  0.50000000  0.00000000  1.0
  Zn  Zn9  1  0.50000000  0.50000000  1.00000000  1.0
  H  H10  1  0.35808000  0.81666000  0.44999000  1.0
  H  H11  1  0.45858000  0.64192000  0.44999000  1.0
  H  H12  1  0.18334000  0.54142000  0.44999000  1.0
  H  H13  1  0.64192000  0.18334000  0.44999000  1.0
  H  H14  1  0.54142000  0.35808000  0.44999000  1.0
  H  H15  1  0.81666000  0.45858000  0.44999000  1.0
  H  H16  1  0.54142000  0.18334000  0.05001000  1.0
  H  H17  1  0.81666000  0.35808000  0.05001000  1.0
  H  H18  1  0.64192000  0.45858000  0.05001000  1.0
  H  H19  1  0.45858000  0.81666000  0.05001000  1.0
  H  H20  1  0.18334000  0.64192000  0.05001000  1.0
  H  H21  1  0.35808000  0.54142000  0.05001000  1.0
  H  H22  1  0.64192000  0.18335000  0.55001000  1.0
  H  H23  1  0.54143000  0.35809000  0.55001000  1.0
  H  H24  1  0.81666000  0.45858000  0.55001000  1.0
  H  H25  1  0.35808000  0.81666000  0.55001000  1.0
  H  H26  1  0.45858000  0.64192000  0.55001000  1.0
  H  H27  1  0.18334000  0.54142000  0.55001000  1.0
  H  H28  1  0.45858000  0.81666000  0.94999000  1.0
  H  H29  1  0.18334000  0.64191000  0.94999000  1.0
  H  H30  1  0.35808000  0.54142000  0.94999000  1.0
  H  H31  1  0.54142000  0.18334000  0.94999000  1.0
  H  H32  1  0.81666000  0.35809000  0.94999000  1.0
  H  H33  1  0.64192000  0.45858000  0.94999000  1.0
  H  H34  1  0.35967000  0.17055000  0.65484000  1.0
  H  H35  1  0.81088000  0.64033000  0.65484000  1.0
  H  H36  1  0.82945000  0.18912000  0.65485000  1.0
  H  H37  1  0.64033000  0.82945000  0.65485000  1.0
  H  H38  1  0.18912000  0.35967000  0.65484000  1.0
  H  H39  1  0.17055000  0.81088000  0.65485000  1.0
  H  H40  1  0.18912000  0.82945000  0.84515000  1.0
  H  H41  1  0.17055000  0.35967000  0.84516000  1.0
  H  H42  1  0.64033000  0.81088000  0.84516000  1.0
  H  H43  1  0.81088000  0.17055000  0.84515000  1.0
  H  H44  1  0.82945000  0.64033000  0.84516000  1.0
  H  H45  1  0.35967000  0.18912000  0.84515000  1.0
  H  H46  1  0.64033000  0.82945000  0.34515000  1.0
  H  H47  1  0.18912000  0.35967000  0.34516000  1.0
  H  H48  1  0.17055000  0.81088000  0.34516000  1.0
  H  H49  1  0.35967000  0.17055000  0.34516000  1.0
  H  H50  1  0.81088000  0.64033000  0.34516000  1.0
  H  H51  1  0.82945000  0.18912000  0.34516000  1.0
  H  H52  1  0.81088000  0.17055000  0.15484000  1.0
  H  H53  1  0.82945000  0.64033000  0.15484000  1.0
  H  H54  1  0.35967000  0.18912000  0.15484000  1.0
  H  H55  1  0.18912000  0.82945000  0.15485000  1.0
  H  H56  1  0.17055000  0.35967000  0.15485000  1.0
  H  H57  1  0.64033000  0.81088000  0.15484000  1.0
  H  H58  1  0.35737000  0.07833000  0.73010000  1.0
  H  H59  1  0.72096000  0.64264000  0.73010000  1.0
  H  H60  1  0.92167000  0.27904000  0.73010000  1.0
  H  H61  1  0.64263000  0.92167000  0.73010000  1.0
  H  H62  1  0.27904000  0.35736000  0.73010000  1.0
  H  H63  1  0.07833000  0.72096000  0.73010000  1.0
  H  H64  1  0.27904000  0.92167000  0.76990000  1.0
  H  H65  1  0.07833000  0.35737000  0.76990000  1.0
  H  H66  1  0.64263000  0.72096000  0.76990000  1.0
  H  H67  1  0.72096000  0.07833000  0.76990000  1.0
  H  H68  1  0.92167000  0.64263000  0.76990000  1.0
  H  H69  1  0.35737000  0.27904000  0.76990000  1.0
  H  H70  1  0.64263000  0.92167000  0.26990000  1.0
  H  H71  1  0.27904000  0.35736000  0.26990000  1.0
  H  H72  1  0.07833000  0.72096000  0.26990000  1.0
  H  H73  1  0.35737000  0.07833000  0.26990000  1.0
  H  H74  1  0.72096000  0.64263000  0.26990000  1.0
  H  H75  1  0.92167000  0.27904000  0.26990000  1.0
  H  H76  1  0.72096000  0.07833000  0.23010000  1.0
  H  H77  1  0.92167000  0.64263000  0.23010000  1.0
  H  H78  1  0.35737000  0.27904000  0.23010000  1.0
  H  H79  1  0.27904000  0.92167000  0.23010000  1.0
  H  H80  1  0.07833000  0.35737000  0.23010000  1.0
  H  H81  1  0.64263000  0.72096000  0.23010000  1.0
  C  C82  1  0.48290000  0.13243000  0.63958000  1.0
  C  C83  1  0.64952000  0.51709000  0.63959000  1.0
  C  C84  1  0.86757000  0.35049000  0.63958000  1.0
  C  C85  1  0.51709000  0.86757000  0.63959000  1.0
  C  C86  1  0.35048000  0.48291000  0.63959000  1.0
  C  C87  1  0.13243000  0.64951000  0.63958000  1.0
  C  C88  1  0.35047000  0.86756000  0.86041000  1.0
  C  C89  1  0.13243000  0.48291000  0.86042000  1.0
  C  C90  1  0.51709000  0.64952000  0.86042000  1.0
  C  C91  1  0.64952000  0.13243000  0.86041000  1.0
  C  C92  1  0.86757000  0.51709000  0.86041000  1.0
  C  C93  1  0.48292000  0.35049000  0.86042000  1.0
  C  C94  1  0.51709000  0.86756000  0.36041000  1.0
  C  C95  1  0.35048000  0.48291000  0.36041000  1.0
  C  C96  1  0.13243000  0.64951000  0.36042000  1.0
  C  C97  1  0.48291000  0.13244000  0.36041000  1.0
  C  C98  1  0.64952000  0.51709000  0.36042000  1.0
  C  C99  1  0.86757000  0.35049000  0.36042000  1.0
  C  C100  1  0.64953000  0.13243000  0.13958000  1.0
  C  C101  1  0.86757000  0.51709000  0.13959000  1.0
  C  C102  1  0.48292000  0.35049000  0.13958000  1.0
  C  C103  1  0.35048000  0.86757000  0.13959000  1.0
  C  C104  1  0.13243000  0.48291000  0.13959000  1.0
  C  C105  1  0.51708000  0.64951000  0.13958000  1.0
  C  C106  1  0.40943000  0.15111000  0.69469000  1.0
  C  C107  1  0.74168000  0.59057000  0.69469000  1.0
  C  C108  1  0.84889000  0.25832000  0.69469000  1.0
  C  C109  1  0.59057000  0.84889000  0.69469000  1.0
  C  C110  1  0.25832000  0.40943000  0.69469000  1.0
  C  C111  1  0.15111000  0.74168000  0.69469000  1.0
  C  C112  1  0.25832000  0.84889000  0.80531000  1.0
  C  C113  1  0.15111000  0.40943000  0.80531000  1.0
  C  C114  1  0.59057000  0.74168000  0.80531000  1.0
  C  C115  1  0.74168000  0.15111000  0.80531000  1.0
  C  C116  1  0.84889000  0.59057000  0.80531000  1.0
  C  C117  1  0.40943000  0.25832000  0.80531000  1.0
  C  C118  1  0.59057000  0.84889000  0.30531000  1.0
  C  C119  1  0.25832000  0.40943000  0.30531000  1.0
  C  C120  1  0.15111000  0.74168000  0.30531000  1.0
  C  C121  1  0.40943000  0.15111000  0.30531000  1.0
  C  C122  1  0.74168000  0.59057000  0.30531000  1.0
  C  C123  1  0.84889000  0.25832000  0.30531000  1.0
  C  C124  1  0.74168000  0.15111000  0.19469000  1.0
  C  C125  1  0.84889000  0.59057000  0.19469000  1.0
  C  C126  1  0.40943000  0.25832000  0.19469000  1.0
  C  C127  1  0.25832000  0.84889000  0.19469000  1.0
  C  C128  1  0.15111000  0.40943000  0.19469000  1.0
  C  C129  1  0.59057000  0.74168000  0.19469000  1.0
  O  O130  1  0.58285000  0.19695000  0.64650000  1.0
  O  O131  1  0.61410000  0.41715000  0.64650000  1.0
  O  O132  1  0.80305000  0.38589000  0.64650000  1.0
  O  O133  1  0.41715000  0.80305000  0.64650000  1.0
  O  O134  1  0.38590000  0.58285000  0.64650000  1.0
  O  O135  1  0.19695000  0.61411000  0.64650000  1.0
  O  O136  1  0.38590000  0.80305000  0.85350000  1.0
  O  O137  1  0.19695000  0.58284000  0.85350000  1.0
  O  O138  1  0.41716000  0.61411000  0.85350000  1.0
  O  O139  1  0.61410000  0.19695000  0.85350000  1.0
  O  O140  1  0.80305000  0.41715000  0.85350000  1.0
  O  O141  1  0.58284000  0.38589000  0.85350000  1.0
  O  O142  1  0.41715000  0.80305000  0.35350000  1.0
  O  O143  1  0.38590000  0.58285000  0.35350000  1.0
  O  O144  1  0.19695000  0.61411000  0.35350000  1.0
  O  O145  1  0.58285000  0.19695000  0.35350000  1.0
  O  O146  1  0.61410000  0.41715000  0.35350000  1.0
  O  O147  1  0.80305000  0.38589000  0.35350000  1.0
  O  O148  1  0.61410000  0.19696000  0.14650000  1.0
  O  O149  1  0.80305000  0.41715000  0.14650000  1.0
  O  O150  1  0.58284000  0.38589000  0.14650000  1.0
  O  O151  1  0.38590000  0.80305000  0.14650000  1.0
  O  O152  1  0.19695000  0.58285000  0.14650000  1.0
  O  O153  1  0.41716000  0.61411000  0.14650000  1.0
  O  O154  1  0.47157000  0.23579000  0.75000000  1.0
  O  O155  1  0.76421000  0.52843000  0.75000000  1.0
  O  O156  1  0.76421000  0.23578000  0.75000000  1.0
  O  O157  1  0.52843000  0.76422000  0.75000000  1.0
  O  O158  1  0.23579000  0.47157000  0.75000000  1.0
  O  O159  1  0.23578000  0.76421000  0.75000000  1.0
  O  O160  1  0.52843000  0.76421000  0.25000000  1.0
  O  O161  1  0.23578000  0.47156000  0.25000000  1.0
  O  O162  1  0.23578000  0.76421000  0.25000000  1.0
  O  O163  1  0.47157000  0.23579000  0.25000000  1.0
  O  O164  1  0.76421000  0.52843000  0.25000000  1.0
  O  O165  1  0.76421000  0.23578000  0.25000000  1.0
  O  O166  1  0.34911000  0.85130000  0.50000000  1.0
  O  O167  1  0.50219000  0.65089000  0.50000000  1.0
  O  O168  1  0.14870000  0.49781000  0.50000000  1.0
  O  O169  1  0.65089000  0.14870000  0.50000000  1.0
  O  O170  1  0.49781000  0.34911000  0.50000000  1.0
  O  O171  1  0.85130000  0.50219000  0.50000000  1.0
  O  O172  1  0.49781000  0.14870000  1.00000000  1.0
  O  O173  1  0.85130000  0.34911000  1.00000000  1.0
  O  O174  1  0.65089000  0.50219000  1.00000000  1.0
  O  O175  1  0.50219000  0.85130000  0.00000000  1.0
  O  O176  1  0.14870000  0.65089000  1.00000000  1.0
  O  O177  1  0.34911000  0.49781000  1.00000000  1.0
  O  O178  1  0.43713000  0.05469000  0.59122000  1.0
  O  O179  1  0.61756000  0.56287000  0.59122000  1.0
  O  O180  1  0.94530000  0.38243000  0.59123000  1.0
  O  O181  1  0.56287000  0.94531000  0.59122000  1.0
  O  O182  1  0.38244000  0.43713000  0.59122000  1.0
  O  O183  1  0.05470000  0.61757000  0.59123000  1.0
  O  O184  1  0.38244000  0.94531000  0.90877000  1.0
  O  O185  1  0.05470000  0.43714000  0.90877000  1.0
  O  O186  1  0.56287000  0.61757000  0.90877000  1.0
  O  O187  1  0.61756000  0.05469000  0.90878000  1.0
  O  O188  1  0.94530000  0.56286000  0.90877000  1.0
  O  O189  1  0.43713000  0.38243000  0.90877000  1.0
  O  O190  1  0.56287000  0.94531000  0.40878000  1.0
  O  O191  1  0.38244000  0.43713000  0.40878000  1.0
  O  O192  1  0.05470000  0.61757000  0.40877000  1.0
  O  O193  1  0.43713000  0.05469000  0.40878000  1.0
  O  O194  1  0.61756000  0.56286000  0.40877000  1.0
  O  O195  1  0.94530000  0.38243000  0.40877000  1.0
  O  O196  1  0.61756000  0.05469000  0.09122000  1.0
  O  O197  1  0.94530000  0.56286000  0.09122000  1.0
  O  O198  1  0.43713000  0.38243000  0.09123000  1.0
  O  O199  1  0.38244000  0.94531000  0.09122000  1.0
  O  O200  1  0.05470000  0.43714000  0.09123000  1.0
  O  O201  1  0.56287000  0.61757000  0.09123000  1.0
