# generated using pymatgen
data_CuH6C9INO2
_symmetry_space_group_name_H-M   'P 1'
_cell_length_a   4.00207000
_cell_length_b   9.38924000
_cell_length_c   12.97610000
_cell_angle_alpha   96.25850000
_cell_angle_beta   95.76850000
_cell_angle_gamma   101.41500000
_symmetry_Int_Tables_number   1
_chemical_formula_structural   CuH6C9INO2
_chemical_formula_sum   'Cu2 H12 C18 I2 N2 O4'
_cell_volume   471.35761086
_cell_formula_units_Z   2
loop_
 _symmetry_equiv_pos_site_id
 _symmetry_equiv_pos_as_xyz
  1  'x, y, z'
loop_
 _atom_site_type_symbol
 _atom_site_label
 _atom_site_symmetry_multiplicity
 _atom_site_fract_x
 _atom_site_fract_y
 _atom_site_fract_z
 _atom_site_occupancy
  Cu  Cu0  1  0.80354000  0.09482000  0.51924000  1.0
  Cu  Cu1  1  0.19644000  0.90519000  0.48075000  1.0
  H  H2  1  0.43828000  0.34722000  0.87319000  1.0
  H  H3  1  0.56171000  0.65277000  0.12681000  1.0
  H  H4  1  0.18165000  0.13588000  0.73250000  1.0
  H  H5  1  0.81835000  0.86412000  0.26750000  1.0
  H  H6  1  0.76496000  0.40644000  0.54831000  1.0
  H  H7  1  0.23506000  0.59356000  0.45170000  1.0
  H  H8  1  0.00908000  0.62820000  0.67868000  1.0
  H  H9  1  0.99094000  0.37180000  0.32132000  1.0
  H  H10  1  0.68188000  0.99571000  0.82174000  1.0
  H  H11  1  0.31812000  0.00429000  0.17826000  1.0
  H  H12  1  0.12673000  0.77637000  0.04599000  1.0
  H  H13  1  0.87327000  0.22363000  0.95401000  1.0
  C  C14  1  0.29455000  0.36389000  0.80129000  1.0
  C  C15  1  0.70545000  0.63611000  0.19871000  1.0
  C  C16  1  0.15061000  0.24717000  0.72423000  1.0
  C  C17  1  0.84940000  0.75283000  0.27577000  1.0
  C  C18  1  0.91918000  0.39865000  0.62099000  1.0
  C  C19  1  0.08084000  0.60135000  0.37901000  1.0
  C  C20  1  0.05460000  0.52140000  0.69395000  1.0
  C  C21  1  0.94543000  0.47860000  0.30605000  1.0
  C  C22  1  0.24713000  0.50431000  0.78620000  1.0
  C  C23  1  0.75287000  0.49568000  0.21380000  1.0
  C  C24  1  0.40713000  0.62893000  0.86855000  1.0
  C  C25  1  0.59286000  0.37107000  0.13145000  1.0
  C  C26  1  0.60252000  0.99991000  0.89979000  1.0
  C  C27  1  0.39747000  0.00010000  0.10021000  1.0
  C  C28  1  0.39991000  0.87582000  0.92862000  1.0
  C  C29  1  0.60006000  0.12418000  0.07138000  1.0
  C  C30  1  0.29501000  0.87390000  0.02768000  1.0
  C  C31  1  0.70498000  0.12610000  0.97232000  1.0
  I  I32  1  0.70505000  0.85374000  0.60641000  1.0
  I  I33  1  0.29492000  0.14626000  0.39359000  1.0
  N  N34  1  0.96540000  0.26324000  0.63490000  1.0
  N  N35  1  0.03460000  0.73677000  0.36510000  1.0
  O  O36  1  0.28714000  0.75229000  0.85255000  1.0
  O  O37  1  0.71286000  0.24771000  0.14745000  1.0
  O  O38  1  0.62131000  0.62184000  0.94049000  1.0
  O  O39  1  0.37870000  0.37817000  0.05952000  1.0
