# generated using pymatgen
data_CuH8C7I(NO)2
_symmetry_space_group_name_H-M   'P 1'
_cell_length_a   4.21816000
_cell_length_b   9.86491000
_cell_length_c   11.09230000
_cell_angle_alpha   82.57910000
_cell_angle_beta   89.61220000
_cell_angle_gamma   83.03460000
_symmetry_Int_Tables_number   1
_chemical_formula_structural   CuH8C7I(NO)2
_chemical_formula_sum   'Cu2 H16 C14 I2 N4 O4'
_cell_volume   454.30755841
_cell_formula_units_Z   2
loop_
 _symmetry_equiv_pos_site_id
 _symmetry_equiv_pos_as_xyz
  1  'x, y, z'
loop_
 _atom_site_type_symbol
 _atom_site_label
 _atom_site_symmetry_multiplicity
 _atom_site_fract_x
 _atom_site_fract_y
 _atom_site_fract_z
 _atom_site_occupancy
  Cu  Cu0  1  0.81096000  0.11117000  0.47818000  1.0
  Cu  Cu1  1  0.18902000  0.88883000  0.52182000  1.0
  H  H2  1  0.39604000  0.36636000  0.47665000  1.0
  H  H3  1  0.60395000  0.63364000  0.52335000  1.0
  H  H4  1  0.25771000  0.58977000  0.34325000  1.0
  H  H5  1  0.74230000  0.41023000  0.65675000  1.0
  H  H6  1  0.93445000  0.43467000  0.08425000  1.0
  H  H7  1  0.06556000  0.56533000  0.91575000  1.0
  H  H8  1  0.23776000  0.21984000  0.14841000  1.0
  H  H9  1  0.76225000  0.78015000  0.85159000  1.0
  H  H10  1  0.17912000  0.12080000  0.28700000  1.0
  H  H11  1  0.82088000  0.87919000  0.71301000  1.0
  H  H12  1  0.15774000  0.85970000  0.98743000  1.0
  H  H13  1  0.84226000  0.14030000  0.01257000  1.0
  H  H14  1  0.41816000  0.93368000  0.08199000  1.0
  H  H15  1  0.58184000  0.06632000  0.91801000  1.0
  H  H16  1  0.00911000  0.92709000  0.12432000  1.0
  H  H17  1  0.99089000  0.07290000  0.87569000  1.0
  C  C18  1  0.51213000  0.38725000  0.38926000  1.0
  C  C19  1  0.48786000  0.61275000  0.61073000  1.0
  C  C20  1  0.43393000  0.51029000  0.31524000  1.0
  C  C21  1  0.56607000  0.48971000  0.68476000  1.0
  C  C22  1  0.58797000  0.52827000  0.20223000  1.0
  C  C23  1  0.41203000  0.47173000  0.79777000  1.0
  C  C24  1  0.80950000  0.42400000  0.17042000  1.0
  C  C25  1  0.19050000  0.57600000  0.82958000  1.0
  C  C26  1  0.87965000  0.30153000  0.25175000  1.0
  C  C27  1  0.12035000  0.69847000  0.74825000  1.0
  C  C28  1  0.52213000  0.65707000  0.11618000  1.0
  C  C29  1  0.47788000  0.34293000  0.88382000  1.0
  C  C30  1  0.21384000  0.87474000  0.08082000  1.0
  C  C31  1  0.78617000  0.12527000  0.91918000  1.0
  I  I32  1  0.29074000  0.11004000  0.62630000  1.0
  I  I33  1  0.70925000  0.88997000  0.37370000  1.0
  N  N34  1  0.72984000  0.28377000  0.36063000  1.0
  N  N35  1  0.27016000  0.71622000  0.63937000  1.0
  N  N36  1  0.09462000  0.19795000  0.22084000  1.0
  N  N37  1  0.90538000  0.80205000  0.77916000  1.0
  O  O38  1  0.28514000  0.74388000  0.15525000  1.0
  O  O39  1  0.71487000  0.25613000  0.84476000  1.0
  O  O40  1  0.66594000  0.68254000  0.02056000  1.0
  O  O41  1  0.33404000  0.31745000  0.97944000  1.0
