# generated using pymatgen
data_Zn2H2C21N3(OF)10
_symmetry_space_group_name_H-M   'P 1'
_cell_length_a   9.80129000
_cell_length_b   11.02490000
_cell_length_c   22.08530000
_cell_angle_alpha   89.63900000
_cell_angle_beta   89.75080000
_cell_angle_gamma   90.86800000
_symmetry_Int_Tables_number   1
_chemical_formula_structural   Zn2H2C21N3(OF)10
_chemical_formula_sum   'Zn4 H4 C42 N6 O20 F20'
_cell_volume   2386.15390055
_cell_formula_units_Z   2
loop_
 _symmetry_equiv_pos_site_id
 _symmetry_equiv_pos_as_xyz
  1  'x, y, z'
loop_
 _atom_site_type_symbol
 _atom_site_label
 _atom_site_symmetry_multiplicity
 _atom_site_fract_x
 _atom_site_fract_y
 _atom_site_fract_z
 _atom_site_occupancy
  Zn  Zn0  1  0.36245000  0.49781000  0.49729000  1.0
  Zn  Zn1  1  0.64169000  0.50402000  0.50052000  1.0
  Zn  Zn2  1  0.63752000  0.50512000  0.99640000  1.0
  Zn  Zn3  1  0.35812000  0.50258000  0.99988000  1.0
  H  H4  1  0.19335000  0.58255000  0.19489000  1.0
  H  H5  1  0.18537000  0.42106000  0.19644000  1.0
  H  H6  1  0.19264000  0.42408000  0.31039000  1.0
  H  H7  1  0.20026000  0.58571000  0.30883000  1.0
  C  C8  1  0.49080000  0.73321000  0.50097000  1.0
  C  C9  1  0.51497000  0.50175000  0.38207000  1.0
  C  C10  1  0.49770000  0.26785000  0.49825000  1.0
  C  C11  1  0.49990000  0.50017000  0.61522000  1.0
  C  C12  1  0.50408000  0.73658000  0.99525000  1.0
  C  C13  1  0.49824000  0.49984000  0.11473000  1.0
  C  C14  1  0.50369000  0.27106000  0.00028000  1.0
  C  C15  1  0.48810000  0.50174000  0.88192000  1.0
  C  C16  1  0.07202000  0.41968000  0.53273000  1.0
  C  C17  1  0.93322000  0.58744000  0.47108000  1.0
  C  C18  1  0.92965000  0.42567000  0.53633000  1.0
  C  C19  1  0.07543000  0.58064000  0.46708000  1.0
  C  C20  1  0.49619000  0.13140000  0.50023000  1.0
  C  C21  1  0.49229000  0.86965000  0.50230000  1.0
  C  C22  1  0.61675000  0.06409000  0.50087000  1.0
  C  C23  1  0.37178000  0.93704000  0.50225000  1.0
  C  C24  1  0.61489000  0.93753000  0.50225000  1.0
  C  C25  1  0.37366000  0.06359000  0.50145000  1.0
  C  C26  1  0.50595000  0.49184000  0.18233000  1.0
  C  C27  1  0.51516000  0.50011000  0.31421000  1.0
  C  C28  1  0.38951000  0.49643000  0.21833000  1.0
  C  C29  1  0.63423000  0.49441000  0.27802000  1.0
  C  C30  1  0.39378000  0.49973000  0.28163000  1.0
  C  C31  1  0.62975000  0.48829000  0.21483000  1.0
  C  C32  1  0.23520000  0.50116000  0.21632000  1.0
  C  C33  1  0.23974000  0.50335000  0.28781000  1.0
  C  C34  1  0.49633000  0.50084000  0.68328000  1.0
  C  C35  1  0.49031000  0.50224000  0.81379000  1.0
  C  C36  1  0.37322000  0.50181000  0.71605000  1.0
  C  C37  1  0.61349000  0.50205000  0.78094000  1.0
  C  C38  1  0.37030000  0.50198000  0.77923000  1.0
  C  C39  1  0.61635000  0.50069000  0.71781000  1.0
  C  C40  1  0.92570000  0.42915000  0.96256000  1.0
  C  C41  1  0.06854000  0.57975000  0.03382000  1.0
  C  C42  1  0.06842000  0.42792000  0.96389000  1.0
  C  C43  1  0.92605000  0.58387000  0.03097000  1.0
  C  C44  1  0.50377000  0.13463000  0.99851000  1.0
  C  C45  1  0.50413000  0.87304000  0.99529000  1.0
  C  C46  1  0.38226000  0.06530000  0.99660000  1.0
  C  C47  1  0.62552000  0.94217000  0.99699000  1.0
  C  C48  1  0.38251000  0.93885000  0.99475000  1.0
  C  C49  1  0.62547000  0.06873000  0.99840000  1.0
  N  N50  1  0.14279000  0.49707000  0.49797000  1.0
  N  N51  1  0.86206000  0.50850000  0.50489000  1.0
  N  N52  1  0.85668000  0.50752000  0.99587000  1.0
  N  N53  1  0.13781000  0.50264000  0.99986000  1.0
  N  N54  1  0.77133000  0.49524000  0.30641000  1.0
  N  N55  1  0.76106000  0.47446000  0.18207000  1.0
  O  O56  1  0.38035000  0.67866000  0.51604000  1.0
  O  O57  1  0.60014000  0.68307000  0.48421000  1.0
  O  O58  1  0.62456000  0.47392000  0.40914000  1.0
  O  O59  1  0.40219000  0.52953000  0.40668000  1.0
  O  O60  1  0.60651000  0.32170000  0.51491000  1.0
  O  O61  1  0.38940000  0.31841000  0.48014000  1.0
  O  O62  1  0.39306000  0.46351000  0.58822000  1.0
  O  O63  1  0.61039000  0.53639000  0.59018000  1.0
  O  O64  1  0.61234000  0.68538000  0.97751000  1.0
  O  O65  1  0.39554000  0.68341000  0.01353000  1.0
  O  O66  1  0.38357000  0.47227000  0.09140000  1.0
  O  O67  1  0.60471000  0.53691000  0.08680000  1.0
  O  O68  1  0.39298000  0.32251000  0.98614000  1.0
  O  O69  1  0.61408000  0.32415000  0.01548000  1.0
  O  O70  1  0.59670000  0.46800000  0.90784000  1.0
  O  O71  1  0.37908000  0.53440000  0.90811000  1.0
  O  O72  1  0.81340000  0.59281000  0.32643000  1.0
  O  O73  1  0.83392000  0.39864000  0.30596000  1.0
  O  O74  1  0.77692000  0.37937000  0.15401000  1.0
  O  O75  1  0.84599000  0.55828000  0.18667000  1.0
  F  F76  1  0.13815000  0.33664000  0.56395000  1.0
  F  F77  1  0.86793000  0.67320000  0.44178000  1.0
  F  F78  1  0.86053000  0.34891000  0.57148000  1.0
  F  F79  1  0.14487000  0.65770000  0.43211000  1.0
  F  F80  1  0.74064000  0.11882000  0.49918000  1.0
  F  F81  1  0.24775000  0.88244000  0.50195000  1.0
  F  F82  1  0.73723000  0.88357000  0.50413000  1.0
  F  F83  1  0.25129000  0.11774000  0.50256000  1.0
  F  F84  1  0.25158000  0.50431000  0.68778000  1.0
  F  F85  1  0.73564000  0.50463000  0.80879000  1.0
  F  F86  1  0.24603000  0.50019000  0.80568000  1.0
  F  F87  1  0.74063000  0.49734000  0.69150000  1.0
  F  F88  1  0.85758000  0.35251000  0.92773000  1.0
  F  F89  1  0.13647000  0.65313000  0.07050000  1.0
  F  F90  1  0.13624000  0.35219000  0.92916000  1.0
  F  F91  1  0.85851000  0.66440000  0.06284000  1.0
  F  F92  1  0.25886000  0.11764000  0.99716000  1.0
  F  F93  1  0.74851000  0.88916000  0.99842000  1.0
  F  F94  1  0.25957000  0.88263000  0.99157000  1.0
  F  F95  1  0.74871000  0.12447000  0.99904000  1.0
