# generated using pymatgen
data_CuH16C12N6O7
_symmetry_space_group_name_H-M   'P 1'
_cell_length_a   7.23961000
_cell_length_b   11.03690000
_cell_length_c   12.24620000
_cell_angle_alpha   112.16900000
_cell_angle_beta   89.96790000
_cell_angle_gamma   89.87750000
_symmetry_Int_Tables_number   1
_chemical_formula_structural   CuH16C12N6O7
_chemical_formula_sum   'Cu2 H32 C24 N12 O14'
_cell_volume   906.16704804
_cell_formula_units_Z   2
loop_
 _symmetry_equiv_pos_site_id
 _symmetry_equiv_pos_as_xyz
  1  'x, y, z'
loop_
 _atom_site_type_symbol
 _atom_site_label
 _atom_site_symmetry_multiplicity
 _atom_site_fract_x
 _atom_site_fract_y
 _atom_site_fract_z
 _atom_site_occupancy
  Cu  Cu0  1  0.75829000  0.51072000  0.35091000  1.0
  Cu  Cu1  1  0.25714000  0.48935000  0.64920000  1.0
  H  H2  1  0.26695000  0.83731000  0.05630000  1.0
  H  H3  1  0.76674000  0.16331000  0.94367000  1.0
  H  H4  1  0.53534000  0.37594000  0.39439000  1.0
  H  H5  1  0.03422000  0.62465000  0.60606000  1.0
  H  H6  1  0.84204000  0.00117000  0.73787000  1.0
  H  H7  1  0.34212000  0.99882000  0.26209000  1.0
  H  H8  1  0.89805000  0.20553000  0.76375000  1.0
  H  H9  1  0.39809000  0.79403000  0.23610000  1.0
  H  H10  1  0.93080000  0.25886000  0.64387000  1.0
  H  H11  1  0.43045000  0.74069000  0.35608000  1.0
  H  H12  1  0.88186000  0.22428000  0.35978000  1.0
  H  H13  1  0.37999000  0.77559000  0.64008000  1.0
  H  H14  1  0.70029000  0.23385000  0.45965000  1.0
  H  H15  1  0.19866000  0.76627000  0.54055000  1.0
  H  H16  1  0.47133000  0.22090000  0.21805000  1.0
  H  H17  1  0.96957000  0.77963000  0.78253000  1.0
  H  H18  1  0.70243000  0.16514000  0.19898000  1.0
  H  H19  1  0.20014000  0.83514000  0.80110000  1.0
  H  H20  1  0.88053000  0.64261000  0.17877000  1.0
  H  H21  1  0.38017000  0.35717000  0.82115000  1.0
  H  H22  1  0.99558000  0.00775000  0.27243000  1.0
  H  H23  1  0.49650000  0.99189000  0.72734000  1.0
  H  H24  1  0.01793000  0.85426000  0.14766000  1.0
  H  H25  1  0.51762000  0.14543000  0.85219000  1.0
  H  H26  1  0.80426000  0.81277000  0.00463000  1.0
  H  H27  1  0.30380000  0.18701000  0.99514000  1.0
  H  H28  1  0.66530000  0.75214000  0.09384000  1.0
  H  H29  1  0.16484000  0.24782000  0.90599000  1.0
  H  H30  1  0.54485000  0.97856000  0.02377000  1.0
  H  H31  1  0.04497000  0.02150000  0.97608000  1.0
  H  H32  1  0.49259000  0.81104000  0.94114000  1.0
  H  H33  1  0.99177000  0.18910000  0.05876000  1.0
  C  C34  1  0.77677000  0.28995000  0.41701000  1.0
  C  C35  1  0.27518000  0.71003000  0.58309000  1.0
  C  C36  1  0.88281000  0.40170000  0.50791000  1.0
  C  C37  1  0.38166000  0.59814000  0.49205000  1.0
  C  C38  1  0.61596000  0.25369000  0.22524000  1.0
  C  C39  1  0.11432000  0.74667000  0.77509000  1.0
  C  C40  1  0.64860000  0.32126000  0.13864000  1.0
  C  C41  1  0.14779000  0.67928000  0.86176000  1.0
  C  C42  1  0.88741000  0.06188000  0.59997000  1.0
  C  C43  1  0.38739000  0.93785000  0.39991000  1.0
  C  C44  1  0.88340000  0.90383000  0.42088000  1.0
  C  C45  1  0.38335000  0.09593000  0.57899000  1.0
  C  C46  1  0.84175000  0.80254000  0.45948000  1.0
  C  C47  1  0.34165000  0.19737000  0.54046000  1.0
  C  C48  1  0.80621000  0.83650000  0.58306000  1.0
  C  C49  1  0.30627000  0.16356000  0.41695000  1.0
  C  C50  1  0.87315000  0.71355000  0.26863000  1.0
  C  C51  1  0.37301000  0.28626000  0.73124000  1.0
  C  C52  1  0.92917000  0.91475000  0.22040000  1.0
  C  C53  1  0.42940000  0.08492000  0.77940000  1.0
  C  C54  1  0.69615000  0.83920000  0.07317000  1.0
  C  C55  1  0.19585000  0.16072000  0.92667000  1.0
  C  C56  1  0.52255000  0.88269000  0.03034000  1.0
  C  C57  1  0.02231000  0.11742000  0.96954000  1.0
  N  N58  1  0.65637000  0.34074000  0.34732000  1.0
  N  N59  1  0.15503000  0.65962000  0.65301000  1.0
  N  N60  1  0.84637000  0.96962000  0.64682000  1.0
  N  N61  1  0.34646000  0.03029000  0.35313000  1.0
  N  N62  1  0.90842000  0.18576000  0.67595000  1.0
  N  N63  1  0.40840000  0.81389000  0.32393000  1.0
  N  N64  1  0.90427000  0.03194000  0.48408000  1.0
  N  N65  1  0.40418000  0.96774000  0.51578000  1.0
  N  N66  1  0.83617000  0.68506000  0.36214000  1.0
  N  N67  1  0.33599000  0.31488000  0.63783000  1.0
  N  N68  1  0.90153000  0.84522000  0.29941000  1.0
  N  N69  1  0.40151000  0.15451000  0.70044000  1.0
  O  O70  1  0.89566000  0.50859000  0.48875000  1.0
  O  O71  1  0.39435000  0.49109000  0.51102000  1.0
  O  O72  1  0.95867000  0.38690000  0.59408000  1.0
  O  O73  1  0.45811000  0.61282000  0.40596000  1.0
  O  O74  1  0.70823000  0.43942000  0.17867000  1.0
  O  O75  1  0.20739000  0.56090000  0.82159000  1.0
  O  O76  1  0.61522000  0.25688000  0.03120000  1.0
  O  O77  1  0.11513000  0.74396000  0.96935000  1.0
  O  O78  1  0.74923000  0.76779000  0.63624000  1.0
  O  O79  1  0.24936000  0.23239000  0.36380000  1.0
  O  O80  1  0.76149000  0.94468000  0.17695000  1.0
  O  O81  1  0.26178000  0.05509000  0.82288000  1.0
  O  O82  1  0.36912000  0.89043000  0.10704000  1.0
  O  O83  1  0.86914000  0.10990000  0.89285000  1.0
