# generated using pymatgen
data_DyH16C18N3O8
_symmetry_space_group_name_H-M   'P 1'
_cell_length_a   10.07940000
_cell_length_b   11.18900000
_cell_length_c   11.19335101
_cell_angle_alpha   61.88915479
_cell_angle_beta   69.39322356
_cell_angle_gamma   69.40100000
_symmetry_Int_Tables_number   1
_chemical_formula_structural   DyH16C18N3O8
_chemical_formula_sum   'Dy2 H32 C36 N6 O16'
_cell_volume   1015.42376361
_cell_formula_units_Z   2
loop_
 _symmetry_equiv_pos_site_id
 _symmetry_equiv_pos_as_xyz
  1  'x, y, z'
loop_
 _atom_site_type_symbol
 _atom_site_label
 _atom_site_symmetry_multiplicity
 _atom_site_fract_x
 _atom_site_fract_y
 _atom_site_fract_z
 _atom_site_occupancy
  Dy  Dy0  1  0.75007000  0.01522000  0.98475000  1.0
  Dy  Dy1  1  0.24993000  0.98478000  0.01525000  1.0
  H  H2  1  0.61437000  0.16622000  0.23205000  1.0
  H  H3  1  0.88567000  0.76806000  0.83375000  1.0
  H  H4  1  0.38564000  0.83377000  0.76793000  1.0
  H  H5  1  0.11432000  0.23194000  0.16624000  1.0
  H  H6  1  0.44601000  0.17634000  0.45566000  1.0
  H  H7  1  0.05408000  0.54424000  0.82392000  1.0
  H  H8  1  0.55401000  0.82365000  0.54432000  1.0
  H  H9  1  0.94591000  0.45576000  0.17607000  1.0
  H  H10  1  0.77992000  0.97877000  0.66430000  1.0
  H  H11  1  0.72009000  0.33555000  0.02117000  1.0
  H  H12  1  0.22008000  0.02122000  0.33569000  1.0
  H  H13  1  0.27991000  0.66445000  0.97885000  1.0
  H  H14  1  0.96337000  0.95871000  0.44733000  1.0
  H  H15  1  0.53661000  0.55268000  0.04118000  1.0
  H  H16  1  0.03664000  0.04130000  0.55266000  1.0
  H  H17  1  0.46339000  0.44732000  0.95883000  1.0
  H  H18  1  0.84943000  0.48387000  0.67601000  1.0
  H  H19  1  0.65087000  0.32358000  0.51646000  1.0
  H  H20  1  0.15053000  0.51613000  0.32404000  1.0
  H  H21  1  0.34915000  0.67641000  0.48354000  1.0
  H  H22  1  0.84555000  0.70115000  0.45294000  1.0
  H  H23  1  0.65454000  0.54664000  0.29909000  1.0
  H  H24  1  0.15443000  0.29885000  0.54710000  1.0
  H  H25  1  0.34547000  0.45335000  0.70092000  1.0
  H  H26  1  0.52328000  0.92629000  0.27920000  1.0
  H  H27  1  0.97667000  0.72070000  0.07358000  1.0
  H  H28  1  0.47671000  0.07371000  0.72078000  1.0
  H  H29  1  0.02332000  0.27929000  0.92642000  1.0
  H  H30  1  0.66114000  0.80747000  0.26770000  1.0
  H  H31  1  0.83882000  0.73219000  0.19234000  1.0
  H  H32  1  0.33886000  0.19254000  0.73230000  1.0
  H  H33  1  0.16118000  0.26781000  0.80766000  1.0
  C  C34  1  0.90959000  0.05162000  0.19308000  1.0
  C  C35  1  0.59036000  0.80697000  0.94842000  1.0
  C  C36  1  0.09043000  0.94838000  0.80692000  1.0
  C  C37  1  0.40964000  0.19303000  0.05158000  1.0
  C  C38  1  0.80275000  0.06301000  0.32346000  1.0
  C  C39  1  0.69724000  0.67659000  0.93694000  1.0
  C  C40  1  0.19725000  0.93699000  0.67653000  1.0
  C  C41  1  0.30275000  0.32341000  0.06306000  1.0
  C  C42  1  0.65539000  0.12526000  0.32516000  1.0
  C  C43  1  0.84467000  0.67488000  0.87474000  1.0
  C  C44  1  0.34463000  0.87474000  0.67482000  1.0
  C  C45  1  0.15533000  0.32513000  0.12525000  1.0
  C  C46  1  0.56210000  0.12959000  0.44976000  1.0
  C  C47  1  0.93795000  0.55020000  0.87055000  1.0
  C  C48  1  0.43791000  0.87041000  0.55022000  1.0
  C  C49  1  0.06204000  0.44981000  0.12944000  1.0
  C  C50  1  0.74801000  0.01713000  0.56671000  1.0
  C  C51  1  0.75193000  0.43324000  0.98284000  1.0
  C  C52  1  0.25199000  0.98287000  0.43328000  1.0
  C  C53  1  0.24807000  0.56677000  0.01717000  1.0
  C  C54  1  0.84915000  0.00824000  0.44679000  1.0
  C  C55  1  0.65083000  0.55320000  0.99174000  1.0
  C  C56  1  0.15086000  0.99177000  0.55319000  1.0
  C  C57  1  0.34916000  0.44680000  0.00827000  1.0
  C  C58  1  0.75024000  0.25819000  0.74172000  1.0
  C  C59  1  0.24976000  0.74182000  0.25828000  1.0
  C  C60  1  0.75017000  0.38911000  0.61082000  1.0
  C  C61  1  0.24981000  0.61090000  0.38918000  1.0
  C  C62  1  0.80525000  0.49606000  0.59398000  1.0
  C  C63  1  0.69501000  0.40575000  0.50407000  1.0
  C  C64  1  0.19472000  0.50393000  0.40606000  1.0
  C  C65  1  0.30500000  0.59423000  0.49594000  1.0
  C  C66  1  0.80285000  0.61518000  0.47156000  1.0
  C  C67  1  0.69726000  0.52819000  0.38495000  1.0
  C  C68  1  0.19712000  0.38483000  0.52847000  1.0
  C  C69  1  0.30275000  0.47181000  0.61506000  1.0
  N  N70  1  0.60630000  0.07617000  0.56863000  1.0
  N  N71  1  0.89370000  0.43131000  0.92394000  1.0
  N  N72  1  0.39371000  0.92382000  0.43136000  1.0
  N  N73  1  0.10630000  0.56870000  0.07605000  1.0
  N  N74  1  0.75007000  0.63127000  0.36862000  1.0
  N  N75  1  0.24993000  0.36873000  0.63140000  1.0
  O  O76  1  0.85839000  0.06309000  0.09922000  1.0
  O  O77  1  0.64156000  0.90094000  0.93680000  1.0
  O  O78  1  0.14164000  0.93689000  0.90077000  1.0
  O  O79  1  0.35844000  0.09908000  0.06318000  1.0
  O  O80  1  0.04345000  0.03188000  0.18701000  1.0
  O  O81  1  0.45651000  0.81290000  0.96835000  1.0
  O  O82  1  0.95656000  0.96813000  0.81298000  1.0
  O  O83  1  0.54349000  0.18711000  0.03165000  1.0
  O  O84  1  0.81898000  0.23887000  0.82745000  1.0
  O  O85  1  0.68156000  0.17229000  0.76117000  1.0
  O  O86  1  0.18101000  0.76113000  0.17256000  1.0
  O  O87  1  0.31844000  0.82771000  0.23883000  1.0
  O  O88  1  0.61890000  0.90569000  0.21450000  1.0
  O  O89  1  0.88096000  0.78537000  0.09409000  1.0
  O  O90  1  0.38110000  0.09431000  0.78549000  1.0
  O  O91  1  0.11903000  0.21463000  0.90590000  1.0
