# generated using pymatgen
data_H14Pb(C2O)4
_symmetry_space_group_name_H-M   'P 1'
_cell_length_a   4.75289000
_cell_length_b   7.31697000
_cell_length_c   15.50930000
_cell_angle_alpha   89.99650000
_cell_angle_beta   82.64560000
_cell_angle_gamma   89.99630000
_symmetry_Int_Tables_number   1
_chemical_formula_structural   H14Pb(C2O)4
_chemical_formula_sum   'H28 Pb2 C16 O8'
_cell_volume   534.92595193
_cell_formula_units_Z   2
loop_
 _symmetry_equiv_pos_site_id
 _symmetry_equiv_pos_as_xyz
  1  'x, y, z'
loop_
 _atom_site_type_symbol
 _atom_site_label
 _atom_site_symmetry_multiplicity
 _atom_site_fract_x
 _atom_site_fract_y
 _atom_site_fract_z
 _atom_site_occupancy
  H  H0  1  0.62028000  0.12772000  0.81870000  1.0
  H  H1  1  0.37966000  0.62775000  0.18134000  1.0
  H  H2  1  0.37991000  0.87239000  0.18124000  1.0
  H  H3  1  0.62002000  0.37237000  0.81876000  1.0
  H  H4  1  0.73326000  0.87131000  0.53899000  1.0
  H  H5  1  0.26680000  0.37127000  0.46099000  1.0
  H  H6  1  0.26681000  0.12890000  0.46098000  1.0
  H  H7  1  0.73326000  0.62895000  0.53901000  1.0
  H  H8  1  0.02090000  0.75011000  0.48094000  1.0
  H  H9  1  0.97919000  0.25005000  0.51906000  1.0
  H  H10  1  0.66862000  0.86757000  0.70727000  1.0
  H  H11  1  0.33162000  0.36747000  0.29277000  1.0
  H  H12  1  0.33137000  0.13255000  0.29278000  1.0
  H  H13  1  0.66837000  0.63265000  0.70717000  1.0
  H  H14  1  0.66898000  0.12910000  0.64878000  1.0
  H  H15  1  0.33100000  0.62910000  0.35122000  1.0
  H  H16  1  0.33108000  0.87109000  0.35121000  1.0
  H  H17  1  0.66891000  0.37109000  0.64878000  1.0
  H  H18  1  0.41412000  0.25009000  0.59677000  1.0
  H  H19  1  0.58585000  0.75004000  0.40324000  1.0
  H  H20  1  0.18998000  0.37112000  0.74055000  1.0
  H  H21  1  0.80997000  0.87114000  0.25943000  1.0
  H  H22  1  0.81000000  0.62898000  0.25947000  1.0
  H  H23  1  0.18999000  0.12895000  0.74054000  1.0
  H  H24  1  0.16285000  0.86996000  0.62089000  1.0
  H  H25  1  0.83719000  0.37002000  0.37912000  1.0
  H  H26  1  0.83710000  0.13030000  0.37913000  1.0
  H  H27  1  0.16287000  0.63024000  0.62088000  1.0
  Pb  Pb28  1  0.23889000  0.74958000  0.94260000  1.0
  Pb  Pb29  1  0.76130000  0.24970000  0.05737000  1.0
  C  C30  1  0.48575000  0.24999000  0.81869000  1.0
  C  C31  1  0.51419000  0.75001000  0.18132000  1.0
  C  C32  1  0.86964000  0.75012000  0.54074000  1.0
  C  C33  1  0.13041000  0.25009000  0.45925000  1.0
  C  C34  1  0.81353000  0.75003000  0.70494000  1.0
  C  C35  1  0.18645000  0.25008000  0.29506000  1.0
  C  C36  1  0.94624000  0.74977000  0.78852000  1.0
  C  C37  1  0.05375000  0.25009000  0.21148000  1.0
  C  C38  1  0.27247000  0.24975000  0.89986000  1.0
  C  C39  1  0.72749000  0.74982000  0.10015000  1.0
  C  C40  1  0.53083000  0.25007000  0.65342000  1.0
  C  C41  1  0.46915000  0.75007000  0.34658000  1.0
  C  C42  1  0.32833000  0.25003000  0.73797000  1.0
  C  C43  1  0.67165000  0.75005000  0.26203000  1.0
  C  C44  1  0.02244000  0.75009000  0.62161000  1.0
  C  C45  1  0.97757000  0.25013000  0.37839000  1.0
  O  O46  1  0.17842000  0.40099000  0.93291000  1.0
  O  O47  1  0.82175000  0.90106000  0.06716000  1.0
  O  O48  1  0.82000000  0.59841000  0.06693000  1.0
  O  O49  1  0.17979000  0.09834000  0.93302000  1.0
  O  O50  1  0.21539000  0.74940000  0.78412000  1.0
  O  O51  1  0.78460000  0.24994000  0.21588000  1.0
  O  O52  1  0.78981000  0.74994000  0.86256000  1.0
  O  O53  1  0.21019000  0.25018000  0.13744000  1.0
