# generated using pymatgen
data_CuH8C12NClO
_symmetry_space_group_name_H-M   'P 1'
_cell_length_a   3.71036000
_cell_length_b   11.48300000
_cell_length_c   11.64410000
_cell_angle_alpha   88.05720000
_cell_angle_beta   81.25300000
_cell_angle_gamma   85.20690000
_symmetry_Int_Tables_number   1
_chemical_formula_structural   CuH8C12NClO
_chemical_formula_sum   'Cu2 H16 C24 N2 Cl2 O2'
_cell_volume   488.51135276
_cell_formula_units_Z   2
loop_
 _symmetry_equiv_pos_site_id
 _symmetry_equiv_pos_as_xyz
  1  'x, y, z'
loop_
 _atom_site_type_symbol
 _atom_site_label
 _atom_site_symmetry_multiplicity
 _atom_site_fract_x
 _atom_site_fract_y
 _atom_site_fract_z
 _atom_site_occupancy
  Cu  Cu0  1  0.33645000  0.11086000  0.51385000  1.0
  Cu  Cu1  1  0.66355000  0.88914000  0.48615000  1.0
  H  H2  1  0.36661000  0.55404000  0.31202000  1.0
  H  H3  1  0.63336000  0.44595000  0.68798000  1.0
  H  H4  1  0.95314000  0.29133000  0.56103000  1.0
  H  H5  1  0.04683000  0.70867000  0.43897000  1.0
  H  H6  1  0.74066000  0.07042000  0.26903000  1.0
  H  H7  1  0.25936000  0.92958000  0.73097000  1.0
  H  H8  1  0.10532000  0.07511000  0.07400000  1.0
  H  H9  1  0.89467000  0.92489000  0.92600000  1.0
  H  H10  1  0.39079000  0.08124000  0.86658000  1.0
  H  H11  1  0.60921000  0.91876000  0.13342000  1.0
  H  H12  1  0.32276000  0.26081000  0.74746000  1.0
  H  H13  1  0.67726000  0.73920000  0.25254000  1.0
  H  H14  1  0.98014000  0.44076000  0.83728000  1.0
  H  H15  1  0.01988000  0.55924000  0.16273000  1.0
  H  H16  1  0.69365000  0.43571000  0.04359000  1.0
  H  H17  1  0.30635000  0.56429000  0.95641000  1.0
  C  C18  1  0.18345000  0.41140000  0.42702000  1.0
  C  C19  1  0.81656000  0.58860000  0.57298000  1.0
  C  C20  1  0.20234000  0.53020000  0.39363000  1.0
  C  C21  1  0.79765000  0.46980000  0.60637000  1.0
  C  C22  1  0.97747000  0.38282000  0.53468000  1.0
  C  C23  1  0.02252000  0.61718000  0.46532000  1.0
  C  C24  1  0.37672000  0.32128000  0.35294000  1.0
  C  C25  1  0.62328000  0.67872000  0.64706000  1.0
  C  C26  1  0.64642000  0.16219000  0.27369000  1.0
  C  C27  1  0.35357000  0.83781000  0.72631000  1.0
  C  C28  1  0.69980000  0.25005000  0.19195000  1.0
  C  C29  1  0.30020000  0.74995000  0.80805000  1.0
  C  C30  1  0.87585000  0.25507000  0.07247000  1.0
  C  C31  1  0.12414000  0.74493000  0.92753000  1.0
  C  C32  1  0.07460000  0.15496000  0.02176000  1.0
  C  C33  1  0.92540000  0.84504000  0.97824000  1.0
  C  C34  1  0.23341000  0.15808000  0.90573000  1.0
  C  C35  1  0.76660000  0.84193000  0.09427000  1.0
  C  C36  1  0.19823000  0.26037000  0.83841000  1.0
  C  C37  1  0.80178000  0.73964000  0.16159000  1.0
  C  C38  1  0.00648000  0.36020000  0.88868000  1.0
  C  C39  1  0.99354000  0.63980000  0.11132000  1.0
  C  C40  1  0.84596000  0.35800000  0.00482000  1.0
  C  C41  1  0.15405000  0.64200000  0.99518000  1.0
  N  N42  1  0.44316000  0.20770000  0.37427000  1.0
  N  N43  1  0.55684000  0.79229000  0.62574000  1.0
  Cl  Cl44  1  0.20791000  0.92101000  0.37346000  1.0
  Cl  Cl45  1  0.79209000  0.07899000  0.62654000  1.0
  O  O46  1  0.52786000  0.35173000  0.24238000  1.0
  O  O47  1  0.47213000  0.64827000  0.75762000  1.0
