# generated using pymatgen
data_BiH10C5S2I2N
_symmetry_space_group_name_H-M   'P 1'
_cell_length_a   8.13669000
_cell_length_b   10.38080000
_cell_length_c   14.75440000
_cell_angle_alpha   90.00010000
_cell_angle_beta   90.00030000
_cell_angle_gamma   90.95540000
_symmetry_Int_Tables_number   1
_chemical_formula_structural   BiH10C5S2I2N
_chemical_formula_sum   'Bi4 H40 C20 S8 I8 N4'
_cell_volume   1246.06232811
_cell_formula_units_Z   4
loop_
 _symmetry_equiv_pos_site_id
 _symmetry_equiv_pos_as_xyz
  1  'x, y, z'
loop_
 _atom_site_type_symbol
 _atom_site_label
 _atom_site_symmetry_multiplicity
 _atom_site_fract_x
 _atom_site_fract_y
 _atom_site_fract_z
 _atom_site_occupancy
  Bi  Bi0  1  0.77795000  0.21907000  0.21091000  1.0
  Bi  Bi1  1  0.72205000  0.78093000  0.71091000  1.0
  Bi  Bi2  1  0.22204000  0.78093000  0.78909000  1.0
  Bi  Bi3  1  0.27796000  0.21907000  0.28908000  1.0
  H  H4  1  0.18680000  0.31763000  0.02687000  1.0
  H  H5  1  0.31320000  0.68237000  0.52687000  1.0
  H  H6  1  0.81320000  0.68237000  0.97313000  1.0
  H  H7  1  0.68680000  0.31764000  0.47313000  1.0
  H  H8  1  0.19248000  0.36578000  0.91127000  1.0
  H  H9  1  0.30752000  0.63422000  0.41127000  1.0
  H  H10  1  0.80752000  0.63422000  0.08873000  1.0
  H  H11  1  0.69248000  0.36579000  0.58873000  1.0
  H  H12  1  0.06747000  0.23206000  0.94537000  1.0
  H  H13  1  0.43253000  0.76795000  0.44537000  1.0
  H  H14  1  0.93253000  0.76795000  0.05463000  1.0
  H  H15  1  0.56747000  0.23206000  0.55463000  1.0
  H  H16  1  0.76279000  0.22686000  0.84707000  1.0
  H  H17  1  0.73721000  0.77314000  0.34707000  1.0
  H  H18  1  0.23721000  0.77315000  0.15293000  1.0
  H  H19  1  0.26279000  0.22685000  0.65293000  1.0
  H  H20  1  0.58361000  0.17731000  0.78586000  1.0
  H  H21  1  0.91639000  0.82269000  0.28586000  1.0
  H  H22  1  0.41640000  0.82269000  0.21414000  1.0
  H  H23  1  0.08360000  0.17731000  0.71414000  1.0
  H  H24  1  0.68614000  0.32472000  0.75799000  1.0
  H  H25  1  0.81387000  0.67528000  0.25799000  1.0
  H  H26  1  0.31386000  0.67528000  0.24201000  1.0
  H  H27  1  0.18614000  0.32471000  0.74201000  1.0
  H  H28  1  0.32411000  0.15184000  0.87111000  1.0
  H  H29  1  0.17589000  0.84815000  0.37110000  1.0
  H  H30  1  0.67589000  0.84815000  0.12890000  1.0
  H  H31  1  0.82411000  0.15185000  0.62889000  1.0
  H  H32  1  0.31514000  0.10591000  0.98647000  1.0
  H  H33  1  0.18485000  0.89409000  0.48647000  1.0
  H  H34  1  0.68486000  0.89409000  0.01353000  1.0
  H  H35  1  0.81514000  0.10592000  0.51353000  1.0
  H  H36  1  0.43562000  0.37295000  0.84693000  1.0
  H  H37  1  0.06438000  0.62704000  0.34693000  1.0
  H  H38  1  0.56438000  0.62704000  0.15307000  1.0
  H  H39  1  0.93562000  0.37295000  0.65307000  1.0
  H  H40  1  0.61255000  0.41792000  0.90913000  1.0
  H  H41  1  0.88744000  0.58208000  0.40913000  1.0
  H  H42  1  0.38744000  0.58208000  0.09087000  1.0
  H  H43  1  0.11256000  0.41792000  0.59087000  1.0
  C  C44  1  0.57366000  0.23880000  0.03055000  1.0
  C  C45  1  0.92634000  0.76119000  0.53056000  1.0
  C  C46  1  0.42634000  0.76119000  0.96944000  1.0
  C  C47  1  0.07367000  0.23881000  0.46944000  1.0
  C  C48  1  0.32513000  0.18911000  0.94086000  1.0
  C  C49  1  0.17487000  0.81089000  0.44086000  1.0
  C  C50  1  0.67487000  0.81088000  0.05914000  1.0
  C  C51  1  0.82513000  0.18912000  0.55913000  1.0
  C  C52  1  0.18548000  0.28209000  0.95683000  1.0
  C  C53  1  0.31452000  0.71791000  0.45683000  1.0
  C  C54  1  0.81453000  0.71791000  0.04317000  1.0
  C  C55  1  0.68548000  0.28209000  0.54317000  1.0
  C  C56  1  0.54462000  0.33501000  0.88065000  1.0
  C  C57  1  0.95538000  0.66499000  0.38065000  1.0
  C  C58  1  0.45538000  0.66499000  0.11935000  1.0
  C  C59  1  0.04462000  0.33501000  0.61935000  1.0
  C  C60  1  0.65051000  0.26083000  0.81421000  1.0
  C  C61  1  0.84949000  0.73917000  0.31421000  1.0
  C  C62  1  0.34949000  0.73917000  0.18579000  1.0
  C  C63  1  0.15051000  0.26083000  0.68579000  1.0
  S  S64  1  0.51262000  0.13194000  0.11548000  1.0
  S  S65  1  0.98738000  0.86806000  0.61548000  1.0
  S  S66  1  0.48738000  0.86805000  0.88452000  1.0
  S  S67  1  0.01262000  0.13195000  0.38452000  1.0
  S  S68  1  0.75444000  0.32537000  0.04637000  1.0
  S  S69  1  0.74556000  0.67463000  0.54637000  1.0
  S  S70  1  0.24556000  0.67463000  0.95363000  1.0
  S  S71  1  0.25444000  0.32537000  0.45363000  1.0
  I  I72  1  0.06969000  0.43412000  0.20173000  1.0
  I  I73  1  0.43031000  0.56588000  0.70173000  1.0
  I  I74  1  0.93031000  0.56588000  0.79826000  1.0
  I  I75  1  0.56969000  0.43412000  0.29826000  1.0
  I  I76  1  0.04399000  0.03000000  0.14972000  1.0
  I  I77  1  0.45601000  0.97000000  0.64972000  1.0
  I  I78  1  0.95601000  0.96999000  0.85028000  1.0
  I  I79  1  0.54399000  0.03001000  0.35028000  1.0
  N  N80  1  0.48601000  0.25260000  0.95539000  1.0
  N  N81  1  0.01399000  0.74739000  0.45539000  1.0
  N  N82  1  0.51399000  0.74739000  0.04461000  1.0
  N  N83  1  0.98601000  0.25261000  0.54461000  1.0
