# generated using pymatgen
data_AgH14C15S9N2(OF)3
_symmetry_space_group_name_H-M   'P 1'
_cell_length_a   7.51092000
_cell_length_b   8.04203000
_cell_length_c   10.96010000
_cell_angle_alpha   94.39690000
_cell_angle_beta   93.46490000
_cell_angle_gamma   110.27000000
_symmetry_Int_Tables_number   1
_chemical_formula_structural   AgH14C15S9N2(OF)3
_chemical_formula_sum   'Ag1 H14 C15 S9 N2 O3 F3'
_cell_volume   616.51249725
_cell_formula_units_Z   1
loop_
 _symmetry_equiv_pos_site_id
 _symmetry_equiv_pos_as_xyz
  1  'x, y, z'
loop_
 _atom_site_type_symbol
 _atom_site_label
 _atom_site_symmetry_multiplicity
 _atom_site_fract_x
 _atom_site_fract_y
 _atom_site_fract_z
 _atom_site_occupancy
  Ag  Ag0  1  0.35491000  0.75516000  0.15013000  1.0
  H  H1  1  0.88919000  0.81817000  0.35291000  1.0
  H  H2  1  0.90905000  0.68769000  0.21487000  1.0
  H  H3  1  0.00336000  0.92549000  0.22732000  1.0
  H  H4  1  0.47438000  0.26438000  0.29963000  1.0
  H  H5  1  0.58011000  0.40806000  0.18635000  1.0
  H  H6  1  0.32630000  0.31918000  0.18429000  1.0
  H  H7  1  0.13688000  0.19198000  0.79450000  1.0
  H  H8  1  0.34291000  0.32179000  0.72976000  1.0
  H  H9  1  0.42149000  0.33949000  0.95296000  1.0
  H  H10  1  0.55020000  0.22065000  0.87626000  1.0
  H  H11  1  0.81009000  0.71511000  0.67432000  1.0
  H  H12  1  0.66319000  0.55602000  0.76114000  1.0
  H  H13  1  0.84267000  0.96000000  0.84719000  1.0
  H  H14  1  0.93985000  0.79660000  0.88983000  1.0
  C  C15  1  0.97677000  0.80870000  0.27813000  1.0
  C  C16  1  0.46035000  0.36696000  0.24339000  1.0
  C  C17  1  0.16074000  0.62292000  0.40809000  1.0
  C  C18  1  0.26513000  0.51371000  0.40288000  1.0
  C  C19  1  0.96625000  0.34577000  0.51060000  1.0
  C  C20  1  0.81116000  0.21662000  0.54451000  1.0
  C  C21  1  0.48641000  0.05313000  0.63035000  1.0
  C  C22  1  0.58211000  0.93661000  0.63196000  1.0
  C  C23  1  0.28236000  0.20160000  0.77672000  1.0
  C  C24  1  0.40623000  0.21551000  0.89597000  1.0
  C  C25  1  0.32516000  0.06672000  0.96699000  1.0
  C  C26  1  0.70864000  0.69689000  0.74447000  1.0
  C  C27  1  0.80705000  0.81840000  0.86175000  1.0
  C  C28  1  0.68808000  0.78206000  0.96244000  1.0
  C  C29  1  0.88416000  0.24643000  0.10778000  1.0
  S  S30  1  0.21165000  0.82198000  0.33982000  1.0
  S  S31  1  0.48101000  0.56805000  0.33907000  1.0
  S  S32  1  0.96468000  0.56136000  0.49543000  1.0
  S  S33  1  0.18235000  0.31992000  0.47876000  1.0
  S  S34  1  0.59656000  0.25277000  0.56501000  1.0
  S  S35  1  0.80160000  0.00030000  0.56736000  1.0
  S  S36  1  0.25542000  0.00597000  0.67182000  1.0
  S  S37  1  0.49221000  0.72569000  0.68249000  1.0
  S  S38  1  0.95676000  0.38950000  0.98064000  1.0
  N  N39  1  0.25879000  0.94728000  0.02394000  1.0
  N  N40  1  0.58987000  0.75146000  0.04194000  1.0
  O  O41  1  0.16432000  0.46666000  0.00680000  1.0
  O  O42  1  0.85525000  0.51302000  0.99838000  1.0
  O  O43  1  0.89019000  0.26202000  0.87075000  1.0
  F  F44  1  0.92176000  0.34505000  0.21860000  1.0
  F  F45  1  0.69457000  0.14925000  0.09403000  1.0
  F  F46  1  0.98002000  0.13028000  0.11130000  1.0
