# generated using pymatgen
data_ZnH20C20(NO3)2
_symmetry_space_group_name_H-M   'P 1'
_cell_length_a   7.21947000
_cell_length_b   11.28410000
_cell_length_c   11.37120000
_cell_angle_alpha   90.41170000
_cell_angle_beta   96.69160000
_cell_angle_gamma   106.00200000
_symmetry_Int_Tables_number   1
_chemical_formula_structural   ZnH20C20(NO3)2
_chemical_formula_sum   'Zn2 H40 C40 N4 O12'
_cell_volume   883.64689822
_cell_formula_units_Z   2
loop_
 _symmetry_equiv_pos_site_id
 _symmetry_equiv_pos_as_xyz
  1  'x, y, z'
loop_
 _atom_site_type_symbol
 _atom_site_label
 _atom_site_symmetry_multiplicity
 _atom_site_fract_x
 _atom_site_fract_y
 _atom_site_fract_z
 _atom_site_occupancy
  Zn  Zn0  1  0.75457000  0.25030000  0.32172000  1.0
  Zn  Zn1  1  0.24544000  0.74970000  0.67828000  1.0
  H  H2  1  0.00530000  0.85908000  0.39313000  1.0
  H  H3  1  0.99470000  0.14092000  0.60687000  1.0
  H  H4  1  0.76385000  0.84977000  0.41289000  1.0
  H  H5  1  0.23615000  0.15022000  0.58711000  1.0
  H  H6  1  0.93909000  0.97348000  0.13712000  1.0
  H  H7  1  0.06091000  0.02652000  0.86288000  1.0
  H  H8  1  0.83900000  0.86672000  0.93811000  1.0
  H  H9  1  0.16101000  0.13327000  0.06189000  1.0
  H  H10  1  0.65928000  0.64467000  0.92158000  1.0
  H  H11  1  0.34071000  0.35532000  0.07842000  1.0
  H  H12  1  0.56951000  0.53272000  0.10286000  1.0
  H  H13  1  0.43048000  0.46729000  0.89714000  1.0
  H  H14  1  0.51106000  0.63949000  0.35879000  1.0
  H  H15  1  0.48895000  0.36051000  0.64120000  1.0
  H  H16  1  0.75607000  0.64693000  0.40748000  1.0
  H  H17  1  0.24394000  0.35307000  0.59252000  1.0
  H  H18  1  0.51624000  0.08850000  0.50008000  1.0
  H  H19  1  0.48375000  0.91150000  0.49992000  1.0
  H  H20  1  0.51704000  0.07370000  0.71627000  1.0
  H  H21  1  0.48296000  0.92630000  0.28373000  1.0
  H  H22  1  0.96466000  0.42428000  0.75120000  1.0
  H  H23  1  0.03534000  0.57572000  0.24880000  1.0
  H  H24  1  0.94795000  0.41913000  0.53466000  1.0
  H  H25  1  0.05205000  0.58087000  0.46534000  1.0
  H  H26  1  0.66414000  0.04843000  0.89910000  1.0
  H  H27  1  0.33586000  0.95157000  0.10090000  1.0
  H  H28  1  0.67697000  0.05925000  0.11903000  1.0
  H  H29  1  0.32303000  0.94076000  0.88098000  1.0
  H  H30  1  0.84221000  0.43986000  0.13144000  1.0
  H  H31  1  0.15779000  0.56015000  0.86856000  1.0
  H  H32  1  0.83040000  0.44739000  0.91224000  1.0
  H  H33  1  0.16960000  0.55261000  0.08776000  1.0
  H  H34  1  0.33174000  0.13120000  0.31390000  1.0
  H  H35  1  0.66826000  0.86879000  0.68610000  1.0
  H  H36  1  0.41542000  0.26671000  0.27175000  1.0
  H  H37  1  0.58457000  0.73329000  0.72825000  1.0
  H  H38  1  0.17501000  0.36926000  0.33262000  1.0
  H  H39  1  0.82500000  0.63074000  0.66738000  1.0
  H  H40  1  0.09462000  0.23094000  0.37077000  1.0
  H  H41  1  0.90538000  0.76905000  0.62923000  1.0
  C  C42  1  0.91680000  0.02121000  0.34912000  1.0
  C  C43  1  0.08320000  0.97879000  0.65088000  1.0
  C  C44  1  0.87397000  0.88141000  0.35266000  1.0
  C  C45  1  0.12603000  0.11859000  0.64734000  1.0
  C  C46  1  0.80676000  0.81499000  0.23295000  1.0
  C  C47  1  0.19324000  0.18502000  0.76705000  1.0
  C  C48  1  0.85537000  0.87660000  0.12957000  1.0
  C  C49  1  0.14463000  0.12340000  0.87043000  1.0
  C  C50  1  0.80189000  0.81701000  0.01784000  1.0
  C  C51  1  0.19811000  0.18299000  0.98216000  1.0
  C  C52  1  0.70078000  0.69228000  0.00848000  1.0
  C  C53  1  0.29922000  0.30772000  0.99152000  1.0
  C  C54  1  0.65160000  0.62981000  0.11081000  1.0
  C  C55  1  0.34840000  0.37020000  0.88919000  1.0
  C  C56  1  0.70114000  0.68884000  0.22350000  1.0
  C  C57  1  0.29886000  0.31116000  0.77651000  1.0
  C  C58  1  0.64071000  0.61843000  0.33250000  1.0
  C  C59  1  0.35929000  0.38157000  0.66750000  1.0
  C  C60  1  0.59688000  0.47934000  0.31215000  1.0
  C  C61  1  0.40313000  0.52066000  0.68785000  1.0
  C  C62  1  0.61603000  0.15960000  0.55984000  1.0
  C  C63  1  0.38397000  0.84040000  0.44016000  1.0
  C  C64  1  0.61867000  0.15217000  0.68204000  1.0
  C  C65  1  0.38133000  0.84783000  0.31796000  1.0
  C  C66  1  0.74315000  0.24849000  0.75579000  1.0
  C  C67  1  0.25684000  0.75151000  0.24420000  1.0
  C  C68  1  0.86061000  0.34728000  0.70085000  1.0
  C  C69  1  0.13939000  0.65272000  0.29915000  1.0
  C  C70  1  0.85279000  0.34560000  0.57835000  1.0
  C  C71  1  0.14720000  0.65439000  0.42165000  1.0
  C  C72  1  0.74881000  0.24793000  0.88582000  1.0
  C  C73  1  0.25119000  0.75207000  0.11418000  1.0
  C  C74  1  0.70263000  0.13786000  0.94638000  1.0
  C  C75  1  0.29737000  0.86215000  0.05362000  1.0
  C  C76  1  0.71108000  0.14287000  0.06909000  1.0
  C  C77  1  0.28893000  0.85714000  0.93091000  1.0
  C  C78  1  0.80700000  0.35545000  0.07631000  1.0
  C  C79  1  0.19299000  0.64456000  0.92369000  1.0
  C  C80  1  0.80086000  0.35872000  0.95402000  1.0
  C  C81  1  0.19914000  0.64128000  0.04598000  1.0
  N  N82  1  0.73234000  0.25329000  0.50797000  1.0
  N  N83  1  0.26766000  0.74671000  0.49204000  1.0
  N  N84  1  0.76371000  0.24964000  0.13389000  1.0
  N  N85  1  0.23629000  0.75037000  0.86611000  1.0
  O  O86  1  0.77039000  0.06441000  0.33012000  1.0
  O  O87  1  0.22961000  0.93559000  0.66988000  1.0
  O  O88  1  0.09264000  0.08681000  0.36604000  1.0
  O  O89  1  0.90736000  0.91319000  0.63397000  1.0
  O  O90  1  0.42188000  0.41496000  0.28375000  1.0
  O  O91  1  0.57813000  0.58504000  0.71625000  1.0
  O  O92  1  0.74383000  0.43636000  0.32198000  1.0
  O  O93  1  0.25618000  0.56364000  0.67802000  1.0
  O  O94  1  0.43631000  0.18189000  0.27214000  1.0
  O  O95  1  0.56369000  0.81810000  0.72786000  1.0
  O  O96  1  0.06980000  0.31493000  0.37127000  1.0
  O  O97  1  0.93021000  0.68507000  0.62872000  1.0
