# generated using pymatgen
data_CsUH15C10O11
_symmetry_space_group_name_H-M   'P 1'
_cell_length_a   8.28267000
_cell_length_b   10.38040000
_cell_length_c   10.68150000
_cell_angle_alpha   68.18450000
_cell_angle_beta   71.02530000
_cell_angle_gamma   79.99160000
_symmetry_Int_Tables_number   1
_chemical_formula_structural   CsUH15C10O11
_chemical_formula_sum   'Cs2 U2 H30 C20 O22'
_cell_volume   804.80262688
_cell_formula_units_Z   2
loop_
 _symmetry_equiv_pos_site_id
 _symmetry_equiv_pos_as_xyz
  1  'x, y, z'
loop_
 _atom_site_type_symbol
 _atom_site_label
 _atom_site_symmetry_multiplicity
 _atom_site_fract_x
 _atom_site_fract_y
 _atom_site_fract_z
 _atom_site_occupancy
  Cs  Cs0  1  0.34617000  0.53371000  0.20691000  1.0
  Cs  Cs1  1  0.65383000  0.46629000  0.79309000  1.0
  U  U2  1  0.82079000  0.34513000  0.38973000  1.0
  U  U3  1  0.17921000  0.65487000  0.61027000  1.0
  H  H4  1  0.89742000  0.14643000  0.71523000  1.0
  H  H5  1  0.10258000  0.85357000  0.28477000  1.0
  H  H6  1  0.36124000  0.80637000  0.91699000  1.0
  H  H7  1  0.63876000  0.19363000  0.08301000  1.0
  H  H8  1  0.32119000  0.73437000  0.82752000  1.0
  H  H9  1  0.67881000  0.26563000  0.17248000  1.0
  H  H10  1  0.21854000  0.28804000  0.63274000  1.0
  H  H11  1  0.78146000  0.71196000  0.36726000  1.0
  H  H12  1  0.31383000  0.17902000  0.76847000  1.0
  H  H13  1  0.68617000  0.82098000  0.23154000  1.0
  H  H14  1  0.39658000  0.99640000  0.65807000  1.0
  H  H15  1  0.60342000  0.00359000  0.34193000  1.0
  H  H16  1  0.17519000  0.02767000  0.71668000  1.0
  H  H17  1  0.82481000  0.97232000  0.28332000  1.0
  H  H18  1  0.38955000  0.14954000  0.40652000  1.0
  H  H19  1  0.61045000  0.85046000  0.59348000  1.0
  H  H20  1  0.27449000  0.99733000  0.47942000  1.0
  H  H21  1  0.72551000  0.00267000  0.52058000  1.0
  H  H22  1  0.99924000  0.70537000  0.93493000  1.0
  H  H23  1  0.00076000  0.29462000  0.06507000  1.0
  H  H24  1  0.93415000  0.79099000  0.05887000  1.0
  H  H25  1  0.06584000  0.20901000  0.94113000  1.0
  H  H26  1  0.62359000  0.79563000  0.05796000  1.0
  H  H27  1  0.37641000  0.20437000  0.94203000  1.0
  H  H28  1  0.69800000  0.71626000  0.92719000  1.0
  H  H29  1  0.30200000  0.28374000  0.07281000  1.0
  H  H30  1  0.88172000  0.92303000  0.77041000  1.0
  H  H31  1  0.11828000  0.07697000  0.22959000  1.0
  H  H32  1  0.65919000  0.95856000  0.80435000  1.0
  H  H33  1  0.34081000  0.04144000  0.19565000  1.0
  C  C34  1  0.48983000  0.26159000  0.56908000  1.0
  C  C35  1  0.51017000  0.73841000  0.43092000  1.0
  C  C36  1  0.31822000  0.20631000  0.65805000  1.0
  C  C37  1  0.68178000  0.79368000  0.34195000  1.0
  C  C38  1  0.29148000  0.07373000  0.63708000  1.0
  C  C39  1  0.70852000  0.92627000  0.36292000  1.0
  C  C40  1  0.27890000  0.09806000  0.49030000  1.0
  C  C41  1  0.72110000  0.90194000  0.50970000  1.0
  C  C42  1  0.12088000  0.18244000  0.46022000  1.0
  C  C43  1  0.87912000  0.81756000  0.53979000  1.0
  C  C44  1  0.86474000  0.58500000  0.14005000  1.0
  C  C45  1  0.13526000  0.41500000  0.85994000  1.0
  C  C46  1  0.89055000  0.72130000  0.02099000  1.0
  C  C47  1  0.10944000  0.27870000  0.97901000  1.0
  C  C48  1  0.73317000  0.78509000  0.96990000  1.0
  C  C49  1  0.26683000  0.21491000  0.03010000  1.0
  C  C50  1  0.76362000  0.92681000  0.85463000  1.0
  C  C51  1  0.23638000  0.07319000  0.14537000  1.0
  C  C52  1  0.76611000  0.04336000  0.90615000  1.0
  C  C53  1  0.23389000  0.95664000  0.09385000  1.0
  O  O54  1  0.81011000  0.23156000  0.29711000  1.0
  O  O55  1  0.18990000  0.76844000  0.70289000  1.0
  O  O56  1  0.83473000  0.45646000  0.48179000  1.0
  O  O57  1  0.16527000  0.54354000  0.51821000  1.0
  O  O58  1  0.50735000  0.36343000  0.45285000  1.0
  O  O59  1  0.49265000  0.63657000  0.54715000  1.0
  O  O60  1  0.62500000  0.20303000  0.60620000  1.0
  O  O61  1  0.37500000  0.79697000  0.39381000  1.0
  O  O62  1  0.12949000  0.27974000  0.34269000  1.0
  O  O63  1  0.87051000  0.72026000  0.65731000  1.0
  O  O64  1  0.97186000  0.15678000  0.54949000  1.0
  O  O65  1  0.02814000  0.84322000  0.45051000  1.0
  O  O66  1  0.71475000  0.54436000  0.21487000  1.0
  O  O67  1  0.28525000  0.45564000  0.78513000  1.0
  O  O68  1  0.99418000  0.50800000  0.17239000  1.0
  O  O69  1  0.00583000  0.49200000  0.82761000  1.0
  O  O70  1  0.69354000  0.04175000  0.02743000  1.0
  O  O71  1  0.30645000  0.95825000  0.97257000  1.0
  O  O72  1  0.84842000  0.15583000  0.81135000  1.0
  O  O73  1  0.15158000  0.84417000  0.18865000  1.0
  O  O74  1  0.39397000  0.72319000  0.88781000  1.0
  O  O75  1  0.60603000  0.27681000  0.11219000  1.0
