# generated using pymatgen
data_Co2H26C28N4O9
_symmetry_space_group_name_H-M   'P 1'
_cell_length_a   11.05840000
_cell_length_b   11.05840000
_cell_length_c   14.75690000
_cell_angle_alpha   110.34300000
_cell_angle_beta   110.34200000
_cell_angle_gamma   93.38510000
_symmetry_Int_Tables_number   1
_chemical_formula_structural   Co2H26C28N4O9
_chemical_formula_sum   'Co4 H52 C56 N8 O18'
_cell_volume   1552.94507615
_cell_formula_units_Z   2
loop_
 _symmetry_equiv_pos_site_id
 _symmetry_equiv_pos_as_xyz
  1  'x, y, z'
loop_
 _atom_site_type_symbol
 _atom_site_label
 _atom_site_symmetry_multiplicity
 _atom_site_fract_x
 _atom_site_fract_y
 _atom_site_fract_z
 _atom_site_occupancy
  Co  Co0  1  0.97123000  0.21510000  0.20846000  1.0
  Co  Co1  1  0.78493000  0.02878000  0.29154000  1.0
  Co  Co2  1  0.02880000  0.78492000  0.79153000  1.0
  Co  Co3  1  0.21507000  0.97120000  0.70847000  1.0
  H  H4  1  0.73104000  0.18981000  0.18357000  1.0
  H  H5  1  0.81020000  0.26898000  0.31642000  1.0
  H  H6  1  0.26896000  0.81023000  0.81642000  1.0
  H  H7  1  0.18980000  0.73105000  0.68358000  1.0
  H  H8  1  0.07560000  0.44576000  0.41626000  1.0
  H  H9  1  0.55422000  0.92442000  0.08373000  1.0
  H  H10  1  0.92441000  0.55425000  0.58373000  1.0
  H  H11  1  0.44573000  0.07558000  0.91627000  1.0
  H  H12  1  0.93768000  0.42039000  0.11017000  1.0
  H  H13  1  0.57963000  0.06231000  0.38982000  1.0
  H  H14  1  0.06231000  0.57962000  0.88982000  1.0
  H  H15  1  0.42034000  0.93768000  0.61017000  1.0
  H  H16  1  0.10877000  0.80368000  0.36493000  1.0
  H  H17  1  0.19632000  0.89121000  0.13508000  1.0
  H  H18  1  0.89123000  0.19632000  0.63507000  1.0
  H  H19  1  0.80364000  0.10878000  0.86492000  1.0
  H  H20  1  0.06881000  0.68006000  0.11584000  1.0
  H  H21  1  0.31999000  0.93117000  0.38418000  1.0
  H  H22  1  0.93119000  0.31995000  0.88416000  1.0
  H  H23  1  0.68001000  0.06883000  0.61583000  1.0
  H  H24  1  0.99081000  0.78954000  0.18595000  1.0
  H  H25  1  0.21049000  0.00919000  0.31408000  1.0
  H  H26  1  0.00920000  0.21046000  0.81405000  1.0
  H  H27  1  0.78949000  0.99081000  0.68593000  1.0
  H  H28  1  0.89750000  0.63680000  0.08206000  1.0
  H  H29  1  0.36325000  0.10249000  0.41796000  1.0
  H  H30  1  0.10252000  0.36321000  0.91795000  1.0
  H  H31  1  0.63675000  0.89750000  0.58204000  1.0
  H  H32  1  0.11842000  0.00032000  0.50653000  1.0
  H  H33  1  0.99967000  0.88157000  0.99348000  1.0
  H  H34  1  0.88158000  0.99967000  0.49348000  1.0
  H  H35  1  0.00034000  0.11843000  0.00652000  1.0
  H  H36  1  0.31192000  0.26863000  0.81320000  1.0
  H  H37  1  0.73135000  0.68809000  0.68679000  1.0
  H  H38  1  0.68808000  0.73136000  0.18681000  1.0
  H  H39  1  0.26865000  0.31192000  0.31321000  1.0
  H  H40  1  0.19684000  0.41364000  0.56512000  1.0
  H  H41  1  0.58635000  0.80317000  0.93489000  1.0
  H  H42  1  0.80317000  0.58634000  0.43489000  1.0
  H  H43  1  0.41364000  0.19683000  0.06511000  1.0
  H  H44  1  0.28606000  0.50925000  0.84853000  1.0
  H  H45  1  0.49075000  0.71395000  0.65148000  1.0
  H  H46  1  0.71393000  0.49077000  0.15148000  1.0
  H  H47  1  0.50924000  0.28606000  0.34851000  1.0
  H  H48  1  0.27600000  0.56993000  0.75024000  1.0
  H  H49  1  0.43007000  0.72402000  0.74977000  1.0
  H  H50  1  0.72399000  0.43006000  0.24976000  1.0
  H  H51  1  0.56992000  0.27600000  0.25022000  1.0
  H  H52  1  0.42279000  0.52458000  0.81457000  1.0
  H  H53  1  0.47541000  0.57722000  0.68544000  1.0
  H  H54  1  0.57720000  0.47543000  0.18543000  1.0
  H  H55  1  0.52457000  0.42279000  0.31456000  1.0
  C  C56  1  0.10366000  0.63387000  0.40471000  1.0
  C  C57  1  0.36614000  0.89634000  0.09530000  1.0
  C  C58  1  0.89636000  0.36617000  0.59533000  1.0
  C  C59  1  0.63384000  0.10366000  0.90469000  1.0
  C  C60  1  0.06246000  0.49735000  0.36406000  1.0
  C  C61  1  0.50266000  0.93756000  0.13594000  1.0
  C  C62  1  0.93758000  0.50269000  0.63596000  1.0
  C  C63  1  0.49732000  0.06244000  0.86406000  1.0
  C  C64  1  0.98550000  0.48484000  0.19346000  1.0
  C  C65  1  0.51517000  0.01450000  0.30654000  1.0
  C  C66  1  0.01452000  0.51517000  0.80654000  1.0
  C  C67  1  0.48480000  0.98547000  0.69346000  1.0
  C  C68  1  0.02037000  0.62161000  0.22652000  1.0
  C  C69  1  0.37841000  0.97963000  0.27349000  1.0
  C  C70  1  0.97965000  0.37840000  0.77349000  1.0
  C  C71  1  0.62156000  0.02037000  0.72650000  1.0
  C  C72  1  0.08136000  0.69660000  0.33481000  1.0
  C  C73  1  0.30340000  0.91864000  0.16521000  1.0
  C  C74  1  0.91866000  0.30340000  0.66522000  1.0
  C  C75  1  0.69657000  0.08135000  0.83479000  1.0
  C  C76  1  0.16416000  0.70721000  0.52198000  1.0
  C  C77  1  0.29282000  0.83584000  0.97803000  1.0
  C  C78  1  0.83582000  0.29281000  0.47807000  1.0
  C  C79  1  0.70718000  0.16418000  0.02195000  1.0
  C  C80  1  0.99269000  0.68528000  0.14850000  1.0
  C  C81  1  0.31476000  0.00729000  0.35152000  1.0
  C  C82  1  0.00732000  0.31473000  0.85150000  1.0
  C  C83  1  0.68522000  0.99270000  0.64849000  1.0
  C  C84  1  0.15067000  0.20237000  0.52059000  1.0
  C  C85  1  0.79762000  0.84935000  0.97940000  1.0
  C  C86  1  0.84939000  0.79763000  0.47944000  1.0
  C  C87  1  0.20237000  0.15063000  0.02056000  1.0
  C  C88  1  0.16012000  0.10301000  0.55914000  1.0
  C  C89  1  0.89698000  0.83986000  0.94085000  1.0
  C  C90  1  0.83988000  0.89698000  0.44086000  1.0
  C  C91  1  0.10303000  0.16013000  0.05912000  1.0
  C  C92  1  0.26892000  0.25370000  0.73041000  1.0
  C  C93  1  0.74627000  0.73108000  0.76958000  1.0
  C  C94  1  0.73107000  0.74627000  0.26960000  1.0
  C  C95  1  0.25372000  0.26892000  0.23041000  1.0
  C  C96  1  0.26307000  0.36037000  0.69994000  1.0
  C  C97  1  0.63960000  0.73692000  0.80005000  1.0
  C  C98  1  0.73691000  0.63961000  0.30007000  1.0
  C  C99  1  0.36039000  0.26308000  0.19993000  1.0
  C  C100  1  0.20484000  0.33311000  0.59218000  1.0
  C  C101  1  0.66689000  0.79515000  0.90782000  1.0
  C  C102  1  0.79515000  0.66689000  0.40784000  1.0
  C  C103  1  0.33310000  0.20483000  0.09216000  1.0
  C  C104  1  0.07255000  0.16326000  0.40494000  1.0
  C  C105  1  0.83671000  0.92745000  0.09504000  1.0
  C  C106  1  0.92753000  0.83672000  0.59507000  1.0
  C  C107  1  0.16329000  0.07249000  0.90491000  1.0
  C  C108  1  0.31461000  0.49825000  0.78233000  1.0
  C  C109  1  0.50173000  0.68540000  0.71767000  1.0
  C  C110  1  0.68538000  0.50174000  0.21767000  1.0
  C  C111  1  0.49826000  0.31461000  0.28232000  1.0
  N  N112  1  0.00561000  0.42341000  0.26041000  1.0
  N  N113  1  0.57661000  0.99442000  0.23959000  1.0
  N  N114  1  0.99444000  0.57663000  0.73961000  1.0
  N  N115  1  0.42337000  0.00556000  0.76041000  1.0
  N  N116  1  0.21953000  0.12780000  0.66184000  1.0
  N  N117  1  0.87220000  0.78044000  0.83815000  1.0
  N  N118  1  0.78045000  0.87219000  0.33816000  1.0
  N  N119  1  0.12782000  0.21954000  0.16183000  1.0
  O  O120  1  0.17294000  0.63867000  0.57688000  1.0
  O  O121  1  0.36133000  0.82707000  0.92310000  1.0
  O  O122  1  0.82704000  0.36133000  0.42315000  1.0
  O  O123  1  0.63865000  0.17295000  0.07686000  1.0
  O  O124  1  0.19988000  0.83227000  0.55795000  1.0
  O  O125  1  0.16775000  0.80009000  0.94206000  1.0
  O  O126  1  0.80008000  0.16775000  0.44211000  1.0
  O  O127  1  0.83224000  0.19993000  0.05791000  1.0
  O  O128  1  0.09620000  0.23828000  0.36155000  1.0
  O  O129  1  0.76172000  0.90377000  0.13843000  1.0
  O  O130  1  0.90386000  0.76173000  0.63846000  1.0
  O  O131  1  0.23830000  0.09615000  0.86153000  1.0
  O  O132  1  0.98690000  0.05641000  0.35932000  1.0
  O  O133  1  0.94354000  0.01313000  0.14066000  1.0
  O  O134  1  0.01319000  0.94356000  0.64070000  1.0
  O  O135  1  0.05645000  0.98683000  0.85929000  1.0
  O  O136  1  0.80737000  0.19269000  0.25000000  1.0
  O  O137  1  0.19266000  0.80738000  0.75000000  1.0
