# generated using pymatgen
data_ZnH12(C2N)10
_symmetry_space_group_name_H-M   'P 1'
_cell_length_a   7.52833000
_cell_length_b   9.58645000
_cell_length_c   14.43630000
_cell_angle_alpha   78.93000000
_cell_angle_beta   89.98510000
_cell_angle_gamma   66.88900000
_symmetry_Int_Tables_number   1
_chemical_formula_structural   ZnH12(C2N)10
_chemical_formula_sum   'Zn2 H24 C40 N20'
_cell_volume   937.16227998
_cell_formula_units_Z   2
loop_
 _symmetry_equiv_pos_site_id
 _symmetry_equiv_pos_as_xyz
  1  'x, y, z'
loop_
 _atom_site_type_symbol
 _atom_site_label
 _atom_site_symmetry_multiplicity
 _atom_site_fract_x
 _atom_site_fract_y
 _atom_site_fract_z
 _atom_site_occupancy
  Zn  Zn0  1  0.61543000  0.00014000  0.74996000  1.0
  Zn  Zn1  1  0.38457000  0.99986000  0.25004000  1.0
  H  H2  1  0.82134000  0.65555000  0.49625000  1.0
  H  H3  1  0.47662000  0.34448000  0.00382000  1.0
  H  H4  1  0.17866000  0.34445000  0.50375000  1.0
  H  H5  1  0.52339000  0.65552000  0.99618000  1.0
  H  H6  1  0.68283000  0.89198000  0.56826000  1.0
  H  H7  1  0.57507000  0.10814000  0.93169000  1.0
  H  H8  1  0.31717000  0.10802000  0.43174000  1.0
  H  H9  1  0.42494000  0.89186000  0.06831000  1.0
  H  H10  1  0.75502000  0.70321000  0.89314000  1.0
  H  H11  1  0.45804000  0.29716000  0.60687000  1.0
  H  H12  1  0.24498000  0.29680000  0.10686000  1.0
  H  H13  1  0.54196000  0.70283000  0.39313000  1.0
  H  H14  1  0.99945000  0.20632000  0.92243000  1.0
  H  H15  1  0.20540000  0.79402000  0.57774000  1.0
  H  H16  1  0.00055000  0.79368000  0.07757000  1.0
  H  H17  1  0.79460000  0.20598000  0.42226000  1.0
  H  H18  1  0.87329000  0.43749000  0.99465000  1.0
  H  H19  1  0.31032000  0.56293000  0.50546000  1.0
  H  H20  1  0.12671000  0.56251000  0.00536000  1.0
  H  H21  1  0.68968000  0.43707000  0.49453000  1.0
  H  H22  1  0.00355000  0.23781000  0.74641000  1.0
  H  H23  1  0.24127000  0.76238000  0.75374000  1.0
  H  H24  1  0.99645000  0.76219000  0.25359000  1.0
  H  H25  1  0.75874000  0.23762000  0.24626000  1.0
  C  C26  1  0.80720000  0.62129000  0.76255000  1.0
  C  C27  1  0.42839000  0.37894000  0.73749000  1.0
  C  C28  1  0.19280000  0.37871000  0.23745000  1.0
  C  C29  1  0.57161000  0.62105000  0.26252000  1.0
  C  C30  1  0.99927000  0.92390000  0.88151000  1.0
  C  C31  1  0.92301000  0.07635000  0.61835000  1.0
  C  C32  1  0.00073000  0.07611000  0.11849000  1.0
  C  C33  1  0.07698000  0.92365000  0.38164000  1.0
  C  C34  1  0.81574000  0.64294000  0.57287000  1.0
  C  C35  1  0.45873000  0.35713000  0.92717000  1.0
  C  C36  1  0.18424000  0.35706000  0.42713000  1.0
  C  C37  1  0.54128000  0.64286000  0.07283000  1.0
  C  C38  1  0.30232000  0.92860000  0.88081000  1.0
  C  C39  1  0.23084000  0.07154000  0.61920000  1.0
  C  C40  1  0.69767000  0.07140000  0.11920000  1.0
  C  C41  1  0.76916000  0.92846000  0.38081000  1.0
  C  C42  1  0.87940000  0.48718000  0.72052000  1.0
  C  C43  1  0.36657000  0.51300000  0.77959000  1.0
  C  C44  1  0.12060000  0.51282000  0.27948000  1.0
  C  C45  1  0.63343000  0.48699000  0.22041000  1.0
  C  C46  1  0.74013000  0.77605000  0.61312000  1.0
  C  C47  1  0.51623000  0.22412000  0.88687000  1.0
  C  C48  1  0.25987000  0.22396000  0.38688000  1.0
  C  C49  1  0.48378000  0.77588000  0.11313000  1.0
  C  C50  1  0.80858000  0.60081000  0.86232000  1.0
  C  C51  1  0.40934000  0.39953000  0.63771000  1.0
  C  C52  1  0.19142000  0.39920000  0.13768000  1.0
  C  C53  1  0.59066000  0.60046000  0.36229000  1.0
  C  C54  1  0.94712000  0.32124000  0.87677000  1.0
  C  C55  1  0.26820000  0.67907000  0.62338000  1.0
  C  C56  1  0.05288000  0.67875000  0.12323000  1.0
  C  C57  1  0.73180000  0.32092000  0.37661000  1.0
  C  C58  1  0.87613000  0.45336000  0.91792000  1.0
  C  C59  1  0.32922000  0.54700000  0.58217000  1.0
  C  C60  1  0.12387000  0.54665000  0.08208000  1.0
  C  C61  1  0.67078000  0.45299000  0.41783000  1.0
  C  C62  1  0.94939000  0.33750000  0.77993000  1.0
  C  C63  1  0.28665000  0.66272000  0.72022000  1.0
  C  C64  1  0.05061000  0.66251000  0.22007000  1.0
  C  C65  1  0.71335000  0.33728000  0.27978000  1.0
  N  N66  1  0.73607000  0.76668000  0.70570000  1.0
  N  N67  1  0.50290000  0.23352000  0.79426000  1.0
  N  N68  1  0.26393000  0.23332000  0.29430000  1.0
  N  N69  1  0.49711000  0.76648000  0.20573000  1.0
  N  N70  1  0.15289000  0.92241000  0.92216000  1.0
  N  N71  1  0.07532000  0.07773000  0.57778000  1.0
  N  N72  1  0.84711000  0.07759000  0.07784000  1.0
  N  N73  1  0.92468000  0.92228000  0.42222000  1.0
  N  N74  1  0.44738000  0.93279000  0.85248000  1.0
  N  N75  1  0.37987000  0.06749000  0.64765000  1.0
  N  N76  1  0.55262000  0.06722000  0.14753000  1.0
  N  N77  1  0.62013000  0.93251000  0.35235000  1.0
  N  N78  1  0.85292000  0.92448000  0.85224000  1.0
  N  N79  1  0.77712000  0.07575000  0.64749000  1.0
  N  N80  1  0.14708000  0.07551000  0.14775000  1.0
  N  N81  1  0.22288000  0.92425000  0.35251000  1.0
  N  N82  1  0.88316000  0.50060000  0.62483000  1.0
  N  N83  1  0.38371000  0.49951000  0.87527000  1.0
  N  N84  1  0.11684000  0.49939000  0.37517000  1.0
  N  N85  1  0.61630000  0.50048000  0.12472000  1.0
