# generated using pymatgen
data_AlH6C21N(OF)6
_symmetry_space_group_name_H-M   'P 1'
_cell_length_a   4.13177000
_cell_length_b   13.51080000
_cell_length_c   13.51070000
_cell_angle_alpha   119.99926548
_cell_angle_beta   90.00000000
_cell_angle_gamma   89.99950000
_symmetry_Int_Tables_number   1
_chemical_formula_structural   AlH6C21N(OF)6
_chemical_formula_sum   'Al1 H6 C21 N1 O6 F6'
_cell_volume   653.17401648
_cell_formula_units_Z   1
loop_
 _symmetry_equiv_pos_site_id
 _symmetry_equiv_pos_as_xyz
  1  'x, y, z'
loop_
 _atom_site_type_symbol
 _atom_site_label
 _atom_site_symmetry_multiplicity
 _atom_site_fract_x
 _atom_site_fract_y
 _atom_site_fract_z
 _atom_site_occupancy
  Al  Al0  1  0.00001000  0.50000000  0.00001000  1.0
  H  H1  1  0.21677000  0.89901000  0.87147000  1.0
  H  H2  1  0.78323000  0.62854000  0.60099000  1.0
  H  H3  1  0.78323000  0.97245000  0.87146000  1.0
  H  H4  1  0.21677000  0.97245000  0.60099000  1.0
  H  H5  1  0.78326000  0.89900000  0.52755000  1.0
  H  H6  1  0.21673000  0.62855000  0.52755000  1.0
  C  C7  1  0.50002000  0.32611000  0.91306000  1.0
  C  C8  1  0.50000000  0.58694000  0.17389000  1.0
  C  C9  1  0.50000000  0.58694000  0.91306000  1.0
  C  C10  1  0.34736000  0.75674000  0.89074000  1.0
  C  C11  1  0.34167000  0.81744000  0.83302000  1.0
  C  C12  1  0.49999000  0.77271000  0.72729000  1.0
  C  C13  1  0.65833000  0.66698000  0.68256000  1.0
  C  C14  1  0.65264000  0.60926000  0.74326000  1.0
  C  C15  1  0.50000000  0.65115000  0.84884000  1.0
  C  C16  1  0.65832000  0.01558000  0.83302000  1.0
  C  C17  1  0.65263000  0.13399000  0.89074000  1.0
  C  C18  1  0.50000000  0.19768000  0.84884000  1.0
  C  C19  1  0.34735000  0.13399000  0.74325000  1.0
  C  C20  1  0.34166000  0.01558000  0.68256000  1.0
  C  C21  1  0.50000000  0.95458000  0.72729000  1.0
  C  C22  1  0.65835000  0.81744000  0.48442000  1.0
  C  C23  1  0.65264000  0.75674000  0.36600000  1.0
  C  C24  1  0.50001000  0.65116000  0.30232000  1.0
  C  C25  1  0.34737000  0.60927000  0.36601000  1.0
  C  C26  1  0.34165000  0.66699000  0.48443000  1.0
  C  C27  1  0.49999000  0.77271000  0.54542000  1.0
  N  N28  1  0.49999000  0.83333000  0.66666000  1.0
  O  O29  1  0.73663000  0.60515000  0.97985000  1.0
  O  O30  1  0.73663000  0.37470000  0.89486000  1.0
  O  O31  1  0.73664000  0.52015000  0.12531000  1.0
  O  O32  1  0.26339000  0.52015000  0.89486000  1.0
  O  O33  1  0.26337000  0.60515000  0.12530000  1.0
  O  O34  1  0.26338000  0.37470000  0.97986000  1.0
  F  F35  1  0.80637000  0.50695000  0.69791000  1.0
  F  F36  1  0.19362000  0.80208000  0.99305000  1.0
  F  F37  1  0.80637000  0.19095000  0.99304000  1.0
  F  F38  1  0.19362000  0.19096000  0.69791000  1.0
  F  F39  1  0.80641000  0.80208000  0.30904000  1.0
  F  F40  1  0.19361000  0.50696000  0.30905000  1.0
