# generated using pymatgen
data_Li2H8C6N2O7
_symmetry_space_group_name_H-M   'P 1'
_cell_length_a   6.61575000
_cell_length_b   11.75780000
_cell_length_c   12.11600000
_cell_angle_alpha   90.00000000
_cell_angle_beta   98.81120000
_cell_angle_gamma   90.00000000
_symmetry_Int_Tables_number   1
_chemical_formula_structural   Li2H8C6N2O7
_chemical_formula_sum   'Li8 H32 C24 N8 O28'
_cell_volume   931.34071731
_cell_formula_units_Z   4
loop_
 _symmetry_equiv_pos_site_id
 _symmetry_equiv_pos_as_xyz
  1  'x, y, z'
loop_
 _atom_site_type_symbol
 _atom_site_label
 _atom_site_symmetry_multiplicity
 _atom_site_fract_x
 _atom_site_fract_y
 _atom_site_fract_z
 _atom_site_occupancy
  Li  Li0  1  0.08258000  0.17364000  0.27071000  1.0
  Li  Li1  1  0.41742000  0.67364000  0.22929000  1.0
  Li  Li2  1  0.91742000  0.82636000  0.72929000  1.0
  Li  Li3  1  0.58259000  0.32636000  0.77071000  1.0
  Li  Li4  1  0.31941000  0.49021000  0.57959000  1.0
  Li  Li5  1  0.18059000  0.99021000  0.92041000  1.0
  Li  Li6  1  0.68059000  0.50979000  0.42041000  1.0
  Li  Li7  1  0.81941000  0.00979000  0.07959000  1.0
  H  H8  1  0.31969000  0.88643000  0.58010000  1.0
  H  H9  1  0.18031000  0.38644000  0.91989000  1.0
  H  H10  1  0.68031000  0.11356000  0.41990000  1.0
  H  H11  1  0.81969000  0.61356000  0.08011000  1.0
  H  H12  1  0.16894000  0.91821000  0.17585000  1.0
  H  H13  1  0.33106000  0.41821000  0.32415000  1.0
  H  H14  1  0.83106000  0.08179000  0.82415000  1.0
  H  H15  1  0.66894000  0.58179000  0.67586000  1.0
  H  H16  1  0.03826000  0.45438000  0.40489000  1.0
  H  H17  1  0.46174000  0.95438000  0.09511000  1.0
  H  H18  1  0.96174000  0.54562000  0.59511000  1.0
  H  H19  1  0.53826000  0.04562000  0.90489000  1.0
  H  H20  1  0.13313000  0.33623000  0.45665000  1.0
  H  H21  1  0.36687000  0.83623000  0.04335000  1.0
  H  H22  1  0.86687000  0.66377000  0.54335000  1.0
  H  H23  1  0.63313000  0.16377000  0.95665000  1.0
  H  H24  1  0.19230000  0.52071000  0.77684000  1.0
  H  H25  1  0.30770000  0.02071000  0.72316000  1.0
  H  H26  1  0.80770000  0.47929000  0.22316000  1.0
  H  H27  1  0.69230000  0.97929000  0.27684000  1.0
  H  H28  1  0.17869000  0.39759000  0.72427000  1.0
  H  H29  1  0.32131000  0.89759000  0.77573000  1.0
  H  H30  1  0.82131000  0.60242000  0.27573000  1.0
  H  H31  1  0.67870000  0.10242000  0.22427000  1.0
  H  H32  1  0.75839000  0.28626000  0.19855000  1.0
  H  H33  1  0.74161000  0.78626000  0.30145000  1.0
  H  H34  1  0.24161000  0.71374000  0.80145000  1.0
  H  H35  1  0.25839000  0.21374000  0.69855000  1.0
  H  H36  1  0.74133000  0.27082000  0.32807000  1.0
  H  H37  1  0.75867000  0.77082000  0.17194000  1.0
  H  H38  1  0.25867000  0.72918000  0.67194000  1.0
  H  H39  1  0.24133000  0.22918000  0.82806000  1.0
  C  C40  1  0.37891000  0.68447000  0.46372000  1.0
  C  C41  1  0.12109000  0.18447000  0.03628000  1.0
  C  C42  1  0.62109000  0.31553000  0.53628000  1.0
  C  C43  1  0.87891000  0.81553000  0.96372000  1.0
  C  C44  1  0.20807000  0.10772000  0.50064000  1.0
  C  C45  1  0.29193000  0.60772000  0.99935000  1.0
  C  C46  1  0.79192000  0.89228000  0.49936000  1.0
  C  C47  1  0.70807000  0.39228000  0.00065000  1.0
  C  C48  1  0.30691000  0.80094000  0.42034000  1.0
  C  C49  1  0.19309000  0.30094000  0.07966000  1.0
  C  C50  1  0.69309000  0.19906000  0.57966000  1.0
  C  C51  1  0.80691000  0.69906000  0.92034000  1.0
  C  C52  1  0.22633000  0.99672000  0.43786000  1.0
  C  C53  1  0.27367000  0.49672000  0.06213000  1.0
  C  C54  1  0.77367000  0.00328000  0.56213000  1.0
  C  C55  1  0.72633000  0.50328000  0.93787000  1.0
  C  C56  1  0.28631000  0.89368000  0.48978000  1.0
  C  C57  1  0.21369000  0.39368000  0.01022000  1.0
  C  C58  1  0.71369000  0.10632000  0.51022000  1.0
  C  C59  1  0.78631000  0.60632000  0.98978000  1.0
  C  C60  1  0.20289000  0.91131000  0.26642000  1.0
  C  C61  1  0.29711000  0.41131000  0.23358000  1.0
  C  C62  1  0.79711000  0.08869000  0.73358000  1.0
  C  C63  1  0.70289000  0.58869000  0.76642000  1.0
  N  N64  1  0.26872000  0.81017000  0.30836000  1.0
  N  N65  1  0.23128000  0.31017000  0.19164000  1.0
  N  N66  1  0.73128000  0.18983000  0.69164000  1.0
  N  N67  1  0.76872000  0.68983000  0.80836000  1.0
  N  N68  1  0.18155000  0.00498000  0.32605000  1.0
  N  N69  1  0.31844000  0.50499000  0.17394000  1.0
  N  N70  1  0.81844000  0.99501000  0.67395000  1.0
  N  N71  1  0.68156000  0.49501000  0.82606000  1.0
  O  O72  1  0.24299000  0.10536000  0.60651000  1.0
  O  O73  1  0.25701000  0.60536000  0.89349000  1.0
  O  O74  1  0.75700000  0.89464000  0.39349000  1.0
  O  O75  1  0.74299000  0.39464000  0.10651000  1.0
  O  O76  1  0.45791000  0.62252000  0.39610000  1.0
  O  O77  1  0.04209000  0.12252000  0.10390000  1.0
  O  O78  1  0.54209000  0.37748000  0.60390000  1.0
  O  O79  1  0.95791000  0.87748000  0.89610000  1.0
  O  O80  1  0.35236000  0.65663000  0.56170000  1.0
  O  O81  1  0.14764000  0.15663000  0.93830000  1.0
  O  O82  1  0.64764000  0.34337000  0.43830000  1.0
  O  O83  1  0.85236000  0.84337000  0.06170000  1.0
  O  O84  1  0.15943000  0.19365000  0.43962000  1.0
  O  O85  1  0.34057000  0.69365000  0.06038000  1.0
  O  O86  1  0.84057000  0.80635000  0.56038000  1.0
  O  O87  1  0.65943000  0.30635000  0.93962000  1.0
  O  O88  1  0.15891000  0.47977000  0.70482000  1.0
  O  O89  1  0.34109000  0.97977000  0.79518000  1.0
  O  O90  1  0.84109000  0.52023000  0.29518000  1.0
  O  O91  1  0.65891000  0.02023000  0.20482000  1.0
  O  O92  1  0.14214000  0.42026000  0.46203000  1.0
  O  O93  1  0.35786000  0.92026000  0.03797000  1.0
  O  O94  1  0.85786000  0.57974000  0.53797000  1.0
  O  O95  1  0.64214000  0.07974000  0.96203000  1.0
  O  O96  1  0.78779000  0.23254000  0.26315000  1.0
  O  O97  1  0.71221000  0.73254000  0.23685000  1.0
  O  O98  1  0.21221000  0.76746000  0.73685000  1.0
  O  O99  1  0.28779000  0.26746000  0.76315000  1.0
