# generated using pymatgen
data_NaH7C6NClO8
_symmetry_space_group_name_H-M   'P 1'
_cell_length_a   5.94161000
_cell_length_b   7.36102000
_cell_length_c   12.25790000
_cell_angle_alpha   100.45700000
_cell_angle_beta   103.98900000
_cell_angle_gamma   97.55950000
_symmetry_Int_Tables_number   1
_chemical_formula_structural   NaH7C6NClO8
_chemical_formula_sum   'Na2 H14 C12 N2 Cl2 O16'
_cell_volume   502.85552336
_cell_formula_units_Z   2
loop_
 _symmetry_equiv_pos_site_id
 _symmetry_equiv_pos_as_xyz
  1  'x, y, z'
loop_
 _atom_site_type_symbol
 _atom_site_label
 _atom_site_symmetry_multiplicity
 _atom_site_fract_x
 _atom_site_fract_y
 _atom_site_fract_z
 _atom_site_occupancy
  Na  Na0  1  0.50000000  0.50000000  0.50000000  1.0
  Na  Na1  1  0.50000000  0.00000000  0.50000000  1.0
  H  H2  1  0.95953000  0.07116000  0.26278000  1.0
  H  H3  1  0.04049000  0.92884000  0.73722000  1.0
  H  H4  1  0.35364000  0.33250000  0.20639000  1.0
  H  H5  1  0.64636000  0.66751000  0.79361000  1.0
  H  H6  1  0.24358000  0.36400000  0.99994000  1.0
  H  H7  1  0.75641000  0.63598000  0.00006000  1.0
  H  H8  1  0.50186000  0.25884000  0.87488000  1.0
  H  H9  1  0.49813000  0.74115000  0.12512000  1.0
  H  H10  1  0.85233000  0.11944000  0.95900000  1.0
  H  H11  1  0.14766000  0.88056000  0.04100000  1.0
  H  H12  1  0.22604000  0.25744000  0.60319000  1.0
  H  H13  1  0.77397000  0.74258000  0.39681000  1.0
  H  H14  1  0.12184000  0.19108000  0.46889000  1.0
  H  H15  1  0.87816000  0.80893000  0.53111000  1.0
  C  C16  1  0.65281000  0.21096000  0.19090000  1.0
  C  C17  1  0.34719000  0.78905000  0.80911000  1.0
  C  C18  1  0.71581000  0.18728000  0.31229000  1.0
  C  C19  1  0.28420000  0.81271000  0.68771000  1.0
  C  C20  1  0.45770000  0.28845000  0.14806000  1.0
  C  C21  1  0.54231000  0.71156000  0.85194000  1.0
  C  C22  1  0.39750000  0.30526000  0.03402000  1.0
  C  C23  1  0.60250000  0.69473000  0.96599000  1.0
  C  C24  1  0.53984000  0.24636000  0.96425000  1.0
  C  C25  1  0.46014000  0.75362000  0.03574000  1.0
  C  C26  1  0.73436000  0.17069000  0.00801000  1.0
  C  C27  1  0.26564000  0.82930000  0.99200000  1.0
  N  N28  1  0.78710000  0.15150000  0.11885000  1.0
  N  N29  1  0.21291000  0.84850000  0.88116000  1.0
  Cl  Cl30  1  0.91672000  0.35071000  0.73439000  1.0
  Cl  Cl31  1  0.08329000  0.64929000  0.26560000  1.0
  O  O32  1  0.97035000  0.07055000  0.15504000  1.0
  O  O33  1  0.02965000  0.92945000  0.84496000  1.0
  O  O34  1  0.89479000  0.10073000  0.34079000  1.0
  O  O35  1  0.10521000  0.89927000  0.65921000  1.0
  O  O36  1  0.60246000  0.24218000  0.38011000  1.0
  O  O37  1  0.39754000  0.75781000  0.61989000  1.0
  O  O38  1  0.91251000  0.42669000  0.85168000  1.0
  O  O39  1  0.08747000  0.57328000  0.14831000  1.0
  O  O40  1  0.75552000  0.16957000  0.68914000  1.0
  O  O41  1  0.24449000  0.83042000  0.31084000  1.0
  O  O42  1  0.84670000  0.48184000  0.66139000  1.0
  O  O43  1  0.15330000  0.51818000  0.33862000  1.0
  O  O44  1  0.15811000  0.32481000  0.73557000  1.0
  O  O45  1  0.84191000  0.67522000  0.26443000  1.0
  O  O46  1  0.27147000  0.23426000  0.53030000  1.0
  O  O47  1  0.72853000  0.76574000  0.46969000  1.0
