# generated using pymatgen
data_ZnH10C14NO5
_symmetry_space_group_name_H-M   'P 1'
_cell_length_a   12.81250000
_cell_length_b   12.81250000
_cell_length_c   20.74360000
_cell_angle_alpha   82.69680000
_cell_angle_beta   82.69670000
_cell_angle_gamma   67.03040000
_symmetry_Int_Tables_number   1
_chemical_formula_structural   ZnH10C14NO5
_chemical_formula_sum   'Zn8 H80 C112 N8 O40'
_cell_volume   3098.61779605
_cell_formula_units_Z   8
loop_
 _symmetry_equiv_pos_site_id
 _symmetry_equiv_pos_as_xyz
  1  'x, y, z'
loop_
 _atom_site_type_symbol
 _atom_site_label
 _atom_site_symmetry_multiplicity
 _atom_site_fract_x
 _atom_site_fract_y
 _atom_site_fract_z
 _atom_site_occupancy
  Zn  Zn0  1  0.74043000  0.72524000  0.62756000  1.0
  Zn  Zn1  1  0.27477000  0.25957000  0.87244000  1.0
  Zn  Zn2  1  0.25956000  0.27477000  0.37244000  1.0
  Zn  Zn3  1  0.72524000  0.74043000  0.12756000  1.0
  Zn  Zn4  1  0.48802000  0.91034000  0.64356000  1.0
  Zn  Zn5  1  0.08967000  0.51197000  0.85644000  1.0
  Zn  Zn6  1  0.51197000  0.08966000  0.35644000  1.0
  Zn  Zn7  1  0.91033000  0.48803000  0.14356000  1.0
  H  H8  1  0.94040000  0.20467000  0.38046000  1.0
  H  H9  1  0.79533000  0.05960000  0.11954000  1.0
  H  H10  1  0.05960000  0.79533000  0.61954000  1.0
  H  H11  1  0.20467000  0.94040000  0.88046000  1.0
  H  H12  1  0.03423000  0.07685000  0.42074000  1.0
  H  H13  1  0.92315000  0.96577000  0.07926000  1.0
  H  H14  1  0.96577000  0.92315000  0.57926000  1.0
  H  H15  1  0.07685000  0.03423000  0.92073000  1.0
  H  H16  1  0.83502000  0.25333000  0.59267000  1.0
  H  H17  1  0.74667000  0.16499000  0.90734000  1.0
  H  H18  1  0.16499000  0.74667000  0.40733000  1.0
  H  H19  1  0.25333000  0.83502000  0.09266000  1.0
  H  H20  1  0.69430000  0.17411000  0.65173000  1.0
  H  H21  1  0.82589000  0.30570000  0.84827000  1.0
  H  H22  1  0.30570000  0.82589000  0.34827000  1.0
  H  H23  1  0.17411000  0.69431000  0.15173000  1.0
  H  H24  1  0.73967000  0.97317000  0.49252000  1.0
  H  H25  1  0.02683000  0.26033000  0.00748000  1.0
  H  H26  1  0.26033000  0.02683000  0.50748000  1.0
  H  H27  1  0.97317000  0.73967000  0.99252000  1.0
  H  H28  1  0.87196000  0.05523000  0.43145000  1.0
  H  H29  1  0.94477000  0.12804000  0.06855000  1.0
  H  H30  1  0.12804000  0.94476000  0.56855000  1.0
  H  H31  1  0.05523000  0.87196000  0.93144000  1.0
  H  H32  1  0.73496000  0.58093000  0.81754000  1.0
  H  H33  1  0.41907000  0.26504000  0.68246000  1.0
  H  H34  1  0.26504000  0.41907000  0.18246000  1.0
  H  H35  1  0.58093000  0.73496000  0.31754000  1.0
  H  H36  1  0.72311000  0.50513000  0.93120000  1.0
  H  H37  1  0.49487000  0.27689000  0.56880000  1.0
  H  H38  1  0.27689000  0.49487000  0.06880000  1.0
  H  H39  1  0.50513000  0.72312000  0.43120000  1.0
  H  H40  1  0.39724000  0.77860000  0.96614000  1.0
  H  H41  1  0.22140000  0.60277000  0.53386000  1.0
  H  H42  1  0.60276000  0.22140000  0.03386000  1.0
  H  H43  1  0.77860000  0.39724000  0.46614000  1.0
  H  H44  1  0.41180000  0.85574000  0.84974000  1.0
  H  H45  1  0.14425000  0.58820000  0.65026000  1.0
  H  H46  1  0.58820000  0.14425000  0.15026000  1.0
  H  H47  1  0.85574000  0.41180000  0.34974000  1.0
  H  H48  1  0.66872000  0.43467000  0.01636000  1.0
  H  H49  1  0.56533000  0.33128000  0.48364000  1.0
  H  H50  1  0.33128000  0.56533000  0.98364000  1.0
  H  H51  1  0.43467000  0.66871000  0.51636000  1.0
  H  H52  1  0.58487000  0.47033000  0.09084000  1.0
  H  H53  1  0.52967000  0.41513000  0.40916000  1.0
  H  H54  1  0.41513000  0.52967000  0.90916000  1.0
  H  H55  1  0.47033000  0.58487000  0.59084000  1.0
  H  H56  1  0.84396000  0.53374000  0.53793000  1.0
  H  H57  1  0.46626000  0.15604000  0.96207000  1.0
  H  H58  1  0.15604000  0.46626000  0.46207000  1.0
  H  H59  1  0.53374000  0.84396000  0.03793000  1.0
  H  H60  1  0.00995000  0.34738000  0.53627000  1.0
  H  H61  1  0.65262000  0.99005000  0.96373000  1.0
  H  H62  1  0.99005000  0.65262000  0.46373000  1.0
  H  H63  1  0.34738000  0.00995000  0.03627000  1.0
  H  H64  1  0.03293000  0.37645000  0.73974000  1.0
  H  H65  1  0.62355000  0.96707000  0.76026000  1.0
  H  H66  1  0.96707000  0.62355000  0.26026000  1.0
  H  H67  1  0.37645000  0.03293000  0.23974000  1.0
  H  H68  1  0.86990000  0.55950000  0.73184000  1.0
  H  H69  1  0.44051000  0.13009000  0.76816000  1.0
  H  H70  1  0.13009000  0.44051000  0.26816000  1.0
  H  H71  1  0.55949000  0.86990000  0.23184000  1.0
  H  H72  1  0.11806000  0.18795000  0.74217000  1.0
  H  H73  1  0.81205000  0.88194000  0.75784000  1.0
  H  H74  1  0.88194000  0.81205000  0.25783000  1.0
  H  H75  1  0.18795000  0.11806000  0.24217000  1.0
  H  H76  1  0.29631000  0.01739000  0.73909000  1.0
  H  H77  1  0.98261000  0.70369000  0.76091000  1.0
  H  H78  1  0.70369000  0.98261000  0.26091000  1.0
  H  H79  1  0.01739000  0.29631000  0.23909000  1.0
  H  H80  1  0.37748000  0.09532000  0.54320000  1.0
  H  H81  1  0.90468000  0.62251000  0.95679000  1.0
  H  H82  1  0.62251000  0.90468000  0.45679000  1.0
  H  H83  1  0.09532000  0.37748000  0.04321000  1.0
  H  H84  1  0.20236000  0.26846000  0.53755000  1.0
  H  H85  1  0.73154000  0.79763000  0.96244000  1.0
  H  H86  1  0.79763000  0.73154000  0.46245000  1.0
  H  H87  1  0.26846000  0.20237000  0.03756000  1.0
  C  C88  1  0.09548000  0.21116000  0.40688000  1.0
  C  C89  1  0.78883000  0.90452000  0.09312000  1.0
  C  C90  1  0.90452000  0.78884000  0.59312000  1.0
  C  C91  1  0.21117000  0.09548000  0.90688000  1.0
  C  C92  1  0.99773000  0.17044000  0.42003000  1.0
  C  C93  1  0.82956000  0.00227000  0.07997000  1.0
  C  C94  1  0.00227000  0.82956000  0.57997000  1.0
  C  C95  1  0.17044000  0.99773000  0.92003000  1.0
  C  C96  1  0.86312000  0.15845000  0.50911000  1.0
  C  C97  1  0.84155000  0.13688000  0.99089000  1.0
  C  C98  1  0.13688000  0.84155000  0.49089000  1.0
  C  C99  1  0.15845000  0.86312000  0.00911000  1.0
  C  C100  1  0.81235000  0.19239000  0.57128000  1.0
  C  C101  1  0.80761000  0.18765000  0.92873000  1.0
  C  C102  1  0.18765000  0.80761000  0.42872000  1.0
  C  C103  1  0.19239000  0.81235000  0.07127000  1.0
  C  C104  1  0.73523000  0.14827000  0.60380000  1.0
  C  C105  1  0.85173000  0.26477000  0.89620000  1.0
  C  C106  1  0.26477000  0.85173000  0.39620000  1.0
  C  C107  1  0.14827000  0.73523000  0.10380000  1.0
  C  C108  1  0.70865000  0.06818000  0.57581000  1.0
  C  C109  1  0.93182000  0.29134000  0.92419000  1.0
  C  C110  1  0.29135000  0.93182000  0.42419000  1.0
  C  C111  1  0.06818000  0.70866000  0.07581000  1.0
  C  C112  1  0.75936000  0.03564000  0.51397000  1.0
  C  C113  1  0.96436000  0.24064000  0.98603000  1.0
  C  C114  1  0.24064000  0.96436000  0.48603000  1.0
  C  C115  1  0.03564000  0.75936000  0.01397000  1.0
  C  C116  1  0.83530000  0.08085000  0.47995000  1.0
  C  C117  1  0.91915000  0.16470000  0.02005000  1.0
  C  C118  1  0.16470000  0.91914000  0.52005000  1.0
  C  C119  1  0.08085000  0.83530000  0.97995000  1.0
  C  C120  1  0.62698000  0.02105000  0.61223000  1.0
  C  C121  1  0.97894000  0.37302000  0.88777000  1.0
  C  C122  1  0.37302000  0.97894000  0.38777000  1.0
  C  C123  1  0.02106000  0.62698000  0.11223000  1.0
  C  C124  1  0.57892000  0.76582000  0.75558000  1.0
  C  C125  1  0.23418000  0.42107000  0.74441000  1.0
  C  C126  1  0.42108000  0.23418000  0.24441000  1.0
  C  C127  1  0.76582000  0.57892000  0.25559000  1.0
  C  C128  1  0.57277000  0.72228000  0.82524000  1.0
  C  C129  1  0.27772000  0.42723000  0.67476000  1.0
  C  C130  1  0.42723000  0.27772000  0.17476000  1.0
  C  C131  1  0.72228000  0.57277000  0.32524000  1.0
  C  C132  1  0.66010000  0.62446000  0.84948000  1.0
  C  C133  1  0.37554000  0.33990000  0.65052000  1.0
  C  C134  1  0.33990000  0.37554000  0.15052000  1.0
  C  C135  1  0.62446000  0.66011000  0.34948000  1.0
  C  C136  1  0.65337000  0.58112000  0.91424000  1.0
  C  C137  1  0.41888000  0.34664000  0.58576000  1.0
  C  C138  1  0.34663000  0.41888000  0.08576000  1.0
  C  C139  1  0.58113000  0.65337000  0.41424000  1.0
  C  C140  1  0.55688000  0.63561000  0.95582000  1.0
  C  C141  1  0.36439000  0.44312000  0.54418000  1.0
  C  C142  1  0.44312000  0.36439000  0.04418000  1.0
  C  C143  1  0.63561000  0.55688000  0.45583000  1.0
  C  C144  1  0.47027000  0.73599000  0.93271000  1.0
  C  C145  1  0.26401000  0.52973000  0.56729000  1.0
  C  C146  1  0.52973000  0.26401000  0.06729000  1.0
  C  C147  1  0.73599000  0.47027000  0.43271000  1.0
  C  C148  1  0.47848000  0.77829000  0.86818000  1.0
  C  C149  1  0.22171000  0.52152000  0.63182000  1.0
  C  C150  1  0.52152000  0.22171000  0.13182000  1.0
  C  C151  1  0.77829000  0.47848000  0.36818000  1.0
  C  C152  1  0.62599000  0.50417000  0.04830000  1.0
  C  C153  1  0.49583000  0.37401000  0.45170000  1.0
  C  C154  1  0.37401000  0.49582000  0.95170000  1.0
  C  C155  1  0.50417000  0.62599000  0.54830000  1.0
  C  C156  1  0.71315000  0.53989000  0.07332000  1.0
  C  C157  1  0.46011000  0.28685000  0.42668000  1.0
  C  C158  1  0.28686000  0.46011000  0.92668000  1.0
  C  C159  1  0.53989000  0.71315000  0.57332000  1.0
  C  C160  1  0.88984000  0.49541000  0.58116000  1.0
  C  C161  1  0.50460000  0.11016000  0.91884000  1.0
  C  C162  1  0.11016000  0.50460000  0.41884000  1.0
  C  C163  1  0.49540000  0.88984000  0.08116000  1.0
  C  C164  1  0.98223000  0.39223000  0.58055000  1.0
  C  C165  1  0.60777000  0.01777000  0.91945000  1.0
  C  C166  1  0.01777000  0.60777000  0.41945000  1.0
  C  C167  1  0.39223000  0.98223000  0.08055000  1.0
  C  C168  1  0.03839000  0.34720000  0.63775000  1.0
  C  C169  1  0.65280000  0.96161000  0.86225000  1.0
  C  C170  1  0.96161000  0.65280000  0.36225000  1.0
  C  C171  1  0.34720000  0.03839000  0.13775000  1.0
  C  C172  1  0.99507000  0.40651000  0.69355000  1.0
  C  C173  1  0.59349000  0.00493000  0.80645000  1.0
  C  C174  1  0.00493000  0.59349000  0.30645000  1.0
  C  C175  1  0.40651000  0.99507000  0.19355000  1.0
  C  C176  1  0.90315000  0.50982000  0.68974000  1.0
  C  C177  1  0.49018000  0.09685000  0.81026000  1.0
  C  C178  1  0.09685000  0.49018000  0.31026000  1.0
  C  C179  1  0.50982000  0.90315000  0.18974000  1.0
  C  C180  1  0.14238000  0.24280000  0.63904000  1.0
  C  C181  1  0.75720000  0.85762000  0.86096000  1.0
  C  C182  1  0.85762000  0.75720000  0.36096000  1.0
  C  C183  1  0.24280000  0.14238000  0.13905000  1.0
  C  C184  1  0.17108000  0.17069000  0.69636000  1.0
  C  C185  1  0.82932000  0.82892000  0.80363000  1.0
  C  C186  1  0.82892000  0.82932000  0.30363000  1.0
  C  C187  1  0.17068000  0.17108000  0.19637000  1.0
  C  C188  1  0.27093000  0.07465000  0.69533000  1.0
  C  C189  1  0.92535000  0.72907000  0.80467000  1.0
  C  C190  1  0.72907000  0.92535000  0.30467000  1.0
  C  C191  1  0.07465000  0.27093000  0.19533000  1.0
  C  C192  1  0.31681000  0.11811000  0.58601000  1.0
  C  C193  1  0.88189000  0.68318000  0.91399000  1.0
  C  C194  1  0.68318000  0.88189000  0.41399000  1.0
  C  C195  1  0.11811000  0.31682000  0.08601000  1.0
  C  C196  1  0.21840000  0.21531000  0.58317000  1.0
  C  C197  1  0.78469000  0.78160000  0.91683000  1.0
  C  C198  1  0.78160000  0.78469000  0.41683000  1.0
  C  C199  1  0.21531000  0.21840000  0.08317000  1.0
  N  N200  1  0.85217000  0.55466000  0.63436000  1.0
  N  N201  1  0.44534000  0.14782000  0.86564000  1.0
  N  N202  1  0.14782000  0.44534000  0.36564000  1.0
  N  N203  1  0.55466000  0.85217000  0.13436000  1.0
  N  N204  1  0.34220000  0.04791000  0.64089000  1.0
  N  N205  1  0.95209000  0.65780000  0.85911000  1.0
  N  N206  1  0.65780000  0.95209000  0.35911000  1.0
  N  N207  1  0.04791000  0.34220000  0.14089000  1.0
  O  O208  1  0.53704000  0.59699000  0.01874000  1.0
  O  O209  1  0.40301000  0.46296000  0.48126000  1.0
  O  O210  1  0.46296000  0.40301000  0.98126000  1.0
  O  O211  1  0.59699000  0.53704000  0.51874000  1.0
  O  O212  1  0.66932000  0.71663000  0.71966000  1.0
  O  O213  1  0.28337000  0.33068000  0.78034000  1.0
  O  O214  1  0.33068000  0.28337000  0.28034000  1.0
  O  O215  1  0.71663000  0.66932000  0.21966000  1.0
  O  O216  1  0.49209000  0.85084000  0.73582000  1.0
  O  O217  1  0.14915000  0.50791000  0.76418000  1.0
  O  O218  1  0.50791000  0.14916000  0.26418000  1.0
  O  O219  1  0.85084000  0.49209000  0.23582000  1.0
  O  O220  1  0.79403000  0.45891000  0.09999000  1.0
  O  O221  1  0.54110000  0.20597000  0.40000000  1.0
  O  O222  1  0.20597000  0.54109000  0.90000000  1.0
  O  O223  1  0.45891000  0.79403000  0.60000000  1.0
  O  O224  1  0.69648000  0.64472000  0.06732000  1.0
  O  O225  1  0.35528000  0.30353000  0.43268000  1.0
  O  O226  1  0.30353000  0.35528000  0.93268000  1.0
  O  O227  1  0.64472000  0.69648000  0.56732000  1.0
  O  O228  1  0.61780000  0.93412000  0.58908000  1.0
  O  O229  1  0.06588000  0.38220000  0.91092000  1.0
  O  O230  1  0.38220000  0.06588000  0.41092000  1.0
  O  O231  1  0.93412000  0.61780000  0.08908000  1.0
  O  O232  1  0.56854000  0.06393000  0.66226000  1.0
  O  O233  1  0.93607000  0.43146000  0.83774000  1.0
  O  O234  1  0.43146000  0.93607000  0.33774000  1.0
  O  O235  1  0.06393000  0.56854000  0.16226000  1.0
  O  O236  1  0.93835000  0.20596000  0.48138000  1.0
  O  O237  1  0.79404000  0.06166000  0.01862000  1.0
  O  O238  1  0.06165000  0.79403000  0.51862000  1.0
  O  O239  1  0.20596000  0.93835000  0.98138000  1.0
  O  O240  1  0.12406000  0.25107000  0.45115000  1.0
  O  O241  1  0.74893000  0.87594000  0.04885000  1.0
  O  O242  1  0.87593000  0.74894000  0.54885000  1.0
  O  O243  1  0.25107000  0.12406000  0.95115000  1.0
  O  O244  1  0.14760000  0.20091000  0.34964000  1.0
  O  O245  1  0.79908000  0.85240000  0.15036000  1.0
  O  O246  1  0.85240000  0.79909000  0.65036000  1.0
  O  O247  1  0.20092000  0.14760000  0.84964000  1.0
