# generated using pymatgen
data_TbH12C8NO11
_symmetry_space_group_name_H-M   'P 1'
_cell_length_a   6.55738000
_cell_length_b   12.26590000
_cell_length_c   17.56600000
_cell_angle_alpha   90.00000000
_cell_angle_beta   90.00000000
_cell_angle_gamma   90.00000000
_symmetry_Int_Tables_number   1
_chemical_formula_structural   TbH12C8NO11
_chemical_formula_sum   'Tb4 H48 C32 N4 O44'
_cell_volume   1412.87145153
_cell_formula_units_Z   4
loop_
 _symmetry_equiv_pos_site_id
 _symmetry_equiv_pos_as_xyz
  1  'x, y, z'
loop_
 _atom_site_type_symbol
 _atom_site_label
 _atom_site_symmetry_multiplicity
 _atom_site_fract_x
 _atom_site_fract_y
 _atom_site_fract_z
 _atom_site_occupancy
  Tb  Tb0  1  0.48342000  0.47214000  0.23925000  1.0
  Tb  Tb1  1  0.51657000  0.52786000  0.73924000  1.0
  Tb  Tb2  1  0.98343000  0.02786000  0.23925000  1.0
  Tb  Tb3  1  0.01657000  0.97214000  0.73925000  1.0
  H  H4  1  0.16276000  0.57714000  0.14156000  1.0
  H  H5  1  0.83724000  0.42285000  0.64156000  1.0
  H  H6  1  0.66276000  0.92285000  0.14156000  1.0
  H  H7  1  0.33724000  0.07715000  0.64156000  1.0
  H  H8  1  0.01602000  0.51983000  0.20011000  1.0
  H  H9  1  0.98398000  0.48016000  0.70010000  1.0
  H  H10  1  0.51603000  0.98015000  0.20010000  1.0
  H  H11  1  0.48397000  0.01983000  0.70010000  1.0
  H  H12  1  0.21014000  0.35783000  0.33819000  1.0
  H  H13  1  0.78986000  0.64217000  0.83819000  1.0
  H  H14  1  0.71013000  0.14217000  0.33818000  1.0
  H  H15  1  0.28986000  0.85783000  0.83819000  1.0
  H  H16  1  0.15020000  0.47630000  0.37202000  1.0
  H  H17  1  0.84980000  0.52369000  0.87200000  1.0
  H  H18  1  0.65020000  0.02370000  0.37201000  1.0
  H  H19  1  0.34980000  0.97630000  0.87201000  1.0
  H  H20  1  0.78011000  0.42326000  0.35873000  1.0
  H  H21  1  0.21989000  0.57673000  0.85873000  1.0
  H  H22  1  0.28010000  0.07674000  0.35873000  1.0
  H  H23  1  0.71988000  0.92326000  0.85874000  1.0
  H  H24  1  0.58601000  0.44248000  0.41325000  1.0
  H  H25  1  0.41400000  0.55751000  0.91325000  1.0
  H  H26  1  0.08599000  0.05752000  0.41325000  1.0
  H  H27  1  0.91400000  0.94248000  0.91325000  1.0
  H  H28  1  0.22465000  0.65019000  0.30499000  1.0
  H  H29  1  0.77535000  0.34981000  0.80498000  1.0
  H  H30  1  0.72465000  0.84981000  0.30498000  1.0
  H  H31  1  0.27536000  0.15019000  0.80499000  1.0
  H  H32  1  0.44340000  0.69698000  0.31683000  1.0
  H  H33  1  0.55659000  0.30302000  0.81683000  1.0
  H  H34  1  0.94341000  0.80302000  0.31683000  1.0
  H  H35  1  0.05660000  0.19698000  0.81683000  1.0
  H  H36  1  0.76224000  0.66519000  0.21160000  1.0
  H  H37  1  0.23777000  0.33481000  0.71159000  1.0
  H  H38  1  0.26223000  0.83481000  0.21160000  1.0
  H  H39  1  0.73776000  0.16519000  0.71160000  1.0
  H  H40  1  0.85447000  0.62815000  0.29092000  1.0
  H  H41  1  0.14553000  0.37185000  0.79092000  1.0
  H  H42  1  0.35447000  0.87185000  0.29092000  1.0
  H  H43  1  0.64553000  0.12815000  0.79092000  1.0
  H  H44  1  0.48931000  0.37893000  0.93125000  1.0
  H  H45  1  0.51070000  0.62107000  0.43124000  1.0
  H  H46  1  0.98932000  0.12107000  0.93124000  1.0
  H  H47  1  0.01069000  0.87893000  0.43125000  1.0
  H  H48  1  0.41455000  0.09378000  0.07299000  1.0
  H  H49  1  0.58544000  0.90622000  0.57299000  1.0
  H  H50  1  0.91455000  0.40622000  0.07299000  1.0
  H  H51  1  0.08546000  0.59378000  0.57299000  1.0
  C  C52  1  0.50561000  0.52670000  0.05490000  1.0
  C  C53  1  0.49441000  0.47331000  0.55490000  1.0
  C  C54  1  0.00559000  0.97330000  0.05491000  1.0
  C  C55  1  0.99439000  0.02669000  0.55491000  1.0
  C  C56  1  0.47131000  0.40369000  0.05271000  1.0
  C  C57  1  0.52869000  0.59632000  0.55270000  1.0
  C  C58  1  0.97131000  0.09632000  0.05270000  1.0
  C  C59  1  0.02869000  0.90369000  0.55271000  1.0
  C  C60  1  0.47307000  0.33991000  0.98652000  1.0
  C  C61  1  0.52691000  0.66009000  0.48652000  1.0
  C  C62  1  0.97308000  0.16009000  0.98651000  1.0
  C  C63  1  0.02692000  0.83992000  0.48652000  1.0
  C  C64  1  0.45767000  0.22655000  0.99355000  1.0
  C  C65  1  0.54233000  0.77345000  0.49355000  1.0
  C  C66  1  0.95768000  0.27345000  0.99354000  1.0
  C  C67  1  0.04234000  0.72655000  0.49355000  1.0
  C  C68  1  0.46184000  0.14911000  0.92665000  1.0
  C  C69  1  0.53817000  0.85089000  0.42664000  1.0
  C  C70  1  0.96184000  0.35089000  0.92665000  1.0
  C  C71  1  0.03818000  0.64911000  0.42665000  1.0
  C  C72  1  0.42882000  0.18140000  0.06589000  1.0
  C  C73  1  0.57118000  0.81861000  0.56588000  1.0
  C  C74  1  0.92882000  0.31860000  0.06588000  1.0
  C  C75  1  0.07119000  0.68140000  0.56589000  1.0
  C  C76  1  0.41719000  0.25072000  0.12829000  1.0
  C  C77  1  0.58281000  0.74928000  0.62828000  1.0
  C  C78  1  0.91719000  0.24928000  0.12829000  1.0
  C  C79  1  0.08282000  0.75072000  0.62829000  1.0
  C  C80  1  0.36988000  0.21276000  0.20817000  1.0
  C  C81  1  0.63012000  0.78725000  0.70817000  1.0
  C  C82  1  0.86987000  0.28725000  0.20816000  1.0
  C  C83  1  0.13012000  0.71276000  0.70817000  1.0
  N  N84  1  0.44462000  0.35868000  0.12145000  1.0
  N  N85  1  0.55539000  0.64132000  0.62145000  1.0
  N  N86  1  0.94463000  0.14132000  0.12145000  1.0
  N  N87  1  0.05538000  0.85868000  0.62146000  1.0
  O  O88  1  0.53408000  0.56579000  0.12195000  1.0
  O  O89  1  0.46592000  0.43421000  0.62195000  1.0
  O  O90  1  0.03409000  0.93421000  0.12195000  1.0
  O  O91  1  0.96592000  0.06580000  0.62195000  1.0
  O  O92  1  0.50425000  0.58090000  0.99446000  1.0
  O  O93  1  0.49576000  0.41910000  0.49446000  1.0
  O  O94  1  0.00425000  0.91910000  0.99446000  1.0
  O  O95  1  0.99574000  0.08090000  0.49447000  1.0
  O  O96  1  0.48517000  0.18914000  0.85910000  1.0
  O  O97  1  0.51483000  0.81086000  0.35910000  1.0
  O  O98  1  0.98516000  0.31086000  0.85910000  1.0
  O  O99  1  0.01485000  0.68914000  0.35911000  1.0
  O  O100  1  0.43565000  0.04986000  0.94066000  1.0
  O  O101  1  0.56436000  0.95014000  0.44066000  1.0
  O  O102  1  0.93566000  0.45014000  0.94066000  1.0
  O  O103  1  0.06436000  0.54987000  0.44066000  1.0
  O  O104  1  0.29622000  0.11819000  0.21656000  1.0
  O  O105  1  0.70377000  0.88181000  0.71655000  1.0
  O  O106  1  0.79622000  0.38181000  0.21655000  1.0
  O  O107  1  0.20377000  0.61820000  0.71655000  1.0
  O  O108  1  0.40335000  0.28097000  0.26105000  1.0
  O  O109  1  0.59665000  0.71903000  0.76105000  1.0
  O  O110  1  0.90334000  0.21903000  0.26104000  1.0
  O  O111  1  0.09664000  0.78097000  0.76105000  1.0
  O  O112  1  0.15072000  0.51478000  0.17542000  1.0
  O  O113  1  0.84928000  0.48521000  0.67542000  1.0
  O  O114  1  0.65072000  0.98521000  0.17542000  1.0
  O  O115  1  0.34927000  0.01479000  0.67542000  1.0
  O  O116  1  0.20170000  0.43531000  0.32601000  1.0
  O  O117  1  0.79828000  0.56470000  0.82601000  1.0
  O  O118  1  0.70171000  0.06469000  0.32601000  1.0
  O  O119  1  0.29829000  0.93530000  0.82601000  1.0
  O  O120  1  0.64444000  0.45530000  0.36034000  1.0
  O  O121  1  0.35557000  0.54470000  0.86034000  1.0
  O  O122  1  0.14442000  0.04470000  0.36035000  1.0
  O  O123  1  0.85557000  0.95529000  0.86035000  1.0
  O  O124  1  0.36544000  0.64449000  0.28453000  1.0
  O  O125  1  0.63454000  0.35550000  0.78453000  1.0
  O  O126  1  0.86546000  0.85550000  0.28453000  1.0
  O  O127  1  0.13456000  0.14450000  0.78453000  1.0
  O  O128  1  0.78296000  0.60200000  0.24431000  1.0
  O  O129  1  0.21703000  0.39800000  0.74430000  1.0
  O  O130  1  0.28296000  0.89800000  0.24430000  1.0
  O  O131  1  0.71704000  0.10200000  0.74431000  1.0
