# generated using pymatgen
data_CdH19C29(N2O)4
_symmetry_space_group_name_H-M   'P 1'
_cell_length_a   10.55830000
_cell_length_b   10.56230000
_cell_length_c   12.14510000
_cell_angle_alpha   83.64370000
_cell_angle_beta   79.70200000
_cell_angle_gamma   89.67950000
_symmetry_Int_Tables_number   1
_chemical_formula_structural   CdH19C29(N2O)4
_chemical_formula_sum   'Cd2 H38 C58 N16 O8'
_cell_volume   1324.27115257
_cell_formula_units_Z   2
loop_
 _symmetry_equiv_pos_site_id
 _symmetry_equiv_pos_as_xyz
  1  'x, y, z'
loop_
 _atom_site_type_symbol
 _atom_site_label
 _atom_site_symmetry_multiplicity
 _atom_site_fract_x
 _atom_site_fract_y
 _atom_site_fract_z
 _atom_site_occupancy
  Cd  Cd0  1  0.64307000  0.96615000  0.10849000  1.0
  Cd  Cd1  1  0.35690000  0.03391000  0.89153000  1.0
  H  H2  1  0.40271000  0.07859000  0.26620000  1.0
  H  H3  1  0.59726000  0.92143000  0.73385000  1.0
  H  H4  1  0.58142000  0.67965000  0.21310000  1.0
  H  H5  1  0.41861000  0.32041000  0.78689000  1.0
  H  H6  1  0.02846000  0.58745000  0.83307000  1.0
  H  H7  1  0.97157000  0.41250000  0.16697000  1.0
  H  H8  1  0.10419000  0.57794000  0.59999000  1.0
  H  H9  1  0.89571000  0.42239000  0.39996000  1.0
  H  H10  1  0.97123000  0.65586000  0.64093000  1.0
  H  H11  1  0.02858000  0.34421000  0.35930000  1.0
  H  H12  1  0.58960000  0.63453000  0.49856000  1.0
  H  H13  1  0.41037000  0.36542000  0.50140000  1.0
  H  H14  1  0.44210000  0.55959000  0.67536000  1.0
  H  H15  1  0.55788000  0.44036000  0.32462000  1.0
  H  H16  1  0.16664000  0.84541000  0.59228000  1.0
  H  H17  1  0.83336000  0.15459000  0.40776000  1.0
  H  H18  1  0.40653000  0.77803000  0.79185000  1.0
  H  H19  1  0.59343000  0.22199000  0.20816000  1.0
  H  H20  1  0.12839000  0.48207000  0.94796000  1.0
  H  H21  1  0.87175000  0.51778000  0.05202000  1.0
  H  H22  1  0.23625000  0.45568000  0.11422000  1.0
  H  H23  1  0.76390000  0.54423000  0.88576000  1.0
  H  H24  1  0.64020000  0.09006000  0.84587000  1.0
  H  H25  1  0.35976000  0.90998000  0.15414000  1.0
  H  H26  1  0.76636000  0.24660000  0.69731000  1.0
  H  H27  1  0.23362000  0.75341000  0.30268000  1.0
  H  H28  1  0.97917000  0.32814000  0.72896000  1.0
  H  H29  1  0.02083000  0.67182000  0.27101000  1.0
  H  H30  1  0.14929000  0.31372000  0.84959000  1.0
  H  H31  1  0.85073000  0.68622000  0.15036000  1.0
  H  H32  1  0.21139000  0.25211000  0.03496000  1.0
  H  H33  1  0.78861000  0.74786000  0.96501000  1.0
  H  H34  1  0.16019000  0.13438000  0.23072000  1.0
  H  H35  1  0.83982000  0.86563000  0.76925000  1.0
  H  H36  1  0.01154000  0.98995000  0.37026000  1.0
  H  H37  1  0.98846000  0.01006000  0.62972000  1.0
  H  H38  1  0.80299000  0.91899000  0.31905000  1.0
  H  H39  1  0.19701000  0.08102000  0.68093000  1.0
  C  C40  1  0.49750000  0.68051000  0.52139000  1.0
  C  C41  1  0.50246000  0.31946000  0.47859000  1.0
  C  C42  1  0.41298000  0.63727000  0.61862000  1.0
  C  C43  1  0.58700000  0.36269000  0.38137000  1.0
  C  C44  1  0.29096000  0.69420000  0.64576000  1.0
  C  C45  1  0.70905000  0.30577000  0.35424000  1.0
  C  C46  1  0.25817000  0.79746000  0.57360000  1.0
  C  C47  1  0.74183000  0.20254000  0.42642000  1.0
  C  C48  1  0.34742000  0.84708000  0.47945000  1.0
  C  C49  1  0.65256000  0.15290000  0.52058000  1.0
  C  C50  1  0.46662000  0.78631000  0.45089000  1.0
  C  C51  1  0.53335000  0.21368000  0.54911000  1.0
  C  C52  1  0.55475000  0.83091000  0.34657000  1.0
  C  C53  1  0.44523000  0.16909000  0.65344000  1.0
  C  C54  1  0.31905000  0.96509000  0.41150000  1.0
  C  C55  1  0.68092000  0.03491000  0.58853000  1.0
  C  C56  1  0.37036000  0.70468000  0.86023000  1.0
  C  C57  1  0.62966000  0.29532000  0.13978000  1.0
  C  C58  1  0.26301000  0.62826000  0.85300000  1.0
  C  C59  1  0.73703000  0.37169000  0.14703000  1.0
  C  C60  1  0.21215000  0.54134000  0.94933000  1.0
  C  C61  1  0.78796000  0.45856000  0.05066000  1.0
  C  C62  1  0.27148000  0.52542000  0.04215000  1.0
  C  C63  1  0.72862000  0.47451000  0.95783000  1.0
  C  C64  1  0.38058000  0.59976000  0.04713000  1.0
  C  C65  1  0.61949000  0.40022000  0.95284000  1.0
  C  C66  1  0.42532000  0.69403000  0.95624000  1.0
  C  C67  1  0.57471000  0.30599000  0.04375000  1.0
  C  C68  1  0.51764000  0.79059000  0.97182000  1.0
  C  C69  1  0.48235000  0.20946000  0.02819000  1.0
  C  C70  1  0.44032000  0.58751000  0.14720000  1.0
  C  C71  1  0.55976000  0.41250000  0.85280000  1.0
  C  C72  1  0.20863000  0.64588000  0.75256000  1.0
  C  C73  1  0.79138000  0.35408000  0.24746000  1.0
  C  C74  1  0.72987000  0.13144000  0.85809000  1.0
  C  C75  1  0.27010000  0.86858000  0.14192000  1.0
  C  C76  1  0.80259000  0.21726000  0.77456000  1.0
  C  C77  1  0.19740000  0.78275000  0.22543000  1.0
  C  C78  1  0.91949000  0.26157000  0.79205000  1.0
  C  C79  1  0.08051000  0.73841000  0.20793000  1.0
  C  C80  1  0.96143000  0.22109000  0.89432000  1.0
  C  C81  1  0.03857000  0.77890000  0.10566000  1.0
  C  C82  1  0.08296000  0.25892000  0.91703000  1.0
  C  C83  1  0.91704000  0.74105000  0.08293000  1.0
  C  C84  1  0.11773000  0.22365000  0.01930000  1.0
  C  C85  1  0.88227000  0.77633000  0.98067000  1.0
  C  C86  1  0.03512000  0.14497000  0.10559000  1.0
  C  C87  1  0.96488000  0.85503000  0.89439000  1.0
  C  C88  1  0.06876000  0.10406000  0.21124000  1.0
  C  C89  1  0.93124000  0.89594000  0.78874000  1.0
  C  C90  1  0.98651000  0.02331000  0.28886000  1.0
  C  C91  1  0.01348000  0.97669000  0.71112000  1.0
  C  C92  1  0.86993000  0.98433000  0.26102000  1.0
  C  C93  1  0.13007000  0.01568000  0.73896000  1.0
  C  C94  1  0.87836000  0.13934000  0.97699000  1.0
  C  C95  1  0.12164000  0.86066000  0.02299000  1.0
  C  C96  1  0.91559000  0.10109000  0.08441000  1.0
  C  C97  1  0.08441000  0.89892000  0.91557000  1.0
  N  N98  1  0.52707000  0.93922000  0.28775000  1.0
  N  N99  1  0.47291000  0.06079000  0.71226000  1.0
  N  N100  1  0.41627000  0.00354000  0.32385000  1.0
  N  N101  1  0.58370000  0.99647000  0.67618000  1.0
  N  N102  1  0.56919000  0.77860000  0.06450000  1.0
  N  N103  1  0.43081000  0.22145000  0.93550000  1.0
  N  N104  1  0.53851000  0.67417000  0.14347000  1.0
  N  N105  1  0.46153000  0.32588000  0.85652000  1.0
  N  N106  1  0.08202000  0.61925000  0.75705000  1.0
  N  N107  1  0.91800000  0.38067000  0.24300000  1.0
  N  N108  1  0.02947000  0.58417000  0.66560000  1.0
  N  N109  1  0.97048000  0.41592000  0.33444000  1.0
  N  N110  1  0.76523000  0.09495000  0.95684000  1.0
  N  N111  1  0.23475000  0.90507000  0.04316000  1.0
  N  N112  1  0.83579000  0.02240000  0.16237000  1.0
  N  N113  1  0.16420000  0.97761000  0.83762000  1.0
  O  O114  1  0.65360000  0.76744000  0.30784000  1.0
  O  O115  1  0.34638000  0.23257000  0.69216000  1.0
  O  O116  1  0.21784000  0.02745000  0.43056000  1.0
  O  O117  1  0.78213000  0.97253000  0.56948000  1.0
  O  O118  1  0.54203000  0.89331000  0.90231000  1.0
  O  O119  1  0.45791000  0.10674000  0.09770000  1.0
  O  O120  1  0.40873000  0.50632000  0.23064000  1.0
  O  O121  1  0.59135000  0.49370000  0.76934000  1.0
