# generated using pymatgen
data_La3P3H47C37(NO8)3
_symmetry_space_group_name_H-M   'P 1'
_cell_length_a   15.15820000
_cell_length_b   15.16900000
_cell_length_c   15.36200000
_cell_angle_alpha   103.14600000
_cell_angle_beta   107.93600000
_cell_angle_gamma   116.41400000
_symmetry_Int_Tables_number   1
_chemical_formula_structural   La3P3H47C37(NO8)3
_chemical_formula_sum   'La6 P6 H94 C74 N6 O48'
_cell_volume   2720.59217802
_cell_formula_units_Z   2
loop_
 _symmetry_equiv_pos_site_id
 _symmetry_equiv_pos_as_xyz
  1  'x, y, z'
loop_
 _atom_site_type_symbol
 _atom_site_label
 _atom_site_symmetry_multiplicity
 _atom_site_fract_x
 _atom_site_fract_y
 _atom_site_fract_z
 _atom_site_occupancy
  La  La0  1  0.36450000  0.05695000  0.19692000  1.0
  La  La1  1  0.63550000  0.94305000  0.80308000  1.0
  La  La2  1  0.61922000  0.32177000  0.18929000  1.0
  La  La3  1  0.38079000  0.67823000  0.81071000  1.0
  La  La4  1  0.43552000  0.08783000  0.85867000  1.0
  La  La5  1  0.56448000  0.91217000  0.14133000  1.0
  P  P6  1  0.30424000  0.11989000  0.01305000  1.0
  P  P7  1  0.69576000  0.88011000  0.98696000  1.0
  P  P8  1  0.68465000  0.19620000  0.31072000  1.0
  P  P9  1  0.31535000  0.80380000  0.68928000  1.0
  P  P10  1  0.35365000  0.88057000  0.97463000  1.0
  P  P11  1  0.64634000  0.11942000  0.02537000  1.0
  H  H12  1  0.83367000  0.61884000  0.38000000  1.0
  H  H13  1  0.16632000  0.38116000  0.62000000  1.0
  H  H14  1  0.27592000  0.99647000  0.65799000  1.0
  H  H15  1  0.72408000  0.00353000  0.34201000  1.0
  H  H16  1  0.36101000  0.11053000  0.67106000  1.0
  H  H17  1  0.63899000  0.88947000  0.32894000  1.0
  H  H18  1  0.40283000  0.33605000  0.06008000  1.0
  H  H19  1  0.59717000  0.66395000  0.93993000  1.0
  H  H20  1  0.59160000  0.14950000  0.43152000  1.0
  H  H21  1  0.40840000  0.85050000  0.56848000  1.0
  H  H22  1  0.18073000  0.74232000  0.78005000  1.0
  H  H23  1  0.81927000  0.25769000  0.21995000  1.0
  H  H24  1  0.16649000  0.16885000  0.98565000  1.0
  H  H25  1  0.83351000  0.83116000  0.01435000  1.0
  H  H26  1  0.26244000  0.22099000  0.11630000  1.0
  H  H27  1  0.73756000  0.77902000  0.88371000  1.0
  H  H28  1  0.36673000  0.40287000  0.19133000  1.0
  H  H29  1  0.63327000  0.59713000  0.80867000  1.0
  H  H30  1  0.24468000  0.38251000  0.09730000  1.0
  H  H31  1  0.75532000  0.61749000  0.90270000  1.0
  H  H32  1  0.40646000  0.57797000  0.17764000  1.0
  H  H33  1  0.59353000  0.42204000  0.82236000  1.0
  H  H34  1  0.48968000  0.53523000  0.15038000  1.0
  H  H35  1  0.51032000  0.46478000  0.84963000  1.0
  H  H36  1  0.28205000  0.50855000  0.99828000  1.0
  H  H37  1  0.71795000  0.49145000  0.00172000  1.0
  H  H38  1  0.30641000  0.41717000  0.86152000  1.0
  H  H39  1  0.69359000  0.58283000  0.13849000  1.0
  H  H40  1  0.42669000  0.43616000  0.94894000  1.0
  H  H41  1  0.57332000  0.56384000  0.05107000  1.0
  H  H42  1  0.18948000  0.29081000  0.91743000  1.0
  H  H43  1  0.81052000  0.70920000  0.08257000  1.0
  H  H44  1  0.27207000  0.24749000  0.88577000  1.0
  H  H45  1  0.72793000  0.75251000  0.11424000  1.0
  H  H46  1  0.82611000  0.30602000  0.48854000  1.0
  H  H47  1  0.17390000  0.69399000  0.51147000  1.0
  H  H48  1  0.72914000  0.34419000  0.44885000  1.0
  H  H49  1  0.27086000  0.65581000  0.55115000  1.0
  H  H50  1  0.80865000  0.22908000  0.59915000  1.0
  H  H51  1  0.19135000  0.77091000  0.40085000  1.0
  H  H52  1  0.73276000  0.11275000  0.48150000  1.0
  H  H53  1  0.26723000  0.88725000  0.51850000  1.0
  H  H54  1  0.57592000  0.02339000  0.51659000  1.0
  H  H55  1  0.42408000  0.97660000  0.48341000  1.0
  H  H56  1  0.69791000  0.05926000  0.61722000  1.0
  H  H57  1  0.30209000  0.94074000  0.38278000  1.0
  H  H58  1  0.71410000  0.22075000  0.72249000  1.0
  H  H59  1  0.28590000  0.77925000  0.27751000  1.0
  H  H60  1  0.50286000  0.15817000  0.54259000  1.0
  H  H61  1  0.49714000  0.84184000  0.45742000  1.0
  H  H62  1  0.58297000  0.27173000  0.66169000  1.0
  H  H63  1  0.41704000  0.72827000  0.33832000  1.0
  H  H64  1  0.61818000  0.31583000  0.52211000  1.0
  H  H65  1  0.38182000  0.68417000  0.47790000  1.0
  H  H66  1  0.74350000  0.34946000  0.62347000  1.0
  H  H67  1  0.25650000  0.65053000  0.37653000  1.0
  H  H68  1  0.19207000  0.71371000  0.94139000  1.0
  H  H69  1  0.80793000  0.28629000  0.05861000  1.0
  H  H70  1  0.17556000  0.82462000  0.97281000  1.0
  H  H71  1  0.82443000  0.17538000  0.02718000  1.0
  H  H72  1  0.18278000  0.90904000  0.84058000  1.0
  H  H73  1  0.81721000  0.09096000  0.15943000  1.0
  H  H74  1  0.04860000  0.82534000  0.82813000  1.0
  H  H75  1  0.95139000  0.17465000  0.17186000  1.0
  H  H76  1  0.12274000  0.81116000  0.66293000  1.0
  H  H77  1  0.87727000  0.18885000  0.33707000  1.0
  H  H78  1  0.03213000  0.85228000  0.67055000  1.0
  H  H79  1  0.96787000  0.14772000  0.32945000  1.0
  H  H80  1  0.88199000  0.67128000  0.62275000  1.0
  H  H81  1  0.11801000  0.32871000  0.37725000  1.0
  H  H82  1  0.03069000  0.58478000  0.62869000  1.0
  H  H83  1  0.96933000  0.41523000  0.37129000  1.0
  H  H84  1  0.89684000  0.51850000  0.62025000  1.0
  H  H85  1  0.10318000  0.48150000  0.37973000  1.0
  H  H86  1  0.97451000  0.64442000  0.80113000  1.0
  H  H87  1  0.02549000  0.35556000  0.19884000  1.0
  H  H88  1  0.05170000  0.58425000  0.79197000  1.0
  H  H89  1  0.94830000  0.41575000  0.20802000  1.0
  H  H90  1  0.92544000  0.73532000  0.32290000  1.0
  H  H91  1  0.07455000  0.26467000  0.67710000  1.0
  H  H92  1  0.07238000  0.89002000  0.31052000  1.0
  H  H93  1  0.92762000  0.10998000  0.68948000  1.0
  H  H94  1  0.07216000  0.66328000  0.08547000  1.0
  H  H95  1  0.92785000  0.33673000  0.91453000  1.0
  H  H96  1  0.92169000  0.50683000  0.09476000  1.0
  H  H97  1  0.07830000  0.49317000  0.90523000  1.0
  H  H98  1  0.33170000  0.50841000  0.45902000  1.0
  H  H99  1  0.66830000  0.49159000  0.54098000  1.0
  H  H100  1  0.32289000  0.36896000  0.32434000  1.0
  H  H101  1  0.67711000  0.63103000  0.67565000  1.0
  H  H102  1  0.43562000  0.25872000  0.54061000  1.0
  H  H103  1  0.56437000  0.74128000  0.45939000  1.0
  H  H104  1  0.44524000  0.39818000  0.67523000  1.0
  H  H105  1  0.55475000  0.60182000  0.32477000  1.0
  C  C106  1  0.25400000  0.20767000  0.04007000  1.0
  C  C107  1  0.74600000  0.79233000  0.95993000  1.0
  C  C108  1  0.33070000  0.40522000  0.11880000  1.0
  C  C109  1  0.66929000  0.59479000  0.88121000  1.0
  C  C110  1  0.40399000  0.51542000  0.12231000  1.0
  C  C111  1  0.59600000  0.48459000  0.87769000  1.0
  C  C112  1  0.36308000  0.51730000  0.01863000  1.0
  C  C113  1  0.63692000  0.48270000  0.98138000  1.0
  C  C114  1  0.34568000  0.42226000  0.93713000  1.0
  C  C115  1  0.65432000  0.57774000  0.06287000  1.0
  C  C116  1  0.27520000  0.31340000  0.93741000  1.0
  C  C117  1  0.72479000  0.68660000  0.06259000  1.0
  C  C118  1  0.44007000  0.62880000  0.02348000  1.0
  C  C119  1  0.55994000  0.37120000  0.97652000  1.0
  C  C120  1  0.73793000  0.27558000  0.44508000  1.0
  C  C121  1  0.26207000  0.72442000  0.55492000  1.0
  C  C122  1  0.72449000  0.16143000  0.53926000  1.0
  C  C123  1  0.27550000  0.83856000  0.46074000  1.0
  C  C124  1  0.65561000  0.09339000  0.58042000  1.0
  C  C125  1  0.34439000  0.90661000  0.41958000  1.0
  C  C126  1  0.63411000  0.15886000  0.65322000  1.0
  C  C127  1  0.36589000  0.84114000  0.34678000  1.0
  C  C128  1  0.58809000  0.21743000  0.60546000  1.0
  C  C129  1  0.41191000  0.78257000  0.39454000  1.0
  C  C130  1  0.65844000  0.28320000  0.56394000  1.0
  C  C131  1  0.34157000  0.71679000  0.43606000  1.0
  C  C132  1  0.55826000  0.08964000  0.69065000  1.0
  C  C133  1  0.44174000  0.91036000  0.30935000  1.0
  C  C134  1  0.20330000  0.78545000  0.92889000  1.0
  C  C135  1  0.79669000  0.21455000  0.07110000  1.0
  C  C136  1  0.10596000  0.82752000  0.79760000  1.0
  C  C137  1  0.89403000  0.17248000  0.20240000  1.0
  C  C138  1  0.05678000  0.79685000  0.68475000  1.0
  C  C139  1  0.94321000  0.20316000  0.31525000  1.0
  C  C140  1  0.95604000  0.67760000  0.61968000  1.0
  C  C141  1  0.04396000  0.32240000  0.38031000  1.0
  C  C142  1  0.97621000  0.59814000  0.65518000  1.0
  C  C143  1  0.02381000  0.40186000  0.34480000  1.0
  C  C144  1  0.02861000  0.63769000  0.76966000  1.0
  C  C145  1  0.97139000  0.36230000  0.23033000  1.0
  C  C146  1  0.93558000  0.64848000  0.51055000  1.0
  C  C147  1  0.06443000  0.35154000  0.48944000  1.0
  C  C148  1  0.82423000  0.51743000  0.21167000  1.0
  C  C149  1  0.17577000  0.48257000  0.78833000  1.0
  C  C150  1  0.91560000  0.61166000  0.20993000  1.0
  C  C151  1  0.08440000  0.38834000  0.79007000  1.0
  C  C152  1  0.95755000  0.71951000  0.27094000  1.0
  C  C153  1  0.04244000  0.28048000  0.72906000  1.0
  C  C154  1  0.03892000  0.80555000  0.26427000  1.0
  C  C155  1  0.96108000  0.19445000  0.73573000  1.0
  C  C156  1  0.07992000  0.78487000  0.19723000  1.0
  C  C157  1  0.92008000  0.21513000  0.80277000  1.0
  C  C158  1  0.03855000  0.67716000  0.13668000  1.0
  C  C159  1  0.96146000  0.32284000  0.86332000  1.0
  C  C160  1  0.95654000  0.59122000  0.14262000  1.0
  C  C161  1  0.04346000  0.40878000  0.85738000  1.0
  C  C162  1  0.16996000  0.87753000  0.19185000  1.0
  C  C163  1  0.83004000  0.12248000  0.80816000  1.0
  C  C164  1  0.39865000  0.54586000  0.65560000  1.0
  C  C165  1  0.60135000  0.45414000  0.34440000  1.0
  C  C166  1  0.39148000  0.46265000  0.57504000  1.0
  C  C167  1  0.60853000  0.53735000  0.42496000  1.0
  C  C168  1  0.35479000  0.45347000  0.47592000  1.0
  C  C169  1  0.64521000  0.54653000  0.52407000  1.0
  C  C170  1  0.34961000  0.37647000  0.40162000  1.0
  C  C171  1  0.65039000  0.62353000  0.59838000  1.0
  C  C172  1  0.38101000  0.30765000  0.42568000  1.0
  C  C173  1  0.61898000  0.69234000  0.57432000  1.0
  C  C174  1  0.41463000  0.31493000  0.52413000  1.0
  C  C175  1  0.58536000  0.68506000  0.47587000  1.0
  C  C176  1  0.42012000  0.39207000  0.59850000  1.0
  C  C177  1  0.57987000  0.60793000  0.40150000  1.0
  C  C178  1  0.38199000  0.22888000  0.34808000  1.0
  C  C179  1  0.61801000  0.77112000  0.65193000  1.0
  N  N180  1  0.32195000  0.31665000  0.04091000  1.0
  N  N181  1  0.67805000  0.68335000  0.95910000  1.0
  N  N182  1  0.67163000  0.21250000  0.48969000  1.0
  N  N183  1  0.32837000  0.78750000  0.51031000  1.0
  N  N184  1  0.13403000  0.74878000  0.81861000  1.0
  N  N185  1  0.86597000  0.25121000  0.18138000  1.0
  O  O186  1  0.23003000  0.01760000  0.02194000  1.0
  O  O187  1  0.76997000  0.98241000  0.97806000  1.0
  O  O188  1  0.42244000  0.18252000  0.10434000  1.0
  O  O189  1  0.57756000  0.81748000  0.89566000  1.0
  O  O190  1  0.30676000  0.10822000  0.91233000  1.0
  O  O191  1  0.69324000  0.89178000  0.08767000  1.0
  O  O192  1  0.47923000  0.71273000  0.10115000  1.0
  O  O193  1  0.52077000  0.28727000  0.89885000  1.0
  O  O194  1  0.45852000  0.62996000  0.94768000  1.0
  O  O195  1  0.54148000  0.37004000  0.05232000  1.0
  O  O196  1  0.75883000  0.27857000  0.28048000  1.0
  O  O197  1  0.24118000  0.72144000  0.71952000  1.0
  O  O198  1  0.56717000  0.17226000  0.25681000  1.0
  O  O199  1  0.43283000  0.82774000  0.74319000  1.0
  O  O200  1  0.68763000  0.09473000  0.29778000  1.0
  O  O201  1  0.31237000  0.90527000  0.70223000  1.0
  O  O202  1  0.51821000  0.13026000  0.73502000  1.0
  O  O203  1  0.48179000  0.86974000  0.26498000  1.0
  O  O204  1  0.54137000  0.99601000  0.67574000  1.0
  O  O205  1  0.45862000  0.00399000  0.32426000  1.0
  O  O206  1  0.40607000  0.94273000  0.09055000  1.0
  O  O207  1  0.59393000  0.05727000  0.90945000  1.0
  O  O208  1  0.36633000  0.95021000  0.91672000  1.0
  O  O209  1  0.63367000  0.04979000  0.08328000  1.0
  O  O210  1  0.40529000  0.81351000  0.96004000  1.0
  O  O211  1  0.59471000  0.18649000  0.03996000  1.0
  O  O212  1  0.85371000  0.65464000  0.45393000  1.0
  O  O213  1  0.14628000  0.34535000  0.54607000  1.0
  O  O214  1  0.99101000  0.62443000  0.47902000  1.0
  O  O215  1  0.00901000  0.37561000  0.52098000  1.0
  O  O216  1  0.77944000  0.53448000  0.26639000  1.0
  O  O217  1  0.22056000  0.46552000  0.73362000  1.0
  O  O218  1  0.78877000  0.42114000  0.15458000  1.0
  O  O219  1  0.21123000  0.57886000  0.84542000  1.0
  O  O220  1  0.20272000  0.97451000  0.24347000  1.0
  O  O221  1  0.79729000  0.02550000  0.75655000  1.0
  O  O222  1  0.21284000  0.85485000  0.13751000  1.0
  O  O223  1  0.78716000  0.14515000  0.86249000  1.0
  O  O224  1  0.34894000  0.59248000  0.63046000  1.0
  O  O225  1  0.65106000  0.40753000  0.36954000  1.0
  O  O226  1  0.45286000  0.56729000  0.74825000  1.0
  O  O227  1  0.54715000  0.43272000  0.25175000  1.0
  O  O228  1  0.33180000  0.20728000  0.25487000  1.0
  O  O229  1  0.66820000  0.79271000  0.74514000  1.0
  O  O230  1  0.43426000  0.18565000  0.37760000  1.0
  O  O231  1  0.56575000  0.81435000  0.62241000  1.0
  O  O232  1  0.29959000  0.07314000  0.68582000  1.0
  O  O233  1  0.70040000  0.92686000  0.31418000  1.0
