# generated using pymatgen
data_Li2H14C14N2O5
_symmetry_space_group_name_H-M   'P 1'
_cell_length_a   5.20620000
_cell_length_b   8.90722000
_cell_length_c   15.30460000
_cell_angle_alpha   74.69080000
_cell_angle_beta   87.52940000
_cell_angle_gamma   85.13000000
_symmetry_Int_Tables_number   1
_chemical_formula_structural   Li2H14C14N2O5
_chemical_formula_sum   'Li4 H28 C28 N4 O10'
_cell_volume   681.90304937
_cell_formula_units_Z   2
loop_
 _symmetry_equiv_pos_site_id
 _symmetry_equiv_pos_as_xyz
  1  'x, y, z'
loop_
 _atom_site_type_symbol
 _atom_site_label
 _atom_site_symmetry_multiplicity
 _atom_site_fract_x
 _atom_site_fract_y
 _atom_site_fract_z
 _atom_site_occupancy
  Li  Li0  1  0.40422000  0.88344000  0.45477000  1.0
  Li  Li1  1  0.59575000  0.11655000  0.54523000  1.0
  Li  Li2  1  0.95273000  0.77709000  0.53701000  1.0
  Li  Li3  1  0.04721000  0.22290000  0.46299000  1.0
  H  H4  1  0.08341000  0.76989000  0.01304000  1.0
  H  H5  1  0.91662000  0.23011000  0.98696000  1.0
  H  H6  1  0.18535000  0.08583000  0.28557000  1.0
  H  H7  1  0.81465000  0.91417000  0.71443000  1.0
  H  H8  1  0.63360000  0.95066000  0.21074000  1.0
  H  H9  1  0.36638000  0.04937000  0.78924000  1.0
  H  H10  1  0.39638000  0.63768000  0.13156000  1.0
  H  H11  1  0.60362000  0.36231000  0.86845000  1.0
  H  H12  1  0.43035000  0.30893000  0.01344000  1.0
  H  H13  1  0.56964000  0.69106000  0.98656000  1.0
  H  H14  1  0.69954000  0.93291000  0.05206000  1.0
  H  H15  1  0.30047000  0.06710000  0.94792000  1.0
  H  H16  1  0.75410000  0.44084000  0.07416000  1.0
  H  H17  1  0.24589000  0.55916000  0.92584000  1.0
  H  H18  1  0.13721000  0.13149000  0.11968000  1.0
  H  H19  1  0.86278000  0.86851000  0.88032000  1.0
  H  H20  1  0.53510000  0.59186000  0.27402000  1.0
  H  H21  1  0.46481000  0.40812000  0.72601000  1.0
  H  H22  1  0.44816000  0.71377000  0.33826000  1.0
  H  H23  1  0.55175000  0.28622000  0.66175000  1.0
  H  H24  1  0.86775000  0.38223000  0.31197000  1.0
  H  H25  1  0.13223000  0.61775000  0.68803000  1.0
  H  H26  1  0.95802000  0.47734000  0.20245000  1.0
  H  H27  1  0.04198000  0.52266000  0.79755000  1.0
  H  H28  1  0.76284000  0.48973000  0.61482000  1.0
  H  H29  1  0.23698000  0.51032000  0.38517000  1.0
  H  H30  1  0.82565000  0.53434000  0.50906000  1.0
  H  H31  1  0.17564000  0.46527000  0.49100000  1.0
  C  C32  1  0.19931000  0.72262000  0.23753000  1.0
  C  C33  1  0.80063000  0.27738000  0.76248000  1.0
  C  C34  1  0.91462000  0.82155000  0.35510000  1.0
  C  C35  1  0.08532000  0.17850000  0.64488000  1.0
  C  C36  1  0.05104000  0.78117000  0.08199000  1.0
  C  C37  1  0.94897000  0.21884000  0.91800000  1.0
  C  C38  1  0.97844000  0.81047000  0.26023000  1.0
  C  C39  1  0.02151000  0.18954000  0.73976000  1.0
  C  C40  1  0.30723000  0.16437000  0.23821000  1.0
  C  C41  1  0.69275000  0.83564000  0.76179000  1.0
  C  C42  1  0.52307000  0.18918000  0.37451000  1.0
  C  C43  1  0.47689000  0.81084000  0.62549000  1.0
  C  C44  1  0.49402000  0.23426000  0.27462000  1.0
  C  C45  1  0.50595000  0.76574000  0.72537000  1.0
  C  C46  1  0.80204000  0.88351000  0.19225000  1.0
  C  C47  1  0.19793000  0.11651000  0.80773000  1.0
  C  C48  1  0.22816000  0.70730000  0.14828000  1.0
  C  C49  1  0.77183000  0.29271000  0.85173000  1.0
  C  C50  1  0.44467000  0.28945000  0.08653000  1.0
  C  C51  1  0.55532000  0.71056000  0.91347000  1.0
  C  C52  1  0.83734000  0.87193000  0.10356000  1.0
  C  C53  1  0.16267000  0.12808000  0.89643000  1.0
  C  C54  1  0.62724000  0.36317000  0.12029000  1.0
  C  C55  1  0.37275000  0.63682000  0.87971000  1.0
  C  C56  1  0.65429000  0.33948000  0.21455000  1.0
  C  C57  1  0.34570000  0.66052000  0.78544000  1.0
  C  C58  1  0.28067000  0.19014000  0.14539000  1.0
  C  C59  1  0.71933000  0.80986000  0.85461000  1.0
  N  N60  1  0.38018000  0.64295000  0.30225000  1.0
  N  N61  1  0.61972000  0.35702000  0.69777000  1.0
  N  N62  1  0.81905000  0.42524000  0.24577000  1.0
  N  N63  1  0.18093000  0.57477000  0.75423000  1.0
  O  O64  1  0.09529000  0.81825000  0.40963000  1.0
  O  O65  1  0.90463000  0.18179000  0.59036000  1.0
  O  O66  1  0.34855000  0.11192000  0.42463000  1.0
  O  O67  1  0.65142000  0.88810000  0.57537000  1.0
  O  O68  1  0.67714000  0.83137000  0.37808000  1.0
  O  O69  1  0.32279000  0.16875000  0.62188000  1.0
  O  O70  1  0.71927000  0.22451000  0.40992000  1.0
  O  O71  1  0.28068000  0.77555000  0.59007000  1.0
  O  O72  1  0.85929000  0.56359000  0.56435000  1.0
  O  O73  1  0.14055000  0.43650000  0.43570000  1.0
