# generated using pymatgen
data_Zn2H14C18N8O5
_symmetry_space_group_name_H-M   'P 1'
_cell_length_a   12.12390000
_cell_length_b   13.71570000
_cell_length_c   17.31270000
_cell_angle_alpha   90.00000000
_cell_angle_beta   92.45850000
_cell_angle_gamma   89.99990000
_symmetry_Int_Tables_number   1
_chemical_formula_structural   Zn2H14C18N8O5
_chemical_formula_sum   'Zn8 H56 C72 N32 O20'
_cell_volume   2876.24050179
_cell_formula_units_Z   4
loop_
 _symmetry_equiv_pos_site_id
 _symmetry_equiv_pos_as_xyz
  1  'x, y, z'
loop_
 _atom_site_type_symbol
 _atom_site_label
 _atom_site_symmetry_multiplicity
 _atom_site_fract_x
 _atom_site_fract_y
 _atom_site_fract_z
 _atom_site_occupancy
  Zn  Zn0  1  0.44146000  0.47529000  0.90154000  1.0
  Zn  Zn1  1  0.05854000  0.97529000  0.09846000  1.0
  Zn  Zn2  1  0.55854000  0.52471000  0.09846000  1.0
  Zn  Zn3  1  0.94146000  0.02471000  0.90154000  1.0
  Zn  Zn4  1  0.46278000  0.90519000  0.92702000  1.0
  Zn  Zn5  1  0.03722000  0.40519000  0.07298000  1.0
  Zn  Zn6  1  0.53722000  0.09481000  0.07298000  1.0
  Zn  Zn7  1  0.96278000  0.59481000  0.92702000  1.0
  H  H8  1  0.47380000  0.69837000  0.84074000  1.0
  H  H9  1  0.02620000  0.19837000  0.15926000  1.0
  H  H10  1  0.52620000  0.30163000  0.15926000  1.0
  H  H11  1  0.97380000  0.80163000  0.84074000  1.0
  H  H12  1  0.27738000  0.38045000  0.01647000  1.0
  H  H13  1  0.22262000  0.88045000  0.98353000  1.0
  H  H14  1  0.72262000  0.61955000  0.98353000  1.0
  H  H15  1  0.77738000  0.11955000  0.01647000  1.0
  H  H16  1  0.54755000  0.29280000  0.70591000  1.0
  H  H17  1  0.95245000  0.79280000  0.29409000  1.0
  H  H18  1  0.45245000  0.70721000  0.29409000  1.0
  H  H19  1  0.04755000  0.20720000  0.70591000  1.0
  H  H20  1  0.54620000  0.21916000  0.57347000  1.0
  H  H21  1  0.95380000  0.71916000  0.42653000  1.0
  H  H22  1  0.45381000  0.78084000  0.42653000  1.0
  H  H23  1  0.04619000  0.28084000  0.57347000  1.0
  H  H24  1  0.34715000  0.45823000  0.48581000  1.0
  H  H25  1  0.15285000  0.95823000  0.51419000  1.0
  H  H26  1  0.65285000  0.54177000  0.51419000  1.0
  H  H27  1  0.84716000  0.04177000  0.48581000  1.0
  H  H28  1  0.34971000  0.53145000  0.61800000  1.0
  H  H29  1  0.15029000  0.03145000  0.38201000  1.0
  H  H30  1  0.65029000  0.46855000  0.38200000  1.0
  H  H31  1  0.84971000  0.96855000  0.61799000  1.0
  H  H32  1  0.23327000  0.26043000  0.46656000  1.0
  H  H33  1  0.26673000  0.76043000  0.53344000  1.0
  H  H34  1  0.76673000  0.73957000  0.53344000  1.0
  H  H35  1  0.73327000  0.23958000  0.46656000  1.0
  H  H36  1  0.08744000  0.29386000  0.36300000  1.0
  H  H37  1  0.41256000  0.79386000  0.63700000  1.0
  H  H38  1  0.91256000  0.70614000  0.63700000  1.0
  H  H39  1  0.58744000  0.20614000  0.36300000  1.0
  H  H40  1  0.33603000  0.39366000  0.21211000  1.0
  H  H41  1  0.16397000  0.89366000  0.78789000  1.0
  H  H42  1  0.66397000  0.60633000  0.78789000  1.0
  H  H43  1  0.83603000  0.10633000  0.21211000  1.0
  H  H44  1  0.48274000  0.36001000  0.31492000  1.0
  H  H45  1  0.01726000  0.86001000  0.68509000  1.0
  H  H46  1  0.51726000  0.63999000  0.68508000  1.0
  H  H47  1  0.98274000  0.13999000  0.31492000  1.0
  H  H48  1  0.26769000  0.58821000  0.79483000  1.0
  H  H49  1  0.23231000  0.08821000  0.20517000  1.0
  H  H50  1  0.73231000  0.41179000  0.20517000  1.0
  H  H51  1  0.76769000  0.91179000  0.79483000  1.0
  H  H52  1  0.12733000  0.62179000  0.80284000  1.0
  H  H53  1  0.37267000  0.12179000  0.19716000  1.0
  H  H54  1  0.87267000  0.37821000  0.19716000  1.0
  H  H55  1  0.62733000  0.87821000  0.80284000  1.0
  H  H56  1  0.52363000  0.72648000  0.14125000  1.0
  H  H57  1  0.97636000  0.22648000  0.85875000  1.0
  H  H58  1  0.47637000  0.27352000  0.85875000  1.0
  H  H59  1  0.02363000  0.77352000  0.14125000  1.0
  H  H60  1  0.50401000  0.83855000  0.09572000  1.0
  H  H61  1  0.99599000  0.33855000  0.90428000  1.0
  H  H62  1  0.49599000  0.16145000  0.90428000  1.0
  H  H63  1  0.00401000  0.66145000  0.09572000  1.0
  C  C64  1  0.48672000  0.68977000  0.90278000  1.0
  C  C65  1  0.01328000  0.18977000  0.09722000  1.0
  C  C66  1  0.51328000  0.31023000  0.09722000  1.0
  C  C67  1  0.98672000  0.81023000  0.90278000  1.0
  C  C68  1  0.51006000  0.72111000  0.02409000  1.0
  C  C69  1  0.98994000  0.22111000  0.97591000  1.0
  C  C70  1  0.48994000  0.27889000  0.97591000  1.0
  C  C71  1  0.01006000  0.77889000  0.02409000  1.0
  C  C72  1  0.19203000  0.53246000  0.88658000  1.0
  C  C73  1  0.30797000  0.03246000  0.11342000  1.0
  C  C74  1  0.80797000  0.46754000  0.11342000  1.0
  C  C75  1  0.69203000  0.96754000  0.88658000  1.0
  C  C76  1  0.23248000  0.42983000  0.97759000  1.0
  C  C77  1  0.26752000  0.92983000  0.02241000  1.0
  C  C78  1  0.76752000  0.57017000  0.02241000  1.0
  C  C79  1  0.73248000  0.07017000  0.97759000  1.0
  C  C80  1  0.44241000  0.45768000  0.74934000  1.0
  C  C81  1  0.05759000  0.95768000  0.25066000  1.0
  C  C82  1  0.55759000  0.54232000  0.25066000  1.0
  C  C83  1  0.94240000  0.04232000  0.74934000  1.0
  C  C84  1  0.44699000  0.41591000  0.67056000  1.0
  C  C85  1  0.05301000  0.91591000  0.32944000  1.0
  C  C86  1  0.55301000  0.58409000  0.32944000  1.0
  C  C87  1  0.94698000  0.08409000  0.67056000  1.0
  C  C88  1  0.50358000  0.32844000  0.65755000  1.0
  C  C89  1  0.99642000  0.82844000  0.34245000  1.0
  C  C90  1  0.49642000  0.67156000  0.34245000  1.0
  C  C91  1  0.00358000  0.17156000  0.65755000  1.0
  C  C92  1  0.50340000  0.28741000  0.58418000  1.0
  C  C93  1  0.99660000  0.78741000  0.41582000  1.0
  C  C94  1  0.49660000  0.71260000  0.41582000  1.0
  C  C95  1  0.00340000  0.21259000  0.58418000  1.0
  C  C96  1  0.44512000  0.33358000  0.52284000  1.0
  C  C97  1  0.05488000  0.83358000  0.47716000  1.0
  C  C98  1  0.55488000  0.66642000  0.47716000  1.0
  C  C99  1  0.94512000  0.16642000  0.52284000  1.0
  C  C100  1  0.39024000  0.42208000  0.53430000  1.0
  C  C101  1  0.10976000  0.92208000  0.46570000  1.0
  C  C102  1  0.60976000  0.57792000  0.46570000  1.0
  C  C103  1  0.89024000  0.07792000  0.53430000  1.0
  C  C104  1  0.39192000  0.46268000  0.60792000  1.0
  C  C105  1  0.10807000  0.96268000  0.39208000  1.0
  C  C106  1  0.60807000  0.53732000  0.39208000  1.0
  C  C107  1  0.89193000  0.03732000  0.60792000  1.0
  C  C108  1  0.36521000  0.30986000  0.39616000  1.0
  C  C109  1  0.13479000  0.80986000  0.60384000  1.0
  C  C110  1  0.63479000  0.69014000  0.60384000  1.0
  C  C111  1  0.86521000  0.19014000  0.39616000  1.0
  C  C112  1  0.25485000  0.28991000  0.41070000  1.0
  C  C113  1  0.24514000  0.78991000  0.58931000  1.0
  C  C114  1  0.74515000  0.71009000  0.58930000  1.0
  C  C115  1  0.75485000  0.21009000  0.41069000  1.0
  C  C116  1  0.17397000  0.30852000  0.35310000  1.0
  C  C117  1  0.32603000  0.80852000  0.64690000  1.0
  C  C118  1  0.82603000  0.69148000  0.64690000  1.0
  C  C119  1  0.67397000  0.19148000  0.35310000  1.0
  C  C120  1  0.20315000  0.34657000  0.28152000  1.0
  C  C121  1  0.29685000  0.84657000  0.71848000  1.0
  C  C122  1  0.79685000  0.65343000  0.71847000  1.0
  C  C123  1  0.70315000  0.15343000  0.28152000  1.0
  C  C124  1  0.31455000  0.36440000  0.26797000  1.0
  C  C125  1  0.18545000  0.86440000  0.73203000  1.0
  C  C126  1  0.68545000  0.63560000  0.73203000  1.0
  C  C127  1  0.81455000  0.13560000  0.26797000  1.0
  C  C128  1  0.39617000  0.34595000  0.32509000  1.0
  C  C129  1  0.10382000  0.84595000  0.67492000  1.0
  C  C130  1  0.60383000  0.65405000  0.67491000  1.0
  C  C131  1  0.89617000  0.15405000  0.32509000  1.0
  C  C132  1  0.11604000  0.36622000  0.21995000  1.0
  C  C133  1  0.38396000  0.86622000  0.78005000  1.0
  C  C134  1  0.88396000  0.63378000  0.78005000  1.0
  C  C135  1  0.61604000  0.13378000  0.21995000  1.0
  N  N136  1  0.27703000  0.47729000  0.91785000  1.0
  N  N137  1  0.22297000  0.97729000  0.08215000  1.0
  N  N138  1  0.72297000  0.52271000  0.08215000  1.0
  N  N139  1  0.77703000  0.02271000  0.91785000  1.0
  N  N140  1  0.09932000  0.51702000  0.92574000  1.0
  N  N141  1  0.40068000  0.01702000  0.07426000  1.0
  N  N142  1  0.90068000  0.48298000  0.07426000  1.0
  N  N143  1  0.59932000  0.98298000  0.92574000  1.0
  N  N144  1  0.12728000  0.45149000  0.98460000  1.0
  N  N145  1  0.37272000  0.95149000  0.01540000  1.0
  N  N146  1  0.87272000  0.54851000  0.01540000  1.0
  N  N147  1  0.62728000  0.04851000  0.98460000  1.0
  N  N148  1  0.19992000  0.59530000  0.82769000  1.0
  N  N149  1  0.30008000  0.09530000  0.17231000  1.0
  N  N150  1  0.80008000  0.40470000  0.17231000  1.0
  N  N151  1  0.69992000  0.90470000  0.82769000  1.0
  N  N152  1  0.51029000  0.62357000  0.01672000  1.0
  N  N153  1  0.98971000  0.12357000  0.98328000  1.0
  N  N154  1  0.48971000  0.37643000  0.98328000  1.0
  N  N155  1  0.01029000  0.87643000  0.01672000  1.0
  N  N156  1  0.49533000  0.76493000  0.95361000  1.0
  N  N157  1  0.00467000  0.26493000  0.04639000  1.0
  N  N158  1  0.50467000  0.23507000  0.04639000  1.0
  N  N159  1  0.99533000  0.73507000  0.95361000  1.0
  N  N160  1  0.49621000  0.60451000  0.93815000  1.0
  N  N161  1  0.00379000  0.10451000  0.06185000  1.0
  N  N162  1  0.50379000  0.39549000  0.06185000  1.0
  N  N163  1  0.99621000  0.89549000  0.93815000  1.0
  N  N164  1  0.52823000  0.76805000  0.09241000  1.0
  N  N165  1  0.97177000  0.26805000  0.90759000  1.0
  N  N166  1  0.47177000  0.23195000  0.90759000  1.0
  N  N167  1  0.02823000  0.73195000  0.09241000  1.0
  O  O168  1  0.44878000  0.28933000  0.45168000  1.0
  O  O169  1  0.05122000  0.78933000  0.54832000  1.0
  O  O170  1  0.55122000  0.71067000  0.54833000  1.0
  O  O171  1  0.94878000  0.21067000  0.45167000  1.0
  O  O172  1  0.01670000  0.34525000  0.23016000  1.0
  O  O173  1  0.48330000  0.84525000  0.76984000  1.0
  O  O174  1  0.98331000  0.65475000  0.76984000  1.0
  O  O175  1  0.51669000  0.15475000  0.23016000  1.0
  O  O176  1  0.15067000  0.40336000  0.15610000  1.0
  O  O177  1  0.34933000  0.90336000  0.84390000  1.0
  O  O178  1  0.84933000  0.59664000  0.84390000  1.0
  O  O179  1  0.65067000  0.09664000  0.15610000  1.0
  O  O180  1  0.40317000  0.54146000  0.76052000  1.0
  O  O181  1  0.09683000  0.04146000  0.23948000  1.0
  O  O182  1  0.59683000  0.45854000  0.23948000  1.0
  O  O183  1  0.90317000  0.95854000  0.76052000  1.0
  O  O184  1  0.47977000  0.40381000  0.80699000  1.0
  O  O185  1  0.02023000  0.90381000  0.19301000  1.0
  O  O186  1  0.52023000  0.59619000  0.19301000  1.0
  O  O187  1  0.97977000  0.09619000  0.80699000  1.0
