# generated using pymatgen
data_Cu3H8C8S(IN2)3
_symmetry_space_group_name_H-M   'P 1'
_cell_length_a   7.16475000
_cell_length_b   10.70470000
_cell_length_c   12.12250000
_cell_angle_alpha   114.35300000
_cell_angle_beta   98.77010000
_cell_angle_gamma   100.71000000
_symmetry_Int_Tables_number   1
_chemical_formula_structural   Cu3H8C8S(IN2)3
_chemical_formula_sum   'Cu6 H16 C16 S2 I6 N12'
_cell_volume   804.55120599
_cell_formula_units_Z   2
loop_
 _symmetry_equiv_pos_site_id
 _symmetry_equiv_pos_as_xyz
  1  'x, y, z'
loop_
 _atom_site_type_symbol
 _atom_site_label
 _atom_site_symmetry_multiplicity
 _atom_site_fract_x
 _atom_site_fract_y
 _atom_site_fract_z
 _atom_site_occupancy
  Cu  Cu0  1  0.62819000  0.97786000  0.93705000  1.0
  Cu  Cu1  1  0.37175000  0.02215000  0.06296000  1.0
  Cu  Cu2  1  0.38829000  0.16686000  0.94139000  1.0
  Cu  Cu3  1  0.61171000  0.83313000  0.05861000  1.0
  Cu  Cu4  1  0.75192000  0.24148000  0.06751000  1.0
  Cu  Cu5  1  0.24809000  0.75852000  0.93248000  1.0
  H  H6  1  0.34450000  0.43918000  0.07788000  1.0
  H  H7  1  0.65551000  0.56082000  0.92212000  1.0
  H  H8  1  0.26845000  0.57823000  0.05899000  1.0
  H  H9  1  0.73155000  0.42176000  0.94100000  1.0
  H  H10  1  0.89699000  0.60059000  0.69278000  1.0
  H  H11  1  0.10302000  0.39941000  0.30722000  1.0
  H  H12  1  0.76638000  0.40197000  0.48145000  1.0
  H  H13  1  0.23362000  0.59802000  0.51855000  1.0
  H  H14  1  0.93551000  0.29842000  0.43991000  1.0
  H  H15  1  0.06449000  0.70158000  0.56009000  1.0
  H  H16  1  0.60451000  0.13658000  0.35896000  1.0
  H  H17  1  0.39549000  0.86342000  0.64104000  1.0
  H  H18  1  0.74177000  0.10953000  0.47926000  1.0
  H  H19  1  0.25823000  0.89047000  0.52075000  1.0
  H  H20  1  0.19497000  0.06684000  0.69115000  1.0
  H  H21  1  0.80503000  0.93316000  0.30885000  1.0
  C  C22  1  0.21820000  0.39272000  0.89789000  1.0
  C  C23  1  0.78180000  0.60728000  0.10210000  1.0
  C  C24  1  0.37056000  0.29785000  0.49848000  1.0
  C  C25  1  0.62944000  0.70214000  0.50153000  1.0
  C  C26  1  0.95977000  0.52717000  0.71642000  1.0
  C  C27  1  0.04024000  0.47283000  0.28358000  1.0
  C  C28  1  0.83040000  0.32369000  0.49779000  1.0
  C  C29  1  0.16960000  0.67631000  0.50221000  1.0
  C  C30  1  0.67562000  0.18532000  0.45948000  1.0
  C  C31  1  0.32437000  0.81468000  0.54052000  1.0
  C  C32  1  0.16757000  0.17134000  0.72378000  1.0
  C  C33  1  0.83244000  0.82866000  0.27621000  1.0
  C  C34  1  0.11772000  0.43314000  0.81350000  1.0
  C  C35  1  0.88229000  0.56686000  0.18649000  1.0
  C  C36  1  0.04029000  0.32905000  0.68904000  1.0
  C  C37  1  0.95972000  0.67095000  0.31096000  1.0
  S  S38  1  0.48601000  0.19960000  0.54582000  1.0
  S  S39  1  0.51399000  0.80041000  0.45419000  1.0
  I  I40  1  0.68749000  0.13709000  0.82243000  1.0
  I  I41  1  0.31251000  0.86291000  0.17757000  1.0
  I  I42  1  0.89427000  0.08092000  0.15607000  1.0
  I  I43  1  0.10573000  0.91908000  0.84393000  1.0
  I  I44  1  0.53902000  0.70254000  0.80838000  1.0
  I  I45  1  0.46099000  0.29747000  0.19163000  1.0
  N  N46  1  0.28337000  0.47736000  0.02093000  1.0
  N  N47  1  0.71664000  0.52264000  0.97907000  1.0
  N  N48  1  0.93796000  0.39067000  0.62922000  1.0
  N  N49  1  0.06204000  0.60933000  0.37077000  1.0
  N  N50  1  0.06235000  0.19665000  0.63904000  1.0
  N  N51  1  0.93765000  0.80334000  0.36096000  1.0
  N  N52  1  0.28486000  0.36791000  0.47017000  1.0
  N  N53  1  0.71514000  0.63211000  0.52983000  1.0
  N  N54  1  0.24472000  0.25918000  0.84796000  1.0
  N  N55  1  0.75528000  0.74082000  0.15204000  1.0
  N  N56  1  0.06901000  0.55790000  0.82848000  1.0
  N  N57  1  0.93100000  0.44211000  0.17152000  1.0
