# generated using pymatgen
data_Zn2H21C42N2O13F2
_symmetry_space_group_name_H-M   'P 1'
_cell_length_a   16.60830000
_cell_length_b   17.91110000
_cell_length_c   28.93630000
_cell_angle_alpha   89.90150000
_cell_angle_beta   90.07280000
_cell_angle_gamma   89.97450000
_symmetry_Int_Tables_number   1
_chemical_formula_structural   Zn2H21C42N2O13F2
_chemical_formula_sum   'Zn4 H42 C84 N4 O26 F4'
_cell_volume   8607.74518745
_cell_formula_units_Z   2
loop_
 _symmetry_equiv_pos_site_id
 _symmetry_equiv_pos_as_xyz
  1  'x, y, z'
loop_
 _atom_site_type_symbol
 _atom_site_label
 _atom_site_symmetry_multiplicity
 _atom_site_fract_x
 _atom_site_fract_y
 _atom_site_fract_z
 _atom_site_occupancy
  Zn  Zn0  1  0.58390000  0.50440000  0.49622000  1.0
  Zn  Zn1  1  0.41000000  0.50341000  0.49951000  1.0
  Zn  Zn2  1  0.41584000  0.50762000  0.88184000  1.0
  Zn  Zn3  1  0.59029000  0.50589000  0.88087000  1.0
  H  H4  1  0.28105000  0.58885000  0.54103000  1.0
  H  H5  1  0.13095000  0.59497000  0.54102000  1.0
  H  H6  1  0.13178000  0.39126000  0.46000000  1.0
  H  H7  1  0.86711000  0.56391000  0.56238000  1.0
  H  H8  1  0.70833000  0.43966000  0.44137000  1.0
  H  H9  1  0.85858000  0.43244000  0.43666000  1.0
  H  H10  1  0.62265000  0.73577000  0.48754000  1.0
  H  H11  1  0.63059000  0.87531000  0.48850000  1.0
  H  H12  1  0.37270000  0.88469000  0.50903000  1.0
  H  H13  1  0.63491000  0.12728000  0.51027000  1.0
  H  H14  1  0.37382000  0.25999000  0.49089000  1.0
  H  H15  1  0.37693000  0.12160000  0.48945000  1.0
  H  H16  1  0.59799000  0.40053000  0.77642000  1.0
  H  H17  1  0.60155000  0.40133000  0.60379000  1.0
  H  H18  1  0.36964000  0.50168000  0.02775000  1.0
  H  H19  1  0.36803000  0.50370000  0.11417000  1.0
  H  H20  1  0.62850000  0.50194000  0.11432000  1.0
  H  H21  1  0.36843000  0.52061000  0.26549000  1.0
  H  H22  1  0.62389000  0.48019000  0.35180000  1.0
  H  H23  1  0.62563000  0.48238000  0.26540000  1.0
  H  H24  1  0.71844000  0.59423000  0.84144000  1.0
  H  H25  1  0.86864000  0.60178000  0.84226000  1.0
  H  H26  1  0.86925000  0.39170000  0.91721000  1.0
  H  H27  1  0.13151000  0.57253000  0.81999000  1.0
  H  H28  1  0.29245000  0.44251000  0.93802000  1.0
  H  H29  1  0.14220000  0.43529000  0.94358000  1.0
  H  H30  1  0.38257000  0.73646000  0.87598000  1.0
  H  H31  1  0.37265000  0.87589000  0.87288000  1.0
  H  H32  1  0.63260000  0.88916000  0.87935000  1.0
  H  H33  1  0.36525000  0.12984000  0.87697000  1.0
  H  H34  1  0.62923000  0.26128000  0.87581000  1.0
  H  H35  1  0.62565000  0.12276000  0.87596000  1.0
  H  H36  1  0.34456000  0.37849000  0.47079000  1.0
  H  H37  1  0.65502000  0.55483000  0.57318000  1.0
  H  H38  1  0.36233000  0.68720000  0.50978000  1.0
  H  H39  1  0.63185000  0.32443000  0.51483000  1.0
  H  H40  1  0.63180000  0.50108000  0.99214000  1.0
  H  H41  1  0.36569000  0.52127000  0.38772000  1.0
  H  H42  1  0.65713000  0.37735000  0.90306000  1.0
  H  H43  1  0.34199000  0.55901000  0.80616000  1.0
  H  H44  1  0.64657000  0.69177000  0.88376000  1.0
  H  H45  1  0.36837000  0.32722000  0.87510000  1.0
  C  C46  1  0.49354000  0.64968000  0.49707000  1.0
  C  C47  1  0.49879000  0.50787000  0.58862000  1.0
  C  C48  1  0.49880000  0.35456000  0.50164000  1.0
  C  C49  1  0.49849000  0.49769000  0.40810000  1.0
  C  C50  1  0.51367000  0.65259000  0.88182000  1.0
  C  C51  1  0.49781000  0.51169000  0.79021000  1.0
  C  C52  1  0.50322000  0.35636000  0.87678000  1.0
  C  C53  1  0.49664000  0.49926000  0.97161000  1.0
  C  C54  1  0.24516000  0.54676000  0.52329000  1.0
  C  C55  1  0.16229000  0.55000000  0.52336000  1.0
  C  C56  1  0.11905000  0.49372000  0.49955000  1.0
  C  C57  1  0.16203000  0.43648000  0.47808000  1.0
  C  C58  1  0.24656000  0.43632000  0.48058000  1.0
  C  C59  1  0.03384000  0.49513000  0.49837000  1.0
  C  C60  1  0.96049000  0.49715000  0.49836000  1.0
  C  C61  1  0.87526000  0.49882000  0.49921000  1.0
  C  C62  1  0.83480000  0.53566000  0.53477000  1.0
  C  C63  1  0.75022000  0.53464000  0.53581000  1.0
  C  C64  1  0.74656000  0.46563000  0.46745000  1.0
  C  C65  1  0.82933000  0.46223000  0.46473000  1.0
  C  C66  1  0.49508000  0.73202000  0.49795000  1.0
  C  C67  1  0.56882000  0.76961000  0.49228000  1.0
  C  C68  1  0.57328000  0.84664000  0.49273000  1.0
  C  C69  1  0.50193000  0.88907000  0.49857000  1.0
  C  C70  1  0.42781000  0.85264000  0.50434000  1.0
  C  C71  1  0.42373000  0.77459000  0.50442000  1.0
  C  C72  1  0.50502000  0.96804000  0.49870000  1.0
  C  C73  1  0.50720000  0.03618000  0.49899000  1.0
  C  C74  1  0.50626000  0.11516000  0.49961000  1.0
  C  C75  1  0.57751000  0.15586000  0.50592000  1.0
  C  C76  1  0.57601000  0.23399000  0.50723000  1.0
  C  C77  1  0.50165000  0.27261000  0.50138000  1.0
  C  C78  1  0.43077000  0.23057000  0.49499000  1.0
  C  C79  1  0.43205000  0.15354000  0.49419000  1.0
  C  C80  1  0.50010000  0.50865000  0.73850000  1.0
  C  C81  1  0.55010000  0.45601000  0.71476000  1.0
  C  C82  1  0.45302000  0.55722000  0.71306000  1.0
  C  C83  1  0.59731000  0.40240000  0.73884000  1.0
  C  C84  1  0.64363000  0.35242000  0.71480000  1.0
  C  C85  1  0.50135000  0.50730000  0.64037000  1.0
  C  C86  1  0.45336000  0.55636000  0.66442000  1.0
  C  C87  1  0.55103000  0.45578000  0.66506000  1.0
  C  C88  1  0.59973000  0.40303000  0.64141000  1.0
  C  C89  1  0.64530000  0.35289000  0.66599000  1.0
  C  C90  1  0.49839000  0.50046000  0.02252000  1.0
  C  C91  1  0.42558000  0.50155000  0.04742000  1.0
  C  C92  1  0.42451000  0.50280000  0.09514000  1.0
  C  C93  1  0.49831000  0.50254000  0.11987000  1.0
  C  C94  1  0.57146000  0.50180000  0.09573000  1.0
  C  C95  1  0.57242000  0.50107000  0.04734000  1.0
  C  C96  1  0.49805000  0.50273000  0.16876000  1.0
  C  C97  1  0.49715000  0.50230000  0.21093000  1.0
  C  C98  1  0.49690000  0.50132000  0.25982000  1.0
  C  C99  1  0.42469000  0.51160000  0.28405000  1.0
  C  C100  1  0.42383000  0.51112000  0.33244000  1.0
  C  C101  1  0.49680000  0.49907000  0.35721000  1.0
  C  C102  1  0.56865000  0.48885000  0.33220000  1.0
  C  C103  1  0.56978000  0.49003000  0.28448000  1.0
  C  C104  1  0.75478000  0.55095000  0.85783000  1.0
  C  C105  1  0.83757000  0.55507000  0.85835000  1.0
  C  C106  1  0.88109000  0.49749000  0.88089000  1.0
  C  C107  1  0.83863000  0.43796000  0.90029000  1.0
  C  C108  1  0.75424000  0.43694000  0.89701000  1.0
  C  C109  1  0.96617000  0.49984000  0.88270000  1.0
  C  C110  1  0.03945000  0.50247000  0.88312000  1.0
  C  C111  1  0.12457000  0.50446000  0.88214000  1.0
  C  C112  1  0.16432000  0.54292000  0.84692000  1.0
  C  C113  1  0.24880000  0.54120000  0.84514000  1.0
  C  C114  1  0.25371000  0.46950000  0.91253000  1.0
  C  C115  1  0.17099000  0.46627000  0.91579000  1.0
  C  C116  1  0.51133000  0.73479000  0.87950000  1.0
  C  C117  1  0.43635000  0.77119000  0.87672000  1.0
  C  C118  1  0.43083000  0.84807000  0.87500000  1.0
  C  C119  1  0.50217000  0.89145000  0.87628000  1.0
  C  C120  1  0.57755000  0.85618000  0.87847000  1.0
  C  C121  1  0.58291000  0.77825000  0.88003000  1.0
  C  C122  1  0.49772000  0.97028000  0.87591000  1.0
  C  C123  1  0.49443000  0.03835000  0.87631000  1.0
  C  C124  1  0.49519000  0.11724000  0.87664000  1.0
  C  C125  1  0.42325000  0.15817000  0.87686000  1.0
  C  C126  1  0.42483000  0.23631000  0.87663000  1.0
  C  C127  1  0.50011000  0.27447000  0.87666000  1.0
  C  C128  1  0.57172000  0.23215000  0.87639000  1.0
  C  C129  1  0.57020000  0.15515000  0.87637000  1.0
  N  N130  1  0.28737000  0.49201000  0.50180000  1.0
  N  N131  1  0.70686000  0.50128000  0.50199000  1.0
  N  N132  1  0.71301000  0.49399000  0.87734000  1.0
  N  N133  1  0.29269000  0.50618000  0.87811000  1.0
  O  O134  1  0.55828000  0.61474000  0.48838000  1.0
  O  O135  1  0.42518000  0.61692000  0.50537000  1.0
  O  O136  1  0.43257000  0.49275000  0.56954000  1.0
  O  O137  1  0.56444000  0.52255000  0.56738000  1.0
  O  O138  1  0.43281000  0.38865000  0.49234000  1.0
  O  O139  1  0.56386000  0.39070000  0.51148000  1.0
  O  O140  1  0.56457000  0.48316000  0.42874000  1.0
  O  O141  1  0.43168000  0.51153000  0.42957000  1.0
  O  O142  1  0.44760000  0.61708000  0.88303000  1.0
  O  O143  1  0.58387000  0.62056000  0.88248000  1.0
  O  O144  1  0.56458000  0.50999000  0.81124000  1.0
  O  O145  1  0.42882000  0.51389000  0.80960000  1.0
  O  O146  1  0.57164000  0.38975000  0.87851000  1.0
  O  O147  1  0.43648000  0.39278000  0.87452000  1.0
  O  O148  1  0.42900000  0.49646000  0.95098000  1.0
  O  O149  1  0.56527000  0.50108000  0.95022000  1.0
  O  O150  1  0.28594000  0.37962000  0.46133000  1.0
  O  O151  1  0.71394000  0.56768000  0.57133000  1.0
  O  O152  1  0.35105000  0.74224000  0.51057000  1.0
  O  O153  1  0.64635000  0.27007000  0.51390000  1.0
  O  O154  1  0.64461000  0.50085000  0.02603000  1.0
  O  O155  1  0.35274000  0.52224000  0.35385000  1.0
  O  O156  1  0.71507000  0.37815000  0.91396000  1.0
  O  O157  1  0.28455000  0.57537000  0.80980000  1.0
  O  O158  1  0.65685000  0.74692000  0.88236000  1.0
  O  O159  1  0.35381000  0.27284000  0.87637000  1.0
  F  F160  1  0.40646000  0.60656000  0.64202000  1.0
  F  F161  1  0.40623000  0.60912000  0.73386000  1.0
  F  F162  1  0.68894000  0.30121000  0.73756000  1.0
  F  F163  1  0.69250000  0.30265000  0.64399000  1.0
