# generated using pymatgen
data_ZnP2H14(CO)8
_symmetry_space_group_name_H-M   'P 1'
_cell_length_a   7.43586000
_cell_length_b   7.67440000
_cell_length_c   22.46100000
_cell_angle_alpha   90.00000000
_cell_angle_beta   90.00000000
_cell_angle_gamma   90.00000000
_symmetry_Int_Tables_number   1
_chemical_formula_structural   ZnP2H14(CO)8
_chemical_formula_sum   'Zn4 P8 H56 C32 O32'
_cell_volume   1281.75412484
_cell_formula_units_Z   4
loop_
 _symmetry_equiv_pos_site_id
 _symmetry_equiv_pos_as_xyz
  1  'x, y, z'
loop_
 _atom_site_type_symbol
 _atom_site_label
 _atom_site_symmetry_multiplicity
 _atom_site_fract_x
 _atom_site_fract_y
 _atom_site_fract_z
 _atom_site_occupancy
  Zn  Zn0  1  0.83176000  0.92291000  0.25000000  1.0
  Zn  Zn1  1  0.66822000  0.42290000  0.75000000  1.0
  Zn  Zn2  1  0.16821000  0.07709000  0.75000000  1.0
  Zn  Zn3  1  0.33178000  0.57710000  0.25000000  1.0
  P  P4  1  0.04926000  0.07819000  0.36156000  1.0
  P  P5  1  0.45072000  0.57819000  0.63844000  1.0
  P  P6  1  0.95072000  0.92178000  0.86156000  1.0
  P  P7  1  0.54928000  0.42181000  0.13844000  1.0
  P  P8  1  0.95074000  0.92181000  0.63843000  1.0
  P  P9  1  0.54927000  0.42181000  0.36157000  1.0
  P  P10  1  0.04927000  0.07821000  0.13843000  1.0
  P  P11  1  0.45072000  0.57819000  0.86157000  1.0
  H  H12  1  0.58413000  0.14064000  0.28676000  1.0
  H  H13  1  0.91585000  0.64063000  0.71323000  1.0
  H  H14  1  0.41584000  0.85936000  0.78676000  1.0
  H  H15  1  0.08415000  0.35937000  0.21323000  1.0
  H  H16  1  0.41585000  0.85936000  0.71324000  1.0
  H  H17  1  0.08414000  0.35936000  0.28676000  1.0
  H  H18  1  0.58413000  0.14064000  0.21324000  1.0
  H  H19  1  0.91586000  0.64062000  0.78676000  1.0
  H  H20  1  0.76550000  0.60559000  0.28568000  1.0
  H  H21  1  0.73450000  0.10558000  0.71432000  1.0
  H  H22  1  0.23449000  0.39442000  0.78568000  1.0
  H  H23  1  0.26549000  0.89442000  0.21432000  1.0
  H  H24  1  0.23448000  0.39442000  0.71432000  1.0
  H  H25  1  0.26549000  0.89443000  0.28567000  1.0
  H  H26  1  0.76550000  0.60557000  0.21432000  1.0
  H  H27  1  0.73450000  0.10556000  0.78567000  1.0
  H  H28  1  0.35285000  0.12460000  0.34907000  1.0
  H  H29  1  0.14715000  0.62458000  0.65092000  1.0
  H  H30  1  0.64715000  0.87541000  0.84907000  1.0
  H  H31  1  0.85286000  0.37542000  0.15093000  1.0
  H  H32  1  0.64716000  0.87541000  0.65093000  1.0
  H  H33  1  0.85284000  0.37542000  0.34907000  1.0
  H  H34  1  0.35283000  0.12458000  0.15093000  1.0
  H  H35  1  0.14715000  0.62457000  0.84908000  1.0
  H  H36  1  0.17482000  0.72838000  0.38620000  1.0
  H  H37  1  0.32520000  0.22838000  0.61379000  1.0
  H  H38  1  0.82521000  0.27157000  0.88620000  1.0
  H  H39  1  0.67479000  0.77163000  0.11380000  1.0
  H  H40  1  0.82519000  0.27161000  0.61379000  1.0
  H  H41  1  0.67480000  0.77163000  0.38621000  1.0
  H  H42  1  0.17478000  0.72842000  0.11379000  1.0
  H  H43  1  0.32521000  0.22840000  0.88622000  1.0
  H  H44  1  0.95831000  0.65053000  0.40371000  1.0
  H  H45  1  0.54169000  0.15054000  0.59628000  1.0
  H  H46  1  0.04169000  0.34942000  0.90370000  1.0
  H  H47  1  0.45831000  0.84946000  0.09628000  1.0
  H  H48  1  0.04170000  0.34944000  0.59628000  1.0
  H  H49  1  0.45832000  0.84947000  0.40373000  1.0
  H  H50  1  0.95830000  0.65058000  0.09629000  1.0
  H  H51  1  0.54168000  0.15056000  0.90372000  1.0
  H  H52  1  0.14343000  0.59658000  0.45006000  1.0
  H  H53  1  0.35658000  0.09660000  0.54993000  1.0
  H  H54  1  0.85658000  0.40338000  0.95005000  1.0
  H  H55  1  0.64343000  0.90341000  0.04994000  1.0
  H  H56  1  0.85658000  0.40340000  0.54993000  1.0
  H  H57  1  0.64342000  0.90340000  0.45007000  1.0
  H  H58  1  0.14340000  0.59661000  0.04995000  1.0
  H  H59  1  0.35658000  0.09662000  0.95007000  1.0
  H  H60  1  0.96883000  0.29743000  0.45936000  1.0
  H  H61  1  0.53117000  0.79744000  0.54065000  1.0
  H  H62  1  0.03115000  0.70254000  0.95937000  1.0
  H  H63  1  0.46887000  0.20255000  0.04065000  1.0
  H  H64  1  0.03117000  0.70256000  0.54064000  1.0
  H  H65  1  0.46884000  0.20256000  0.45936000  1.0
  H  H66  1  0.96884000  0.29745000  0.04063000  1.0
  H  H67  1  0.53118000  0.79745000  0.95936000  1.0
  C  C68  1  0.08342000  0.70096000  0.42323000  1.0
  C  C69  1  0.41658000  0.20095000  0.57676000  1.0
  C  C70  1  0.91658000  0.29904000  0.92322000  1.0
  C  C71  1  0.58342000  0.79906000  0.07677000  1.0
  C  C72  1  0.91658000  0.29903000  0.57676000  1.0
  C  C73  1  0.58342000  0.79906000  0.42324000  1.0
  C  C74  1  0.08341000  0.70096000  0.07677000  1.0
  C  C75  1  0.41657000  0.20096000  0.92324000  1.0
  C  C76  1  0.04491000  0.85755000  0.46128000  1.0
  C  C77  1  0.45511000  0.35753000  0.53872000  1.0
  C  C78  1  0.95510000  0.14245000  0.96127000  1.0
  C  C79  1  0.54492000  0.64247000  0.03872000  1.0
  C  C80  1  0.95510000  0.14246000  0.53871000  1.0
  C  C81  1  0.54491000  0.64247000  0.46128000  1.0
  C  C82  1  0.04489000  0.85753000  0.03872000  1.0
  C  C83  1  0.45510000  0.35754000  0.96128000  1.0
  C  C84  1  0.02637000  0.02926000  0.43933000  1.0
  C  C85  1  0.47365000  0.52926000  0.56067000  1.0
  C  C86  1  0.97362000  0.97072000  0.93933000  1.0
  C  C87  1  0.52639000  0.47075000  0.06067000  1.0
  C  C88  1  0.97363000  0.97073000  0.56066000  1.0
  C  C89  1  0.52638000  0.47074000  0.43934000  1.0
  C  C90  1  0.02636000  0.02928000  0.06066000  1.0
  C  C91  1  0.47365000  0.52928000  0.93934000  1.0
  C  C92  1  0.98205000  0.16649000  0.47770000  1.0
  C  C93  1  0.51796000  0.66650000  0.52230000  1.0
  C  C94  1  0.01794000  0.83349000  0.97771000  1.0
  C  C95  1  0.48207000  0.33351000  0.02230000  1.0
  C  C96  1  0.01795000  0.83350000  0.52229000  1.0
  C  C97  1  0.48207000  0.33350000  0.47770000  1.0
  C  C98  1  0.98205000  0.16651000  0.02229000  1.0
  C  C99  1  0.51797000  0.66651000  0.97771000  1.0
  O  O100  1  0.92822000  0.95164000  0.32847000  1.0
  O  O101  1  0.57177000  0.45162000  0.67153000  1.0
  O  O102  1  0.07179000  0.04833000  0.82848000  1.0
  O  O103  1  0.42822000  0.54836000  0.17152000  1.0
  O  O104  1  0.07179000  0.04836000  0.67152000  1.0
  O  O105  1  0.42821000  0.54836000  0.32848000  1.0
  O  O106  1  0.92819000  0.95168000  0.17152000  1.0
  O  O107  1  0.57178000  0.45164000  0.82848000  1.0
  O  O108  1  0.61335000  0.07237000  0.25000000  1.0
  O  O109  1  0.88664000  0.57236000  0.75000000  1.0
  O  O110  1  0.38663000  0.92763000  0.75000000  1.0
  O  O111  1  0.11337000  0.42763000  0.25000000  1.0
  O  O112  1  0.74604000  0.68010000  0.25000000  1.0
  O  O113  1  0.75396000  0.18009000  0.75000000  1.0
  O  O114  1  0.25394000  0.31991000  0.75000000  1.0
  O  O115  1  0.24604000  0.81990000  0.25000000  1.0
  O  O116  1  0.25085000  0.03243000  0.34275000  1.0
  O  O117  1  0.24915000  0.53243000  0.65724000  1.0
  O  O118  1  0.74915000  0.96755000  0.84276000  1.0
  O  O119  1  0.75086000  0.46757000  0.15725000  1.0
  O  O120  1  0.74913000  0.96756000  0.65724000  1.0
  O  O121  1  0.75087000  0.46757000  0.34276000  1.0
  O  O122  1  0.25086000  0.03246000  0.15724000  1.0
  O  O123  1  0.24914000  0.53244000  0.84276000  1.0
  O  O124  1  0.01794000  0.27201000  0.35032000  1.0
  O  O125  1  0.48206000  0.77199000  0.64968000  1.0
  O  O126  1  0.98203000  0.72797000  0.85033000  1.0
  O  O127  1  0.51795000  0.22799000  0.14967000  1.0
  O  O128  1  0.98205000  0.72798000  0.64967000  1.0
  O  O129  1  0.51796000  0.22799000  0.35032000  1.0
  O  O130  1  0.01796000  0.27204000  0.14967000  1.0
  O  O131  1  0.48204000  0.77201000  0.85033000  1.0
