# generated using pymatgen
data_ZnH32C36(N7O3)2
_symmetry_space_group_name_H-M   'P 1'
_cell_length_a   7.21130000
_cell_length_b   8.75324000
_cell_length_c   15.76810000
_cell_angle_alpha   81.56630000
_cell_angle_beta   77.76840000
_cell_angle_gamma   69.03680000
_symmetry_Int_Tables_number   1
_chemical_formula_structural   ZnH32C36(N7O3)2
_chemical_formula_sum   'Zn1 H32 C36 N14 O6'
_cell_volume   905.59636331
_cell_formula_units_Z   1
loop_
 _symmetry_equiv_pos_site_id
 _symmetry_equiv_pos_as_xyz
  1  'x, y, z'
loop_
 _atom_site_type_symbol
 _atom_site_label
 _atom_site_symmetry_multiplicity
 _atom_site_fract_x
 _atom_site_fract_y
 _atom_site_fract_z
 _atom_site_occupancy
  Zn  Zn0  1  0.50000000  0.00000000  0.00000000  1.0
  H  H1  1  0.90422000  0.95546000  0.08412000  1.0
  H  H2  1  0.09578000  0.04455000  0.91588000  1.0
  H  H3  1  0.67435000  0.58792000  0.05843000  1.0
  H  H4  1  0.32565000  0.41208000  0.94157000  1.0
  H  H5  1  0.48320000  0.83124000  0.20867000  1.0
  H  H6  1  0.51679000  0.16875000  0.79133000  1.0
  H  H7  1  0.10696000  0.28556000  0.11203000  1.0
  H  H8  1  0.89304000  0.71444000  0.88797000  1.0
  H  H9  1  0.18059000  0.78511000  0.16493000  1.0
  H  H10  1  0.81941000  0.21489000  0.83507000  1.0
  H  H11  1  0.27766000  0.57469000  0.14573000  1.0
  H  H12  1  0.72234000  0.42531000  0.85427000  1.0
  H  H13  1  0.87150000  0.37202000  0.24794000  1.0
  H  H14  1  0.12850000  0.62798000  0.75206000  1.0
  H  H15  1  0.02058000  0.33074000  0.33052000  1.0
  H  H16  1  0.97942000  0.66926000  0.66949000  1.0
  H  H17  1  0.77890000  0.76530000  0.29038000  1.0
  H  H18  1  0.22110000  0.23470000  0.70962000  1.0
  H  H19  1  0.40559000  0.47069000  0.27818000  1.0
  H  H20  1  0.59441000  0.52932000  0.72182000  1.0
  H  H21  1  0.67102000  0.16538000  0.25399000  1.0
  H  H22  1  0.32898000  0.83463000  0.74601000  1.0
  H  H23  1  0.92344000  0.21307000  0.46871000  1.0
  H  H24  1  0.07656000  0.78693000  0.53129000  1.0
  H  H25  1  0.71168000  0.68066000  0.44422000  1.0
  H  H26  1  0.28832000  0.31934000  0.55577000  1.0
  H  H27  1  0.34308000  0.39106000  0.43326000  1.0
  H  H28  1  0.65692000  0.60894000  0.56674000  1.0
  H  H29  1  0.45072000  0.03507000  0.35465000  1.0
  H  H30  1  0.54928000  0.96493000  0.64536000  1.0
  H  H31  1  0.71340000  0.07698000  0.56912000  1.0
  H  H32  1  0.28661000  0.92303000  0.43088000  1.0
  C  C33  1  0.87688000  0.83993000  0.08886000  1.0
  C  C34  1  0.12311000  0.16007000  0.91114000  1.0
  C  C35  1  0.76336000  0.65044000  0.07723000  1.0
  C  C36  1  0.23664000  0.34956000  0.92277000  1.0
  C  C37  1  0.36536000  0.94976000  0.20440000  1.0
  C  C38  1  0.63464000  0.05023000  0.79560000  1.0
  C  C39  1  0.17752000  0.17811000  0.15273000  1.0
  C  C40  1  0.82248000  0.82189000  0.84727000  1.0
  C  C41  1  0.14527000  0.67102000  0.17652000  1.0
  C  C42  1  0.85472000  0.32898000  0.82348000  1.0
  C  C43  1  0.95076000  0.27593000  0.29355000  1.0
  C  C44  1  0.04924000  0.72407000  0.70645000  1.0
  C  C45  1  0.09735000  0.62406000  0.27238000  1.0
  C  C46  1  0.90265000  0.37594000  0.72762000  1.0
  C  C47  1  0.81408000  0.19696000  0.35427000  1.0
  C  C48  1  0.18592000  0.80304000  0.64573000  1.0
  C  C49  1  0.90356000  0.68191000  0.32121000  1.0
  C  C50  1  0.09643000  0.31809000  0.67879000  1.0
  C  C51  1  0.25338000  0.51972000  0.31505000  1.0
  C  C52  1  0.74662000  0.48028000  0.68495000  1.0
  C  C53  1  0.67941000  0.14554000  0.32336000  1.0
  C  C54  1  0.32059000  0.85447000  0.67664000  1.0
  C  C55  1  0.82040000  0.17277000  0.44340000  1.0
  C  C56  1  0.17960000  0.82723000  0.55660000  1.0
  C  C57  1  0.86572000  0.63374000  0.40942000  1.0
  C  C58  1  0.13428000  0.36626000  0.59058000  1.0
  C  C59  1  0.21635000  0.47358000  0.40365000  1.0
  C  C60  1  0.78364000  0.52642000  0.59635000  1.0
  C  C61  1  0.55658000  0.07046000  0.38050000  1.0
  C  C62  1  0.44342000  0.92954000  0.61950000  1.0
  C  C63  1  0.69895000  0.09589000  0.50058000  1.0
  C  C64  1  0.30105000  0.90411000  0.49942000  1.0
  C  C65  1  0.02072000  0.52720000  0.45314000  1.0
  C  C66  1  0.97928000  0.47280000  0.54686000  1.0
  C  C67  1  0.56471000  0.04172000  0.47018000  1.0
  C  C68  1  0.43529000  0.95828000  0.52982000  1.0
  N  N69  1  0.73739000  0.81289000  0.05476000  1.0
  N  N70  1  0.26261000  0.18711000  0.94524000  1.0
  N  N71  1  0.33775000  0.04665000  0.12868000  1.0
  N  N72  1  0.66224000  0.95335000  0.87132000  1.0
  N  N73  1  0.36565000  0.73685000  0.94022000  1.0
  N  N74  1  0.63435000  0.26315000  0.05978000  1.0
  N  N75  1  0.98009000  0.69966000  0.13006000  1.0
  N  N76  1  0.01991000  0.30034000  0.86994000  1.0
  N  N77  1  0.91030000  0.57697000  0.12329000  1.0
  N  N78  1  0.08971000  0.42303000  0.87671000  1.0
  N  N79  1  0.23220000  0.01336000  0.27312000  1.0
  N  N80  1  0.76780000  0.98663000  0.72688000  1.0
  N  N81  1  0.11402000  0.15865000  0.23866000  1.0
  N  N82  1  0.88598000  0.84135000  0.76134000  1.0
  O  O83  1  0.32943000  0.83283000  0.00141000  1.0
  O  O84  1  0.67057000  0.16717000  0.99859000  1.0
  O  O85  1  0.53785000  0.63183000  0.92258000  1.0
  O  O86  1  0.46216000  0.36817000  0.07742000  1.0
  O  O87  1  0.22538000  0.75177000  0.90034000  1.0
  O  O88  1  0.77463000  0.24823000  0.09966000  1.0
