# generated using pymatgen
data_Ca2H10C14O11
_symmetry_space_group_name_H-M   'P 1'
_cell_length_a   6.34397000
_cell_length_b   9.13265000
_cell_length_c   14.21197323
_cell_angle_alpha   76.28213502
_cell_angle_beta   78.10807413
_cell_angle_gamma   86.62170000
_symmetry_Int_Tables_number   1
_chemical_formula_structural   Ca2H10C14O11
_chemical_formula_sum   'Ca4 H20 C28 O22'
_cell_volume   782.70377592
_cell_formula_units_Z   2
loop_
 _symmetry_equiv_pos_site_id
 _symmetry_equiv_pos_as_xyz
  1  'x, y, z'
loop_
 _atom_site_type_symbol
 _atom_site_label
 _atom_site_symmetry_multiplicity
 _atom_site_fract_x
 _atom_site_fract_y
 _atom_site_fract_z
 _atom_site_occupancy
  Ca  Ca0  1  0.59761000  0.08168000  0.14460000  1.0
  Ca  Ca1  1  0.40239000  0.91831000  0.85540000  1.0
  Ca  Ca2  1  0.90973000  0.17620000  0.84736000  1.0
  Ca  Ca3  1  0.09027000  0.82380000  0.15264000  1.0
  H  H4  1  0.81949000  0.73790000  0.83790000  1.0
  H  H5  1  0.18051000  0.26210000  0.16210000  1.0
  H  H6  1  0.78077000  0.53074000  0.76683000  1.0
  H  H7  1  0.21923000  0.46926000  0.23317000  1.0
  H  H8  1  0.54688000  0.35180000  0.22265000  1.0
  H  H9  1  0.45312000  0.64820000  0.77735000  1.0
  H  H10  1  0.68402000  0.62178000  0.15727000  1.0
  H  H11  1  0.31598000  0.37822000  0.84273000  1.0
  H  H12  1  0.26656000  0.92051000  0.45617000  1.0
  H  H13  1  0.73344000  0.07949000  0.54383000  1.0
  H  H14  1  0.16874000  0.79246000  0.71747000  1.0
  H  H15  1  0.83126000  0.20755000  0.28253000  1.0
  H  H16  1  0.13995000  0.41427000  0.64711000  1.0
  H  H17  1  0.86005000  0.58574000  0.35289000  1.0
  H  H18  1  0.23968000  0.38473000  0.47975000  1.0
  H  H19  1  0.76032000  0.61527000  0.52025000  1.0
  H  H20  1  0.43086000  0.76655000  0.29675000  1.0
  H  H21  1  0.56914000  0.23346000  0.70325000  1.0
  H  H22  1  0.32109000  0.92814000  0.29677000  1.0
  H  H23  1  0.67890000  0.07186000  0.70323000  1.0
  C  C24  1  0.74985000  0.85632000  0.99819000  1.0
  C  C25  1  0.25015000  0.14368000  0.00181000  1.0
  C  C26  1  0.74975000  0.69664000  0.99749000  1.0
  C  C27  1  0.25025000  0.30336000  0.00251000  1.0
  C  C28  1  0.78648000  0.65279000  0.90713000  1.0
  C  C29  1  0.21352000  0.34721000  0.09287000  1.0
  C  C30  1  0.78999000  0.50106000  0.90706000  1.0
  C  C31  1  0.21001000  0.49893000  0.09294000  1.0
  C  C32  1  0.75485000  0.38810000  0.99607000  1.0
  C  C33  1  0.24515000  0.61189000  0.00393000  1.0
  C  C34  1  0.71429000  0.43705000  0.08574000  1.0
  C  C35  1  0.28571000  0.56295000  0.91426000  1.0
  C  C36  1  0.71491000  0.58779000  0.08713000  1.0
  C  C37  1  0.28509000  0.41221000  0.91287000  1.0
  C  C38  1  0.31851000  0.20873000  0.34731000  1.0
  C  C39  1  0.68150000  0.79127000  0.65269000  1.0
  C  C40  1  0.25828000  0.15847000  0.45568000  1.0
  C  C41  1  0.74172000  0.84153000  0.54432000  1.0
  C  C42  1  0.24329000  0.00409000  0.50069000  1.0
  C  C43  1  0.75670000  0.99591000  0.49931000  1.0
  C  C44  1  0.20127000  0.95491000  0.60271000  1.0
  C  C45  1  0.79873000  0.04509000  0.39729000  1.0
  C  C46  1  0.17396000  0.05899000  0.66413000  1.0
  C  C47  1  0.82604000  0.94102000  0.33587000  1.0
  C  C48  1  0.18504000  0.21408000  0.61679000  1.0
  C  C49  1  0.81497000  0.78592000  0.38320000  1.0
  C  C50  1  0.22700000  0.26476000  0.51490000  1.0
  C  C51  1  0.77300000  0.73524000  0.48510000  1.0
  O  O52  1  0.79031000  0.89394000  0.07427000  1.0
  O  O53  1  0.20968000  0.10606000  0.92573000  1.0
  O  O54  1  0.70777000  0.95557000  0.92329000  1.0
  O  O55  1  0.29224000  0.04443000  0.07671000  1.0
  O  O56  1  0.82751000  0.44980000  0.82087000  1.0
  O  O57  1  0.17249000  0.55020000  0.17913000  1.0
  O  O58  1  0.75596000  0.24343000  0.99577000  1.0
  O  O59  1  0.24404000  0.75657000  0.00423000  1.0
  O  O60  1  0.67244000  0.32440000  0.17090000  1.0
  O  O61  1  0.32756000  0.67560000  0.82910000  1.0
  O  O62  1  0.34621000  0.35130000  0.30800000  1.0
  O  O63  1  0.65379000  0.64871000  0.69200000  1.0
  O  O64  1  0.35243000  0.11068000  0.29422000  1.0
  O  O65  1  0.64757000  0.88932000  0.70578000  1.0
  O  O66  1  0.18633000  0.80432000  0.64556000  1.0
  O  O67  1  0.81367000  0.19568000  0.35444000  1.0
  O  O68  1  0.13801000  0.01179000  0.76185000  1.0
  O  O69  1  0.86200000  0.98821000  0.23815000  1.0
  O  O70  1  0.15205000  0.30980000  0.68267000  1.0
  O  O71  1  0.84795000  0.69020000  0.31733000  1.0
  O  O72  1  0.34737000  0.84449000  0.26053000  1.0
  O  O73  1  0.65263000  0.15551000  0.73947000  1.0
