# generated using pymatgen
data_AgH8C5N3
_symmetry_space_group_name_H-M   'P 1'
_cell_length_a   11.94610000
_cell_length_b   12.02610000
_cell_length_c   12.51901962
_cell_angle_alpha   107.89563511
_cell_angle_beta   107.60680136
_cell_angle_gamma   111.26900000
_symmetry_Int_Tables_number   1
_chemical_formula_structural   AgH8C5N3
_chemical_formula_sum   'Ag8 H64 C40 N24'
_cell_volume   1410.52437120
_cell_formula_units_Z   8
loop_
 _symmetry_equiv_pos_site_id
 _symmetry_equiv_pos_as_xyz
  1  'x, y, z'
loop_
 _atom_site_type_symbol
 _atom_site_label
 _atom_site_symmetry_multiplicity
 _atom_site_fract_x
 _atom_site_fract_y
 _atom_site_fract_z
 _atom_site_occupancy
  Ag  Ag0  1  0.58333000  0.77541000  0.39734000  1.0
  Ag  Ag1  1  0.31393000  0.62186000  0.39736000  1.0
  Ag  Ag2  1  0.41667000  0.22459000  0.60266000  1.0
  Ag  Ag3  1  0.68607000  0.37814000  0.60264000  1.0
  Ag  Ag4  1  0.25284000  0.70984000  0.11370000  1.0
  Ag  Ag5  1  0.36073000  0.40372000  0.11375000  1.0
  Ag  Ag6  1  0.74716000  0.29016000  0.88630000  1.0
  Ag  Ag7  1  0.63927000  0.59629000  0.88625000  1.0
  H  H8  1  0.36949000  0.64543000  0.89549000  1.0
  H  H9  1  0.02626000  0.25012000  0.89569000  1.0
  H  H10  1  0.63051000  0.35457000  0.10451000  1.0
  H  H11  1  0.97374000  0.74988000  0.10431000  1.0
  H  H12  1  0.75781000  0.63546000  0.14581000  1.0
  H  H13  1  0.88799000  0.51053000  0.14588000  1.0
  H  H14  1  0.24218000  0.36454000  0.85419000  1.0
  H  H15  1  0.11201000  0.48947000  0.85412000  1.0
  H  H16  1  0.72290000  0.65789000  0.27654000  1.0
  H  H17  1  0.05350000  0.61866000  0.27668000  1.0
  H  H18  1  0.27711000  0.34212000  0.72347000  1.0
  H  H19  1  0.94650000  0.38134000  0.72332000  1.0
  H  H20  1  0.86959000  0.88411000  0.22052000  1.0
  H  H21  1  0.85057000  0.33636000  0.22035000  1.0
  H  H22  1  0.13041000  0.11589000  0.77948000  1.0
  H  H23  1  0.14943000  0.66364000  0.77965000  1.0
  H  H24  1  0.82530000  0.90789000  0.34453000  1.0
  H  H25  1  0.01883000  0.43628000  0.34427000  1.0
  H  H26  1  0.17470000  0.09211000  0.65547000  1.0
  H  H27  1  0.98117000  0.56372000  0.65573000  1.0
  H  H28  1  0.06938000  0.96590000  0.42539000  1.0
  H  H29  1  0.85593000  0.45943000  0.42557000  1.0
  H  H30  1  0.93062000  0.03410000  0.57461000  1.0
  H  H31  1  0.14407000  0.54057000  0.57443000  1.0
  H  H32  1  0.01931000  0.79955000  0.32015000  1.0
  H  H33  1  0.80082000  0.52070000  0.32045000  1.0
  H  H34  1  0.98069000  0.20045000  0.67985000  1.0
  H  H35  1  0.19918000  0.47930000  0.67955000  1.0
  H  H36  1  0.97418000  0.82757000  0.44437000  1.0
  H  H37  1  0.97015000  0.61669000  0.44447000  1.0
  H  H38  1  0.02582000  0.17243000  0.55563000  1.0
  H  H39  1  0.02985000  0.38331000  0.55553000  1.0
  H  H40  1  0.52409000  0.29562000  0.29778000  1.0
  H  H41  1  0.27316000  0.00177000  0.29769000  1.0
  H  H42  1  0.47591000  0.70438000  0.70222000  1.0
  H  H43  1  0.72685000  0.99824000  0.70232000  1.0
  H  H44  1  0.69947000  0.77836000  0.65502000  1.0
  H  H45  1  0.45612000  0.87721000  0.65543000  1.0
  H  H46  1  0.30053000  0.22164000  0.34498000  1.0
  H  H47  1  0.54388000  0.12279000  0.34457000  1.0
  H  H48  1  0.73366000  0.67161000  0.71411000  1.0
  H  H49  1  0.48101000  0.04304000  0.71433000  1.0
  H  H50  1  0.26634000  0.32839000  0.28589000  1.0
  H  H51  1  0.51899000  0.95696000  0.28567000  1.0
  H  H52  1  0.93297000  0.72318000  0.66454000  1.0
  H  H53  1  0.23229000  0.94213000  0.66506000  1.0
  H  H54  1  0.06703000  0.27682000  0.33546000  1.0
  H  H55  1  0.76770000  0.05787000  0.33494000  1.0
  H  H56  1  0.90380000  0.84124000  0.62282000  1.0
  H  H57  1  0.21962000  0.78229000  0.62319000  1.0
  H  H58  1  0.09620000  0.15876000  0.37718000  1.0
  H  H59  1  0.78038000  0.21771000  0.37681000  1.0
  H  H60  1  0.08567000  0.95631000  0.85005000  1.0
  H  H61  1  0.26457000  0.89398000  0.85026000  1.0
  H  H62  1  0.91433000  0.04369000  0.14995000  1.0
  H  H63  1  0.73543000  0.10601000  0.14974000  1.0
  H  H64  1  0.94247000  0.97187000  0.84625000  1.0
  H  H65  1  0.40393000  0.87457000  0.84651000  1.0
  H  H66  1  0.05753000  0.02813000  0.15375000  1.0
  H  H67  1  0.59607000  0.12543000  0.15349000  1.0
  H  H68  1  0.96985000  0.85080000  0.88522000  1.0
  H  H69  1  0.41573000  0.03476000  0.88586000  1.0
  H  H70  1  0.03014000  0.14920000  0.11477000  1.0
  H  H71  1  0.58428000  0.96524000  0.11415000  1.0
  C  C72  1  0.60596000  0.68863000  0.13619000  1.0
  C  C73  1  0.03019000  0.44767000  0.13623000  1.0
  C  C74  1  0.39404000  0.31137000  0.86381000  1.0
  C  C75  1  0.96981000  0.55233000  0.86377000  1.0
  C  C76  1  0.43917000  0.66528000  0.98728000  1.0
  C  C77  1  0.04829000  0.32208000  0.98746000  1.0
  C  C78  1  0.56083000  0.33472000  0.01272000  1.0
  C  C79  1  0.95171000  0.67793000  0.01254000  1.0
  C  C80  1  0.73598000  0.69909000  0.21118000  1.0
  C  C81  1  0.97508000  0.51216000  0.21121000  1.0
  C  C82  1  0.26402000  0.30091000  0.78882000  1.0
  C  C83  1  0.02492000  0.48784000  0.78879000  1.0
  C  C84  1  0.85468000  0.84552000  0.28722000  1.0
  C  C85  1  0.93226000  0.44158000  0.28713000  1.0
  C  C86  1  0.14532000  0.15448000  0.71278000  1.0
  C  C87  1  0.06774000  0.55842000  0.71287000  1.0
  C  C88  1  0.98633000  0.86046000  0.37373000  1.0
  C  C89  1  0.88730000  0.51321000  0.37388000  1.0
  C  C90  1  0.01367000  0.13954000  0.62627000  1.0
  C  C91  1  0.11270000  0.48679000  0.62612000  1.0
  C  C92  1  0.65942000  0.59616000  0.51605000  1.0
  C  C93  1  0.35698000  0.92011000  0.51627000  1.0
  C  C94  1  0.34057000  0.40383000  0.48395000  1.0
  C  C95  1  0.64302000  0.07989000  0.48373000  1.0
  C  C96  1  0.56044000  0.40141000  0.35642000  1.0
  C  C97  1  0.29565000  0.95479000  0.35643000  1.0
  C  C98  1  0.43955000  0.59858000  0.64357000  1.0
  C  C99  1  0.70435000  0.04521000  0.64357000  1.0
  C  C100  1  0.74292000  0.71138000  0.64704000  1.0
  C  C101  1  0.40472000  0.93620000  0.64739000  1.0
  C  C102  1  0.25709000  0.28862000  0.35296000  1.0
  C  C103  1  0.59528000  0.06380000  0.35261000  1.0
  C  C104  1  0.89395000  0.79308000  0.68404000  1.0
  C  C105  1  0.29072000  0.89163000  0.68450000  1.0
  C  C106  1  0.10605000  0.20692000  0.31596000  1.0
  C  C107  1  0.70928000  0.10837000  0.31550000  1.0
  C  C108  1  0.97768000  0.89890000  0.82388000  1.0
  C  C109  1  0.34656000  0.92540000  0.82430000  1.0
  C  C110  1  0.02232000  0.10110000  0.17612000  1.0
  C  C111  1  0.65344000  0.07460000  0.17570000  1.0
  N  N112  1  0.52633000  0.71097000  0.18517000  1.0
  N  N113  1  0.15877000  0.47430000  0.18529000  1.0
  N  N114  1  0.47367000  0.28903000  0.81483000  1.0
  N  N115  1  0.84123000  0.52570000  0.81471000  1.0
  N  N116  1  0.41880000  0.69608000  0.08922000  1.0
  N  N117  1  0.17047000  0.39321000  0.08941000  1.0
  N  N118  1  0.58120000  0.30392000  0.91078000  1.0
  N  N119  1  0.82953000  0.60679000  0.91059000  1.0
  N  N120  1  0.55493000  0.66001000  0.01209000  1.0
  N  N121  1  0.95727000  0.35219000  0.01215000  1.0
  N  N122  1  0.44508000  0.34000000  0.98792000  1.0
  N  N123  1  0.04273000  0.64781000  0.98785000  1.0
  N  N124  1  0.59449000  0.60396000  0.41292000  1.0
  N  N125  1  0.31861000  0.80905000  0.41317000  1.0
  N  N126  1  0.40551000  0.39604000  0.58708000  1.0
  N  N127  1  0.68139000  0.19095000  0.58683000  1.0
  N  N128  1  0.53097000  0.47870000  0.31020000  1.0
  N  N129  1  0.27903000  0.83131000  0.31031000  1.0
  N  N130  1  0.46903000  0.52130000  0.68980000  1.0
  N  N131  1  0.72097000  0.16869000  0.68969000  1.0
  N  N132  1  0.63973000  0.46932000  0.48395000  1.0
  N  N133  1  0.34425000  0.01467000  0.48402000  1.0
  N  N134  1  0.36027000  0.53068000  0.51605000  1.0
  N  N135  1  0.65575000  0.98533000  0.51598000  1.0
