# generated using pymatgen
data_MgH4C7NO3
_symmetry_space_group_name_H-M   'P 1'
_cell_length_a   6.80325000
_cell_length_b   23.21800000
_cell_length_c   23.22110000
_cell_angle_alpha   119.05000000
_cell_angle_beta   95.61520000
_cell_angle_gamma   95.61320000
_symmetry_Int_Tables_number   1
_chemical_formula_structural   MgH4C7NO3
_chemical_formula_sum   'Mg6 H24 C42 N6 O18'
_cell_volume   3146.29207683
_cell_formula_units_Z   6
loop_
 _symmetry_equiv_pos_site_id
 _symmetry_equiv_pos_as_xyz
  1  'x, y, z'
loop_
 _atom_site_type_symbol
 _atom_site_label
 _atom_site_symmetry_multiplicity
 _atom_site_fract_x
 _atom_site_fract_y
 _atom_site_fract_z
 _atom_site_occupancy
  Mg  Mg0  1  0.53908000  0.31575000  0.70082000  1.0
  Mg  Mg1  1  0.79329000  0.67430000  0.38212000  1.0
  Mg  Mg2  1  0.22356000  0.38504000  0.68419000  1.0
  Mg  Mg3  1  0.11894000  0.70788000  0.32570000  1.0
  Mg  Mg4  1  0.83838000  0.29913000  0.61496000  1.0
  Mg  Mg5  1  0.41109000  0.61789000  0.29215000  1.0
  H  H6  1  0.74506000  0.12771000  0.55542000  1.0
  H  H7  1  0.52954000  0.98563000  0.39169000  1.0
  H  H8  1  0.88072000  0.04142000  0.46284000  1.0
  H  H9  1  0.50128000  0.89545000  0.40970000  1.0
  H  H10  1  0.20661000  0.87037000  0.45380000  1.0
  H  H11  1  0.12609000  0.98249000  0.48395000  1.0
  H  H12  1  0.21985000  0.02999000  0.40125000  1.0
  H  H13  1  0.05477000  0.12867000  0.46531000  1.0
  H  H14  1  0.61746000  0.42760000  0.87226000  1.0
  H  H15  1  0.54391000  0.40598000  0.01435000  1.0
  H  H16  1  0.83948000  0.42144000  0.95871000  1.0
  H  H17  1  0.60551000  0.51435000  0.10449000  1.0
  H  H18  1  0.33604000  0.58353000  0.12976000  1.0
  H  H19  1  0.14364000  0.50145000  0.01765000  1.0
  H  H20  1  0.18981000  0.37116000  0.96993000  1.0
  H  H21  1  0.92598000  0.33665000  0.87124000  1.0
  H  H22  1  0.19003000  0.44458000  0.57232000  1.0
  H  H23  1  0.13823000  0.60830000  0.59392000  1.0
  H  H24  1  0.41815000  0.53719000  0.57851000  1.0
  H  H25  1  0.09148000  0.59018000  0.48566000  1.0
  H  H26  1  0.75263000  0.54624000  0.41653000  1.0
  H  H27  1  0.64221000  0.51609000  0.49851000  1.0
  H  H28  1  0.81925000  0.59878000  0.62884000  1.0
  H  H29  1  0.59014000  0.53472000  0.66352000  1.0
  C  C30  1  0.50526000  0.18389000  0.56972000  1.0
  C  C31  1  0.59271000  0.12666000  0.53528000  1.0
  C  C32  1  0.49206000  0.07117000  0.47573000  1.0
  C  C33  1  0.80698000  0.94734000  0.44866000  1.0
  C  C34  1  0.65748000  0.89146000  0.41977000  1.0
  C  C35  1  0.70181000  0.82729000  0.40206000  1.0
  C  C36  1  0.90361000  0.81874000  0.41429000  1.0
  C  C37  1  0.05224000  0.87663000  0.44437000  1.0
  C  C38  1  0.00675000  0.93906000  0.46099000  1.0
  C  C39  1  0.53302000  0.77116000  0.36856000  1.0
  C  C40  1  0.29693000  0.07230000  0.44877000  1.0
  C  C41  1  0.20585000  0.12670000  0.48427000  1.0
  C  C42  1  0.30154000  0.18283000  0.54556000  1.0
  C  C43  1  0.18769000  0.23639000  0.58057000  1.0
  C  C44  1  0.32146000  0.38577000  0.81607000  1.0
  C  C45  1  0.46617000  0.40851000  0.87329000  1.0
  C  C46  1  0.42091000  0.40445000  0.92877000  1.0
  C  C47  1  0.85950000  0.50138000  0.05271000  1.0
  C  C48  1  0.76572000  0.52844000  0.10853000  1.0
  C  C49  1  0.87415000  0.57491000  0.17272000  1.0
  C  C50  1  0.08455000  0.59569000  0.18130000  1.0
  C  C51  1  0.17540000  0.56784000  0.12346000  1.0
  C  C52  1  0.06763000  0.52195000  0.06103000  1.0
  C  C53  1  0.76163000  0.59750000  0.22886000  1.0
  C  C54  1  0.22459000  0.37638000  0.92763000  1.0
  C  C55  1  0.07910000  0.35754000  0.87322000  1.0
  C  C56  1  0.11876000  0.36270000  0.81711000  1.0
  C  C57  1  0.95140000  0.34417000  0.76353000  1.0
  C  C58  1  0.93602000  0.43030000  0.61424000  1.0
  C  C59  1  0.05790000  0.46473000  0.59143000  1.0
  C  C60  1  0.01682000  0.52430000  0.59553000  1.0
  C  C61  1  0.35823000  0.55126000  0.49858000  1.0
  C  C62  1  0.23758000  0.58013000  0.47158000  1.0
  C  C63  1  0.29956000  0.59788000  0.42514000  1.0
  C  C64  1  0.48912000  0.58567000  0.40437000  1.0
  C  C65  1  0.60771000  0.55563000  0.43221000  1.0
  C  C66  1  0.54574000  0.53901000  0.47803000  1.0
  C  C67  1  0.16446000  0.63145000  0.40255000  1.0
  C  C68  1  0.84886000  0.55128000  0.62370000  1.0
  C  C69  1  0.72227000  0.51577000  0.64261000  1.0
  C  C70  1  0.75660000  0.45445000  0.63739000  1.0
  C  C71  1  0.60766000  0.41939000  0.65588000  1.0
  N  N72  1  0.57740000  0.01495000  0.44196000  1.0
  N  N73  1  0.76719000  0.01169000  0.46658000  1.0
  N  N74  1  0.56245000  0.42693000  0.98502000  1.0
  N  N75  1  0.75550000  0.45487000  0.98836000  1.0
  N  N76  1  0.13568000  0.55802000  0.57298000  1.0
  N  N77  1  0.30071000  0.53338000  0.54505000  1.0
  O  O78  1  0.00437000  0.23188000  0.55804000  1.0
  O  O79  1  0.27454000  0.28878000  0.63651000  1.0
  O  O80  1  0.62031000  0.23709000  0.62273000  1.0
  O  O81  1  0.35758000  0.78011000  0.35376000  1.0
  O  O82  1  0.56602000  0.71203000  0.35431000  1.0
  O  O83  1  0.96102000  0.75967000  0.39869000  1.0
  O  O84  1  0.77255000  0.32615000  0.76801000  1.0
  O  O85  1  0.98603000  0.34771000  0.71116000  1.0
  O  O86  1  0.38335000  0.38556000  0.76287000  1.0
  O  O87  1  0.57724000  0.57372000  0.21991000  1.0
  O  O88  1  0.85384000  0.64234000  0.28798000  1.0
  O  O89  1  0.20112000  0.63910000  0.24037000  1.0
  O  O90  1  0.44695000  0.44194000  0.67395000  1.0
  O  O91  1  0.63838000  0.36340000  0.65225000  1.0
  O  O92  1  0.99794000  0.37726000  0.61441000  1.0
  O  O93  1  0.00391000  0.64629000  0.42632000  1.0
  O  O94  1  0.21176000  0.64571000  0.35769000  1.0
  O  O95  1  0.56228000  0.60126000  0.36091000  1.0
