# generated using pymatgen
data_H14PbC18(IN2)2
_symmetry_space_group_name_H-M   'P 1'
_cell_length_a   4.41589000
_cell_length_b   14.05750000
_cell_length_c   16.61870000
_cell_angle_alpha   105.69500000
_cell_angle_beta   89.95950000
_cell_angle_gamma   90.00000000
_symmetry_Int_Tables_number   1
_chemical_formula_structural   H14PbC18(IN2)2
_chemical_formula_sum   'H28 Pb2 C36 I4 N8'
_cell_volume   993.16445837
_cell_formula_units_Z   2
loop_
 _symmetry_equiv_pos_site_id
 _symmetry_equiv_pos_as_xyz
  1  'x, y, z'
loop_
 _atom_site_type_symbol
 _atom_site_label
 _atom_site_symmetry_multiplicity
 _atom_site_fract_x
 _atom_site_fract_y
 _atom_site_fract_z
 _atom_site_occupancy
  H  H0  1  0.21091000  0.47007000  0.19567000  1.0
  H  H1  1  0.21068000  0.02994000  0.30443000  1.0
  H  H2  1  0.78909000  0.52994000  0.80433000  1.0
  H  H3  1  0.78926000  0.97007000  0.69557000  1.0
  H  H4  1  0.12927000  0.65154000  0.26035000  1.0
  H  H5  1  0.12899000  0.84850000  0.23975000  1.0
  H  H6  1  0.87071000  0.34847000  0.73967000  1.0
  H  H7  1  0.87098000  0.15150000  0.76025000  1.0
  H  H8  1  0.67464000  0.62327000  0.46864000  1.0
  H  H9  1  0.67478000  0.87669000  0.03129000  1.0
  H  H10  1  0.32532000  0.37673000  0.53137000  1.0
  H  H11  1  0.32518000  0.12331000  0.96871000  1.0
  H  H12  1  0.73674000  0.44421000  0.39527000  1.0
  H  H13  1  0.73685000  0.05570000  0.10467000  1.0
  H  H14  1  0.26321000  0.55578000  0.60473000  1.0
  H  H15  1  0.26322000  0.94429000  0.89535000  1.0
  H  H16  1  0.49711000  0.78030000  0.47271000  1.0
  H  H17  1  0.49721000  0.71965000  0.02724000  1.0
  H  H18  1  0.50291000  0.21970000  0.52730000  1.0
  H  H19  1  0.50284000  0.28034000  0.97278000  1.0
  H  H20  1  0.76711000  0.92868000  0.36096000  1.0
  H  H21  1  0.76687000  0.57133000  0.13913000  1.0
  H  H22  1  0.23289000  0.07132000  0.63905000  1.0
  H  H23  1  0.23310000  0.42867000  0.86087000  1.0
  H  H24  1  0.37649000  0.90336000  0.55692000  1.0
  H  H25  1  0.37651000  0.59660000  0.94298000  1.0
  H  H26  1  0.62355000  0.09665000  0.44308000  1.0
  H  H27  1  0.62342000  0.40341000  0.05702000  1.0
  Pb  Pb28  1  0.52570000  0.25000000  0.25005000  1.0
  Pb  Pb29  1  0.47460000  0.74998000  0.74992000  1.0
  C  C30  1  0.31065000  0.50738000  0.25613000  1.0
  C  C31  1  0.31049000  0.99261000  0.24394000  1.0
  C  C32  1  0.68934000  0.49262000  0.74387000  1.0
  C  C33  1  0.68947000  0.00739000  0.75607000  1.0
  C  C34  1  0.26329000  0.60781000  0.29240000  1.0
  C  C35  1  0.26310000  0.89219000  0.20765000  1.0
  C  C36  1  0.73670000  0.39219000  0.70761000  1.0
  C  C37  1  0.73686000  0.10781000  0.79235000  1.0
  C  C38  1  0.39219000  0.65183000  0.37103000  1.0
  C  C39  1  0.39206000  0.84815000  0.12897000  1.0
  C  C40  1  0.60780000  0.34817000  0.62898000  1.0
  C  C41  1  0.60791000  0.15185000  0.87103000  1.0
  C  C42  1  0.56843000  0.59200000  0.40797000  1.0
  C  C43  1  0.56844000  0.90796000  0.09199000  1.0
  C  C44  1  0.43154000  0.40800000  0.59203000  1.0
  C  C45  1  0.43154000  0.09204000  0.90801000  1.0
  C  C46  1  0.60256000  0.49243000  0.36744000  1.0
  C  C47  1  0.60257000  0.00751000  0.13255000  1.0
  C  C48  1  0.39742000  0.50757000  0.63257000  1.0
  C  C49  1  0.39745000  0.99248000  0.86746000  1.0
  C  C50  1  0.34680000  0.75477000  0.41828000  1.0
  C  C51  1  0.34670000  0.74521000  0.08170000  1.0
  C  C52  1  0.65321000  0.24523000  0.58172000  1.0
  C  C53  1  0.65327000  0.25480000  0.91831000  1.0
  C  C54  1  0.08273000  0.90423000  0.45149000  1.0
  C  C55  1  0.08262000  0.59578000  0.04850000  1.0
  C  C56  1  0.91730000  0.09577000  0.54851000  1.0
  C  C57  1  0.91731000  0.40424000  0.95149000  1.0
  C  C58  1  0.86940000  0.96128000  0.42194000  1.0
  C  C59  1  0.86924000  0.53873000  0.07810000  1.0
  C  C60  1  0.13062000  0.03872000  0.57806000  1.0
  C  C61  1  0.13070000  0.46128000  0.92189000  1.0
  C  C62  1  0.21192000  0.94480000  0.53120000  1.0
  C  C63  1  0.21190000  0.55518000  0.96874000  1.0
  C  C64  1  0.78812000  0.05521000  0.46880000  1.0
  C  C65  1  0.78803000  0.44483000  0.03125000  1.0
  I  I66  1  0.04183000  0.25499000  0.38985000  1.0
  I  I67  1  0.04230000  0.24501000  0.11027000  1.0
  I  I68  1  0.95830000  0.74498000  0.61010000  1.0
  I  I69  1  0.95781000  0.75496000  0.88970000  1.0
  N  N70  1  0.47512000  0.44988000  0.29290000  1.0
  N  N71  1  0.47509000  0.05008000  0.20712000  1.0
  N  N72  1  0.52488000  0.55012000  0.70709000  1.0
  N  N73  1  0.52492000  0.94991000  0.79289000  1.0
  N  N74  1  0.13936000  0.80955000  0.39923000  1.0
  N  N75  1  0.13912000  0.69045000  0.10076000  1.0
  N  N76  1  0.86066000  0.19045000  0.60077000  1.0
  N  N77  1  0.86078000  0.30957000  0.89923000  1.0
