# generated using pymatgen
data_ZnH22C20(NO)4
_symmetry_space_group_name_H-M   'P 1'
_cell_length_a   7.88441000
_cell_length_b   8.78890000
_cell_length_c   16.42780000
_cell_angle_alpha   84.16700000
_cell_angle_beta   76.90460000
_cell_angle_gamma   63.34970000
_symmetry_Int_Tables_number   1
_chemical_formula_structural   ZnH22C20(NO)4
_chemical_formula_sum   'Zn2 H44 C40 N8 O8'
_cell_volume   990.97064145
_cell_formula_units_Z   2
loop_
 _symmetry_equiv_pos_site_id
 _symmetry_equiv_pos_as_xyz
  1  'x, y, z'
loop_
 _atom_site_type_symbol
 _atom_site_label
 _atom_site_symmetry_multiplicity
 _atom_site_fract_x
 _atom_site_fract_y
 _atom_site_fract_z
 _atom_site_occupancy
  Zn  Zn0  1  0.06020000  0.62230000  0.44827000  1.0
  Zn  Zn1  1  0.68222000  0.37775000  0.94827000  1.0
  H  H2  1  0.36960000  0.75487000  0.48896000  1.0
  H  H3  1  0.12401000  0.24493000  0.98890000  1.0
  H  H4  1  0.76711000  0.00171000  0.49727000  1.0
  H  H5  1  0.76836000  0.99806000  0.99733000  1.0
  H  H6  1  0.89264000  0.23952000  0.52884000  1.0
  H  H7  1  0.13154000  0.76038000  0.02908000  1.0
  H  H8  1  0.25435000  0.20893000  0.50565000  1.0
  H  H9  1  0.46282000  0.79108000  0.00584000  1.0
  H  H10  1  0.43979000  0.99529000  0.50595000  1.0
  H  H11  1  0.43440000  0.00482000  0.00600000  1.0
  H  H12  1  0.27824000  0.96376000  0.65463000  1.0
  H  H13  1  0.24184000  0.03654000  0.15474000  1.0
  H  H14  1  0.12285000  0.18632000  0.65536000  1.0
  H  H15  1  0.30874000  0.81401000  0.15560000  1.0
  H  H16  1  0.56635000  0.02154000  0.62480000  1.0
  H  H17  1  0.58785000  0.97845000  0.12482000  1.0
  H  H18  1  0.41630000  0.24494000  0.62680000  1.0
  H  H19  1  0.66096000  0.75505000  0.12691000  1.0
  H  H20  1  0.25381000  0.21972000  0.77557000  1.0
  H  H21  1  0.47341000  0.78055000  0.27570000  1.0
  H  H22  1  0.41412000  0.99818000  0.77272000  1.0
  H  H23  1  0.41219000  0.00208000  0.27276000  1.0
  H  H24  1  0.34470000  0.33675000  0.87426000  1.0
  H  H25  1  0.68118000  0.66364000  0.37436000  1.0
  H  H26  1  0.95194000  0.14423000  0.79096000  1.0
  H  H27  1  0.09616000  0.85582000  0.29107000  1.0
  H  H28  1  0.80717000  0.01452000  0.69061000  1.0
  H  H29  1  0.82177000  0.98564000  0.19069000  1.0
  H  H30  1  0.55288000  0.24077000  0.27822000  1.0
  H  H31  1  0.79406000  0.75862000  0.77799000  1.0
  H  H32  1  0.65893000  0.18240000  0.36647000  1.0
  H  H33  1  0.84151000  0.81743000  0.86619000  1.0
  H  H34  1  0.66395000  0.41022000  0.16074000  1.0
  H  H35  1  0.07514000  0.58894000  0.66059000  1.0
  H  H36  1  0.92144000  0.49295000  0.09089000  1.0
  H  H37  1  0.41539000  0.50658000  0.59092000  1.0
  H  H38  1  0.19304000  0.31952000  0.30397000  1.0
  H  H39  1  0.51230000  0.68112000  0.80399000  1.0
  H  H40  1  0.94128000  0.22781000  0.37194000  1.0
  H  H41  1  0.16877000  0.77242000  0.87181000  1.0
  H  H42  1  0.30284000  0.47868000  0.20086000  1.0
  H  H43  1  0.78186000  0.52157000  0.70091000  1.0
  H  H44  1  0.13896000  0.62127000  0.14249000  1.0
  H  H45  1  0.76052000  0.37895000  0.64259000  1.0
  C  C46  1  0.22114000  0.85130000  0.49556000  1.0
  C  C47  1  0.07196000  0.14851000  0.99561000  1.0
  C  C48  1  0.90930000  0.98611000  0.50122000  1.0
  C  C49  1  0.89493000  0.01370000  0.00129000  1.0
  C  C50  1  0.96797000  0.10365000  0.51725000  1.0
  C  C51  1  0.07105000  0.89622000  0.01744000  1.0
  C  C52  1  0.29050000  0.08251000  0.53397000  1.0
  C  C53  1  0.37250000  0.91755000  0.03412000  1.0
  C  C54  1  0.26778000  0.08750000  0.62863000  1.0
  C  C55  1  0.35497000  0.91271000  0.12877000  1.0
  C  C56  1  0.42361000  0.12197000  0.65231000  1.0
  C  C57  1  0.54541000  0.87812000  0.15238000  1.0
  C  C58  1  0.39813000  0.12358000  0.74693000  1.0
  C  C59  1  0.52159000  0.87664000  0.24700000  1.0
  C  C60  1  0.49214000  0.26650000  0.84031000  1.0
  C  C61  1  0.75847000  0.73379000  0.34041000  1.0
  C  C62  1  0.80463000  0.16506000  0.79348000  1.0
  C  C63  1  0.96963000  0.83508000  0.29357000  1.0
  C  C64  1  0.73468000  0.09986000  0.74368000  1.0
  C  C65  1  0.83451000  0.90032000  0.24376000  1.0
  C  C66  1  0.44539000  0.44175000  0.36568000  1.0
  C  C67  1  0.88747000  0.55798000  0.86563000  1.0
  C  C68  1  0.61386000  0.28411000  0.31993000  1.0
  C  C69  1  0.89830000  0.71552000  0.81975000  1.0
  C  C70  1  0.78176000  0.31558000  0.27252000  1.0
  C  C71  1  0.09766000  0.68414000  0.77238000  1.0
  C  C72  1  0.78138000  0.38718000  0.19225000  1.0
  C  C73  1  0.16916000  0.61236000  0.69215000  1.0
  C  C74  1  0.92679000  0.43465000  0.15286000  1.0
  C  C75  1  0.36206000  0.56510000  0.65284000  1.0
  C  C76  1  0.07586000  0.41364000  0.19246000  1.0
  C  C77  1  0.48983000  0.58651000  0.69247000  1.0
  C  C78  1  0.08077000  0.33488000  0.27089000  1.0
  C  C79  1  0.41569000  0.66545000  0.77086000  1.0
  C  C80  1  0.93642000  0.28590000  0.31006000  1.0
  C  C81  1  0.22235000  0.71423000  0.80995000  1.0
  C  C82  1  0.21764000  0.48455000  0.15497000  1.0
  C  C83  1  0.70251000  0.51567000  0.65504000  1.0
  C  C84  1  0.36392000  0.40141000  0.07497000  1.0
  C  C85  1  0.76573000  0.59858000  0.57498000  1.0
  N  N86  1  0.06891000  0.82913000  0.48761000  1.0
  N  N87  1  0.89759000  0.17068000  0.98761000  1.0
  N  N88  1  0.16552000  0.01596000  0.51309000  1.0
  N  N89  1  0.18093000  0.98394000  0.01326000  1.0
  N  N90  1  0.53696000  0.16503000  0.77437000  1.0
  N  N91  1  0.70189000  0.83522000  0.27445000  1.0
  N  N92  1  0.65190000  0.26884000  0.85343000  1.0
  N  N93  1  0.92059000  0.73141000  0.35355000  1.0
  O  O94  1  0.30070000  0.41447000  0.40722000  1.0
  O  O95  1  0.71559000  0.58535000  0.90734000  1.0
  O  O96  1  0.45056000  0.58233000  0.36101000  1.0
  O  O97  1  0.03322000  0.41737000  0.86092000  1.0
  O  O98  1  0.39078000  0.26231000  0.04904000  1.0
  O  O99  1  0.65334000  0.73720000  0.54871000  1.0
  O  O100  1  0.45688000  0.48942000  0.03972000  1.0
  O  O101  1  0.94692000  0.51081000  0.53998000  1.0
