# generated using pymatgen
data_Zn4H28C32O13F2
_symmetry_space_group_name_H-M   'P 1'
_cell_length_a   17.97090000
_cell_length_b   18.47900000
_cell_length_c   19.46876470
_cell_angle_alpha   63.77136719
_cell_angle_beta   63.72961793
_cell_angle_gamma   89.90550000
_symmetry_Int_Tables_number   1
_chemical_formula_structural   Zn4H28C32O13F2
_chemical_formula_sum   'Zn8 H56 C64 O26 F4'
_cell_volume   5047.12582070
_cell_formula_units_Z   2
loop_
 _symmetry_equiv_pos_site_id
 _symmetry_equiv_pos_as_xyz
  1  'x, y, z'
loop_
 _atom_site_type_symbol
 _atom_site_label
 _atom_site_symmetry_multiplicity
 _atom_site_fract_x
 _atom_site_fract_y
 _atom_site_fract_z
 _atom_site_occupancy
  Zn  Zn0  1  0.94598000  0.53256000  0.92344000  1.0
  Zn  Zn1  1  0.97133000  0.38242000  0.06858000  1.0
  Zn  Zn2  1  0.96938000  0.55837000  0.06271000  1.0
  Zn  Zn3  1  0.13094000  0.54312000  0.91288000  1.0
  Zn  Zn4  1  0.56069000  0.96863000  0.06248000  1.0
  Zn  Zn5  1  0.53619000  0.95178000  0.91896000  1.0
  Zn  Zn6  1  0.54525000  0.12613000  0.91435000  1.0
  Zn  Zn7  1  0.37849000  0.97156000  0.06755000  1.0
  H  H8  1  0.22263000  0.82941000  0.34765000  1.0
  H  H9  1  0.47294000  0.83813000  0.32470000  1.0
  H  H10  1  0.27888000  0.68056000  0.63550000  1.0
  H  H11  1  0.02835000  0.66958000  0.65907000  1.0
  H  H12  1  0.68304000  0.27648000  0.63883000  1.0
  H  H13  1  0.67947000  0.03650000  0.65359000  1.0
  H  H14  1  0.83517000  0.23248000  0.34386000  1.0
  H  H15  1  0.83850000  0.47242000  0.32918000  1.0
  H  H16  1  0.89851000  0.80038000  0.88440000  1.0
  H  H17  1  0.88165000  0.78501000  0.98705000  1.0
  H  H18  1  0.79485000  0.87972000  0.98139000  1.0
  H  H19  1  0.80966000  0.89193000  0.88043000  1.0
  H  H20  1  0.67545000  0.76639000  0.12491000  1.0
  H  H21  1  0.60265000  0.70099000  0.12628000  1.0
  H  H22  1  0.76108000  0.67038000  0.12849000  1.0
  H  H23  1  0.68936000  0.60742000  0.12616000  1.0
  H  H24  1  0.79661000  0.70830000  0.88068000  1.0
  H  H25  1  0.71271000  0.62812000  0.97926000  1.0
  H  H26  1  0.62231000  0.71916000  0.98116000  1.0
  H  H27  1  0.70531000  0.79842000  0.88092000  1.0
  H  H28  1  0.21523000  0.30705000  0.87595000  1.0
  H  H29  1  0.13270000  0.22898000  0.97959000  1.0
  H  H30  1  0.22241000  0.13729000  0.97874000  1.0
  H  H31  1  0.30498000  0.21635000  0.87587000  1.0
  H  H32  1  0.20747000  0.12191000  0.11930000  1.0
  H  H33  1  0.28014000  0.18783000  0.11737000  1.0
  H  H34  1  0.11937000  0.21533000  0.11931000  1.0
  H  H35  1  0.19357000  0.28173000  0.11519000  1.0
  H  H36  1  0.32125000  0.40426000  0.86875000  1.0
  H  H37  1  0.31236000  0.39533000  0.96585000  1.0
  H  H38  1  0.40037000  0.30208000  0.96871000  1.0
  H  H39  1  0.41048000  0.31224000  0.87077000  1.0
  H  H40  1  0.90526000  0.27191000  0.91758000  1.0
  H  H41  1  0.86857000  0.35604000  0.86319000  1.0
  H  H42  1  0.78209000  0.26525000  0.85924000  1.0
  H  H43  1  0.81860000  0.18142000  0.91446000  1.0
  H  H44  1  0.65318000  0.30411000  0.94508000  1.0
  H  H45  1  0.59640000  0.24729000  0.06115000  1.0
  H  H46  1  0.73873000  0.39415000  0.95120000  1.0
  H  H47  1  0.68284000  0.33533000  0.06722000  1.0
  H  H48  1  0.82598000  0.18887000  0.08476000  1.0
  H  H49  1  0.73568000  0.21525000  0.14575000  1.0
  H  H50  1  0.64785000  0.12566000  0.14193000  1.0
  H  H51  1  0.73805000  0.09865000  0.08174000  1.0
  H  H52  1  0.17905000  0.81295000  0.90627000  1.0
  H  H53  1  0.27162000  0.78506000  0.84919000  1.0
  H  H54  1  0.35442000  0.87970000  0.85238000  1.0
  H  H55  1  0.26101000  0.90414000  0.91316000  1.0
  H  H56  1  0.40631000  0.76019000  0.93116000  1.0
  H  H57  1  0.35290000  0.70322000  0.04714000  1.0
  H  H58  1  0.31960000  0.66553000  0.93130000  1.0
  H  H59  1  0.26488000  0.61075000  0.04738000  1.0
  H  H60  1  0.09868000  0.73487000  0.07357000  1.0
  H  H61  1  0.13122000  0.65056000  0.13199000  1.0
  H  H62  1  0.22013000  0.73993000  0.13494000  1.0
  H  H63  1  0.18422000  0.82357000  0.08041000  1.0
  C  C64  1  0.85764000  0.35924000  0.00306000  1.0
  C  C65  1  0.89204000  0.39750000  0.22924000  1.0
  C  C66  1  0.85523000  0.63641000  0.99808000  1.0
  C  C67  1  0.14865000  0.64601000  0.98688000  1.0
  C  C68  1  0.10978000  0.61997000  0.75487000  1.0
  C  C69  1  0.15013000  0.36922000  0.98739000  1.0
  C  C70  1  0.64001000  0.85963000  0.99492000  1.0
  C  C71  1  0.62759000  0.11152000  0.75354000  1.0
  C  C72  1  0.64548000  0.14085000  0.99525000  1.0
  C  C73  1  0.36675000  0.14615000  0.98912000  1.0
  C  C74  1  0.39280000  0.88843000  0.22855000  1.0
  C  C75  1  0.35971000  0.86870000  0.99165000  1.0
  C  C76  1  0.26247000  0.81309000  0.37850000  1.0
  C  C77  1  0.40372000  0.81785000  0.36592000  1.0
  C  C78  1  0.36640000  0.77221000  0.45559000  1.0
  C  C79  1  0.27658000  0.74381000  0.51243000  1.0
  C  C80  1  0.23885000  0.69655000  0.60488000  1.0
  C  C81  1  0.09754000  0.69054000  0.61786000  1.0
  C  C82  1  0.13466000  0.73659000  0.52816000  1.0
  C  C83  1  0.22444000  0.76553000  0.47108000  1.0
  C  C84  1  0.35070000  0.83866000  0.32686000  1.0
  C  C85  1  0.15069000  0.67031000  0.65676000  1.0
  C  C86  1  0.70038000  0.23950000  0.60594000  1.0
  C  C87  1  0.69857000  0.10397000  0.61398000  1.0
  C  C88  1  0.74361000  0.14250000  0.52404000  1.0
  C  C89  1  0.77024000  0.23016000  0.46946000  1.0
  C  C90  1  0.81752000  0.26943000  0.37678000  1.0
  C  C91  1  0.81935000  0.40496000  0.36876000  1.0
  C  C92  1  0.77354000  0.36637000  0.45868000  1.0
  C  C93  1  0.74700000  0.27872000  0.51325000  1.0
  C  C94  1  0.67683000  0.15358000  0.65531000  1.0
  C  C95  1  0.84176000  0.35536000  0.32746000  1.0
  C  C96  1  0.84879000  0.78381000  0.95143000  1.0
  C  C97  1  0.79040000  0.84558000  0.94880000  1.0
  C  C98  1  0.69630000  0.79800000  0.99555000  1.0
  C  C99  1  0.67028000  0.73350000  0.09147000  1.0
  C  C100  1  0.72791000  0.67099000  0.09263000  1.0
  C  C101  1  0.79497000  0.69435000  0.99758000  1.0
  C  C102  1  0.74887000  0.69211000  0.94810000  1.0
  C  C103  1  0.68923000  0.75249000  0.94826000  1.0
  C  C104  1  0.19999000  0.26261000  0.94362000  1.0
  C  C105  1  0.25952000  0.20170000  0.94357000  1.0
  C  C106  1  0.31010000  0.20779000  0.98856000  1.0
  C  C107  1  0.24521000  0.18604000  0.08365000  1.0
  C  C108  1  0.18697000  0.24790000  0.08298000  1.0
  C  C109  1  0.21070000  0.31129000  0.98747000  1.0
  C  C110  1  0.30463000  0.35895000  0.93648000  1.0
  C  C111  1  0.36338000  0.29759000  0.93782000  1.0
  C  C112  1  0.84745000  0.29338000  0.92002000  1.0
  C  C113  1  0.78990000  0.23329000  0.91759000  1.0
  C  C114  1  0.70062000  0.19805000  0.00103000  1.0
  C  C115  1  0.66088000  0.27163000  0.00339000  1.0
  C  C116  1  0.71817000  0.33096000  0.00694000  1.0
  C  C117  1  0.79794000  0.29876000  0.00538000  1.0
  C  C118  1  0.76935000  0.21142000  0.08506000  1.0
  C  C119  1  0.71126000  0.15184000  0.08270000  1.0
  C  C120  1  0.23530000  0.79088000  0.90833000  1.0
  C  C121  1  0.29077000  0.85249000  0.91124000  1.0
  C  C122  1  0.30136000  0.80716000  0.99375000  1.0
  C  C123  1  0.34287000  0.73464000  0.99008000  1.0
  C  C124  1  0.28512000  0.67281000  0.98967000  1.0
  C  C125  1  0.20518000  0.70401000  0.99068000  1.0
  C  C126  1  0.15530000  0.71247000  0.07343000  1.0
  C  C127  1  0.21278000  0.77206000  0.07628000  1.0
  O  O128  1  0.00631000  0.50354000  0.99117000  1.0
  O  O129  1  0.87589000  0.43561000  0.94559000  1.0
  O  O130  1  0.91373000  0.35131000  0.19413000  1.0
  O  O131  1  0.89062000  0.62818000  0.04451000  1.0
  O  O132  1  0.88639000  0.32952000  0.05659000  1.0
  O  O133  1  0.86712000  0.60158000  0.95157000  1.0
  O  O134  1  0.90893000  0.47677000  0.18898000  1.0
  O  O135  1  0.06841000  0.62943000  0.03778000  1.0
  O  O136  1  0.15909000  0.60347000  0.78809000  1.0
  O  O137  1  0.18510000  0.61961000  0.93240000  1.0
  O  O138  1  0.02822000  0.59787000  0.79690000  1.0
  O  O139  1  0.07057000  0.33447000  0.04042000  1.0
  O  O140  1  0.18265000  0.44690000  0.93445000  1.0
  O  O141  1  0.50351000  0.00530000  0.99179000  1.0
  O  O142  1  0.63776000  0.89787000  0.03650000  1.0
  O  O143  1  0.61053000  0.03223000  0.79390000  1.0
  O  O144  1  0.62306000  0.17526000  0.93667000  1.0
  O  O145  1  0.59971000  0.86902000  0.95286000  1.0
  O  O146  1  0.62688000  0.06313000  0.04816000  1.0
  O  O147  1  0.60682000  0.15777000  0.78870000  1.0
  O  O148  1  0.44683000  0.17619000  0.93637000  1.0
  O  O149  1  0.34492000  0.91182000  0.19415000  1.0
  O  O150  1  0.32933000  0.06904000  0.04179000  1.0
  O  O151  1  0.47422000  0.90300000  0.18765000  1.0
  O  O152  1  0.43752000  0.89363000  0.93017000  1.0
  O  O153  1  0.32753000  0.89137000  0.04967000  1.0
  F  F154  1  0.08368000  0.75613000  0.49076000  1.0
  F  F155  1  0.41710000  0.75234000  0.49331000  1.0
  F  F156  1  0.75198000  0.41351000  0.49891000  1.0
  F  F157  1  0.76470000  0.09531000  0.48386000  1.0
