# generated using pymatgen
data_KSrTbH6C16N2O13
_symmetry_space_group_name_H-M   'P 1'
_cell_length_a   8.02368000
_cell_length_b   10.85190000
_cell_length_c   12.06920000
_cell_angle_alpha   75.39000000
_cell_angle_beta   71.19380000
_cell_angle_gamma   74.73560000
_symmetry_Int_Tables_number   1
_chemical_formula_structural   KSrTbH6C16N2O13
_chemical_formula_sum   'K2 Sr2 Tb2 H12 C32 N4 O26'
_cell_volume   943.43899149
_cell_formula_units_Z   2
loop_
 _symmetry_equiv_pos_site_id
 _symmetry_equiv_pos_as_xyz
  1  'x, y, z'
loop_
 _atom_site_type_symbol
 _atom_site_label
 _atom_site_symmetry_multiplicity
 _atom_site_fract_x
 _atom_site_fract_y
 _atom_site_fract_z
 _atom_site_occupancy
  K  K0  1  0.27053000  0.58959000  0.40579000  1.0
  K  K1  1  0.72946000  0.41042000  0.59421000  1.0
  Sr  Sr2  1  0.07458000  0.89486000  0.15395000  1.0
  Sr  Sr3  1  0.92542000  0.10514000  0.84605000  1.0
  Tb  Tb4  1  0.18753000  0.25995000  0.28129000  1.0
  Tb  Tb5  1  0.81247000  0.74005000  0.71871000  1.0
  H  H6  1  0.44020000  0.86147000  0.95988000  1.0
  H  H7  1  0.55980000  0.13853000  0.04012000  1.0
  H  H8  1  0.39408000  0.99605000  0.99396000  1.0
  H  H9  1  0.60592000  0.00394000  0.00604000  1.0
  H  H10  1  0.18073000  0.32909000  0.81186000  1.0
  H  H11  1  0.81927000  0.67091000  0.18815000  1.0
  H  H12  1  0.28926000  0.65994000  0.89783000  1.0
  H  H13  1  0.71074000  0.34005000  0.10217000  1.0
  H  H14  1  0.42535000  0.18801000  0.68076000  1.0
  H  H15  1  0.57465000  0.81199000  0.31924000  1.0
  H  H16  1  0.83903000  0.04556000  0.38370000  1.0
  H  H17  1  0.16097000  0.95444000  0.61629000  1.0
  C  C18  1  0.13747000  0.18629000  0.04378000  1.0
  C  C19  1  0.86253000  0.81371000  0.95622000  1.0
  C  C20  1  0.25925000  0.54859000  0.13705000  1.0
  C  C21  1  0.74075000  0.45141000  0.86295000  1.0
  C  C22  1  0.15944000  0.27329000  0.55970000  1.0
  C  C23  1  0.84056000  0.72671000  0.44030000  1.0
  C  C24  1  0.62017000  0.12028000  0.23073000  1.0
  C  C25  1  0.37983000  0.87972000  0.76927000  1.0
  C  C26  1  0.18866000  0.31681000  0.99179000  1.0
  C  C27  1  0.81134000  0.68319000  0.00821000  1.0
  C  C28  1  0.25019000  0.49299000  0.03631000  1.0
  C  C29  1  0.74981000  0.50701000  0.96369000  1.0
  C  C30  1  0.35651000  0.21527000  0.51620000  1.0
  C  C31  1  0.64349000  0.78473000  0.48380000  1.0
  C  C32  1  0.57867000  0.14046000  0.35640000  1.0
  C  C33  1  0.42133000  0.85954000  0.64360000  1.0
  C  C34  1  0.20347000  0.37701000  0.87356000  1.0
  C  C35  1  0.79653000  0.62298000  0.12644000  1.0
  C  C36  1  0.26410000  0.56161000  0.92023000  1.0
  C  C37  1  0.73590000  0.43838000  0.07977000  1.0
  C  C38  1  0.47318000  0.17436000  0.58845000  1.0
  C  C39  1  0.52682000  0.82564000  0.41155000  1.0
  C  C40  1  0.70269000  0.09391000  0.42269000  1.0
  C  C41  1  0.29732000  0.90609000  0.57731000  1.0
  C  C42  1  0.24203000  0.50205000  0.83679000  1.0
  C  C43  1  0.75797000  0.49795000  0.16321000  1.0
  C  C44  1  0.64938000  0.11221000  0.54051000  1.0
  C  C45  1  0.35062000  0.88779000  0.45949000  1.0
  C  C46  1  0.24718000  0.57043000  0.71050000  1.0
  C  C47  1  0.75281000  0.42957000  0.28950000  1.0
  C  C48  1  0.78033000  0.05960000  0.61425000  1.0
  C  C49  1  0.21967000  0.94040000  0.38574000  1.0
  N  N50  1  0.21495000  0.37284000  0.07029000  1.0
  N  N51  1  0.78505000  0.62716000  0.92971000  1.0
  N  N52  1  0.41010000  0.20097000  0.40203000  1.0
  N  N53  1  0.58990000  0.79903000  0.59797000  1.0
  O  O54  1  0.14533000  0.13755000  0.15046000  1.0
  O  O55  1  0.85467000  0.86245000  0.84954000  1.0
  O  O56  1  0.26057000  0.46693000  0.23497000  1.0
  O  O57  1  0.73943000  0.53307000  0.76504000  1.0
  O  O58  1  0.07875000  0.32287000  0.47799000  1.0
  O  O59  1  0.92125000  0.67713000  0.52201000  1.0
  O  O60  1  0.49151000  0.17172000  0.18053000  1.0
  O  O61  1  0.50848000  0.82827000  0.81947000  1.0
  O  O62  1  0.89093000  0.34112000  0.30088000  1.0
  O  O63  1  0.10907000  0.65888000  0.69912000  1.0
  O  O64  1  0.13976000  0.05846000  0.38845000  1.0
  O  O65  1  0.86023000  0.94154000  0.61155000  1.0
  O  O66  1  0.09193000  0.13024000  0.98140000  1.0
  O  O67  1  0.90807000  0.86975000  0.01861000  1.0
  O  O68  1  0.40090000  0.90429000  0.03095000  1.0
  O  O69  1  0.59910000  0.09571000  0.96905000  1.0
  O  O70  1  0.26013000  0.66707000  0.12103000  1.0
  O  O71  1  0.73987000  0.33293000  0.87897000  1.0
  O  O72  1  0.91098000  0.73240000  0.32989000  1.0
  O  O73  1  0.08903000  0.26760000  0.67011000  1.0
  O  O74  1  0.19906000  0.86578000  0.32874000  1.0
  O  O75  1  0.80095000  0.13421000  0.67126000  1.0
  O  O76  1  0.76969000  0.05638000  0.18414000  1.0
  O  O77  1  0.23031000  0.94362000  0.81586000  1.0
  O  O78  1  0.37887000  0.53564000  0.62736000  1.0
  O  O79  1  0.62112000  0.46436000  0.37264000  1.0
