# generated using pymatgen
data_ZnH4C8(N2O)2
_symmetry_space_group_name_H-M   'P 1'
_cell_length_a   4.89753000
_cell_length_b   10.51030000
_cell_length_c   17.03360000
_cell_angle_alpha   90.00000000
_cell_angle_beta   90.00000000
_cell_angle_gamma   97.96810000
_symmetry_Int_Tables_number   1
_chemical_formula_structural   ZnH4C8(N2O)2
_chemical_formula_sum   'Zn4 H16 C32 N16 O8'
_cell_volume   868.33109049
_cell_formula_units_Z   4
loop_
 _symmetry_equiv_pos_site_id
 _symmetry_equiv_pos_as_xyz
  1  'x, y, z'
loop_
 _atom_site_type_symbol
 _atom_site_label
 _atom_site_symmetry_multiplicity
 _atom_site_fract_x
 _atom_site_fract_y
 _atom_site_fract_z
 _atom_site_occupancy
  Zn  Zn0  1  0.20358000  0.64796000  0.65940000  1.0
  Zn  Zn1  1  0.79642000  0.85204000  0.15940000  1.0
  Zn  Zn2  1  0.79642000  0.35204000  0.34060000  1.0
  Zn  Zn3  1  0.20358000  0.14796000  0.84060000  1.0
  H  H4  1  0.36662000  0.82955000  0.53086000  1.0
  H  H5  1  0.63338000  0.67045000  0.03086000  1.0
  H  H6  1  0.63338000  0.17045000  0.46914000  1.0
  H  H7  1  0.36662000  0.32955000  0.96914000  1.0
  H  H8  1  0.21370000  0.88792000  0.39776000  1.0
  H  H9  1  0.78630000  0.61208000  0.89776000  1.0
  H  H10  1  0.78630000  0.11208000  0.60224000  1.0
  H  H11  1  0.21370000  0.38792000  0.10224000  1.0
  H  H12  1  0.38306000  0.78942000  0.27982000  1.0
  H  H13  1  0.61694000  0.71058000  0.77982000  1.0
  H  H14  1  0.61694000  0.21058000  0.72018000  1.0
  H  H15  1  0.38306000  0.28942000  0.22018000  1.0
  H  H16  1  0.88560000  0.57803000  0.42653000  1.0
  H  H17  1  0.11440000  0.92197000  0.92652000  1.0
  H  H18  1  0.11440000  0.42197000  0.57347000  1.0
  H  H19  1  0.88560000  0.07803000  0.07348000  1.0
  C  C20  1  0.73436000  0.66006000  0.56429000  1.0
  C  C21  1  0.26564000  0.83994000  0.06429000  1.0
  C  C22  1  0.26564000  0.33994000  0.43571000  1.0
  C  C23  1  0.73436000  0.16006000  0.93571000  1.0
  C  C24  1  0.76712000  0.62188000  0.27550000  1.0
  C  C25  1  0.23287000  0.87812000  0.77550000  1.0
  C  C26  1  0.23288000  0.37812000  0.72450000  1.0
  C  C27  1  0.76712000  0.12188000  0.22450000  1.0
  C  C28  1  0.62625000  0.69462000  0.48643000  1.0
  C  C29  1  0.37375000  0.80538000  0.98643000  1.0
  C  C30  1  0.37375000  0.30538000  0.51357000  1.0
  C  C31  1  0.62625000  0.19462000  0.01357000  1.0
  C  C32  1  0.44140000  0.78443000  0.47900000  1.0
  C  C33  1  0.55860000  0.71557000  0.97900000  1.0
  C  C34  1  0.55860000  0.21557000  0.52100000  1.0
  C  C35  1  0.44140000  0.28443000  0.02100000  1.0
  C  C36  1  0.35769000  0.81851000  0.40450000  1.0
  C  C37  1  0.64231000  0.68149000  0.90450000  1.0
  C  C38  1  0.64231000  0.18149000  0.59550000  1.0
  C  C39  1  0.35769000  0.31851000  0.09550000  1.0
  C  C40  1  0.45576000  0.76356000  0.33745000  1.0
  C  C41  1  0.54424000  0.73644000  0.83745000  1.0
  C  C42  1  0.54424000  0.23644000  0.66255000  1.0
  C  C43  1  0.45576000  0.26356000  0.16255000  1.0
  C  C44  1  0.64557000  0.67533000  0.34437000  1.0
  C  C45  1  0.35443000  0.82467000  0.84437000  1.0
  C  C46  1  0.35443000  0.32467000  0.65563000  1.0
  C  C47  1  0.64557000  0.17533000  0.15563000  1.0
  C  C48  1  0.73082000  0.64216000  0.41918000  1.0
  C  C49  1  0.26918000  0.85785000  0.91918000  1.0
  C  C50  1  0.26918000  0.35785000  0.58082000  1.0
  C  C51  1  0.73083000  0.14216000  0.08082000  1.0
  N  N52  1  0.84999000  0.50495000  0.27142000  1.0
  N  N53  1  0.15001000  0.99505000  0.77142000  1.0
  N  N54  1  0.15001000  0.49505000  0.72858000  1.0
  N  N55  1  0.84999000  0.00495000  0.22858000  1.0
  N  N56  1  0.96301000  0.49418000  0.19942000  1.0
  N  N57  1  0.03699000  0.00582000  0.69942000  1.0
  N  N58  1  0.03699000  0.50582000  0.80058000  1.0
  N  N59  1  0.96301000  0.99418000  0.30058000  1.0
  N  N60  1  0.95024000  0.59920000  0.16046000  1.0
  N  N61  1  0.04976000  0.90080000  0.66046000  1.0
  N  N62  1  0.04977000  0.40080000  0.83954000  1.0
  N  N63  1  0.95024000  0.09920000  0.33954000  1.0
  N  N64  1  0.82924000  0.68134000  0.20650000  1.0
  N  N65  1  0.17076000  0.81866000  0.70650000  1.0
  N  N66  1  0.17076000  0.31866000  0.79350000  1.0
  N  N67  1  0.82924000  0.18134000  0.29350000  1.0
  O  O68  1  0.59657000  0.66261000  0.62750000  1.0
  O  O69  1  0.40343000  0.83739000  0.12750000  1.0
  O  O70  1  0.40343000  0.33739000  0.37250000  1.0
  O  O71  1  0.59657000  0.16261000  0.87250000  1.0
  O  O72  1  0.97895000  0.63016000  0.56374000  1.0
  O  O73  1  0.02105000  0.86984000  0.06374000  1.0
  O  O74  1  0.02105000  0.36984000  0.43626000  1.0
  O  O75  1  0.97895000  0.13016000  0.93626000  1.0
