# generated using pymatgen
data_Al6H41C84N15(Cl3O7)4
_symmetry_space_group_name_H-M   'P 1'
_cell_length_a   12.74050000
_cell_length_b   13.03280000
_cell_length_c   30.54640000
_cell_angle_alpha   80.74490000
_cell_angle_beta   80.82060000
_cell_angle_gamma   61.08630000
_symmetry_Int_Tables_number   1
_chemical_formula_structural   Al6H41C84N15(Cl3O7)4
_chemical_formula_sum   'Al6 H41 C84 N15 Cl12 O28'
_cell_volume   4362.35436780
_cell_formula_units_Z   1
loop_
 _symmetry_equiv_pos_site_id
 _symmetry_equiv_pos_as_xyz
  1  'x, y, z'
loop_
 _atom_site_type_symbol
 _atom_site_label
 _atom_site_symmetry_multiplicity
 _atom_site_fract_x
 _atom_site_fract_y
 _atom_site_fract_z
 _atom_site_occupancy
  Al  Al0  1  0.58458000  0.59015000  0.49013000  1.0
  Al  Al1  1  0.58417000  0.34307000  0.50492000  1.0
  Al  Al2  1  0.34660000  0.56143000  0.50757000  1.0
  Al  Al3  1  0.06736000  0.07957000  0.02083000  1.0
  Al  Al4  1  0.32005000  0.08245000  0.00582000  1.0
  Al  Al5  1  0.09649000  0.31401000  0.00570000  1.0
  H  H6  1  0.15274000  0.97138000  0.81343000  1.0
  H  H7  1  0.23415000  0.73198000  0.71098000  1.0
  H  H8  1  0.82254000  0.20929000  0.92909000  1.0
  H  H9  1  0.75934000  0.22381000  0.85404000  1.0
  H  H10  1  0.90748000  0.46110000  0.80450000  1.0
  H  H11  1  0.76736000  0.52229000  0.68167000  1.0
  H  H12  1  0.30380000  0.96782000  0.29980000  1.0
  H  H13  1  0.67382000  0.52818000  0.28456000  1.0
  H  H14  1  0.52981000  0.75079000  0.83125000  1.0
  H  H15  1  0.02313000  0.06834000  0.87159000  1.0
  H  H16  1  0.06195000  0.05085000  0.92525000  1.0
  H  H17  1  0.73885000  0.18081000  0.58796000  1.0
  H  H18  1  0.77392000  0.10062000  0.64067000  1.0
  H  H19  1  0.71231000  0.58100000  0.56610000  1.0
  H  H20  1  0.72564000  0.63088000  0.61399000  1.0
  H  H21  1  0.53842000  0.02913000  0.13197000  1.0
  H  H22  1  0.45974000  0.06346000  0.08584000  1.0
  H  H23  1  0.49615000  0.13539000  0.22662000  1.0
  H  H24  1  0.47750000  0.04245000  0.20185000  1.0
  H  H25  1  0.64749000  0.19714000  0.31143000  1.0
  H  H26  1  0.55535000  0.20914000  0.27562000  1.0
  H  H27  1  0.60185000  0.20538000  0.42531000  1.0
  H  H28  1  0.63944000  0.13055000  0.37805000  1.0
  H  H29  1  0.19454000  0.55681000  0.43503000  1.0
  H  H30  1  0.11005000  0.59569000  0.38938000  1.0
  H  H31  1  0.08362000  0.55884000  0.17468000  1.0
  H  H32  1  0.18342000  0.52455000  0.21168000  1.0
  H  H33  1  0.12944000  0.48124000  0.06830000  1.0
  H  H34  1  0.12852000  0.57028000  0.10469000  1.0
  H  H35  1  0.39143000  0.52695000  0.27797000  1.0
  H  H36  1  0.37820000  0.57290000  0.32851000  1.0
  H  H37  1  0.13020000  0.24221000  0.79064000  1.0
  H  H38  1  0.18992000  0.23122000  0.83792000  1.0
  H  H39  1  0.28307000  0.04902000  0.18008000  1.0
  H  H40  1  0.25166000  0.10226000  0.23032000  1.0
  H  H41  1  0.22595000  0.16199000  0.72869000  1.0
  H  H42  1  0.24364000  0.23681000  0.67996000  1.0
  H  H43  1  0.54818000  0.86105000  0.58389000  1.0
  H  H44  1  0.52220000  0.78894000  0.54632000  1.0
  H  H45  1  0.70490000  0.68362000  0.46051000  1.0
  H  H46  1  0.01238000  0.93366000  0.01684000  1.0
  C  C47  1  0.70841000  0.38713000  0.56014000  1.0
  C  C48  1  0.27512000  0.27214000  0.78084000  1.0
  C  C49  1  0.28660000  0.27816000  0.73370000  1.0
  C  C50  1  0.35543000  0.32928000  0.70850000  1.0
  C  C51  1  0.33886000  0.31091000  0.80201000  1.0
  C  C52  1  0.33001000  0.30009000  0.84905000  1.0
  C  C53  1  0.36713000  0.33492000  0.66155000  1.0
  C  C54  1  0.31798000  0.28710000  0.88968000  1.0
  C  C55  1  0.36149000  0.74119000  0.60337000  1.0
  C  C56  1  0.28837000  0.72306000  0.64086000  1.0
  C  C57  1  0.28830000  0.75058000  0.68281000  1.0
  C  C58  1  0.39867000  0.36718000  0.57422000  1.0
  C  C59  1  0.36200000  0.79849000  0.68967000  1.0
  C  C60  1  0.43150000  0.82157000  0.65313000  1.0
  C  C61  1  0.43328000  0.79547000  0.60951000  1.0
  C  C62  1  0.43933000  0.81174000  0.84395000  1.0
  C  C63  1  0.41646000  0.84034000  0.88757000  1.0
  C  C64  1  0.20266000  0.96402000  0.87858000  1.0
  C  C65  1  0.22682000  0.93478000  0.83442000  1.0
  C  C66  1  0.34312000  0.86085000  0.81688000  1.0
  C  C67  1  0.35980000  0.83624000  0.77198000  1.0
  C  C68  1  0.36367000  0.82074000  0.73330000  1.0
  C  C69  1  0.37655000  0.69715000  0.56006000  1.0
  C  C70  1  0.30002000  0.91738000  0.90614000  1.0
  C  C71  1  0.74475000  0.36881000  0.60470000  1.0
  C  C72  1  0.74833000  0.46300000  0.62265000  1.0
  C  C73  1  0.76826000  0.45012000  0.66762000  1.0
  C  C74  1  0.78796000  0.34684000  0.69510000  1.0
  C  C75  1  0.79004000  0.25254000  0.67760000  1.0
  C  C76  1  0.76818000  0.26122000  0.63297000  1.0
  C  C77  1  0.80507000  0.27215000  0.85965000  1.0
  C  C78  1  0.83866000  0.26560000  0.90135000  1.0
  C  C79  1  0.91907000  0.40065000  0.87412000  1.0
  C  C80  1  0.71860000  0.39296000  0.43192000  1.0
  C  C81  1  0.88756000  0.40631000  0.83178000  1.0
  C  C82  1  0.83335000  0.34025000  0.82361000  1.0
  C  C83  1  0.81270000  0.34106000  0.77947000  1.0
  C  C84  1  0.80256000  0.34102000  0.74045000  1.0
  C  C85  1  0.89911000  0.32603000  0.90957000  1.0
  C  C86  1  0.38656000  0.37213000  0.40415000  1.0
  C  C87  1  0.27413000  0.45004000  0.38475000  1.0
  C  C88  1  0.26278000  0.43443000  0.34163000  1.0
  C  C89  1  0.35911000  0.35111000  0.31555000  1.0
  C  C90  1  0.46997000  0.27821000  0.33352000  1.0
  C  C91  1  0.40388000  0.38618000  0.44840000  1.0
  C  C92  1  0.48248000  0.28402000  0.37814000  1.0
  C  C93  1  0.40619000  0.20733000  0.17192000  1.0
  C  C94  1  0.38985000  0.18843000  0.12993000  1.0
  C  C95  1  0.22662000  0.39478000  0.12149000  1.0
  C  C96  1  0.24318000  0.41132000  0.16387000  1.0
  C  C97  1  0.33188000  0.31744000  0.18901000  1.0
  C  C98  1  0.34236000  0.33134000  0.23270000  1.0
  C  C99  1  0.34812000  0.34242000  0.27123000  1.0
  C  C100  1  0.29839000  0.28210000  0.10410000  1.0
  C  C101  1  0.34943000  0.74271000  0.38761000  1.0
  C  C102  1  0.37838000  0.70043000  0.43287000  1.0
  C  C103  1  0.36640000  0.69410000  0.27551000  1.0
  C  C104  1  0.35697000  0.72147000  0.22948000  1.0
  C  C105  1  0.31572000  0.92398000  0.23345000  1.0
  C  C106  1  0.31892000  0.89948000  0.27951000  1.0
  C  C107  1  0.34258000  0.78747000  0.30061000  1.0
  C  C108  1  0.33214000  0.83386000  0.20803000  1.0
  C  C109  1  0.32030000  0.86057000  0.16189000  1.0
  C  C110  1  0.34564000  0.76493000  0.34733000  1.0
  C  C111  1  0.30679000  0.89259000  0.12248000  1.0
  C  C112  1  0.76357000  0.36937000  0.38654000  1.0
  C  C113  1  0.37655000  0.33858000  0.62098000  1.0
  C  C114  1  0.88419000  0.23713000  0.28380000  1.0
  C  C115  1  0.90249000  0.22907000  0.23779000  1.0
  C  C116  1  0.75869000  0.43747000  0.22567000  1.0
  C  C117  1  0.73870000  0.44539000  0.27128000  1.0
  C  C118  1  0.80224000  0.34617000  0.30077000  1.0
  C  C119  1  0.84117000  0.32983000  0.20788000  1.0
  C  C120  1  0.86644000  0.32122000  0.16170000  1.0
  C  C121  1  0.78295000  0.35681000  0.34692000  1.0
  C  C122  1  0.89511000  0.30841000  0.12222000  1.0
  C  C123  1  0.27528000  0.95895000  0.95087000  1.0
  C  C124  1  0.41403000  0.37365000  0.73002000  1.0
  C  C125  1  0.28998000  0.26421000  0.93646000  1.0
  C  C126  1  0.95112000  0.29398000  0.95315000  1.0
  C  C127  1  0.27833000  0.94557000  0.07795000  1.0
  C  C128  1  0.27837000  0.26205000  0.06135000  1.0
  C  C129  1  0.94928000  0.27980000  0.07786000  1.0
  C  C130  1  0.40824000  0.36174000  0.77629000  1.0
  N  N131  1  0.08788000  0.04246000  0.89226000  1.0
  N  N132  1  0.77016000  0.16782000  0.61798000  1.0
  N  N133  1  0.73280000  0.56507000  0.59817000  1.0
  N  N134  1  0.45948000  0.07567000  0.11779000  1.0
  N  N135  1  0.49526000  0.11268000  0.19633000  1.0
  N  N136  1  0.56922000  0.19624000  0.30845000  1.0
  N  N137  1  0.59223000  0.20646000  0.39289000  1.0
  N  N138  1  0.17897000  0.53583000  0.40705000  1.0
  N  N139  1  0.17238000  0.52202000  0.17966000  1.0
  N  N140  1  0.13724000  0.49116000  0.09968000  1.0
  N  N141  1  0.40229000  0.58093000  0.29530000  1.0
  N  N142  1  0.20569000  0.22307000  0.80466000  1.0
  N  N143  1  0.30131000  0.03192000  0.21244000  1.0
  N  N144  1  0.22502000  0.23793000  0.71357000  1.0
  N  N145  1  0.50002000  0.82482000  0.57587000  1.0
  Cl  Cl146  1  0.49131000  0.44089000  0.69817000  1.0
  Cl  Cl147  1  0.81318000  0.12515000  0.71183000  1.0
  Cl  Cl148  1  0.98912000  0.48293000  0.87868000  1.0
  Cl  Cl149  1  0.48173000  0.41027000  0.80342000  1.0
  Cl  Cl150  1  0.12869000  0.52672000  0.31809000  1.0
  Cl  Cl151  1  0.37429000  0.61415000  0.19830000  1.0
  Cl  Cl152  1  0.96130000  0.11673000  0.31993000  1.0
  Cl  Cl153  1  0.00094000  0.09817000  0.21666000  1.0
  Cl  Cl154  1  0.68386000  0.56013000  0.19004000  1.0
  Cl  Cl155  1  0.53751000  0.77095000  0.91953000  1.0
  Cl  Cl156  1  0.52077000  0.88231000  0.66135000  1.0
  Cl  Cl157  1  0.19798000  0.65953000  0.63840000  1.0
  O  O158  1  0.46931000  0.68647000  0.53412000  1.0
  O  O159  1  0.50268000  0.31196000  0.46626000  1.0
  O  O160  1  0.32251000  0.47442000  0.46945000  1.0
  O  O161  1  0.30060000  0.68001000  0.46038000  1.0
  O  O162  1  0.50455000  0.49721000  0.50033000  1.0
  O  O163  1  0.96990000  0.19418000  0.97291000  1.0
  O  O164  1  0.17281000  0.98262000  0.97221000  1.0
  O  O165  1  0.35491000  0.97577000  0.96516000  1.0
  O  O166  1  0.36334000  0.16684000  0.95629000  1.0
  O  O167  1  0.18963000  0.33996000  0.95419000  1.0
  O  O168  1  0.97822000  0.36540000  0.96719000  1.0
  O  O169  1  0.68661000  0.48382000  0.53616000  1.0
  O  O170  1  0.96762000  0.18253000  0.06712000  1.0
  O  O171  1  0.17478000  0.97456000  0.06777000  1.0
  O  O172  1  0.36057000  0.96355000  0.05257000  1.0
  O  O173  1  0.35008000  0.16384000  0.04424000  1.0
  O  O174  1  0.18641000  0.34175000  0.04077000  1.0
  O  O175  1  0.97861000  0.35458000  0.05400000  1.0
  O  O176  1  0.16141000  0.15930000  0.01067000  1.0
  O  O177  1  0.69485000  0.30567000  0.54515000  1.0
  O  O178  1  0.49945000  0.29747000  0.55433000  1.0
  O  O179  1  0.31965000  0.46431000  0.55643000  1.0
  O  O180  1  0.30117000  0.66769000  0.54962000  1.0
  O  O181  1  0.47978000  0.68240000  0.44166000  1.0
  O  O182  1  0.69220000  0.49303000  0.44262000  1.0
  O  O183  1  0.70383000  0.31086000  0.45737000  1.0
  O  O184  1  0.65202000  0.68272000  0.48685000  1.0
  O  O185  1  0.97827000  0.00822000  0.02922000  1.0
