# generated using pymatgen
data_ZnH12C12NO4
_symmetry_space_group_name_H-M   'P 1'
_cell_length_a   14.33790000
_cell_length_b   14.33680000
_cell_length_c   14.35880000
_cell_angle_alpha   95.54820000
_cell_angle_beta   116.89100000
_cell_angle_gamma   116.75700000
_symmetry_Int_Tables_number   1
_chemical_formula_structural   ZnH12C12NO4
_chemical_formula_sum   'Zn4 H48 C48 N4 O16'
_cell_volume   2177.02600590
_cell_formula_units_Z   4
loop_
 _symmetry_equiv_pos_site_id
 _symmetry_equiv_pos_as_xyz
  1  'x, y, z'
loop_
 _atom_site_type_symbol
 _atom_site_label
 _atom_site_symmetry_multiplicity
 _atom_site_fract_x
 _atom_site_fract_y
 _atom_site_fract_z
 _atom_site_occupancy
  Zn  Zn0  1  0.02601000  0.43345000  0.44586000  1.0
  Zn  Zn1  1  0.03043000  0.08202000  0.09855000  1.0
  Zn  Zn2  1  0.01676000  0.56826000  0.59857000  1.0
  Zn  Zn3  1  0.01266000  0.91999000  0.94601000  1.0
  H  H4  1  0.07513000  0.22700000  0.62370000  1.0
  H  H5  1  0.00732000  0.53626000  0.11925000  1.0
  H  H6  1  0.86707000  0.40784000  0.99267000  1.0
  H  H7  1  0.84593000  0.50794000  0.14626000  1.0
  H  H8  1  0.95896000  0.19808000  0.38925000  1.0
  H  H9  1  0.12530000  0.28201000  0.46685000  1.0
  H  H10  1  0.63320000  0.16337000  0.23699000  1.0
  H  H11  1  0.23142000  0.43730000  0.42123000  1.0
  H  H12  1  0.14127000  0.45880000  0.30265000  1.0
  H  H13  1  0.40175000  0.68130000  0.52910000  1.0
  H  H14  1  0.91671000  0.34553000  0.19750000  1.0
  H  H15  1  0.83899000  0.23117000  0.23071000  1.0
  H  H16  1  0.64061000  0.94523000  0.92324000  1.0
  H  H17  1  0.15058000  0.33723000  0.18848000  1.0
  H  H18  1  0.23168000  0.30768000  0.30491000  1.0
  H  H19  1  0.40999000  0.20844000  0.40218000  1.0
  H  H20  1  0.83888000  0.11287000  0.10281000  1.0
  H  H21  1  0.92503000  0.22959000  0.07736000  1.0
  H  H22  1  0.97847000  0.90213000  0.30580000  1.0
  H  H23  1  0.00633000  0.36778000  0.96524000  1.0
  H  H24  1  0.14613000  0.49614000  0.09167000  1.0
  H  H25  1  0.19667000  0.37021000  0.01613000  1.0
  H  H26  1  0.11713000  0.15208000  0.34253000  1.0
  H  H27  1  0.95074000  0.07219000  0.26115000  1.0
  H  H28  1  0.97837000  0.78299000  0.42336000  1.0
  H  H29  1  0.85201000  0.53779000  0.68921000  1.0
  H  H30  1  0.99825000  0.57359000  0.80552000  1.0
  H  H31  1  0.19326000  0.49199000  0.90171000  1.0
  H  H32  1  0.98941000  0.76356000  0.60269000  1.0
  H  H33  1  0.84758000  0.65185000  0.57773000  1.0
  H  H34  1  0.40391000  0.82756000  0.80569000  1.0
  H  H35  1  0.60144000  0.46072000  0.46731000  1.0
  H  H36  1  0.59789000  0.44635000  0.59281000  1.0
  H  H37  1  0.64613000  0.31924000  0.51655000  1.0
  H  H38  1  0.19097000  0.72588000  0.84256000  1.0
  H  H39  1  0.18892000  0.81068000  0.76096000  1.0
  H  H40  1  0.39676000  0.04914000  0.12375000  1.0
  H  H41  1  0.57836000  0.60883000  0.61701000  1.0
  H  H42  1  0.58182000  0.62360000  0.49132000  1.0
  H  H43  1  0.63846000  0.79969000  0.64645000  1.0
  H  H44  1  0.19112000  0.93046000  0.88909000  1.0
  H  H45  1  0.18536000  0.84192000  0.96694000  1.0
  H  H46  1  0.07420000  0.10387000  0.73704000  1.0
  H  H47  1  0.98485000  0.69005000  0.92183000  1.0
  H  H48  1  0.84442000  0.66116000  0.80325000  1.0
  H  H49  1  0.84714000  0.62730000  0.02894000  1.0
  H  H50  1  0.85178000  0.78027000  0.69783000  1.0
  H  H51  1  0.99906000  0.89137000  0.73067000  1.0
  C  C52  1  0.10250000  0.25781000  0.71014000  1.0
  C  C53  1  0.96947000  0.46290000  0.04981000  1.0
  C  C54  1  0.87408000  0.59423000  0.17999000  1.0
  C  C55  1  0.03939000  0.24045000  0.38176000  1.0
  C  C56  1  0.58338000  0.17115000  0.27310000  1.0
  C  C57  1  0.14734000  0.39398000  0.33482000  1.0
  C  C58  1  0.45511000  0.74023000  0.61519000  1.0
  C  C59  1  0.91972000  0.27732000  0.22437000  1.0
  C  C60  1  0.58735000  0.88836000  0.83626000  1.0
  C  C61  1  0.14956000  0.31226000  0.25803000  1.0
  C  C62  1  0.45968000  0.19785000  0.36728000  1.0
  C  C63  1  0.92171000  0.19968000  0.14397000  1.0
  C  C64  1  0.94815000  0.81513000  0.27131000  1.0
  C  C65  1  0.04370000  0.44086000  0.03472000  1.0
  C  C66  1  0.17040000  0.33987000  0.93010000  1.0
  C  C67  1  0.03523000  0.15772000  0.30010000  1.0
  C  C68  1  0.94802000  0.74917000  0.33633000  1.0
  C  C69  1  0.94650000  0.60858000  0.75858000  1.0
  C  C70  1  0.16914000  0.40744000  0.86693000  1.0
  C  C71  1  0.94411000  0.72195000  0.64411000  1.0
  C  C72  1  0.45639000  0.82324000  0.77126000  1.0
  C  C73  1  0.59542000  0.49145000  0.53553000  1.0
  C  C74  1  0.59042000  0.25969000  0.43042000  1.0
  C  C75  1  0.14263000  0.76514000  0.80011000  1.0
  C  C76  1  0.45243000  0.10807000  0.21026000  1.0
  C  C77  1  0.58475000  0.57872000  0.54881000  1.0
  C  C78  1  0.58592000  0.80548000  0.68009000  1.0
  C  C79  1  0.14155000  0.84259000  0.88179000  1.0
  C  C80  1  0.10223000  0.18971000  0.77301000  1.0
  C  C81  1  0.94146000  0.68751000  0.83535000  1.0
  C  C82  1  0.87445000  0.66011000  0.11507000  1.0
  C  C83  1  0.94686000  0.80432000  0.72452000  1.0
  C  C84  1  0.13164000  0.36568000  0.75522000  1.0
  C  C85  1  0.11111000  0.43070000  0.68090000  1.0
  C  C86  1  0.91433000  0.63928000  0.29208000  1.0
  C  C87  1  0.93301000  0.57490000  0.36736000  1.0
  C  C88  1  0.65347000  0.25012000  0.38251000  1.0
  C  C89  1  0.79309000  0.33172000  0.44289000  1.0
  C  C90  1  0.38942000  0.74657000  0.66136000  1.0
  C  C91  1  0.24966000  0.66519000  0.59813000  1.0
  C  C92  1  0.65295000  0.87759000  0.79208000  1.0
  C  C93  1  0.79261000  0.93437000  0.86735000  1.0
  C  C94  1  0.38970000  0.12387000  0.25547000  1.0
  C  C95  1  0.25036000  0.07012000  0.18115000  1.0
  C  C96  1  0.91467000  0.77210000  0.16134000  1.0
  C  C97  1  0.93299000  0.84863000  0.09813000  1.0
  C  C98  1  0.13242000  0.22900000  0.88233000  1.0
  C  C99  1  0.11128000  0.14978000  0.94276000  1.0
  N  N100  1  0.03544000  0.33069000  0.34023000  1.0
  N  N101  1  0.03509000  0.19610000  0.20727000  1.0
  N  N102  1  0.01145000  0.67222000  0.70748000  1.0
  N  N103  1  0.00977000  0.80477000  0.84049000  1.0
  O  O104  1  0.10164000  0.40021000  0.58900000  1.0
  O  O105  1  0.94259000  0.49533000  0.33545000  1.0
  O  O106  1  0.84823000  0.31065000  0.40346000  1.0
  O  O107  1  0.19848000  0.57988000  0.51273000  1.0
  O  O108  1  0.85195000  0.01628000  0.95888000  1.0
  O  O109  1  0.20493000  0.11411000  0.21356000  1.0
  O  O110  1  0.95201000  0.94363000  0.13689000  1.0
  O  O111  1  0.10783000  0.18179000  0.02662000  1.0
  O  O112  1  0.94271000  0.60705000  0.45892000  1.0
  O  O113  1  0.09971000  0.50865000  0.71338000  1.0
  O  O114  1  0.19346000  0.68501000  0.63684000  1.0
  O  O115  1  0.84498000  0.41900000  0.52679000  1.0
  O  O116  1  0.18893000  0.98761000  0.08931000  1.0
  O  O117  1  0.84039000  0.89301000  0.83552000  1.0
  O  O118  1  0.09309000  0.05528000  0.90345000  1.0
  O  O119  1  0.93292000  0.81439000  0.01279000  1.0
