# generated using pymatgen
data_Cd3H10C8(N9Cl)2
_symmetry_space_group_name_H-M   'P 1'
_cell_length_a   10.01490000
_cell_length_b   16.12590000
_cell_length_c   16.12490000
_cell_angle_alpha   115.82800000
_cell_angle_beta   101.94300000
_cell_angle_gamma   101.95100000
_symmetry_Int_Tables_number   1
_chemical_formula_structural   Cd3H10C8(N9Cl)2
_chemical_formula_sum   'Cd9 H30 C24 N54 Cl6'
_cell_volume   2158.70314661
_cell_formula_units_Z   3
loop_
 _symmetry_equiv_pos_site_id
 _symmetry_equiv_pos_as_xyz
  1  'x, y, z'
loop_
 _atom_site_type_symbol
 _atom_site_label
 _atom_site_symmetry_multiplicity
 _atom_site_fract_x
 _atom_site_fract_y
 _atom_site_fract_z
 _atom_site_occupancy
  Cd  Cd0  1  0.92462000  0.24508000  0.54245000  1.0
  Cd  Cd1  1  0.38219000  0.45755000  0.70263000  1.0
  Cd  Cd2  1  0.67956000  0.29736000  0.75494000  1.0
  Cd  Cd3  1  0.07539000  0.75492000  0.45755000  1.0
  Cd  Cd4  1  0.61781000  0.54245000  0.29737000  1.0
  Cd  Cd5  1  0.32044000  0.70264000  0.24506000  1.0
  Cd  Cd6  1  0.00000000  0.00000000  0.50000000  1.0
  Cd  Cd7  1  0.50000000  0.50000000  0.50000000  1.0
  Cd  Cd8  1  0.00000000  0.50000000  0.00000000  1.0
  H  H9  1  0.66222000  0.34328000  0.37030000  1.0
  H  H10  1  0.83400000  0.40799000  0.46381000  1.0
  H  H11  1  0.85939000  0.29476000  0.29036000  1.0
  H  H12  1  0.89464000  0.19205000  0.29385000  1.0
  H  H13  1  0.70558000  0.19321000  0.34842000  1.0
  H  H14  1  0.29178000  0.62979000  0.97297000  1.0
  H  H15  1  0.36995000  0.53623000  0.94416000  1.0
  H  H16  1  0.56895000  0.70960000  0.00441000  1.0
  H  H17  1  0.60078000  0.70612000  0.89822000  1.0
  H  H18  1  0.35718000  0.65163000  0.84476000  1.0
  H  H19  1  0.31894000  0.02700000  0.65666000  1.0
  H  H20  1  0.42607000  0.05594000  0.59204000  1.0
  H  H21  1  0.56452000  0.99563000  0.70529000  1.0
  H  H22  1  0.70253000  0.10179000  0.80799000  1.0
  H  H23  1  0.51226000  0.15522000  0.80683000  1.0
  H  H24  1  0.33778000  0.65672000  0.62970000  1.0
  H  H25  1  0.16600000  0.59201000  0.53619000  1.0
  H  H26  1  0.14062000  0.70524000  0.70965000  1.0
  H  H27  1  0.10536000  0.80795000  0.70615000  1.0
  H  H28  1  0.29442000  0.80679000  0.65159000  1.0
  H  H29  1  0.70822000  0.37021000  0.02703000  1.0
  H  H30  1  0.63005000  0.46377000  0.05584000  1.0
  H  H31  1  0.43105000  0.29040000  0.99559000  1.0
  H  H32  1  0.39921000  0.29388000  0.10178000  1.0
  H  H33  1  0.64282000  0.34837000  0.15524000  1.0
  H  H34  1  0.68106000  0.97300000  0.34334000  1.0
  H  H35  1  0.57393000  0.94406000  0.40796000  1.0
  H  H36  1  0.43548000  0.00437000  0.29471000  1.0
  H  H37  1  0.29747000  0.89820000  0.19201000  1.0
  H  H38  1  0.48774000  0.84478000  0.19317000  1.0
  C  C39  1  0.67309000  0.34013000  0.50266000  1.0
  C  C40  1  0.73931000  0.34054000  0.42810000  1.0
  C  C41  1  0.89153000  0.26561000  0.33912000  1.0
  C  C42  1  0.04027000  0.32960000  0.41095000  1.0
  C  C43  1  0.17030000  0.49742000  0.83745000  1.0
  C  C44  1  0.31103000  0.57197000  0.91241000  1.0
  C  C45  1  0.55231000  0.66085000  0.92649000  1.0
  C  C46  1  0.62916000  0.58897000  0.91864000  1.0
  C  C47  1  0.33290000  0.16254000  0.65991000  1.0
  C  C48  1  0.39875000  0.08761000  0.65947000  1.0
  C  C49  1  0.62582000  0.07353000  0.73444000  1.0
  C  C50  1  0.71052000  0.08136000  0.67041000  1.0
  C  C51  1  0.32691000  0.65987000  0.49734000  1.0
  C  C52  1  0.26069000  0.65946000  0.57190000  1.0
  C  C53  1  0.10847000  0.73439000  0.66089000  1.0
  C  C54  1  0.95973000  0.67040000  0.58905000  1.0
  C  C55  1  0.82970000  0.50258000  0.16255000  1.0
  C  C56  1  0.68897000  0.42803000  0.08759000  1.0
  C  C57  1  0.44769000  0.33915000  0.07351000  1.0
  C  C58  1  0.37084000  0.41103000  0.08136000  1.0
  C  C59  1  0.66710000  0.83746000  0.34009000  1.0
  C  C60  1  0.60125000  0.91239000  0.34053000  1.0
  C  C61  1  0.37417000  0.92646000  0.26556000  1.0
  C  C62  1  0.28948000  0.91864000  0.32959000  1.0
  N  N63  1  0.70592000  0.29591000  0.55373000  1.0
  N  N64  1  0.79103000  0.25699000  0.39166000  1.0
  N  N65  1  0.08544000  0.33972000  0.50053000  1.0
  N  N66  1  0.22408000  0.39716000  0.54065000  1.0
  N  N67  1  0.63095000  0.31615000  0.61601000  1.0
  N  N68  1  0.55519000  0.36973000  0.60325000  1.0
  N  N69  1  0.57933000  0.38554000  0.53180000  1.0
  N  N70  1  0.25990000  0.42057000  0.47719000  1.0
  N  N71  1  0.14659000  0.37990000  0.39498000  1.0
  N  N72  1  0.15213000  0.44631000  0.74217000  1.0
  N  N73  1  0.39930000  0.60837000  0.86532000  1.0
  N  N74  1  0.58483000  0.49941000  0.83918000  1.0
  N  N75  1  0.68341000  0.45933000  0.85650000  1.0
  N  N76  1  0.01493000  0.38398000  0.70015000  1.0
  N  N77  1  0.95190000  0.39675000  0.76649000  1.0
  N  N78  1  0.04742000  0.46825000  0.85373000  1.0
  N  N79  1  0.78265000  0.52280000  0.94338000  1.0
  N  N80  1  0.75147000  0.60498000  0.98491000  1.0
  N  N81  1  0.40996000  0.25782000  0.70412000  1.0
  N  N82  1  0.53398000  0.13470000  0.74306000  1.0
  N  N83  1  0.74566000  0.16081000  0.66029000  1.0
  N  N84  1  0.82689000  0.14348000  0.60287000  1.0
  N  N85  1  0.31477000  0.29985000  0.68386000  1.0
  N  N86  1  0.18542000  0.23351000  0.63027000  1.0
  N  N87  1  0.19374000  0.14626000  0.61448000  1.0
  N  N88  1  0.83924000  0.05660000  0.57946000  1.0
  N  N89  1  0.76654000  0.01508000  0.62012000  1.0
  N  N90  1  0.29407000  0.70409000  0.44627000  1.0
  N  N91  1  0.20897000  0.74301000  0.60835000  1.0
  N  N92  1  0.91456000  0.66028000  0.49947000  1.0
  N  N93  1  0.77592000  0.60285000  0.45935000  1.0
  N  N94  1  0.36905000  0.68385000  0.38399000  1.0
  N  N95  1  0.44481000  0.63027000  0.39675000  1.0
  N  N96  1  0.42067000  0.61446000  0.46820000  1.0
  N  N97  1  0.74010000  0.57943000  0.52281000  1.0
  N  N98  1  0.85341000  0.62010000  0.60502000  1.0
  N  N99  1  0.84787000  0.55369000  0.25783000  1.0
  N  N100  1  0.60070000  0.39163000  0.13468000  1.0
  N  N101  1  0.41517000  0.50059000  0.16082000  1.0
  N  N102  1  0.31659000  0.54067000  0.14350000  1.0
  N  N103  1  0.98507000  0.61602000  0.29985000  1.0
  N  N104  1  0.04810000  0.60325000  0.23351000  1.0
  N  N105  1  0.95258000  0.53175000  0.14627000  1.0
  N  N106  1  0.21735000  0.47720000  0.05662000  1.0
  N  N107  1  0.24853000  0.39502000  0.01509000  1.0
  N  N108  1  0.59004000  0.74218000  0.29588000  1.0
  N  N109  1  0.46602000  0.86530000  0.25694000  1.0
  N  N110  1  0.25435000  0.83919000  0.33971000  1.0
  N  N111  1  0.17311000  0.85652000  0.39713000  1.0
  N  N112  1  0.68523000  0.70015000  0.31614000  1.0
  N  N113  1  0.81458000  0.76649000  0.36973000  1.0
  N  N114  1  0.80626000  0.85374000  0.38552000  1.0
  N  N115  1  0.16076000  0.94340000  0.42054000  1.0
  N  N116  1  0.23346000  0.98492000  0.37987000  1.0
  Cl  Cl117  1  0.92998000  0.08799000  0.39824000  1.0
  Cl  Cl118  1  0.53180000  0.60177000  0.68978000  1.0
  Cl  Cl119  1  0.84209000  0.31022000  0.91201000  1.0
  Cl  Cl120  1  0.07002000  0.91201000  0.60176000  1.0
  Cl  Cl121  1  0.46820000  0.39823000  0.31023000  1.0
  Cl  Cl122  1  0.15791000  0.68978000  0.08799000  1.0
