# generated using pymatgen
data_Zn4H6C25S4Cl2O15
_symmetry_space_group_name_H-M   'P 1'
_cell_length_a   19.63390000
_cell_length_b   19.68240000
_cell_length_c   33.28310000
_cell_angle_alpha   79.16660000
_cell_angle_beta   79.30940000
_cell_angle_gamma   64.07520000
_symmetry_Int_Tables_number   1
_chemical_formula_structural   Zn4H6C25S4Cl2O15
_chemical_formula_sum   'Zn16 H24 C100 S16 Cl8 O60'
_cell_volume   11283.50972112
_cell_formula_units_Z   4
loop_
 _symmetry_equiv_pos_site_id
 _symmetry_equiv_pos_as_xyz
  1  'x, y, z'
loop_
 _atom_site_type_symbol
 _atom_site_label
 _atom_site_symmetry_multiplicity
 _atom_site_fract_x
 _atom_site_fract_y
 _atom_site_fract_z
 _atom_site_occupancy
  Zn  Zn0  1  0.05613000  0.40043000  0.47911000  1.0
  Zn  Zn1  1  0.98502000  0.48382000  0.55999000  1.0
  Zn  Zn2  1  0.05639000  0.56488000  0.48247000  1.0
  Zn  Zn3  1  0.90003000  0.55502000  0.47888000  1.0
  Zn  Zn4  1  0.69309000  0.35101000  0.27109000  1.0
  Zn  Zn5  1  0.68611000  0.19338000  0.26684000  1.0
  Zn  Zn6  1  0.77010000  0.26428000  0.18949000  1.0
  Zn  Zn7  1  0.84611000  0.19622000  0.27311000  1.0
  Zn  Zn8  1  0.26732000  0.76785000  0.68923000  1.0
  Zn  Zn9  1  0.35027000  0.69698000  0.77043000  1.0
  Zn  Zn10  1  0.19228000  0.84807000  0.77227000  1.0
  Zn  Zn11  1  0.19331000  0.68668000  0.76646000  1.0
  Zn  Zn12  1  0.56127000  0.05947000  0.98288000  1.0
  Zn  Zn13  1  0.40104000  0.05600000  0.97793000  1.0
  Zn  Zn14  1  0.55440000  0.90142000  0.97803000  1.0
  Zn  Zn15  1  0.48450000  0.98184000  0.06031000  1.0
  H  H16  1  0.95474000  0.25401000  0.34762000  1.0
  H  H17  1  0.74069000  0.45003000  0.35700000  1.0
  H  H18  1  0.00344000  0.30215000  0.39587000  1.0
  H  H19  1  0.09333000  0.60277000  0.69955000  1.0
  H  H20  1  0.21182000  0.69176000  0.59741000  1.0
  H  H21  1  0.04565000  0.55559000  0.65033000  1.0
  H  H22  1  0.46147000  0.24284000  0.34141000  1.0
  H  H23  1  0.48042000  0.69524000  0.59937000  1.0
  H  H24  1  0.20668000  0.98017000  0.60274000  1.0
  H  H25  1  0.94577000  0.97010000  0.34535000  1.0
  H  H26  1  0.55585000  0.04416000  0.15265000  1.0
  H  H27  1  0.64224000  0.16201000  0.04895000  1.0
  H  H28  1  0.60453000  0.09351000  0.20027000  1.0
  H  H29  1  0.55164000  0.76841000  0.14821000  1.0
  H  H30  1  0.16275000  0.14601000  0.04138000  1.0
  H  H31  1  0.49656000  0.79431000  0.90207000  1.0
  H  H32  1  0.30060000  0.00854000  0.89350000  1.0
  H  H33  1  0.44744000  0.74762000  0.85336000  1.0
  H  H34  1  0.30269000  0.28098000  0.90116000  1.0
  H  H35  1  0.78569000  0.01010000  0.90557000  1.0
  H  H36  1  0.78681000  0.57387000  0.36188000  1.0
  H  H37  1  0.10808000  0.74840000  0.53373000  1.0
  H  H38  1  0.78586000  0.14615000  0.07254000  1.0
  H  H39  1  0.17697000  0.96670000  0.88977000  1.0
  C  C40  1  0.06039000  0.31688000  0.56270000  1.0
  C  C41  1  0.07007000  0.57053000  0.56845000  1.0
  C  C42  1  0.18243000  0.44140000  0.43959000  1.0
  C  C43  1  0.93370000  0.68577000  0.43829000  1.0
  C  C44  1  0.93149000  0.43060000  0.43086000  1.0
  C  C45  1  0.81801000  0.55992000  0.56209000  1.0
  C  C46  1  0.56473000  0.31330000  0.31257000  1.0
  C  C47  1  0.68111000  0.18069000  0.18072000  1.0
  C  C48  1  0.68827000  0.43152000  0.18669000  1.0
  C  C49  1  0.93678000  0.18908000  0.19131000  1.0
  C  C50  1  0.81651000  0.32173000  0.32014000  1.0
  C  C51  1  0.80792000  0.06658000  0.30993000  1.0
  C  C52  1  0.43400000  0.68664000  0.68673000  1.0
  C  C53  1  0.31842000  0.82054000  0.81863000  1.0
  C  C54  1  0.19091000  0.93438000  0.68945000  1.0
  C  C55  1  0.06525000  0.80646000  0.81012000  1.0
  C  C56  1  0.18248000  0.67995000  0.68002000  1.0
  C  C57  1  0.31607000  0.56750000  0.81237000  1.0
  C  C58  1  0.43932000  0.18421000  0.93842000  1.0
  C  C59  1  0.42938000  0.93212000  0.92994000  1.0
  C  C60  1  0.68430000  0.93815000  0.93851000  1.0
  C  C61  1  0.56152000  0.81515000  0.06117000  1.0
  C  C62  1  0.56949000  0.06964000  0.06936000  1.0
  C  C63  1  0.31643000  0.06068000  0.06127000  1.0
  C  C64  1  0.89969000  0.40254000  0.40332000  1.0
  C  C65  1  0.84533000  0.34988000  0.34919000  1.0
  C  C66  1  0.82479000  0.44486000  0.39279000  1.0
  C  C67  1  0.91919000  0.30735000  0.36033000  1.0
  C  C68  1  0.79845000  0.41837000  0.36546000  1.0
  C  C69  1  0.94597000  0.33388000  0.38709000  1.0
  C  C70  1  0.10187000  0.59725000  0.59660000  1.0
  C  C71  1  0.15444000  0.65081000  0.65111000  1.0
  C  C72  1  0.14936000  0.63539000  0.58113000  1.0
  C  C73  1  0.10833000  0.61174000  0.66642000  1.0
  C  C74  1  0.17478000  0.66240000  0.60861000  1.0
  C  C75  1  0.08220000  0.58547000  0.63920000  1.0
  C  C76  1  0.30449000  0.45631000  0.40308000  1.0
  C  C77  1  0.44488000  0.29917000  0.34984000  1.0
  C  C78  1  0.25758000  0.41772000  0.41512000  1.0
  C  C79  1  0.49029000  0.33873000  0.33786000  1.0
  C  C80  1  0.37688000  0.34201000  0.37354000  1.0
  C  C81  1  0.37243000  0.41307000  0.37921000  1.0
  C  C82  1  0.72650000  0.57532000  0.62995000  1.0
  C  C83  1  0.52485000  0.66807000  0.61974000  1.0
  C  C84  1  0.74366000  0.58273000  0.58725000  1.0
  C  C85  1  0.50913000  0.66041000  0.66222000  1.0
  C  C86  1  0.60430000  0.63645000  0.60780000  1.0
  C  C87  1  0.64692000  0.60584000  0.64168000  1.0
  C  C88  1  0.07573000  0.22636000  0.63114000  1.0
  C  C89  1  0.17689000  0.02492000  0.62264000  1.0
  C  C90  1  0.08567000  0.24296000  0.58841000  1.0
  C  C91  1  0.16615000  0.00977000  0.66511000  1.0
  C  C92  1  0.14425000  0.10400000  0.61016000  1.0
  C  C93  1  0.10928000  0.14704000  0.64356000  1.0
  C  C94  1  0.83877000  0.80169000  0.39591000  1.0
  C  C95  1  0.90125000  0.94972000  0.35008000  1.0
  C  C96  1  0.90768000  0.75951000  0.41240000  1.0
  C  C97  1  0.83228000  0.99116000  0.33421000  1.0
  C  C98  1  0.90395000  0.88032000  0.37239000  1.0
  C  C99  1  0.83669000  0.87072000  0.37303000  1.0
  C  C100  1  0.65076000  0.15475000  0.15139000  1.0
  C  C101  1  0.59734000  0.09948000  0.09806000  1.0
  C  C102  1  0.66144000  0.17502000  0.10852000  1.0
  C  C103  1  0.58566000  0.08053000  0.14071000  1.0
  C  C104  1  0.63500000  0.14672000  0.08218000  1.0
  C  C105  1  0.61241000  0.10801000  0.16703000  1.0
  C  C106  1  0.67069000  0.52244000  0.11830000  1.0
  C  C107  1  0.57839000  0.72401000  0.12797000  1.0
  C  C108  1  0.66362000  0.50551000  0.16106000  1.0
  C  C109  1  0.58627000  0.73977000  0.08548000  1.0
  C  C110  1  0.60918000  0.64474000  0.14006000  1.0
  C  C111  1  0.63966000  0.60203000  0.10639000  1.0
  C  C112  1  0.08461000  0.12223000  0.17955000  1.0
  C  C113  1  0.17085000  0.12736000  0.07371000  1.0
  C  C114  1  0.01219000  0.16364000  0.16694000  1.0
  C  C115  1  0.24222000  0.08591000  0.08692000  1.0
  C  C116  1  0.11315000  0.14082000  0.10748000  1.0
  C  C117  1  0.14222000  0.10918000  0.14562000  1.0
  C  C118  1  0.34681000  0.85152000  0.84640000  1.0
  C  C119  1  0.40075000  0.90383000  0.90089000  1.0
  C  C120  1  0.30471000  0.92581000  0.85736000  1.0
  C  C121  1  0.44296000  0.83040000  0.88947000  1.0
  C  C122  1  0.33190000  0.95115000  0.88480000  1.0
  C  C123  1  0.41584000  0.80468000  0.86246000  1.0
  C  C124  1  0.41015000  0.45007000  0.85457000  1.0
  C  C125  1  0.34719000  0.30119000  0.89732000  1.0
  C  C126  1  0.34200000  0.49286000  0.83743000  1.0
  C  C127  1  0.41546000  0.25942000  0.91388000  1.0
  C  C128  1  0.34514000  0.37082000  0.87562000  1.0
  C  C129  1  0.41199000  0.38035000  0.87631000  1.0
  C  C130  1  0.94478000  0.79097000  0.84951000  1.0
  C  C131  1  0.80304000  0.95237000  0.89900000  1.0
  C  C132  1  0.99028000  0.83043000  0.83488000  1.0
  C  C133  1  0.75878000  0.91210000  0.91324000  1.0
  C  C134  1  0.87094000  0.90835000  0.87561000  1.0
  C  C135  1  0.87662000  0.83548000  0.87272000  1.0
  C  C136  1  0.76849000  0.51486000  0.41232000  1.0
  C  C137  1  0.17988000  0.64331000  0.53627000  1.0
  C  C138  1  0.69455000  0.23154000  0.08944000  1.0
  C  C139  1  0.23427000  0.98247000  0.83817000  1.0
  S  S140  1  0.29706000  0.32884000  0.39745000  1.0
  S  S141  1  0.45119000  0.42761000  0.35532000  1.0
  S  S142  1  0.66251000  0.62628000  0.56168000  1.0
  S  S143  1  0.59000000  0.61492000  0.68798000  1.0
  S  S144  1  0.13615000  0.16145000  0.56372000  1.0
  S  S145  1  0.11696000  0.09081000  0.69019000  1.0
  S  S146  1  0.96966000  0.80407000  0.39963000  1.0
  S  S147  1  0.77044000  0.94643000  0.34606000  1.0
  S  S148  1  0.61887000  0.58672000  0.18633000  1.0
  S  S149  1  0.63071000  0.65895000  0.05996000  1.0
  S  S150  1  0.01501000  0.18646000  0.11364000  1.0
  S  S151  1  0.24000000  0.06311000  0.14015000  1.0
  S  S152  1  0.28063000  0.44755000  0.84799000  1.0
  S  S153  1  0.47741000  0.30400000  0.90336000  1.0
  S  S154  1  0.94943000  0.92175000  0.84956000  1.0
  S  S155  1  0.79882000  0.82101000  0.89842000  1.0
  Cl  Cl156  1  0.28656000  0.54357000  0.41483000  1.0
  Cl  Cl157  1  0.79012000  0.53475000  0.66548000  1.0
  Cl  Cl158  1  0.02980000  0.29025000  0.66604000  1.0
  Cl  Cl159  1  0.76443000  0.77650000  0.40111000  1.0
  Cl  Cl160  1  0.70985000  0.45865000  0.08329000  1.0
  Cl  Cl161  1  0.10567000  0.08923000  0.22897000  1.0
  Cl  Cl162  1  0.48466000  0.47454000  0.85079000  1.0
  Cl  Cl163  1  0.96495000  0.70047000  0.84176000  1.0
  O  O164  1  0.00013000  0.50034000  0.49958000  1.0
  O  O165  1  0.08073000  0.31514000  0.52384000  1.0
  O  O166  1  0.04278000  0.52233000  0.58466000  1.0
  O  O167  1  0.15445000  0.50620000  0.45255000  1.0
  O  O168  1  0.02066000  0.37586000  0.58098000  1.0
  O  O169  1  0.15183000  0.39391000  0.44549000  1.0
  O  O170  1  0.07174000  0.59924000  0.53077000  1.0
  O  O171  1  0.00251000  0.65847000  0.44682000  1.0
  O  O172  1  0.89462000  0.50040000  0.43662000  1.0
  O  O173  1  0.88634000  0.65588000  0.45008000  1.0
  O  O174  1  0.99280000  0.38329000  0.44559000  1.0
  O  O175  1  0.87714000  0.53410000  0.58079000  1.0
  O  O176  1  0.81615000  0.56891000  0.52309000  1.0
  O  O177  1  0.74859000  0.25150000  0.25000000  1.0
  O  O178  1  0.59588000  0.36026000  0.30380000  1.0
  O  O179  1  0.65420000  0.17537000  0.21848000  1.0
  O  O180  1  0.72209000  0.37197000  0.16840000  1.0
  O  O181  1  0.59163000  0.24671000  0.30155000  1.0
  O  O182  1  0.67326000  0.43428000  0.22573000  1.0
  O  O183  1  0.73229000  0.20472000  0.16545000  1.0
  O  O184  1  0.87986000  0.22573000  0.17049000  1.0
  O  O185  1  0.85955000  0.25543000  0.30988000  1.0
  O  O186  1  0.93422000  0.17287000  0.23031000  1.0
  O  O187  1  0.75180000  0.36606000  0.30804000  1.0
  O  O188  1  0.74238000  0.09367000  0.29709000  1.0
  O  O189  1  0.85416000  0.09818000  0.30398000  1.0
  O  O190  1  0.25037000  0.75020000  0.74966000  1.0
  O  O191  1  0.37564000  0.72294000  0.66722000  1.0
  O  O192  1  0.36702000  0.76139000  0.80261000  1.0
  O  O193  1  0.17459000  0.93344000  0.72854000  1.0
  O  O194  1  0.43427000  0.67056000  0.72586000  1.0
  O  O195  1  0.22603000  0.87686000  0.66936000  1.0
  O  O196  1  0.24779000  0.85522000  0.81396000  1.0
  O  O197  1  0.09272000  0.85647000  0.80129000  1.0
  O  O198  1  0.16800000  0.66146000  0.71841000  1.0
  O  O199  1  0.09616000  0.73932000  0.79980000  1.0
  O  O200  1  0.21831000  0.72088000  0.66378000  1.0
  O  O201  1  0.35925000  0.60245000  0.80593000  1.0
  O  O202  1  0.25120000  0.59064000  0.79925000  1.0
  O  O203  1  0.49991000  0.00011000  0.99984000  1.0
  O  O204  1  0.50602000  0.15605000  0.94993000  1.0
  O  O205  1  0.38596000  0.99772000  0.94102000  1.0
  O  O206  1  0.65264000  0.89165000  0.94673000  1.0
  O  O207  1  0.39185000  0.15385000  0.94606000  1.0
  O  O208  1  0.65803000  0.00428000  0.94998000  1.0
  O  O209  1  0.49485000  0.88815000  0.94119000  1.0
  O  O210  1  0.57464000  0.81580000  0.02197000  1.0
  O  O211  1  0.53154000  0.03083000  0.08579000  1.0
  O  O212  1  0.52934000  0.87303000  0.08106000  1.0
  O  O213  1  0.58633000  0.08537000  0.03089000  1.0
  O  O214  1  0.31555000  0.07779000  0.02234000  1.0
  O  O215  1  0.37519000  0.02367000  0.08059000  1.0
  O  O216  1  0.75222000  0.58245000  0.38746000  1.0
  O  O217  1  0.73432000  0.51246000  0.44647000  1.0
  O  O218  1  0.15033000  0.71530000  0.51591000  1.0
  O  O219  1  0.23148000  0.59187000  0.51949000  1.0
  O  O220  1  0.76569000  0.20163000  0.06816000  1.0
  O  O221  1  0.65946000  0.29974000  0.08957000  1.0
  O  O222  1  0.16743000  0.00041000  0.86388000  1.0
  O  O223  1  0.23570000  0.01529000  0.80357000  1.0
