# generated using pymatgen
data_H4RuC10N(O2F3)2
_symmetry_space_group_name_H-M   'P 1'
_cell_length_a   8.63123000
_cell_length_b   8.77605000
_cell_length_c   9.10906000
_cell_angle_alpha   112.80300000
_cell_angle_beta   93.66180000
_cell_angle_gamma   90.27640000
_symmetry_Int_Tables_number   1
_chemical_formula_structural   H4RuC10N(O2F3)2
_chemical_formula_sum   'H8 Ru2 C20 N2 O8 F12'
_cell_volume   634.43936616
_cell_formula_units_Z   2
loop_
 _symmetry_equiv_pos_site_id
 _symmetry_equiv_pos_as_xyz
  1  'x, y, z'
loop_
 _atom_site_type_symbol
 _atom_site_label
 _atom_site_symmetry_multiplicity
 _atom_site_fract_x
 _atom_site_fract_y
 _atom_site_fract_z
 _atom_site_occupancy
  H  H0  1  0.29063000  0.26019000  0.28737000  1.0
  H  H1  1  0.70938000  0.73981000  0.71263000  1.0
  H  H2  1  0.50813000  0.30758000  0.49029000  1.0
  H  H3  1  0.49187000  0.69242000  0.50971000  1.0
  H  H4  1  0.47995000  0.49589000  0.77377000  1.0
  H  H5  1  0.52005000  0.50411000  0.22624000  1.0
  H  H6  1  0.23520000  0.64015000  0.85220000  1.0
  H  H7  1  0.76480000  0.35985000  0.14780000  1.0
  Ru  Ru8  1  0.99481000  0.86957000  0.89550000  1.0
  Ru  Ru9  1  0.00519000  0.13042000  0.10450000  1.0
  C  C10  1  0.73183000  0.93200000  0.08719000  1.0
  C  C11  1  0.26817000  0.06801000  0.91282000  1.0
  C  C12  1  0.58104000  0.89069000  0.14853000  1.0
  C  C13  1  0.41896000  0.10932000  0.85147000  1.0
  C  C14  1  0.88024000  0.13175000  0.80489000  1.0
  C  C15  1  0.11976000  0.86825000  0.19510000  1.0
  C  C16  1  0.82302000  0.20800000  0.68500000  1.0
  C  C17  1  0.17698000  0.79200000  0.31499000  1.0
  C  C18  1  0.13351000  0.41753000  0.45224000  1.0
  C  C19  1  0.86649000  0.58247000  0.54776000  1.0
  C  C20  1  0.27763000  0.34017000  0.41091000  1.0
  C  C21  1  0.72237000  0.65983000  0.58910000  1.0
  C  C22  1  0.39870000  0.36832000  0.52419000  1.0
  C  C23  1  0.60130000  0.63168000  0.47581000  1.0
  C  C24  1  0.38298000  0.47625000  0.68512000  1.0
  C  C25  1  0.61702000  0.52375000  0.31488000  1.0
  C  C26  1  0.24763000  0.55755000  0.72920000  1.0
  C  C27  1  0.75237000  0.44245000  0.27080000  1.0
  C  C28  1  0.11967000  0.53360000  0.61499000  1.0
  C  C29  1  0.88033000  0.46640000  0.38501000  1.0
  N  N30  1  0.01253000  0.38337000  0.34077000  1.0
  N  N31  1  0.98748000  0.61663000  0.65924000  1.0
  O  O32  1  0.78328000  0.81980000  0.96614000  1.0
  O  O33  1  0.21673000  0.18018000  0.03386000  1.0
  O  O34  1  0.20796000  0.92555000  0.83245000  1.0
  O  O35  1  0.79203000  0.07444000  0.16754000  1.0
  O  O36  1  0.89828000  0.97712000  0.74614000  1.0
  O  O37  1  0.10171000  0.02288000  0.25386000  1.0
  O  O38  1  0.09190000  0.76963000  0.05077000  1.0
  O  O39  1  0.90810000  0.23037000  0.94923000  1.0
  F  F40  1  0.61431000  0.86637000  0.28514000  1.0
  F  F41  1  0.38569000  0.13363000  0.71487000  1.0
  F  F42  1  0.48082000  0.01760000  0.18113000  1.0
  F  F43  1  0.51918000  0.98240000  0.81887000  1.0
  F  F44  1  0.50573000  0.75277000  0.04122000  1.0
  F  F45  1  0.49426000  0.24723000  0.95878000  1.0
  F  F46  1  0.94259000  0.21649000  0.59725000  1.0
  F  F47  1  0.05742000  0.78350000  0.40275000  1.0
  F  F48  1  0.70650000  0.11438000  0.58249000  1.0
  F  F49  1  0.29349000  0.88563000  0.41750000  1.0
  F  F50  1  0.77130000  0.36281000  0.75959000  1.0
  F  F51  1  0.22871000  0.63719000  0.24041000  1.0
