# generated using pymatgen
data_Pr3P3H47C37(NO8)3
_symmetry_space_group_name_H-M   'P 1'
_cell_length_a   14.94780000
_cell_length_b   15.15910000
_cell_length_c   15.22910000
_cell_angle_alpha   103.23100000
_cell_angle_beta   107.85900000
_cell_angle_gamma   116.45000000
_symmetry_Int_Tables_number   1
_chemical_formula_structural   Pr3P3H47C37(NO8)3
_chemical_formula_sum   'Pr6 P6 H94 C74 N6 O48'
_cell_volume   2656.56589820
_cell_formula_units_Z   2
loop_
 _symmetry_equiv_pos_site_id
 _symmetry_equiv_pos_as_xyz
  1  'x, y, z'
loop_
 _atom_site_type_symbol
 _atom_site_label
 _atom_site_symmetry_multiplicity
 _atom_site_fract_x
 _atom_site_fract_y
 _atom_site_fract_z
 _atom_site_occupancy
  Pr  Pr0  1  0.11415000  0.81826000  0.68305000  1.0
  Pr  Pr1  1  0.88585000  0.18174000  0.31695000  1.0
  Pr  Pr2  1  0.85887000  0.55830000  0.69320000  1.0
  Pr  Pr3  1  0.14113000  0.44170000  0.30680000  1.0
  Pr  Pr4  1  0.06514000  0.41906000  0.64773000  1.0
  Pr  Pr5  1  0.93486000  0.58094000  0.35227000  1.0
  P  P6  1  0.14701000  0.61803000  0.52458000  1.0
  P  P7  1  0.85299000  0.38197000  0.47542000  1.0
  P  P8  1  0.17941000  0.69702000  0.80720000  1.0
  P  P9  1  0.82060000  0.30298000  0.19280000  1.0
  P  P10  1  0.79473000  0.61754000  0.50696000  1.0
  P  P11  1  0.20528000  0.38246000  0.49304000  1.0
  H  H12  1  0.66953000  0.88510000  0.12685000  1.0
  H  H13  1  0.33047000  0.11490000  0.87316000  1.0
  H  H14  1  0.15703000  0.31769000  0.75672000  1.0
  H  H15  1  0.84298000  0.68231000  0.24328000  1.0
  H  H16  1  0.23573000  0.38779000  0.71880000  1.0
  H  H17  1  0.76427000  0.61221000  0.28120000  1.0
  H  H18  1  0.31965000  0.75918000  0.72128000  1.0
  H  H19  1  0.68035000  0.24082000  0.27872000  1.0
  H  H20  1  0.08690000  0.64836000  0.93024000  1.0
  H  H21  1  0.91310000  0.35164000  0.06976000  1.0
  H  H22  1  0.89547000  0.83448000  0.55915000  1.0
  H  H23  1  0.10453000  0.16552000  0.44085000  1.0
  H  H24  1  0.32908000  0.67654000  0.52935000  1.0
  H  H25  1  0.67092000  0.32346000  0.47065000  1.0
  H  H26  1  0.31027000  0.78639000  0.55798000  1.0
  H  H27  1  0.68973000  0.21361000  0.44202000  1.0
  H  H28  1  0.53133000  0.86215000  0.70455000  1.0
  H  H29  1  0.46867000  0.13784000  0.29545000  1.0
  H  H30  1  0.44898000  0.91844000  0.70946000  1.0
  H  H31  1  0.55102000  0.08156000  0.29053000  1.0
  H  H32  1  0.60347000  0.98816000  0.88547000  1.0
  H  H33  1  0.39653000  0.01184000  0.11452000  1.0
  H  H34  1  0.46684000  0.91785000  0.87398000  1.0
  H  H35  1  0.53316000  0.08215000  0.12602000  1.0
  H  H36  1  0.62390000  0.83824000  0.88446000  1.0
  H  H37  1  0.37611000  0.16176000  0.11555000  1.0
  H  H38  1  0.47589000  0.65597000  0.83741000  1.0
  H  H39  1  0.52411000  0.34403000  0.16259000  1.0
  H  H40  1  0.37939000  0.69171000  0.84128000  1.0
  H  H41  1  0.62061000  0.30829000  0.15872000  1.0
  H  H42  1  0.32435000  0.59510000  0.66307000  1.0
  H  H43  1  0.67565000  0.40490000  0.33693000  1.0
  H  H44  1  0.46119000  0.68298000  0.67885000  1.0
  H  H45  1  0.53881000  0.31702000  0.32115000  1.0
  H  H46  1  0.22318000  0.84359000  0.94755000  1.0
  H  H47  1  0.77681000  0.15641000  0.05245000  1.0
  H  H48  1  0.32369000  0.80773000  0.98602000  1.0
  H  H49  1  0.67631000  0.19227000  0.01398000  1.0
  H  H50  1  0.30957000  0.72639000  0.09374000  1.0
  H  H51  1  0.69043000  0.27360000  0.90626000  1.0
  H  H52  1  0.22835000  0.60959000  0.97391000  1.0
  H  H53  1  0.77166000  0.39041000  0.02609000  1.0
  H  H54  1  0.20146000  0.55822000  0.11514000  1.0
  H  H55  1  0.79854000  0.44178000  0.88486000  1.0
  H  H56  1  0.07541000  0.52054000  0.01602000  1.0
  H  H57  1  0.92459000  0.47946000  0.98398000  1.0
  H  H58  1  0.21850000  0.71870000  0.22372000  1.0
  H  H59  1  0.78150000  0.28129000  0.77628000  1.0
  H  H60  1  0.08377000  0.76869000  0.16716000  1.0
  H  H61  1  0.91623000  0.23131000  0.83284000  1.0
  H  H62  1  0.00084000  0.65551000  0.04672000  1.0
  H  H63  1  0.99916000  0.34449000  0.95328000  1.0
  H  H64  1  0.11595000  0.81472000  0.02580000  1.0
  H  H65  1  0.88405000  0.18528000  0.97420000  1.0
  H  H66  1  0.24416000  0.84732000  0.12517000  1.0
  H  H67  1  0.75584000  0.15268000  0.87483000  1.0
  H  H68  1  0.65459000  0.66681000  0.47715000  1.0
  H  H69  1  0.34541000  0.33319000  0.52286000  1.0
  H  H70  1  0.74781000  0.71509000  0.60931000  1.0
  H  H71  1  0.25219000  0.28491000  0.39069000  1.0
  H  H72  1  0.73602000  0.88249000  0.59653000  1.0
  H  H73  1  0.26398000  0.11751000  0.40347000  1.0
  H  H74  1  0.85666000  0.89835000  0.69110000  1.0
  H  H75  1  0.14334000  0.10165000  0.30890000  1.0
  H  H76  1  0.90370000  0.07728000  0.68362000  1.0
  H  H77  1  0.09630000  0.92272000  0.31638000  1.0
  H  H78  1  0.98675000  0.03264000  0.65537000  1.0
  H  H79  1  0.01325000  0.96736000  0.34463000  1.0
  H  H80  1  0.78287000  0.01558000  0.50292000  1.0
  H  H81  1  0.21713000  0.98442000  0.49708000  1.0
  H  H82  1  0.80897000  0.92547000  0.36501000  1.0
  H  H83  1  0.19103000  0.07453000  0.63499000  1.0
  H  H84  1  0.92657000  0.93848000  0.45338000  1.0
  H  H85  1  0.07343000  0.06152000  0.54662000  1.0
  H  H86  1  0.76249000  0.75103000  0.38213000  1.0
  H  H87  1  0.23751000  0.24897000  0.61787000  1.0
  H  H88  1  0.68332000  0.79827000  0.41762000  1.0
  H  H89  1  0.31668000  0.20173000  0.58238000  1.0
  H  H90  1  0.16681000  0.98706000  0.03634000  1.0
  H  H91  1  0.83319000  0.01294000  0.96366000  1.0
  H  H92  1  0.18044000  0.12779000  0.17538000  1.0
  H  H93  1  0.81956000  0.87221000  0.82462000  1.0
  H  H94  1  0.06864000  0.24379000  0.96212000  1.0
  H  H95  1  0.93136000  0.75621000  0.03788000  1.0
  H  H96  1  0.05426000  0.10297000  0.82327000  1.0
  H  H97  1  0.94574000  0.89703000  0.17673000  1.0
  H  H98  1  0.41930000  0.00596000  0.58739000  1.0
  H  H99  1  0.58070000  0.99404000  0.41261000  1.0
  H  H100  1  0.56866000  0.16570000  0.57827000  1.0
  H  H101  1  0.43134000  0.83430000  0.42173000  1.0
  H  H102  1  0.56777000  0.38676000  0.81025000  1.0
  H  H103  1  0.43223000  0.61324000  0.18975000  1.0
  H  H104  1  0.42244000  0.22917000  0.82262000  1.0
  H  H105  1  0.57756000  0.77083000  0.17738000  1.0
  C  C106  1  0.29955000  0.71551000  0.57207000  1.0
  C  C107  1  0.70045000  0.28449000  0.42793000  1.0
  C  C108  1  0.47397000  0.86675000  0.73389000  1.0
  C  C109  1  0.52603000  0.13325000  0.26611000  1.0
  C  C110  1  0.52445000  0.90696000  0.84932000  1.0
  C  C111  1  0.47555000  0.09304000  0.15068000  1.0
  C  C112  1  0.54762000  0.82965000  0.88656000  1.0
  C  C113  1  0.45238000  0.17035000  0.11344000  1.0
  C  C114  1  0.44804000  0.70902000  0.82112000  1.0
  C  C115  1  0.55197000  0.29098000  0.17889000  1.0
  C  C116  1  0.40048000  0.67787000  0.70724000  1.0
  C  C117  1  0.59952000  0.32213000  0.29276000  1.0
  C  C118  1  0.56768000  0.85842000  0.99632000  1.0
  C  C119  1  0.43231000  0.14159000  0.00369000  1.0
  C  C120  1  0.23370000  0.77578000  0.94293000  1.0
  C  C121  1  0.76629000  0.22422000  0.05707000  1.0
  C  C122  1  0.22324000  0.65894000  0.03493000  1.0
  C  C123  1  0.77676000  0.34106000  0.96507000  1.0
  C  C124  1  0.15676000  0.59144000  0.07901000  1.0
  C  C125  1  0.84324000  0.40856000  0.92099000  1.0
  C  C126  1  0.13646000  0.65642000  0.15474000  1.0
  C  C127  1  0.86354000  0.34358000  0.84526000  1.0
  C  C128  1  0.08801000  0.71496000  0.10885000  1.0
  C  C129  1  0.91199000  0.28504000  0.89115000  1.0
  C  C130  1  0.15729000  0.78131000  0.06595000  1.0
  C  C131  1  0.84271000  0.21869000  0.93405000  1.0
  C  C132  1  0.06256000  0.58683000  0.19450000  1.0
  C  C133  1  0.93744000  0.41317000  0.80550000  1.0
  C  C134  1  0.74241000  0.70468000  0.53371000  1.0
  C  C135  1  0.25759000  0.29532000  0.46630000  1.0
  C  C136  1  0.82290000  0.90371000  0.61915000  1.0
  C  C137  1  0.17710000  0.09629000  0.38085000  1.0
  C  C138  1  0.90086000  0.01537000  0.62657000  1.0
  C  C139  1  0.09914000  0.98463000  0.37343000  1.0
  C  C140  1  0.86392000  0.02196000  0.52402000  1.0
  C  C141  1  0.13608000  0.97804000  0.47598000  1.0
  C  C142  1  0.84514000  0.92718000  0.44026000  1.0
  C  C143  1  0.15486000  0.07282000  0.55974000  1.0
  C  C144  1  0.76900000  0.81762000  0.43687000  1.0
  C  C145  1  0.23100000  0.18238000  0.56313000  1.0
  C  C146  1  0.94531000  0.13416000  0.53161000  1.0
  C  C147  1  0.05469000  0.86584000  0.46839000  1.0
  C  C148  1  0.09871000  0.95239000  0.83909000  1.0
  C  C149  1  0.90129000  0.04762000  0.16091000  1.0
  C  C150  1  0.10727000  0.03566000  0.92163000  1.0
  C  C151  1  0.89273000  0.96434000  0.07837000  1.0
  C  C152  1  0.14489000  0.04348000  0.02107000  1.0
  C  C153  1  0.85511000  0.95652000  0.97893000  1.0
  C  C154  1  0.15273000  0.12121000  0.09778000  1.0
  C  C155  1  0.84727000  0.87879000  0.90222000  1.0
  C  C156  1  0.12288000  0.19196000  0.07578000  1.0
  C  C157  1  0.87712000  0.80804000  0.92422000  1.0
  C  C158  1  0.08825000  0.18600000  0.97697000  1.0
  C  C159  1  0.91175000  0.81399000  0.02303000  1.0
  C  C160  1  0.08023000  0.10815000  0.90030000  1.0
  C  C161  1  0.91977000  0.89185000  0.09970000  1.0
  C  C162  1  0.12371000  0.27113000  0.15556000  1.0
  C  C163  1  0.87629000  0.72887000  0.84444000  1.0
  C  C164  1  0.31973000  0.01215000  0.70572000  1.0
  C  C165  1  0.68027000  0.98785000  0.29428000  1.0
  C  C166  1  0.41248000  0.10787000  0.70569000  1.0
  C  C167  1  0.58752000  0.89213000  0.29431000  1.0
  C  C168  1  0.45357000  0.08984000  0.63666000  1.0
  C  C169  1  0.54643000  0.91015000  0.36334000  1.0
  C  C170  1  0.53485000  0.17757000  0.63075000  1.0
  C  C171  1  0.46514000  0.82242000  0.36925000  1.0
  C  C172  1  0.57537000  0.28457000  0.69314000  1.0
  C  C173  1  0.42463000  0.71543000  0.30686000  1.0
  C  C174  1  0.53470000  0.30284000  0.76229000  1.0
  C  C175  1  0.46529000  0.69716000  0.23771000  1.0
  C  C176  1  0.45413000  0.21504000  0.76893000  1.0
  C  C177  1  0.54587000  0.78496000  0.23107000  1.0
  C  C178  1  0.66478000  0.37902000  0.68779000  1.0
  C  C179  1  0.33523000  0.62098000  0.31221000  1.0
  N  N180  1  0.36894000  0.75405000  0.68389000  1.0
  N  N181  1  0.63106000  0.24595000  0.31611000  1.0
  N  N182  1  0.16861000  0.71113000  0.98839000  1.0
  N  N183  1  0.83139000  0.28887000  0.01161000  1.0
  N  N184  1  0.81373000  0.81589000  0.53906000  1.0
  N  N185  1  0.18626000  0.18411000  0.46094000  1.0
  O  O186  1  0.09525000  0.55367000  0.40818000  1.0
  O  O187  1  0.90475000  0.44633000  0.59182000  1.0
  O  O188  1  0.13615000  0.55026000  0.58456000  1.0
  O  O189  1  0.86385000  0.44974000  0.41544000  1.0
  O  O190  1  0.09093000  0.68234000  0.53525000  1.0
  O  O191  1  0.90907000  0.31766000  0.46475000  1.0
  O  O192  1  0.51455000  0.88652000  0.02943000  1.0
  O  O193  1  0.48546000  0.11348000  0.97056000  1.0
  O  O194  1  0.64668000  0.84667000  0.05186000  1.0
  O  O195  1  0.35331000  0.15333000  0.94814000  1.0
  O  O196  1  0.25513000  0.78009000  0.77711000  1.0
  O  O197  1  0.74487000  0.21991000  0.22289000  1.0
  O  O198  1  0.06106000  0.67478000  0.75219000  1.0
  O  O199  1  0.93894000  0.32522000  0.24781000  1.0
  O  O200  1  0.18163000  0.59550000  0.79402000  1.0
  O  O201  1  0.81838000  0.40450000  0.20598000  1.0
  O  O202  1  0.04788000  0.49395000  0.17984000  1.0
  O  O203  1  0.95212000  0.50605000  0.82016000  1.0
  O  O204  1  0.02231000  0.62670000  0.24032000  1.0
  O  O205  1  0.97769000  0.37330000  0.75968000  1.0
  O  O206  1  0.79652000  0.60435000  0.40455000  1.0
  O  O207  1  0.20348000  0.39565000  0.59545000  1.0
  O  O208  1  0.91480000  0.68148000  0.59834000  1.0
  O  O209  1  0.08520000  0.31852000  0.40166000  1.0
  O  O210  1  0.72066000  0.51568000  0.51712000  1.0
  O  O211  1  0.27934000  0.48432000  0.48288000  1.0
  O  O212  1  0.98832000  0.21795000  0.61195000  1.0
  O  O213  1  0.01168000  0.78205000  0.38805000  1.0
  O  O214  1  0.96288000  0.13583000  0.45479000  1.0
  O  O215  1  0.03712000  0.86417000  0.54521000  1.0
  O  O216  1  0.28379000  0.91623000  0.64707000  1.0
  O  O217  1  0.71621000  0.08377000  0.35293000  1.0
  O  O218  1  0.27292000  0.02767000  0.76015000  1.0
  O  O219  1  0.72708000  0.97233000  0.23985000  1.0
  O  O220  1  0.71004000  0.35836000  0.63396000  1.0
  O  O221  1  0.28996000  0.64165000  0.36604000  1.0
  O  O222  1  0.69504000  0.47528000  0.73868000  1.0
  O  O223  1  0.30496000  0.52472000  0.26132000  1.0
  O  O224  1  0.04214000  0.93009000  0.74572000  1.0
  O  O225  1  0.95786000  0.06991000  0.25428000  1.0
  O  O226  1  0.15038000  0.90676000  0.86361000  1.0
  O  O227  1  0.84962000  0.09324000  0.13639000  1.0
  O  O228  1  0.17563000  0.29274000  0.24939000  1.0
  O  O229  1  0.82437000  0.70726000  0.75061000  1.0
  O  O230  1  0.07063000  0.31459000  0.12693000  1.0
  O  O231  1  0.92937000  0.68541000  0.87307000  1.0
  O  O232  1  0.21011000  0.39312000  0.77132000  1.0
  O  O233  1  0.78990000  0.60688000  0.22868000  1.0
