# generated using pymatgen
data_Zr6H17C52S10N2O32F5
_symmetry_space_group_name_H-M   'P 1'
_cell_length_a   16.44839309
_cell_length_b   16.45350000
_cell_length_c   16.46320000
_cell_angle_alpha   119.71950000
_cell_angle_beta   119.72159640
_cell_angle_gamma   88.90566376
_symmetry_Int_Tables_number   1
_chemical_formula_structural   Zr6H17C52S10N2O32F5
_chemical_formula_sum   'Zr6 H17 C52 S10 N2 O32 F5'
_cell_volume   3205.00860593
_cell_formula_units_Z   1
loop_
 _symmetry_equiv_pos_site_id
 _symmetry_equiv_pos_as_xyz
  1  'x, y, z'
loop_
 _atom_site_type_symbol
 _atom_site_label
 _atom_site_symmetry_multiplicity
 _atom_site_fract_x
 _atom_site_fract_y
 _atom_site_fract_z
 _atom_site_occupancy
  Zr  Zr0  1  0.59748000  0.09673000  0.48480000  1.0
  Zr  Zr1  1  0.39813000  0.89737000  0.50963000  1.0
  Zr  Zr2  1  0.60777000  0.10646000  0.70910000  1.0
  Zr  Zr3  1  0.38870000  0.88756000  0.28618000  1.0
  Zr  Zr4  1  0.38935000  0.10635000  0.49784000  1.0
  Zr  Zr5  1  0.60733000  0.88835000  0.49761000  1.0
  H  H6  1  0.57822000  0.24717000  0.65451000  1.0
  H  H7  1  0.24793000  0.91738000  0.34050000  1.0
  H  H8  1  0.59012000  0.91839000  0.67308000  1.0
  H  H9  1  0.57679000  0.90508000  0.32144000  1.0
  H  H10  1  0.36165000  0.38708000  0.48633000  1.0
  H  H11  1  0.89972000  0.87376000  0.51139000  1.0
  H  H12  1  0.11856000  0.87576000  0.98542000  1.0
  H  H13  1  0.36228000  0.60199000  0.98575000  1.0
  H  H14  1  0.87155000  0.35727000  0.96765000  1.0
  H  H15  1  0.85009000  0.34514000  0.69209000  1.0
  H  H16  1  0.13714000  0.62328000  0.02614000  1.0
  H  H17  1  0.14926000  0.64548000  0.30205000  1.0
  H  H18  1  0.60973000  0.12372000  0.23154000  1.0
  H  H19  1  0.92503000  0.44840000  0.12899000  1.0
  H  H20  1  0.02049000  0.53611000  0.26185000  1.0
  H  H21  1  0.04296000  0.57139000  0.86491000  1.0
  H  H22  1  0.95849000  0.47431000  0.73247000  1.0
  C  C23  1  0.48437000  0.26023000  0.47791000  1.0
  C  C24  1  0.23555000  0.01203000  0.51741000  1.0
  C  C25  1  0.50508000  0.72730000  0.50239000  1.0
  C  C26  1  0.76811000  0.99104000  0.49211000  1.0
  C  C27  1  0.76657000  0.25807000  0.74512000  1.0
  C  C28  1  0.48519000  0.99264000  0.21636000  1.0
  C  C29  1  0.23633000  0.72877000  0.24883000  1.0
  C  C30  1  0.50133000  0.00865000  0.77699000  1.0
  C  C31  1  0.49709000  0.26944000  0.76892000  1.0
  C  C32  1  0.77798000  0.00287000  0.76792000  1.0
  C  C33  1  0.49313000  0.71762000  0.22703000  1.0
  C  C34  1  0.22628000  0.99957000  0.22667000  1.0
  C  C35  1  0.56219000  0.57653000  0.48857000  1.0
  C  C36  1  0.42307000  0.40616000  0.48404000  1.0
  C  C37  1  0.50108000  0.63524000  0.49560000  1.0
  C  C38  1  0.48578000  0.34964000  0.47828000  1.0
  C  C39  1  0.45111000  0.48882000  0.48726000  1.0
  C  C40  1  0.53485000  0.49280000  0.48374000  1.0
  C  C41  1  0.08831000  0.07297000  0.51129000  1.0
  C  C42  1  0.91887000  0.93508000  0.50899000  1.0
  C  C43  1  0.14707000  0.01190000  0.51831000  1.0
  C  C44  1  0.86104000  0.99627000  0.50014000  1.0
  C  C45  1  0.00220000  0.96374000  0.51357000  1.0
  C  C46  1  0.00541000  0.04657000  0.50833000  1.0
  C  C47  1  0.91721000  0.06964000  0.97367000  1.0
  C  C48  1  0.09353000  0.93731000  0.02189000  1.0
  C  C49  1  0.86766000  0.00443000  0.85737000  1.0
  C  C50  1  0.14036000  0.00263000  0.13736000  1.0
  C  C51  1  0.01224000  0.96229000  0.96241000  1.0
  C  C52  1  0.99948000  0.04675000  0.03472000  1.0
  C  C53  1  0.56100000  0.40577000  0.97484000  1.0
  C  C54  1  0.42507000  0.57840000  0.02254000  1.0
  C  C55  1  0.49507000  0.35529000  0.85857000  1.0
  C  C56  1  0.49257000  0.62777000  0.13798000  1.0
  C  C57  1  0.45016000  0.49706000  0.96332000  1.0
  C  C58  1  0.53669000  0.48658000  0.03578000  1.0
  C  C59  1  0.90090000  0.39008000  0.94057000  1.0
  C  C60  1  0.88915000  0.38201000  0.78323000  1.0
  C  C61  1  0.97040000  0.46426000  0.85636000  1.0
  C  C62  1  0.02047000  0.51187000  0.97641000  1.0
  C  C63  1  0.10434000  0.59424000  0.05342000  1.0
  C  C64  1  0.11239000  0.60635000  0.21090000  1.0
  C  C65  1  0.03040000  0.52464000  0.13785000  1.0
  C  C66  1  0.98299000  0.47428000  0.01771000  1.0
  C  C67  1  0.85498000  0.34493000  0.82535000  1.0
  C  C68  1  0.14933000  0.64046000  0.16868000  1.0
  C  C69  1  0.42962000  0.94303000  0.84756000  1.0
  C  C70  1  0.55034000  0.06464000  0.14713000  1.0
  C  C71  1  0.49643000  0.00908000  0.86360000  1.0
  C  C72  1  0.48392000  0.99659000  0.12851000  1.0
  C  C73  1  0.52990000  0.04509000  0.04415000  1.0
  C  C74  1  0.44769000  0.96232000  0.94939000  1.0
  S  S75  1  0.40792000  0.58728000  0.49607000  1.0
  S  S76  1  0.57889000  0.39544000  0.47625000  1.0
  S  S77  1  0.10070000  0.92054000  0.52232000  1.0
  S  S78  1  0.90683000  0.08924000  0.49804000  1.0
  S  S79  1  0.92324000  0.91313000  0.82177000  1.0
  S  S80  1  0.08695000  0.09532000  0.17502000  1.0
  S  S81  1  0.40066000  0.40752000  0.82279000  1.0
  S  S82  1  0.58675000  0.57594000  0.17596000  1.0
  S  S83  1  0.58281000  0.09722000  0.00625000  1.0
  S  S84  1  0.39573000  0.90882000  0.98652000  1.0
  N  N85  1  0.99608000  0.48972000  0.17959000  1.0
  N  N86  1  0.00553000  0.49907000  0.81483000  1.0
  O  O87  1  0.55196000  0.22217000  0.47399000  1.0
  O  O88  1  0.27260000  0.94365000  0.52032000  1.0
  O  O89  1  0.43869000  0.76614000  0.50925000  1.0
  O  O90  1  0.72816000  0.05645000  0.48397000  1.0
  O  O91  1  0.73503000  0.22737000  0.78513000  1.0
  O  O92  1  0.41931000  0.92406000  0.18534000  1.0
  O  O93  1  0.26707000  0.76028000  0.20871000  1.0
  O  O94  1  0.57005000  0.07499000  0.80892000  1.0
  O  O95  1  0.42771000  0.23705000  0.66697000  1.0
  O  O96  1  0.74389000  0.93213000  0.66596000  1.0
  O  O97  1  0.56402000  0.75271000  0.32910000  1.0
  O  O98  1  0.25924000  0.06851000  0.32880000  1.0
  O  O99  1  0.74055000  0.07154000  0.79963000  1.0
  O  O100  1  0.42345000  0.75374000  0.19422000  1.0
  O  O101  1  0.25958000  0.92724000  0.19403000  1.0
  O  O102  1  0.56865000  0.23491000  0.80021000  1.0
  O  O103  1  0.72625000  0.22053000  0.63970000  1.0
  O  O104  1  0.43559000  0.93917000  0.67508000  1.0
  O  O105  1  0.27408000  0.76897000  0.35416000  1.0
  O  O106  1  0.55488000  0.05894000  0.31779000  1.0
  O  O107  1  0.73477000  0.92197000  0.49276000  1.0
  O  O108  1  0.41803000  0.22948000  0.48391000  1.0
  O  O109  1  0.26709000  0.07804000  0.51143000  1.0
  O  O110  1  0.57395000  0.76147000  0.50193000  1.0
  O  O111  1  0.55382000  0.93018000  0.37082000  1.0
  O  O112  1  0.56502000  0.94123000  0.62358000  1.0
  O  O113  1  0.31901000  0.94114000  0.38552000  1.0
  O  O114  1  0.55419000  0.17611000  0.60900000  1.0
  O  O115  1  0.45705000  0.04656000  0.59028000  1.0
  O  O116  1  0.44829000  0.03823000  0.40399000  1.0
  O  O117  1  0.45702000  0.86529000  0.41498000  1.0
  O  O118  1  0.62981000  0.03819000  0.57947000  1.0
  F  F119  1  0.64030000  0.59605000  0.48702000  1.0
  F  F120  1  0.10628000  0.14928000  0.50641000  1.0
  F  F121  1  0.89073000  0.14697000  0.02553000  1.0
  F  F122  1  0.64120000  0.38220000  0.02680000  1.0
  F  F123  1  0.35499000  0.86704000  0.74655000  1.0
