# generated using pymatgen
data_AgH7C7SO7
_symmetry_space_group_name_H-M   'P 1'
_cell_length_a   7.73575000
_cell_length_b   10.90330000
_cell_length_c   11.78330000
_cell_angle_alpha   103.22400000
_cell_angle_beta   89.98900000
_cell_angle_gamma   110.77900000
_symmetry_Int_Tables_number   1
_chemical_formula_structural   AgH7C7SO7
_chemical_formula_sum   'Ag4 H28 C28 S4 O28'
_cell_volume   900.99363416
_cell_formula_units_Z   4
loop_
 _symmetry_equiv_pos_site_id
 _symmetry_equiv_pos_as_xyz
  1  'x, y, z'
loop_
 _atom_site_type_symbol
 _atom_site_label
 _atom_site_symmetry_multiplicity
 _atom_site_fract_x
 _atom_site_fract_y
 _atom_site_fract_z
 _atom_site_occupancy
  Ag  Ag0  1  0.80973000  0.97124000  0.58870000  1.0
  Ag  Ag1  1  0.83851000  0.02886000  0.91124000  1.0
  Ag  Ag2  1  0.19027000  0.02876000  0.41130000  1.0
  Ag  Ag3  1  0.16149000  0.97114000  0.08876000  1.0
  H  H4  1  0.96794000  0.21708000  0.43713000  1.0
  H  H5  1  0.75087000  0.78292000  0.06276000  1.0
  H  H6  1  0.03206000  0.78292000  0.56287000  1.0
  H  H7  1  0.24913000  0.21708000  0.93724000  1.0
  H  H8  1  0.32820000  0.76344000  0.41169000  1.0
  H  H9  1  0.56451000  0.23655000  0.08836000  1.0
  H  H10  1  0.67180000  0.23656000  0.58831000  1.0
  H  H11  1  0.43550000  0.76345000  0.91164000  1.0
  H  H12  1  0.65762000  0.15523000  0.74279000  1.0
  H  H13  1  0.50253000  0.84483000  0.75720000  1.0
  H  H14  1  0.34238000  0.84476000  0.25721000  1.0
  H  H15  1  0.49747000  0.15517000  0.24280000  1.0
  H  H16  1  0.48955000  0.08276000  0.64542000  1.0
  H  H17  1  0.40690000  0.91733000  0.85457000  1.0
  H  H18  1  0.51045000  0.91724000  0.35458000  1.0
  H  H19  1  0.59310000  0.08267000  0.14543000  1.0
  H  H20  1  0.11964000  0.44543000  0.44830000  1.0
  H  H21  1  0.67392000  0.55460000  0.05155000  1.0
  H  H22  1  0.88036000  0.55457000  0.55170000  1.0
  H  H23  1  0.32608000  0.44540000  0.94844000  1.0
  H  H24  1  0.57929000  0.65829000  0.71305000  1.0
  H  H25  1  0.92096000  0.34159000  0.78704000  1.0
  H  H26  1  0.42071000  0.34171000  0.28695000  1.0
  H  H27  1  0.07904000  0.65841000  0.21296000  1.0
  H  H28  1  0.50969000  0.44941000  0.78559000  1.0
  H  H29  1  0.06069000  0.55046000  0.71455000  1.0
  H  H30  1  0.49031000  0.55059000  0.21441000  1.0
  H  H31  1  0.93931000  0.44953000  0.28545000  1.0
  C  C32  1  0.27706000  0.33209000  0.65849000  1.0
  C  C33  1  0.94515000  0.66785000  0.84149000  1.0
  C  C34  1  0.72295000  0.66791000  0.34151000  1.0
  C  C35  1  0.05485000  0.33215000  0.15851000  1.0
  C  C36  1  0.16800000  0.32792000  0.56073000  1.0
  C  C37  1  0.84000000  0.67203000  0.93915000  1.0
  C  C38  1  0.83200000  0.67208000  0.43927000  1.0
  C  C39  1  0.16000000  0.32798000  0.06085000  1.0
  C  C40  1  0.20427000  0.44635000  0.52241000  1.0
  C  C41  1  0.75771000  0.55360000  0.97747000  1.0
  C  C42  1  0.79573000  0.55365000  0.47759000  1.0
  C  C43  1  0.24230000  0.44640000  0.02253000  1.0
  C  C44  1  0.34944000  0.56537000  0.57919000  1.0
  C  C45  1  0.78382000  0.43454000  0.92076000  1.0
  C  C46  1  0.65056000  0.43463000  0.42081000  1.0
  C  C47  1  0.21619000  0.56546000  0.07924000  1.0
  C  C48  1  0.46200000  0.56681000  0.67295000  1.0
  C  C49  1  0.89514000  0.43308000  0.82710000  1.0
  C  C50  1  0.53800000  0.43319000  0.32705000  1.0
  C  C51  1  0.10486000  0.56692000  0.17291000  1.0
  C  C52  1  0.42444000  0.45016000  0.71256000  1.0
  C  C53  1  0.97455000  0.54974000  0.78753000  1.0
  C  C54  1  0.57556000  0.54983000  0.28744000  1.0
  C  C55  1  0.02545000  0.45026000  0.21247000  1.0
  C  C56  1  0.38881000  0.69264000  0.54088000  1.0
  C  C57  1  0.69568000  0.30731000  0.95911000  1.0
  C  C58  1  0.61119000  0.30736000  0.45912000  1.0
  C  C59  1  0.30432000  0.69269000  0.04089000  1.0
  S  S60  1  0.22415000  0.18651000  0.71485000  1.0
  S  S61  1  0.03758000  0.81344000  0.78513000  1.0
  S  S62  1  0.77585000  0.81349000  0.28515000  1.0
  S  S63  1  0.96243000  0.18655000  0.21487000  1.0
  O  O64  1  0.02811000  0.14890000  0.74044000  1.0
  O  O65  1  0.87899000  0.85082000  0.75949000  1.0
  O  O66  1  0.97189000  0.85110000  0.25956000  1.0
  O  O67  1  0.12101000  0.14918000  0.24051000  1.0
  O  O68  1  0.25739000  0.07954000  0.62484000  1.0
  O  O69  1  0.17751000  0.92054000  0.87518000  1.0
  O  O70  1  0.74261000  0.92045000  0.37516000  1.0
  O  O71  1  0.82249000  0.07946000  0.12482000  1.0
  O  O72  1  0.35196000  0.22902000  0.82097000  1.0
  O  O73  1  0.12311000  0.77108000  0.67904000  1.0
  O  O74  1  0.64804000  0.77097000  0.17903000  1.0
  O  O75  1  0.87689000  0.22892000  0.32096000  1.0
  O  O76  1  0.03331000  0.20867000  0.50765000  1.0
  O  O77  1  0.82460000  0.79131000  0.99222000  1.0
  O  O78  1  0.96669000  0.79133000  0.49236000  1.0
  O  O79  1  0.17540000  0.20869000  0.00778000  1.0
  O  O80  1  0.29495000  0.67705000  0.44180000  1.0
  O  O81  1  0.61760000  0.32295000  0.05826000  1.0
  O  O82  1  0.70505000  0.32295000  0.55820000  1.0
  O  O83  1  0.38240000  0.67705000  0.94174000  1.0
  O  O84  1  0.50069000  0.80331000  0.59907000  1.0
  O  O85  1  0.69669000  0.19657000  0.90089000  1.0
  O  O86  1  0.49930000  0.19669000  0.40093000  1.0
  O  O87  1  0.30331000  0.80343000  0.09911000  1.0
  O  O88  1  0.62710000  0.12137000  0.65661000  1.0
  O  O89  1  0.50580000  0.87870000  0.84337000  1.0
  O  O90  1  0.37290000  0.87863000  0.34339000  1.0
  O  O91  1  0.49420000  0.12130000  0.15663000  1.0
