# generated using pymatgen
data_CoH20(C7O4)2
_symmetry_space_group_name_H-M   'P 1'
_cell_length_a   5.25612000
_cell_length_b   10.14650000
_cell_length_c   15.18723041
_cell_angle_alpha   101.17626468
_cell_angle_beta   99.96076398
_cell_angle_gamma   90.00570000
_symmetry_Int_Tables_number   1
_chemical_formula_structural   CoH20(C7O4)2
_chemical_formula_sum   'Co2 H40 C28 O16'
_cell_volume   782.14179537
_cell_formula_units_Z   2
loop_
 _symmetry_equiv_pos_site_id
 _symmetry_equiv_pos_as_xyz
  1  'x, y, z'
loop_
 _atom_site_type_symbol
 _atom_site_label
 _atom_site_symmetry_multiplicity
 _atom_site_fract_x
 _atom_site_fract_y
 _atom_site_fract_z
 _atom_site_occupancy
  Co  Co0  1  0.21401000  0.25555000  0.00262000  1.0
  Co  Co1  1  0.78847000  0.75561000  0.00263000  1.0
  H  H2  1  0.77335000  0.19590000  0.89441000  1.0
  H  H3  1  0.85701000  0.29269000  0.10273000  1.0
  H  H4  1  0.24614000  0.79254000  0.10248000  1.0
  H  H5  1  0.12070000  0.69595000  0.89439000  1.0
  H  H6  1  0.87344000  0.06115000  0.92125000  1.0
  H  H7  1  0.94652000  0.43507000  0.08704000  1.0
  H  H8  1  0.14076000  0.93499000  0.08693000  1.0
  H  H9  1  0.04761000  0.56121000  0.92130000  1.0
  H  H10  1  0.23765000  0.43613000  0.76362000  1.0
  H  H11  1  0.47287000  0.06022000  0.23804000  1.0
  H  H12  1  0.76478000  0.56006000  0.23798000  1.0
  H  H13  1  0.52585000  0.93638000  0.76371000  1.0
  H  H14  1  0.47328000  0.54266000  0.84093000  1.0
  H  H15  1  0.63195000  0.95544000  0.16034000  1.0
  H  H16  1  0.52779000  0.45534000  0.16031000  1.0
  H  H17  1  0.36805000  0.04290000  0.84116000  1.0
  H  H18  1  0.56996000  0.27223000  0.71989000  1.0
  H  H19  1  0.84021000  0.22950000  0.27797000  1.0
  H  H20  1  0.43822000  0.72959000  0.27799000  1.0
  H  H21  1  0.14941000  0.77269000  0.72013000  1.0
  H  H22  1  0.81053000  0.36594000  0.80528000  1.0
  H  H23  1  0.99606000  0.13596000  0.19253000  1.0
  H  H24  1  0.19634000  0.63634000  0.19265000  1.0
  H  H25  1  0.99452000  0.86670000  0.80549000  1.0
  H  H26  1  0.50642000  0.47143000  0.64304000  1.0
  H  H27  1  0.86280000  0.03189000  0.35656000  1.0
  H  H28  1  0.49350000  0.53209000  0.35664000  1.0
  H  H29  1  0.13692000  0.97193000  0.64323000  1.0
  H  H30  1  0.75224000  0.56326000  0.73015000  1.0
  H  H31  1  0.02280000  0.94046000  0.26974000  1.0
  H  H32  1  0.24663000  0.44069000  0.26983000  1.0
  H  H33  1  0.97722000  0.06361000  0.73009000  1.0
  H  H34  1  0.17034000  0.28729000  0.53501000  1.0
  H  H35  1  0.63430000  0.21845000  0.46419000  1.0
  H  H36  1  0.83027000  0.71841000  0.46434000  1.0
  H  H37  1  0.36522000  0.78718000  0.53481000  1.0
  H  H38  1  0.28877000  0.36943000  0.40518000  1.0
  H  H39  1  0.88285000  0.13601000  0.59390000  1.0
  H  H40  1  0.71130000  0.63590000  0.59401000  1.0
  H  H41  1  0.11671000  0.86938000  0.40510000  1.0
  C  C42  1  0.37106000  0.36732000  0.88451000  1.0
  C  C43  1  0.46792000  0.12539000  0.11505000  1.0
  C  C44  1  0.64713000  0.62524000  0.11503000  1.0
  C  C45  1  0.51323000  0.86734000  0.88452000  1.0
  C  C46  1  0.42365000  0.43641000  0.81040000  1.0
  C  C47  1  0.60790000  0.06171000  0.19007000  1.0
  C  C48  1  0.58180000  0.56162000  0.19001000  1.0
  C  C49  1  0.38675000  0.93668000  0.81053000  1.0
  C  C50  1  0.63059000  0.37423000  0.75787000  1.0
  C  C51  1  0.86642000  0.12746000  0.24074000  1.0
  C  C52  1  0.37425000  0.62762000  0.24078000  1.0
  C  C53  1  0.12708000  0.87474000  0.75805000  1.0
  C  C54  1  0.68283000  0.46200000  0.69228000  1.0
  C  C55  1  0.98914000  0.04183000  0.30712000  1.0
  C  C56  1  0.31784000  0.54203000  0.30718000  1.0
  C  C57  1  0.00936000  0.96238000  0.69234000  1.0
  C  C58  1  0.93205000  0.45444000  0.57319000  1.0
  C  C59  1  0.35779000  0.05107000  0.42590000  1.0
  C  C60  1  0.06838000  0.55111000  0.42602000  1.0
  C  C61  1  0.64143000  0.95442000  0.57302000  1.0
  C  C62  1  0.09577000  0.38201000  0.51940000  1.0
  C  C63  1  0.57528000  0.12364000  0.47964000  1.0
  C  C64  1  0.90456000  0.62357000  0.47975000  1.0
  C  C65  1  0.42417000  0.88186000  0.51917000  1.0
  C  C66  1  0.16397000  0.42936000  0.44612000  1.0
  C  C67  1  0.71709000  0.07612000  0.55285000  1.0
  C  C68  1  0.83607000  0.57605000  0.55297000  1.0
  C  C69  1  0.28257000  0.92927000  0.44596000  1.0
  O  O70  1  0.47138000  0.25684000  0.89707000  1.0
  O  O71  1  0.55764000  0.23013000  0.09340000  1.0
  O  O72  1  0.53604000  0.73003000  0.09334000  1.0
  O  O73  1  0.42539000  0.75676000  0.89687000  1.0
  O  O74  1  0.21164000  0.41853000  0.93681000  1.0
  O  O75  1  0.24627000  0.07791000  0.07174000  1.0
  O  O76  1  0.82525000  0.57765000  0.07167000  1.0
  O  O77  1  0.72483000  0.91856000  0.93690000  1.0
  O  O78  1  0.87742000  0.39932000  0.64390000  1.0
  O  O79  1  0.23095000  0.10603000  0.35515000  1.0
  O  O80  1  0.12419000  0.60619000  0.35527000  1.0
  O  O81  1  0.76685000  0.89939000  0.64374000  1.0
  O  O82  1  0.93457000  0.14440000  0.90377000  1.0
  O  O83  1  0.01322000  0.34546000  0.09832000  1.0
  O  O84  1  0.08555000  0.84530000  0.09811000  1.0
  O  O85  1  0.96894000  0.64445000  0.90385000  1.0
