# generated using pymatgen
data_ZnH12C26N3(OF)4
_symmetry_space_group_name_H-M   'P 1'
_cell_length_a   18.30220000
_cell_length_b   19.22620000
_cell_length_c   19.72070000
_cell_angle_alpha   90.31700000
_cell_angle_beta   90.00620000
_cell_angle_gamma   89.91000000
_symmetry_Int_Tables_number   1
_chemical_formula_structural   ZnH12C26N3(OF)4
_chemical_formula_sum   'Zn2 H24 C52 N6 O8 F8'
_cell_volume   6939.23977359
_cell_formula_units_Z   2
loop_
 _symmetry_equiv_pos_site_id
 _symmetry_equiv_pos_as_xyz
  1  'x, y, z'
loop_
 _atom_site_type_symbol
 _atom_site_label
 _atom_site_symmetry_multiplicity
 _atom_site_fract_x
 _atom_site_fract_y
 _atom_site_fract_z
 _atom_site_occupancy
  Zn  Zn0  1  0.57737000  0.49983000  0.49940000  1.0
  Zn  Zn1  1  0.42263000  0.49996000  0.49935000  1.0
  H  H2  1  0.61710000  0.27939000  0.51400000  1.0
  H  H3  1  0.61794000  0.50005000  0.28222000  1.0
  H  H4  1  0.38210000  0.49947000  0.28217000  1.0
  H  H5  1  0.61789000  0.50054000  0.71694000  1.0
  H  H6  1  0.69337000  0.57515000  0.57508000  1.0
  H  H7  1  0.30621000  0.42462000  0.42444000  1.0
  H  H8  1  0.69397000  0.42466000  0.42447000  1.0
  H  H9  1  0.30648000  0.57510000  0.57505000  1.0
  H  H10  1  0.83003000  0.57916000  0.57836000  1.0
  H  H11  1  0.16957000  0.42073000  0.42171000  1.0
  H  H12  1  0.83062000  0.42070000  0.42169000  1.0
  H  H13  1  0.38291000  0.72067000  0.51457000  1.0
  H  H14  1  0.16980000  0.57918000  0.57838000  1.0
  H  H15  1  0.93268000  0.48597000  0.39148000  1.0
  H  H16  1  0.06733000  0.51417000  0.60863000  1.0
  H  H17  1  0.93261000  0.51415000  0.60863000  1.0
  H  H18  1  0.06740000  0.48599000  0.39149000  1.0
  H  H19  1  0.61713000  0.72047000  0.51453000  1.0
  H  H20  1  0.38287000  0.27959000  0.51396000  1.0
  H  H21  1  0.61758000  0.15040000  0.53295000  1.0
  H  H22  1  0.38241000  0.84992000  0.53337000  1.0
  H  H23  1  0.61751000  0.84970000  0.53334000  1.0
  H  H24  1  0.38248000  0.15061000  0.53291000  1.0
  H  H25  1  0.38206000  0.49995000  0.71692000  1.0
  C  C26  1  0.50000000  0.49918000  0.36635000  1.0
  C  C27  1  0.47245000  0.44383000  0.96382000  1.0
  C  C28  1  0.50006000  0.49984000  0.07186000  1.0
  C  C29  1  0.49996000  0.50017000  0.92725000  1.0
  C  C30  1  0.72649000  0.54192000  0.54222000  1.0
  C  C31  1  0.27329000  0.45791000  0.45742000  1.0
  C  C32  1  0.72682000  0.45792000  0.45744000  1.0
  C  C33  1  0.27343000  0.54190000  0.54220000  1.0
  C  C34  1  0.80232000  0.54336000  0.54393000  1.0
  C  C35  1  0.19746000  0.45652000  0.45601000  1.0
  C  C36  1  0.80266000  0.45650000  0.45601000  1.0
  C  C37  1  0.49999000  0.50074000  0.63287000  1.0
  C  C38  1  0.19759000  0.54337000  0.54394000  1.0
  C  C39  1  0.84239000  0.49997000  0.50001000  1.0
  C  C40  1  0.15763000  0.50001000  0.50002000  1.0
  C  C41  1  0.96206000  0.49103000  0.43936000  1.0
  C  C42  1  0.03794000  0.50909000  0.56075000  1.0
  C  C43  1  0.96202000  0.50907000  0.56075000  1.0
  C  C44  1  0.03798000  0.49104000  0.43936000  1.0
  C  C45  1  0.07714000  0.50007000  0.50006000  1.0
  C  C46  1  0.92286000  0.50003000  0.50005000  1.0
  C  C47  1  0.49997000  0.36414000  0.50318000  1.0
  C  C48  1  0.49995000  0.50032000  0.85238000  1.0
  C  C49  1  0.50003000  0.63565000  0.50509000  1.0
  C  C50  1  0.56620000  0.25038000  0.51777000  1.0
  C  C51  1  0.43381000  0.74968000  0.51878000  1.0
  C  C52  1  0.56619000  0.74955000  0.51875000  1.0
  C  C53  1  0.43381000  0.25052000  0.51774000  1.0
  C  C54  1  0.56644000  0.17899000  0.52826000  1.0
  C  C55  1  0.43355000  0.82123000  0.52902000  1.0
  C  C56  1  0.56640000  0.82110000  0.52899000  1.0
  C  C57  1  0.43359000  0.17913000  0.52824000  1.0
  C  C58  1  0.50003000  0.14271000  0.53386000  1.0
  C  C59  1  0.50006000  0.49974000  0.14674000  1.0
  C  C60  1  0.49996000  0.85758000  0.53460000  1.0
  C  C61  1  0.49999000  0.28677000  0.51254000  1.0
  C  C62  1  0.50001000  0.71317000  0.51398000  1.0
  C  C63  1  0.49998000  0.93306000  0.54570000  1.0
  C  C64  1  0.50001000  0.06743000  0.54534000  1.0
  C  C65  1  0.43362000  0.50008000  0.74438000  1.0
  C  C66  1  0.56637000  0.49995000  0.25479000  1.0
  C  C67  1  0.43368000  0.49913000  0.25477000  1.0
  C  C68  1  0.56633000  0.50089000  0.74439000  1.0
  C  C69  1  0.43509000  0.49971000  0.81458000  1.0
  C  C70  1  0.49998000  0.50063000  0.70916000  1.0
  C  C71  1  0.56490000  0.50032000  0.18457000  1.0
  C  C72  1  0.43522000  0.49906000  0.18456000  1.0
  C  C73  1  0.56481000  0.50097000  0.81459000  1.0
  C  C74  1  0.50002000  0.49940000  0.29003000  1.0
  C  C75  1  0.52746000  0.55632000  0.96469000  1.0
  C  C76  1  0.47252000  0.44369000  0.03442000  1.0
  C  C77  1  0.52753000  0.55619000  0.03529000  1.0
  N  N78  1  0.43515000  0.03463000  0.55365000  1.0
  N  N79  1  0.56484000  0.96599000  0.55383000  1.0
  N  N80  1  0.43514000  0.96622000  0.55384000  1.0
  N  N81  1  0.56484000  0.03440000  0.55366000  1.0
  N  N82  1  0.68933000  0.49993000  0.49974000  1.0
  N  N83  1  0.31068000  0.49993000  0.49968000  1.0
  O  O84  1  0.56209000  0.49907000  0.39533000  1.0
  O  O85  1  0.43791000  0.50076000  0.60388000  1.0
  O  O86  1  0.56208000  0.50075000  0.60389000  1.0
  O  O87  1  0.43791000  0.49908000  0.39532000  1.0
  O  O88  1  0.56200000  0.39396000  0.50002000  1.0
  O  O89  1  0.43801000  0.60579000  0.50199000  1.0
  O  O90  1  0.56207000  0.60567000  0.50197000  1.0
  O  O91  1  0.43793000  0.39408000  0.50000000  1.0
  F  F92  1  0.37063000  0.49989000  0.84904000  1.0
  F  F93  1  0.62937000  0.50010000  0.15013000  1.0
  F  F94  1  0.37076000  0.49940000  0.15007000  1.0
  F  F95  1  0.62927000  0.50056000  0.84905000  1.0
  F  F96  1  0.55321000  0.61288000  0.93200000  1.0
  F  F97  1  0.44675000  0.38715000  0.06712000  1.0
  F  F98  1  0.55329000  0.61260000  0.06879000  1.0
  F  F99  1  0.44664000  0.38744000  0.93033000  1.0
