# generated using pymatgen
data_KH3C5(NO2)2
_symmetry_space_group_name_H-M   'P 1'
_cell_length_a   7.37408000
_cell_length_b   8.32106000
_cell_length_c   11.26260000
_cell_angle_alpha   89.99980000
_cell_angle_beta   89.99970000
_cell_angle_gamma   88.95560000
_symmetry_Int_Tables_number   1
_chemical_formula_structural   KH3C5(NO2)2
_chemical_formula_sum   'K4 H12 C20 N8 O16'
_cell_volume   690.96015408
_cell_formula_units_Z   4
loop_
 _symmetry_equiv_pos_site_id
 _symmetry_equiv_pos_as_xyz
  1  'x, y, z'
loop_
 _atom_site_type_symbol
 _atom_site_label
 _atom_site_symmetry_multiplicity
 _atom_site_fract_x
 _atom_site_fract_y
 _atom_site_fract_z
 _atom_site_occupancy
  K  K0  1  0.77008000  0.42174000  0.53003000  1.0
  K  K1  1  0.72991000  0.57825000  0.03004000  1.0
  K  K2  1  0.22991000  0.57826000  0.46997000  1.0
  K  K3  1  0.27009000  0.42173000  0.96996000  1.0
  H  H4  1  0.85865000  0.85566000  0.57082000  1.0
  H  H5  1  0.64134000  0.14434000  0.07082000  1.0
  H  H6  1  0.14135000  0.14433000  0.42918000  1.0
  H  H7  1  0.35866000  0.85567000  0.92918000  1.0
  H  H8  1  0.84610000  0.93994000  0.94292000  1.0
  H  H9  1  0.65389000  0.06005000  0.44291000  1.0
  H  H10  1  0.15390000  0.06005000  0.05709000  1.0
  H  H11  1  0.34612000  0.93995000  0.55708000  1.0
  H  H12  1  0.58997000  0.45708000  0.78309000  1.0
  H  H13  1  0.91004000  0.54293000  0.28309000  1.0
  H  H14  1  0.41003000  0.54292000  0.21691000  1.0
  H  H15  1  0.08996000  0.45708000  0.71691000  1.0
  C  C16  1  0.97453000  0.68076000  0.77705000  1.0
  C  C17  1  0.52546000  0.31923000  0.27705000  1.0
  C  C18  1  0.02547000  0.31923000  0.22295000  1.0
  C  C19  1  0.47454000  0.68077000  0.72295000  1.0
  C  C20  1  0.88708000  0.84078000  0.76153000  1.0
  C  C21  1  0.61291000  0.15922000  0.26153000  1.0
  C  C22  1  0.11292000  0.15922000  0.23848000  1.0
  C  C23  1  0.38709000  0.84079000  0.73847000  1.0
  C  C24  1  0.83241000  0.95192000  0.84734000  1.0
  C  C25  1  0.66758000  0.04808000  0.34733000  1.0
  C  C26  1  0.16758000  0.04808000  0.15267000  1.0
  C  C27  1  0.33243000  0.95192000  0.65266000  1.0
  C  C28  1  0.76111000  0.08312000  0.78238000  1.0
  C  C29  1  0.73889000  0.91688000  0.28238000  1.0
  C  C30  1  0.23889000  0.91688000  0.21763000  1.0
  C  C31  1  0.26111000  0.08313000  0.71762000  1.0
  C  C32  1  0.68057000  0.23386000  0.82841000  1.0
  C  C33  1  0.81942000  0.76614000  0.32840000  1.0
  C  C34  1  0.31943000  0.76614000  0.17159000  1.0
  C  C35  1  0.18058000  0.23386000  0.67159000  1.0
  N  N36  1  0.84667000  0.90894000  0.65395000  1.0
  N  N37  1  0.65333000  0.09106000  0.15395000  1.0
  N  N38  1  0.15333000  0.09105000  0.34606000  1.0
  N  N39  1  0.34667000  0.90895000  0.84606000  1.0
  N  N40  1  0.77156000  0.05509000  0.66350000  1.0
  N  N41  1  0.72844000  0.94490000  0.16350000  1.0
  N  N42  1  0.22844000  0.94490000  0.33650000  1.0
  N  N43  1  0.27156000  0.05510000  0.83650000  1.0
  O  O44  1  0.00423000  0.63173000  0.88072000  1.0
  O  O45  1  0.49577000  0.36827000  0.38072000  1.0
  O  O46  1  0.99577000  0.36827000  0.11928000  1.0
  O  O47  1  0.50423000  0.63173000  0.61927000  1.0
  O  O48  1  0.01479000  0.60062000  0.68126000  1.0
  O  O49  1  0.48521000  0.39938000  0.18126000  1.0
  O  O50  1  0.98521000  0.39938000  0.31874000  1.0
  O  O51  1  0.51479000  0.60062000  0.81873000  1.0
  O  O52  1  0.64078000  0.25425000  0.93544000  1.0
  O  O53  1  0.85921000  0.74575000  0.43544000  1.0
  O  O54  1  0.35922000  0.74575000  0.06456000  1.0
  O  O55  1  0.14079000  0.25425000  0.56455000  1.0
  O  O56  1  0.65307000  0.34546000  0.74772000  1.0
  O  O57  1  0.84695000  0.65455000  0.24771000  1.0
  O  O58  1  0.34693000  0.65455000  0.25229000  1.0
  O  O59  1  0.15306000  0.34545000  0.75228000  1.0
