# generated using pymatgen
data_CdH16C20(NO2)2
_symmetry_space_group_name_H-M   'P 1'
_cell_length_a   9.16094000
_cell_length_b   9.65778000
_cell_length_c   11.31100000
_cell_angle_alpha   93.03120000
_cell_angle_beta   110.98300000
_cell_angle_gamma   110.49400000
_symmetry_Int_Tables_number   1
_chemical_formula_structural   CdH16C20(NO2)2
_chemical_formula_sum   'Cd2 H32 C40 N4 O8'
_cell_volume   856.86319699
_cell_formula_units_Z   2
loop_
 _symmetry_equiv_pos_site_id
 _symmetry_equiv_pos_as_xyz
  1  'x, y, z'
loop_
 _atom_site_type_symbol
 _atom_site_label
 _atom_site_symmetry_multiplicity
 _atom_site_fract_x
 _atom_site_fract_y
 _atom_site_fract_z
 _atom_site_occupancy
  Cd  Cd0  1  0.50105000  0.17104000  0.10293000  1.0
  Cd  Cd1  1  0.49895000  0.82896000  0.89707000  1.0
  H  H2  1  0.10276000  0.25240000  0.23792000  1.0
  H  H3  1  0.89723000  0.74760000  0.76208000  1.0
  H  H4  1  0.26516000  0.28702000  0.39224000  1.0
  H  H5  1  0.73484000  0.71298000  0.60776000  1.0
  H  H6  1  0.40074000  0.53722000  0.52389000  1.0
  H  H7  1  0.59926000  0.46278000  0.47610000  1.0
  H  H8  1  0.45413000  0.80860000  0.54605000  1.0
  H  H9  1  0.54587000  0.19140000  0.45395000  1.0
  H  H10  1  0.34396000  0.91231000  0.35060000  1.0
  H  H11  1  0.65604000  0.08769000  0.64940000  1.0
  H  H12  1  0.14128000  0.47405000  0.11120000  1.0
  H  H13  1  0.85872000  0.52595000  0.88880000  1.0
  H  H14  1  0.16470000  0.86929000  0.12721000  1.0
  H  H15  1  0.83531000  0.13071000  0.87279000  1.0
  H  H16  1  0.02956000  0.67903000  0.04068000  1.0
  H  H17  1  0.97044000  0.32097000  0.95932000  1.0
  H  H18  1  0.87694000  0.38938000  0.30006000  1.0
  H  H19  1  0.12305000  0.61062000  0.69994000  1.0
  H  H20  1  0.09088000  0.41471000  0.51934000  1.0
  H  H21  1  0.90912000  0.58529000  0.48066000  1.0
  H  H22  1  0.78996000  0.94951000  0.50563000  1.0
  H  H23  1  0.21004000  0.05049000  0.49437000  1.0
  H  H24  1  0.58781000  0.94606000  0.28908000  1.0
  H  H25  1  0.41219000  0.05394000  0.71092000  1.0
  H  H26  1  0.29769000  0.38710000  0.67075000  1.0
  H  H27  1  0.70231000  0.61290000  0.32925000  1.0
  H  H28  1  0.48745000  0.38423000  0.88608000  1.0
  H  H29  1  0.51256000  0.61577000  0.11392000  1.0
  H  H30  1  0.10837000  0.02124000  0.92460000  1.0
  H  H31  1  0.89163000  0.97876000  0.07540000  1.0
  H  H32  1  0.89817000  0.00851000  0.71148000  1.0
  H  H33  1  0.10183000  0.99149000  0.28851000  1.0
  C  C34  1  0.34170000  0.27399000  0.23654000  1.0
  C  C35  1  0.65830000  0.72601000  0.76346000  1.0
  C  C36  1  0.23769000  0.32175000  0.29824000  1.0
  C  C37  1  0.76231000  0.67825000  0.70176000  1.0
  C  C38  1  0.26891000  0.48641000  0.31537000  1.0
  C  C39  1  0.73109000  0.51359000  0.68463000  1.0
  C  C40  1  0.35584000  0.58213000  0.43775000  1.0
  C  C41  1  0.64416000  0.41788000  0.56225000  1.0
  C  C42  1  0.38524000  0.73517000  0.45037000  1.0
  C  C43  1  0.61476000  0.26483000  0.54963000  1.0
  C  C44  1  0.32377000  0.79328000  0.34138000  1.0
  C  C45  1  0.67623000  0.20672000  0.65862000  1.0
  C  C46  1  0.23216000  0.69828000  0.21871000  1.0
  C  C47  1  0.76784000  0.30173000  0.78129000  1.0
  C  C48  1  0.20864000  0.54643000  0.20725000  1.0
  C  C49  1  0.79137000  0.45357000  0.79275000  1.0
  C  C50  1  0.16126000  0.75754000  0.09953000  1.0
  C  C51  1  0.83874000  0.24246000  0.90048000  1.0
  C  C52  1  0.26839000  0.77061000  0.02101000  1.0
  C  C53  1  0.73161000  0.22939000  0.97899000  1.0
  C  C54  1  0.86192000  0.29567000  0.35082000  1.0
  C  C55  1  0.13808000  0.70433000  0.64918000  1.0
  C  C56  1  0.98164000  0.30794000  0.47299000  1.0
  C  C57  1  0.01836000  0.69206000  0.52701000  1.0
  C  C58  1  0.95828000  0.18470000  0.53490000  1.0
  C  C59  1  0.04172000  0.81529000  0.46510000  1.0
  C  C60  1  0.81458000  0.05136000  0.46583000  1.0
  C  C61  1  0.18542000  0.94864000  0.53417000  1.0
  C  C62  1  0.70088000  0.04794000  0.34405000  1.0
  C  C63  1  0.29912000  0.95206000  0.65595000  1.0
  C  C64  1  0.07843000  0.19369000  0.66666667  1.0
  C  C65  1  0.92157000  0.80631000  0.33333333  1.0
  C  C66  1  0.24649000  0.30209000  0.72091000  1.0
  C  C67  1  0.75351000  0.69791000  0.27909000  1.0
  C  C68  1  0.35591000  0.30182000  0.84361000  1.0
  C  C69  1  0.64409000  0.69818000  0.15639000  1.0
  C  C70  1  0.14505000  0.09925000  0.86408000  1.0
  C  C71  1  0.85495000  0.90075000  0.13592000  1.0
  C  C72  1  0.02799000  0.09185000  0.74250000  1.0
  C  C73  1  0.97201000  0.90816000  0.25750000  1.0
  N  N74  1  0.72217000  0.16846000  0.28771000  1.0
  N  N75  1  0.27783000  0.83154000  0.71229000  1.0
  N  N76  1  0.30711000  0.20099000  0.91393000  1.0
  N  N77  1  0.69289000  0.79901000  0.08607000  1.0
  O  O78  1  0.29519000  0.13181000  0.20092000  1.0
  O  O79  1  0.70481000  0.86819000  0.79908000  1.0
  O  O80  1  0.46691000  0.37240000  0.22397000  1.0
  O  O81  1  0.53309000  0.62760000  0.77603000  1.0
  O  O82  1  0.24588000  0.65704000  0.94562000  1.0
  O  O83  1  0.75412000  0.34297000  0.05438000  1.0
  O  O84  1  0.38723000  0.90101000  0.03981000  1.0
  O  O85  1  0.61277000  0.09899000  0.96019000  1.0
