# generated using pymatgen
data_TmH8C8NO9
_symmetry_space_group_name_H-M   'P 1'
_cell_length_a   9.38382000
_cell_length_b   9.90965000
_cell_length_c   14.10980000
_cell_angle_alpha   90.00000000
_cell_angle_beta   90.00000000
_cell_angle_gamma   92.84180000
_symmetry_Int_Tables_number   1
_chemical_formula_structural   TmH8C8NO9
_chemical_formula_sum   'Tm4 H32 C32 N4 O36'
_cell_volume   1310.46200211
_cell_formula_units_Z   4
loop_
 _symmetry_equiv_pos_site_id
 _symmetry_equiv_pos_as_xyz
  1  'x, y, z'
loop_
 _atom_site_type_symbol
 _atom_site_label
 _atom_site_symmetry_multiplicity
 _atom_site_fract_x
 _atom_site_fract_y
 _atom_site_fract_z
 _atom_site_occupancy
  Tm  Tm0  1  0.38282000  0.41851000  0.85471000  1.0
  Tm  Tm1  1  0.61717000  0.08149000  0.35471000  1.0
  Tm  Tm2  1  0.61717000  0.58148000  0.14529000  1.0
  Tm  Tm3  1  0.38283000  0.91851000  0.64529000  1.0
  H  H4  1  0.29756000  0.44132000  0.65688000  1.0
  H  H5  1  0.70243000  0.05867000  0.15688000  1.0
  H  H6  1  0.70244000  0.55868000  0.34312000  1.0
  H  H7  1  0.29757000  0.94132000  0.84312000  1.0
  H  H8  1  0.29229000  0.59214000  0.69594000  1.0
  H  H9  1  0.70771000  0.90785000  0.19594000  1.0
  H  H10  1  0.70771000  0.40786000  0.30406000  1.0
  H  H11  1  0.29229000  0.09214000  0.80406000  1.0
  H  H12  1  0.46219000  0.24252000  0.68813000  1.0
  H  H13  1  0.53781000  0.25748000  0.18814000  1.0
  H  H14  1  0.53781000  0.75748000  0.31186000  1.0
  H  H15  1  0.46219000  0.74252000  0.81186000  1.0
  H  H16  1  0.58243000  0.35549000  0.71321000  1.0
  H  H17  1  0.41757000  0.14450000  0.21320000  1.0
  H  H18  1  0.41758000  0.64450000  0.28679000  1.0
  H  H19  1  0.58243000  0.85549000  0.78680000  1.0
  H  H20  1  0.57773000  0.19325000  0.90052000  1.0
  H  H21  1  0.42227000  0.30675000  0.40052000  1.0
  H  H22  1  0.42227000  0.80674000  0.09948000  1.0
  H  H23  1  0.57774000  0.69326000  0.59948000  1.0
  H  H24  1  0.55514000  0.27096000  0.99827000  1.0
  H  H25  1  0.44486000  0.22904000  0.49827000  1.0
  H  H26  1  0.44486000  0.72904000  0.00173000  1.0
  H  H27  1  0.55514000  0.77096000  0.50173000  1.0
  H  H28  1  0.81326000  0.32265000  0.84148000  1.0
  H  H29  1  0.18673000  0.17736000  0.34147000  1.0
  H  H30  1  0.18673000  0.67735000  0.15853000  1.0
  H  H31  1  0.81327000  0.82266000  0.65853000  1.0
  H  H32  1  0.93565000  0.73228000  0.92933000  1.0
  H  H33  1  0.06435000  0.76773000  0.42933000  1.0
  H  H34  1  0.06435000  0.26771000  0.07067000  1.0
  H  H35  1  0.93565000  0.23228000  0.57066000  1.0
  C  C36  1  0.10182000  0.60034000  0.89055000  1.0
  C  C37  1  0.89817000  0.89967000  0.39055000  1.0
  C  C38  1  0.89817000  0.39966000  0.10945000  1.0
  C  C39  1  0.10182000  0.10034000  0.60945000  1.0
  C  C40  1  0.03667000  0.37880000  0.84959000  1.0
  C  C41  1  0.96333000  0.12120000  0.34959000  1.0
  C  C42  1  0.96332000  0.62120000  0.15041000  1.0
  C  C43  1  0.03667000  0.87879000  0.65042000  1.0
  C  C44  1  0.89258000  0.40347000  0.85696000  1.0
  C  C45  1  0.10742000  0.09653000  0.35696000  1.0
  C  C46  1  0.10742000  0.59652000  0.14305000  1.0
  C  C47  1  0.89258000  0.90347000  0.64304000  1.0
  C  C48  1  0.85376000  0.53045000  0.88814000  1.0
  C  C49  1  0.14623000  0.96955000  0.38814000  1.0
  C  C50  1  0.14623000  0.46954000  0.11186000  1.0
  C  C51  1  0.85377000  0.03046000  0.61186000  1.0
  C  C52  1  0.96014000  0.63137000  0.90573000  1.0
  C  C53  1  0.03985000  0.86863000  0.40573000  1.0
  C  C54  1  0.03985000  0.36862000  0.09427000  1.0
  C  C55  1  0.96015000  0.13138000  0.59427000  1.0
  C  C56  1  0.22680000  0.70136000  0.89975000  1.0
  C  C57  1  0.77320000  0.79864000  0.39974000  1.0
  C  C58  1  0.77320000  0.29863000  0.10025000  1.0
  C  C59  1  0.22679000  0.20136000  0.60025000  1.0
  C  C60  1  0.09027000  0.24151000  0.82617000  1.0
  C  C61  1  0.90973000  0.25849000  0.32617000  1.0
  C  C62  1  0.90973000  0.75848000  0.17383000  1.0
  C  C63  1  0.09027000  0.74152000  0.67383000  1.0
  C  C64  1  0.69811000  0.54758000  0.90651000  1.0
  C  C65  1  0.30190000  0.95243000  0.40650000  1.0
  C  C66  1  0.30189000  0.45243000  0.09351000  1.0
  C  C67  1  0.69810000  0.04758000  0.59349000  1.0
  N  N68  1  0.13769000  0.47599000  0.86575000  1.0
  N  N69  1  0.86232000  0.02401000  0.36575000  1.0
  N  N70  1  0.86232000  0.52400000  0.13425000  1.0
  N  N71  1  0.13768000  0.97600000  0.63425000  1.0
  O  O72  1  0.20625000  0.82277000  0.91402000  1.0
  O  O73  1  0.79375000  0.67724000  0.41401000  1.0
  O  O74  1  0.79375000  0.17723000  0.08599000  1.0
  O  O75  1  0.20626000  0.32277000  0.58598000  1.0
  O  O76  1  0.35268000  0.65091000  0.89070000  1.0
  O  O77  1  0.64733000  0.84910000  0.39069000  1.0
  O  O78  1  0.64733000  0.34909000  0.10931000  1.0
  O  O79  1  0.35268000  0.15091000  0.60930000  1.0
  O  O80  1  0.23030000  0.24045000  0.82148000  1.0
  O  O81  1  0.76970000  0.25955000  0.32147000  1.0
  O  O82  1  0.76970000  0.75954000  0.17852000  1.0
  O  O83  1  0.23030000  0.74046000  0.67852000  1.0
  O  O84  1  0.00590000  0.14377000  0.81384000  1.0
  O  O85  1  0.99410000  0.35623000  0.31384000  1.0
  O  O86  1  0.99410000  0.85622000  0.18615000  1.0
  O  O87  1  0.00591000  0.64377000  0.68616000  1.0
  O  O88  1  0.61180000  0.51081000  0.84122000  1.0
  O  O89  1  0.38819000  0.98920000  0.34121000  1.0
  O  O90  1  0.38819000  0.48919000  0.15879000  1.0
  O  O91  1  0.61180000  0.01081000  0.65878000  1.0
  O  O92  1  0.66215000  0.59018000  0.98720000  1.0
  O  O93  1  0.33786000  0.90983000  0.48721000  1.0
  O  O94  1  0.33786000  0.40983000  0.01279000  1.0
  O  O95  1  0.66214000  0.09018000  0.51279000  1.0
  O  O96  1  0.33963000  0.50388000  0.70585000  1.0
  O  O97  1  0.66037000  0.99612000  0.20585000  1.0
  O  O98  1  0.66036000  0.49612000  0.29415000  1.0
  O  O99  1  0.33964000  0.00388000  0.79415000  1.0
  O  O100  1  0.51329000  0.29070000  0.74122000  1.0
  O  O101  1  0.48670000  0.20929000  0.24122000  1.0
  O  O102  1  0.48670000  0.70930000  0.25878000  1.0
  O  O103  1  0.51330000  0.79071000  0.75878000  1.0
  O  O104  1  0.51620000  0.25289000  0.93431000  1.0
  O  O105  1  0.48380000  0.24712000  0.43431000  1.0
  O  O106  1  0.48380000  0.74712000  0.06569000  1.0
  O  O107  1  0.51620000  0.75289000  0.56569000  1.0
