# generated using pymatgen
data_CdH14C16(N4O3)2
_symmetry_space_group_name_H-M   'P 1'
_cell_length_a   7.09160000
_cell_length_b   11.75270000
_cell_length_c   11.86110000
_cell_angle_alpha   116.90700000
_cell_angle_beta   90.00000000
_cell_angle_gamma   89.99990000
_symmetry_Int_Tables_number   1
_chemical_formula_structural   CdH14C16(N4O3)2
_chemical_formula_sum   'Cd2 H28 C32 N16 O12'
_cell_volume   881.54846127
_cell_formula_units_Z   2
loop_
 _symmetry_equiv_pos_site_id
 _symmetry_equiv_pos_as_xyz
  1  'x, y, z'
loop_
 _atom_site_type_symbol
 _atom_site_label
 _atom_site_symmetry_multiplicity
 _atom_site_fract_x
 _atom_site_fract_y
 _atom_site_fract_z
 _atom_site_occupancy
  Cd  Cd0  1  0.00000000  0.00000000  0.00000000  1.0
  Cd  Cd1  1  0.49999000  0.50000000  0.00000000  1.0
  H  H2  1  0.43713000  0.31774000  0.36395000  1.0
  H  H3  1  0.93714000  0.18226000  0.63605000  1.0
  H  H4  1  0.56286000  0.68227000  0.63605000  1.0
  H  H5  1  0.06285000  0.81773000  0.36395000  1.0
  H  H6  1  0.32915000  0.05302000  0.51791000  1.0
  H  H7  1  0.82916000  0.44697000  0.48209000  1.0
  H  H8  1  0.67084000  0.94698000  0.48208000  1.0
  H  H9  1  0.17085000  0.55302000  0.51792000  1.0
  H  H10  1  0.38550000  0.91193000  0.13057000  1.0
  H  H11  1  0.88549000  0.58807000  0.86943000  1.0
  H  H12  1  0.61451000  0.08807000  0.86942000  1.0
  H  H13  1  0.11451000  0.41193000  0.13058000  1.0
  H  H14  1  0.51004000  0.22294000  0.69797000  1.0
  H  H15  1  0.01004000  0.27706000  0.30203000  1.0
  H  H16  1  0.48996000  0.77706000  0.30202000  1.0
  H  H17  1  0.98996000  0.72293000  0.69797000  1.0
  H  H18  1  0.33013000  0.59190000  0.77115000  1.0
  H  H19  1  0.83013000  0.90810000  0.22885000  1.0
  H  H20  1  0.66987000  0.40810000  0.22884000  1.0
  H  H21  1  0.16987000  0.09190000  0.77116000  1.0
  H  H22  1  0.93633000  0.23643000  0.98969000  1.0
  H  H23  1  0.43633000  0.26358000  0.01031000  1.0
  H  H24  1  0.06367000  0.76357000  0.01031000  1.0
  H  H25  1  0.56367000  0.73643000  0.98969000  1.0
  H  H26  1  0.76621000  0.21269000  0.06893000  1.0
  H  H27  1  0.26621000  0.28731000  0.93106000  1.0
  H  H28  1  0.23379000  0.78732000  0.93107000  1.0
  H  H29  1  0.73379000  0.71268000  0.06893000  1.0
  C  C30  1  0.41724000  0.22103000  0.35203000  1.0
  C  C31  1  0.91725000  0.27897000  0.64797000  1.0
  C  C32  1  0.58276000  0.77898000  0.64797000  1.0
  C  C33  1  0.08275000  0.72103000  0.35204000  1.0
  C  C34  1  0.40931000  0.11745000  0.23209000  1.0
  C  C35  1  0.90931000  0.38255000  0.76792000  1.0
  C  C36  1  0.59069000  0.88255000  0.76792000  1.0
  C  C37  1  0.09069000  0.61745000  0.23209000  1.0
  C  C38  1  0.38991000  0.19802000  0.45640000  1.0
  C  C39  1  0.88991000  0.30198000  0.54360000  1.0
  C  C40  1  0.61009000  0.80199000  0.54360000  1.0
  C  C41  1  0.11009000  0.69801000  0.45640000  1.0
  C  C42  1  0.35930000  0.07346000  0.43855000  1.0
  C  C43  1  0.85930000  0.42654000  0.56145000  1.0
  C  C44  1  0.64070000  0.92655000  0.56145000  1.0
  C  C45  1  0.14071000  0.57346000  0.43856000  1.0
  C  C46  1  0.38495000  0.99501000  0.22288000  1.0
  C  C47  1  0.88495000  0.50499000  0.77712000  1.0
  C  C48  1  0.61506000  0.00499000  0.77712000  1.0
  C  C49  1  0.11506000  0.49501000  0.22288000  1.0
  C  C50  1  0.41610000  0.13889000  0.11644000  1.0
  C  C51  1  0.91610000  0.36111000  0.88356000  1.0
  C  C52  1  0.58390000  0.86111000  0.88356000  1.0
  C  C53  1  0.08390000  0.63890000  0.11644000  1.0
  C  C54  1  0.45169000  0.30475000  0.68968000  1.0
  C  C55  1  0.95170000  0.19524000  0.31032000  1.0
  C  C56  1  0.54830000  0.69525000  0.31032000  1.0
  C  C57  1  0.04830000  0.80475000  0.68968000  1.0
  C  C58  1  0.35991000  0.49049000  0.72262000  1.0
  C  C59  1  0.85992000  0.00951000  0.27738000  1.0
  C  C60  1  0.64008000  0.50952000  0.27737000  1.0
  C  C61  1  0.14009000  0.99048000  0.72263000  1.0
  N  N62  1  0.36254000  0.97294000  0.32347000  1.0
  N  N63  1  0.86255000  0.52705000  0.67653000  1.0
  N  N64  1  0.63746000  0.02706000  0.67653000  1.0
  N  N65  1  0.13746000  0.47294000  0.32347000  1.0
  N  N66  1  0.39126000  0.30149000  0.57977000  1.0
  N  N67  1  0.89127000  0.19851000  0.42023000  1.0
  N  N68  1  0.60874000  0.69851000  0.42023000  1.0
  N  N69  1  0.10874000  0.80149000  0.57977000  1.0
  N  N70  1  0.33264000  0.42026000  0.59975000  1.0
  N  N71  1  0.83264000  0.07974000  0.40025000  1.0
  N  N72  1  0.66735000  0.57975000  0.40024000  1.0
  N  N73  1  0.16736000  0.92025000  0.59976000  1.0
  N  N74  1  0.43379000  0.42378000  0.78143000  1.0
  N  N75  1  0.93379000  0.07621000  0.21857000  1.0
  N  N76  1  0.56620000  0.57622000  0.21857000  1.0
  N  N77  1  0.06621000  0.92378000  0.78143000  1.0
  O  O78  1  0.52659000  0.22538000  0.11792000  1.0
  O  O79  1  0.02659000  0.27461000  0.88208000  1.0
  O  O80  1  0.47341000  0.77462000  0.88208000  1.0
  O  O81  1  0.97340000  0.72539000  0.11793000  1.0
  O  O82  1  0.30802000  0.07351000  0.02491000  1.0
  O  O83  1  0.80801000  0.42648000  0.97509000  1.0
  O  O84  1  0.69198000  0.92648000  0.97509000  1.0
  O  O85  1  0.19198000  0.57352000  0.02491000  1.0
  O  O86  1  0.90358000  0.20467000  0.05301000  1.0
  O  O87  1  0.40358000  0.29533000  0.94699000  1.0
  O  O88  1  0.09642000  0.79533000  0.94699000  1.0
  O  O89  1  0.59642000  0.70467000  0.05301000  1.0
