# generated using pymatgen
data_CdH11C19N3O4
_symmetry_space_group_name_H-M   'P 1'
_cell_length_a   7.74186000
_cell_length_b   10.51480000
_cell_length_c   11.12550000
_cell_angle_alpha   106.93700000
_cell_angle_beta   98.35100000
_cell_angle_gamma   109.75400000
_symmetry_Int_Tables_number   1
_chemical_formula_structural   CdH11C19N3O4
_chemical_formula_sum   'Cd2 H22 C38 N6 O8'
_cell_volume   784.95635091
_cell_formula_units_Z   2
loop_
 _symmetry_equiv_pos_site_id
 _symmetry_equiv_pos_as_xyz
  1  'x, y, z'
loop_
 _atom_site_type_symbol
 _atom_site_label
 _atom_site_symmetry_multiplicity
 _atom_site_fract_x
 _atom_site_fract_y
 _atom_site_fract_z
 _atom_site_occupancy
  Cd  Cd0  1  0.41957000  0.08590000  0.14609000  1.0
  Cd  Cd1  1  0.58043000  0.91410000  0.85391000  1.0
  H  H2  1  0.47462000  0.30987000  0.98733000  1.0
  H  H3  1  0.52538000  0.69012000  0.01267000  1.0
  H  H4  1  0.28061000  0.42635000  0.88977000  1.0
  H  H5  1  0.71939000  0.57365000  0.11023000  1.0
  H  H6  1  0.96286000  0.38922000  0.93106000  1.0
  H  H7  1  0.03713000  0.61078000  0.06894000  1.0
  H  H8  1  0.54114000  0.43928000  0.29604000  1.0
  H  H9  1  0.45886000  0.56072000  0.70395000  1.0
  H  H10  1  0.75540000  0.64276000  0.50755000  1.0
  H  H11  1  0.24459000  0.35724000  0.49245000  1.0
  H  H12  1  0.93760000  0.58561000  0.67183000  1.0
  H  H13  1  0.06240000  0.41439000  0.32817000  1.0
  H  H14  1  0.01343000  0.40156000  0.73804000  1.0
  H  H15  1  0.98658000  0.59844000  0.26196000  1.0
  H  H16  1  0.95954000  0.13933000  0.69269000  1.0
  H  H17  1  0.04046000  0.86068000  0.30731000  1.0
  H  H18  1  0.80730000  0.88555000  0.54481000  1.0
  H  H19  1  0.19270000  0.11445000  0.45520000  1.0
  H  H20  1  0.57974000  0.69669000  0.32892000  1.0
  H  H21  1  0.42026000  0.30331000  0.67109000  1.0
  H  H22  1  0.41567000  0.77861000  0.17503000  1.0
  H  H23  1  0.58432000  0.22139000  0.82497000  1.0
  C  C24  1  0.33347000  0.29733000  0.99965000  1.0
  C  C25  1  0.66653000  0.70267000  0.00035000  1.0
  C  C26  1  0.22736000  0.36143000  0.94727000  1.0
  C  C27  1  0.77264000  0.63857000  0.05274000  1.0
  C  C28  1  0.05089000  0.34207000  0.97185000  1.0
  C  C29  1  0.94911000  0.65793000  0.02815000  1.0
  C  C30  1  0.98579000  0.26324000  0.04973000  1.0
  C  C31  1  0.01421000  0.73676000  0.95027000  1.0
  C  C32  1  0.10202000  0.20241000  0.09959000  1.0
  C  C33  1  0.89798000  0.79759000  0.90041000  1.0
  C  C34  1  0.79738000  0.25341000  0.07715000  1.0
  C  C35  1  0.20262000  0.74658000  0.92285000  1.0
  C  C36  1  0.05428000  0.12499000  0.19494000  1.0
  C  C37  1  0.94572000  0.87501000  0.80506000  1.0
  C  C38  1  0.61904000  0.41852000  0.37288000  1.0
  C  C39  1  0.38096000  0.58148000  0.62712000  1.0
  C  C40  1  0.73802000  0.53125000  0.49029000  1.0
  C  C41  1  0.26198000  0.46875000  0.50971000  1.0
  C  C42  1  0.83807000  0.49911000  0.58228000  1.0
  C  C43  1  0.16193000  0.50090000  0.41772000  1.0
  C  C44  1  0.81542000  0.35408000  0.55735000  1.0
  C  C45  1  0.18458000  0.64593000  0.44264000  1.0
  C  C46  1  0.91559000  0.31407000  0.64844000  1.0
  C  C47  1  0.08441000  0.68593000  0.35156000  1.0
  C  C48  1  0.88900000  0.17259000  0.62267000  1.0
  C  C49  1  0.11100000  0.82741000  0.37733000  1.0
  C  C50  1  0.76213000  0.06118000  0.50251000  1.0
  C  C51  1  0.23787000  0.93882000  0.49749000  1.0
  C  C52  1  0.73208000  0.91408000  0.47288000  1.0
  C  C53  1  0.26792000  0.08592000  0.52712000  1.0
  C  C54  1  0.60788000  0.81142000  0.35526000  1.0
  C  C55  1  0.39211000  0.18858000  0.64474000  1.0
  C  C56  1  0.51549000  0.85667000  0.26827000  1.0
  C  C57  1  0.48451000  0.14333000  0.73173000  1.0
  C  C58  1  0.66305000  0.09699000  0.40825000  1.0
  C  C59  1  0.33695000  0.90301000  0.59174000  1.0
  C  C60  1  0.69003000  0.24682000  0.43665000  1.0
  C  C61  1  0.30997000  0.75318000  0.56335000  1.0
  N  N62  1  0.27016000  0.21889000  0.07202000  1.0
  N  N63  1  0.72984000  0.78110000  0.92798000  1.0
  N  N64  1  0.59631000  0.28134000  0.34711000  1.0
  N  N65  1  0.40369000  0.71866000  0.65289000  1.0
  N  N66  1  0.54290000  0.99463000  0.29328000  1.0
  N  N67  1  0.45710000  0.00537000  0.70671000  1.0
  O  O68  1  0.13270000  0.03702000  0.20272000  1.0
  O  O69  1  0.86730000  0.96298000  0.79729000  1.0
  O  O70  1  0.94734000  0.15802000  0.26092000  1.0
  O  O71  1  0.05266000  0.84197000  0.73908000  1.0
  O  O72  1  0.65734000  0.12676000  0.03190000  1.0
  O  O73  1  0.34266000  0.87324000  0.96810000  1.0
  O  O74  1  0.78343000  0.36952000  0.13378000  1.0
  O  O75  1  0.21657000  0.63048000  0.86622000  1.0
