# generated using pymatgen
data_CdHC2O3
_symmetry_space_group_name_H-M   'P 1'
_cell_length_a   5.91164000
_cell_length_b   6.96350000
_cell_length_c   15.85020000
_cell_angle_alpha   89.99970000
_cell_angle_beta   90.00000000
_cell_angle_gamma   89.99930000
_symmetry_Int_Tables_number   1
_chemical_formula_structural   CdHC2O3
_chemical_formula_sum   'Cd8 H8 C16 O24'
_cell_volume   652.48465955
_cell_formula_units_Z   8
loop_
 _symmetry_equiv_pos_site_id
 _symmetry_equiv_pos_as_xyz
  1  'x, y, z'
loop_
 _atom_site_type_symbol
 _atom_site_label
 _atom_site_symmetry_multiplicity
 _atom_site_fract_x
 _atom_site_fract_y
 _atom_site_fract_z
 _atom_site_occupancy
  Cd  Cd0  1  0.97236000  0.60176000  0.30782000  1.0
  Cd  Cd1  1  0.02765000  0.89823000  0.80781000  1.0
  Cd  Cd2  1  0.47235000  0.39823000  0.19218000  1.0
  Cd  Cd3  1  0.52765000  0.10177000  0.69219000  1.0
  Cd  Cd4  1  0.02765000  0.39823000  0.69219000  1.0
  Cd  Cd5  1  0.97236000  0.10177000  0.19219000  1.0
  Cd  Cd6  1  0.52765000  0.60177000  0.80781000  1.0
  Cd  Cd7  1  0.47236000  0.89823000  0.30782000  1.0
  H  H8  1  0.70389000  0.72920000  0.17843000  1.0
  H  H9  1  0.29612000  0.77081000  0.67844000  1.0
  H  H10  1  0.20390000  0.27080000  0.32157000  1.0
  H  H11  1  0.79612000  0.22919000  0.82157000  1.0
  H  H12  1  0.29612000  0.27081000  0.82157000  1.0
  H  H13  1  0.70389000  0.22920000  0.32158000  1.0
  H  H14  1  0.79612000  0.72920000  0.67843000  1.0
  H  H15  1  0.20390000  0.77080000  0.17843000  1.0
  C  C16  1  0.41572000  0.56980000  0.45143000  1.0
  C  C17  1  0.58426000  0.93022000  0.95143000  1.0
  C  C18  1  0.91571000  0.43021000  0.04856000  1.0
  C  C19  1  0.08428000  0.06980000  0.54857000  1.0
  C  C20  1  0.58426000  0.43022000  0.54857000  1.0
  C  C21  1  0.41572000  0.06979000  0.04856000  1.0
  C  C22  1  0.08425000  0.56978000  0.95143000  1.0
  C  C23  1  0.91572000  0.93020000  0.45143000  1.0
  C  C24  1  0.62841000  0.45936000  0.45801000  1.0
  C  C25  1  0.37161000  0.04065000  0.95801000  1.0
  C  C26  1  0.12839000  0.54064000  0.04199000  1.0
  C  C27  1  0.87158000  0.95935000  0.54199000  1.0
  C  C28  1  0.37160000  0.54065000  0.54200000  1.0
  C  C29  1  0.62839000  0.95937000  0.04199000  1.0
  C  C30  1  0.87160000  0.45935000  0.95801000  1.0
  C  C31  1  0.12840000  0.04065000  0.45800000  1.0
  O  O32  1  0.31240000  0.65506000  0.39234000  1.0
  O  O33  1  0.68762000  0.84494000  0.89233000  1.0
  O  O34  1  0.81238000  0.34493000  0.10766000  1.0
  O  O35  1  0.18759000  0.15505000  0.60766000  1.0
  O  O36  1  0.68762000  0.34495000  0.60767000  1.0
  O  O37  1  0.31238000  0.15507000  0.10766000  1.0
  O  O38  1  0.18761000  0.65505000  0.89233000  1.0
  O  O39  1  0.81239000  0.84493000  0.39234000  1.0
  O  O40  1  0.78271000  0.40572000  0.40811000  1.0
  O  O41  1  0.21728000  0.09429000  0.90811000  1.0
  O  O42  1  0.28271000  0.59428000  0.09189000  1.0
  O  O43  1  0.71729000  0.90572000  0.59188000  1.0
  O  O44  1  0.21729000  0.59429000  0.59189000  1.0
  O  O45  1  0.78273000  0.90572000  0.09189000  1.0
  O  O46  1  0.71728000  0.40571000  0.90811000  1.0
  O  O47  1  0.28270000  0.09428000  0.40811000  1.0
  O  O48  1  0.65598000  0.66490000  0.23090000  1.0
  O  O49  1  0.34402000  0.83510000  0.73090000  1.0
  O  O50  1  0.15598000  0.33510000  0.26910000  1.0
  O  O51  1  0.84403000  0.16491000  0.76910000  1.0
  O  O52  1  0.34403000  0.33510000  0.76910000  1.0
  O  O53  1  0.65598000  0.16490000  0.26910000  1.0
  O  O54  1  0.84403000  0.66491000  0.73090000  1.0
  O  O55  1  0.15598000  0.83509000  0.23090000  1.0
