# generated using pymatgen
data_InH5C8O5
_symmetry_space_group_name_H-M   'P 1'
_cell_length_a   11.79420000
_cell_length_b   18.61740000
_cell_length_c   29.02650000
_cell_angle_alpha   89.97970000
_cell_angle_beta   90.00030000
_cell_angle_gamma   90.00000000
_symmetry_Int_Tables_number   1
_chemical_formula_structural   InH5C8O5
_chemical_formula_sum   'In16 H80 C128 O80'
_cell_volume   6373.56123268
_cell_formula_units_Z   16
loop_
 _symmetry_equiv_pos_site_id
 _symmetry_equiv_pos_as_xyz
  1  'x, y, z'
loop_
 _atom_site_type_symbol
 _atom_site_label
 _atom_site_symmetry_multiplicity
 _atom_site_fract_x
 _atom_site_fract_y
 _atom_site_fract_z
 _atom_site_occupancy
  In  In0  1  0.99734000  0.00194000  0.12508000  1.0
  In  In1  1  0.99677000  0.99990000  0.25008000  1.0
  In  In2  1  0.49771000  0.50205000  0.12500000  1.0
  In  In3  1  0.49735000  0.49806000  0.37492000  1.0
  In  In4  1  0.49675000  0.50010000  0.24992000  1.0
  In  In5  1  0.99770000  0.99795000  0.37500000  1.0
  In  In6  1  0.00264000  0.99805000  0.87493000  1.0
  In  In7  1  0.00324000  0.00010000  0.74993000  1.0
  In  In8  1  0.50229000  0.49795000  0.87500000  1.0
  In  In9  1  0.50265000  0.50194000  0.62507000  1.0
  In  In10  1  0.50323000  0.49989000  0.75007000  1.0
  In  In11  1  0.00229000  0.00204000  0.62500000  1.0
  In  In12  1  0.50000000  0.50001000  0.00001000  1.0
  In  In13  1  0.00000000  0.00000000  0.50002000  1.0
  In  In14  1  0.00000000  0.00001000  0.00002000  1.0
  In  In15  1  0.50000000  0.50001000  0.49998000  1.0
  H  H16  1  0.23962000  0.83193000  0.99058000  1.0
  H  H17  1  0.33986000  0.71289000  0.98777000  1.0
  H  H18  1  0.30926000  0.69420000  0.13478000  1.0
  H  H19  1  0.20898000  0.81321000  0.13748000  1.0
  H  H20  1  0.71466000  0.68570000  0.26258000  1.0
  H  H21  1  0.81396000  0.80519000  0.26027000  1.0
  H  H22  1  0.83101000  0.79253000  0.11271000  1.0
  H  H23  1  0.73130000  0.67324000  0.11499000  1.0
  H  H24  1  0.18619000  0.20239000  0.98769000  1.0
  H  H25  1  0.28592000  0.32160000  0.98987000  1.0
  H  H26  1  0.26129000  0.32323000  0.13745000  1.0
  H  H27  1  0.16158000  0.20402000  0.13534000  1.0
  H  H28  1  0.67067000  0.30196000  0.26023000  1.0
  H  H29  1  0.77000000  0.18259000  0.26262000  1.0
  H  H30  1  0.77629000  0.17761000  0.11469000  1.0
  H  H31  1  0.67693000  0.29695000  0.11236000  1.0
  H  H32  1  0.15736000  0.98134000  0.18739000  1.0
  H  H33  1  0.85544000  0.95213000  0.06251000  1.0
  H  H34  1  0.33765000  0.48045000  0.18699000  1.0
  H  H35  1  0.64179000  0.45209000  0.06332000  1.0
  H  H36  1  0.73962000  0.66806000  0.50942000  1.0
  H  H37  1  0.83986000  0.78711000  0.51223000  1.0
  H  H38  1  0.80925000  0.80580000  0.36522000  1.0
  H  H39  1  0.70898000  0.68679000  0.36252000  1.0
  H  H40  1  0.21466000  0.81430000  0.23741000  1.0
  H  H41  1  0.31396000  0.69481000  0.23972000  1.0
  H  H42  1  0.33100000  0.70747000  0.38729000  1.0
  H  H43  1  0.23128000  0.82676000  0.38500000  1.0
  H  H44  1  0.68621000  0.29761000  0.51231000  1.0
  H  H45  1  0.78592000  0.17840000  0.51013000  1.0
  H  H46  1  0.76128000  0.17677000  0.36255000  1.0
  H  H47  1  0.66158000  0.29598000  0.36466000  1.0
  H  H48  1  0.17067000  0.19804000  0.23977000  1.0
  H  H49  1  0.26999000  0.31741000  0.23738000  1.0
  H  H50  1  0.27631000  0.32240000  0.38531000  1.0
  H  H51  1  0.17695000  0.20306000  0.38764000  1.0
  H  H52  1  0.65736000  0.51866000  0.31261000  1.0
  H  H53  1  0.35545000  0.54787000  0.43749000  1.0
  H  H54  1  0.83765000  0.01955000  0.31301000  1.0
  H  H55  1  0.14179000  0.04790000  0.43668000  1.0
  H  H56  1  0.76038000  0.16807000  0.00942000  1.0
  H  H57  1  0.66015000  0.28712000  0.01222000  1.0
  H  H58  1  0.69074000  0.30580000  0.86522000  1.0
  H  H59  1  0.79102000  0.18679000  0.86252000  1.0
  H  H60  1  0.28534000  0.31430000  0.73742000  1.0
  H  H61  1  0.18603000  0.19481000  0.73972000  1.0
  H  H62  1  0.16901000  0.20746000  0.88729000  1.0
  H  H63  1  0.26872000  0.32676000  0.88501000  1.0
  H  H64  1  0.81380000  0.79761000  0.01231000  1.0
  H  H65  1  0.71408000  0.67840000  0.01013000  1.0
  H  H66  1  0.73871000  0.67677000  0.86255000  1.0
  H  H67  1  0.83842000  0.79598000  0.86466000  1.0
  H  H68  1  0.32933000  0.69804000  0.73977000  1.0
  H  H69  1  0.23000000  0.81741000  0.73738000  1.0
  H  H70  1  0.22370000  0.82240000  0.88531000  1.0
  H  H71  1  0.32307000  0.70306000  0.88764000  1.0
  H  H72  1  0.84264000  0.01866000  0.81261000  1.0
  H  H73  1  0.14455000  0.04786000  0.93749000  1.0
  H  H74  1  0.66235000  0.51954000  0.81301000  1.0
  H  H75  1  0.35821000  0.54790000  0.93668000  1.0
  H  H76  1  0.26037000  0.33193000  0.49058000  1.0
  H  H77  1  0.16014000  0.21289000  0.48778000  1.0
  H  H78  1  0.19075000  0.19421000  0.63478000  1.0
  H  H79  1  0.29102000  0.31321000  0.63748000  1.0
  H  H80  1  0.78535000  0.18571000  0.76258000  1.0
  H  H81  1  0.68604000  0.30519000  0.76027000  1.0
  H  H82  1  0.66900000  0.29253000  0.61271000  1.0
  H  H83  1  0.76872000  0.17324000  0.61499000  1.0
  H  H84  1  0.31380000  0.70239000  0.48769000  1.0
  H  H85  1  0.21408000  0.82160000  0.48987000  1.0
  H  H86  1  0.23871000  0.82322000  0.63745000  1.0
  H  H87  1  0.33842000  0.70401000  0.63534000  1.0
  H  H88  1  0.82932000  0.80196000  0.76023000  1.0
  H  H89  1  0.73000000  0.68259000  0.76262000  1.0
  H  H90  1  0.72370000  0.67760000  0.61469000  1.0
  H  H91  1  0.82307000  0.79694000  0.61236000  1.0
  H  H92  1  0.34265000  0.48134000  0.68739000  1.0
  H  H93  1  0.64454000  0.45214000  0.56251000  1.0
  H  H94  1  0.16234000  0.98045000  0.68699000  1.0
  H  H95  1  0.85821000  0.95209000  0.56332000  1.0
  C  C96  1  0.15465000  0.89871000  0.06526000  1.0
  C  C97  1  0.21871000  0.82928000  0.06417000  1.0
  C  C98  1  0.25555000  0.80123000  0.02187000  1.0
  C  C99  1  0.31055000  0.73519000  0.02037000  1.0
  C  C100  1  0.32917000  0.69635000  0.06108000  1.0
  C  C101  1  0.29356000  0.72483000  0.10344000  1.0
  C  C102  1  0.23850000  0.79084000  0.10494000  1.0
  C  C103  1  0.38666000  0.62464000  0.05982000  1.0
  C  C104  1  0.65001000  0.60475000  0.18988000  1.0
  C  C105  1  0.71664000  0.67311000  0.18890000  1.0
  C  C106  1  0.74088000  0.70955000  0.23001000  1.0
  C  C107  1  0.79551000  0.77566000  0.22876000  1.0
  C  C108  1  0.82635000  0.80600000  0.18633000  1.0
  C  C109  1  0.80486000  0.76867000  0.14530000  1.0
  C  C110  1  0.75009000  0.70260000  0.14653000  1.0
  C  C111  1  0.88081000  0.87861000  0.18518000  1.0
  C  C112  1  0.11090000  0.12459000  0.06039000  1.0
  C  C113  1  0.16875000  0.19618000  0.06142000  1.0
  C  C114  1  0.20302000  0.22931000  0.02031000  1.0
  C  C115  1  0.25792000  0.29539000  0.02143000  1.0
  C  C116  1  0.27910000  0.32919000  0.06374000  1.0
  C  C117  1  0.24402000  0.29637000  0.10484000  1.0
  C  C118  1  0.18907000  0.23029000  0.10373000  1.0
  C  C119  1  0.34269000  0.39877000  0.06479000  1.0
  C  C120  1  0.61400000  0.37882000  0.18514000  1.0
  C  C121  1  0.66927000  0.30646000  0.18620000  1.0
  C  C122  1  0.69398000  0.27404000  0.22865000  1.0
  C  C123  1  0.74859000  0.20790000  0.22990000  1.0
  C  C124  1  0.77890000  0.17341000  0.18876000  1.0
  C  C125  1  0.75221000  0.20518000  0.14628000  1.0
  C  C126  1  0.69754000  0.27132000  0.14506000  1.0
  C  C127  1  0.84450000  0.10463000  0.18984000  1.0
  C  C128  1  0.65466000  0.60129000  0.43474000  1.0
  C  C129  1  0.71871000  0.67072000  0.43583000  1.0
  C  C130  1  0.75555000  0.69876000  0.47812000  1.0
  C  C131  1  0.81056000  0.76481000  0.47963000  1.0
  C  C132  1  0.82917000  0.80366000  0.43892000  1.0
  C  C133  1  0.79356000  0.77517000  0.39656000  1.0
  C  C134  1  0.73850000  0.70917000  0.39506000  1.0
  C  C135  1  0.88666000  0.87536000  0.44018000  1.0
  C  C136  1  0.15001000  0.89525000  0.31012000  1.0
  C  C137  1  0.21663000  0.82689000  0.31110000  1.0
  C  C138  1  0.24087000  0.79045000  0.26999000  1.0
  C  C139  1  0.29550000  0.72433000  0.27124000  1.0
  C  C140  1  0.32635000  0.69399000  0.31367000  1.0
  C  C141  1  0.30486000  0.73133000  0.35470000  1.0
  C  C142  1  0.25008000  0.79740000  0.35346000  1.0
  C  C143  1  0.38081000  0.62139000  0.31482000  1.0
  C  C144  1  0.61090000  0.37542000  0.43961000  1.0
  C  C145  1  0.66876000  0.30382000  0.43858000  1.0
  C  C146  1  0.70303000  0.27069000  0.47970000  1.0
  C  C147  1  0.75792000  0.20461000  0.47857000  1.0
  C  C148  1  0.77909000  0.17081000  0.43626000  1.0
  C  C149  1  0.74402000  0.20363000  0.39516000  1.0
  C  C150  1  0.68907000  0.26971000  0.39627000  1.0
  C  C151  1  0.84270000  0.10122000  0.43521000  1.0
  C  C152  1  0.11400000  0.12117000  0.31487000  1.0
  C  C153  1  0.16928000  0.19354000  0.31381000  1.0
  C  C154  1  0.19398000  0.22596000  0.27135000  1.0
  C  C155  1  0.24859000  0.29210000  0.27009000  1.0
  C  C156  1  0.27890000  0.32660000  0.31124000  1.0
  C  C157  1  0.25222000  0.29482000  0.35371000  1.0
  C  C158  1  0.19756000  0.22869000  0.35495000  1.0
  C  C159  1  0.34450000  0.39537000  0.31016000  1.0
  C  C160  1  0.84535000  0.10129000  0.93475000  1.0
  C  C161  1  0.78130000  0.17072000  0.93583000  1.0
  C  C162  1  0.74445000  0.19877000  0.97812000  1.0
  C  C163  1  0.68945000  0.26482000  0.97963000  1.0
  C  C164  1  0.67083000  0.30365000  0.93892000  1.0
  C  C165  1  0.70644000  0.27517000  0.89656000  1.0
  C  C166  1  0.76150000  0.20917000  0.89506000  1.0
  C  C167  1  0.61333000  0.37536000  0.94018000  1.0
  C  C168  1  0.34999000  0.39524000  0.81012000  1.0
  C  C169  1  0.28337000  0.32688000  0.81110000  1.0
  C  C170  1  0.25912000  0.29045000  0.76999000  1.0
  C  C171  1  0.20449000  0.22433000  0.77124000  1.0
  C  C172  1  0.17365000  0.19399000  0.81367000  1.0
  C  C173  1  0.19514000  0.23133000  0.85470000  1.0
  C  C174  1  0.24993000  0.29739000  0.85346000  1.0
  C  C175  1  0.11919000  0.12139000  0.81482000  1.0
  C  C176  1  0.88910000  0.87542000  0.93961000  1.0
  C  C177  1  0.83124000  0.80382000  0.93859000  1.0
  C  C178  1  0.79697000  0.77068000  0.97970000  1.0
  C  C179  1  0.74207000  0.70461000  0.97857000  1.0
  C  C180  1  0.72090000  0.67081000  0.93626000  1.0
  C  C181  1  0.75598000  0.70363000  0.89516000  1.0
  C  C182  1  0.81093000  0.76971000  0.89628000  1.0
  C  C183  1  0.65730000  0.60122000  0.93521000  1.0
  C  C184  1  0.38601000  0.62118000  0.81486000  1.0
  C  C185  1  0.33073000  0.69354000  0.81380000  1.0
  C  C186  1  0.30602000  0.72596000  0.77135000  1.0
  C  C187  1  0.25141000  0.79210000  0.77010000  1.0
  C  C188  1  0.22110000  0.82660000  0.81124000  1.0
  C  C189  1  0.24779000  0.79482000  0.85371000  1.0
  C  C190  1  0.30246000  0.72869000  0.85494000  1.0
  C  C191  1  0.15550000  0.89537000  0.81016000  1.0
  C  C192  1  0.34535000  0.39872000  0.56525000  1.0
  C  C193  1  0.28129000  0.32928000  0.56416000  1.0
  C  C194  1  0.24444000  0.30124000  0.52187000  1.0
  C  C195  1  0.18944000  0.23519000  0.52037000  1.0
  C  C196  1  0.17083000  0.19635000  0.56109000  1.0
  C  C197  1  0.20644000  0.22484000  0.60345000  1.0
  C  C198  1  0.26150000  0.29084000  0.60494000  1.0
  C  C199  1  0.11333000  0.12464000  0.55983000  1.0
  C  C200  1  0.84999000  0.10475000  0.68988000  1.0
  C  C201  1  0.78337000  0.17312000  0.68890000  1.0
  C  C202  1  0.75913000  0.20955000  0.73001000  1.0
  C  C203  1  0.70450000  0.27567000  0.72876000  1.0
  C  C204  1  0.67365000  0.30600000  0.68633000  1.0
  C  C205  1  0.69514000  0.26867000  0.64529000  1.0
  C  C206  1  0.74992000  0.20260000  0.64653000  1.0
  C  C207  1  0.61918000  0.37861000  0.68517000  1.0
  C  C208  1  0.38911000  0.62458000  0.56039000  1.0
  C  C209  1  0.33125000  0.69618000  0.56141000  1.0
  C  C210  1  0.29697000  0.72932000  0.52030000  1.0
  C  C211  1  0.24208000  0.79539000  0.52143000  1.0
  C  C212  1  0.22090000  0.82919000  0.56374000  1.0
  C  C213  1  0.25598000  0.79637000  0.60484000  1.0
  C  C214  1  0.31093000  0.73029000  0.60372000  1.0
  C  C215  1  0.15731000  0.89877000  0.56479000  1.0
  C  C216  1  0.88600000  0.87882000  0.68514000  1.0
  C  C217  1  0.83073000  0.80645000  0.68620000  1.0
  C  C218  1  0.80603000  0.77404000  0.72866000  1.0
  C  C219  1  0.75141000  0.70790000  0.72991000  1.0
  C  C220  1  0.72110000  0.67340000  0.68876000  1.0
  C  C221  1  0.74779000  0.70517000  0.64629000  1.0
  C  C222  1  0.80245000  0.77131000  0.64506000  1.0
  C  C223  1  0.65550000  0.60462000  0.68984000  1.0
  O  O224  1  0.09013000  0.01168000  0.18764000  1.0
  O  O225  1  0.90487000  0.99403000  0.06231000  1.0
  O  O226  1  0.40378000  0.51174000  0.18735000  1.0
  O  O227  1  0.59266000  0.49412000  0.06274000  1.0
  O  O228  1  0.12979000  0.92640000  0.02647000  1.0
  O  O229  1  0.12961000  0.92433000  0.10482000  1.0
  O  O230  1  0.40847000  0.59793000  0.02026000  1.0
  O  O231  1  0.40890000  0.59605000  0.09859000  1.0
  O  O232  1  0.62255000  0.57822000  0.15108000  1.0
  O  O233  1  0.62476000  0.57908000  0.22942000  1.0
  O  O234  1  0.90221000  0.90733000  0.22397000  1.0
  O  O235  1  0.90032000  0.90588000  0.14556000  1.0
  O  O236  1  0.08546000  0.09700000  0.09912000  1.0
  O  O237  1  0.09200000  0.09700000  0.02082000  1.0
  O  O238  1  0.36522000  0.42518000  0.10441000  1.0
  O  O239  1  0.36986000  0.42582000  0.02609000  1.0
  O  O240  1  0.59566000  0.40654000  0.14554000  1.0
  O  O241  1  0.59069000  0.40691000  0.22392000  1.0
  O  O242  1  0.86852000  0.07864000  0.22941000  1.0
  O  O243  1  0.87231000  0.07804000  0.15109000  1.0
  O  O244  1  0.59014000  0.48832000  0.31236000  1.0
  O  O245  1  0.40487000  0.50597000  0.43768000  1.0
  O  O246  1  0.90379000  0.98826000  0.31265000  1.0
  O  O247  1  0.09263000  0.00588000  0.43727000  1.0
  O  O248  1  0.62979000  0.57360000  0.47352000  1.0
  O  O249  1  0.62962000  0.57567000  0.39517000  1.0
  O  O250  1  0.90849000  0.90208000  0.47975000  1.0
  O  O251  1  0.90889000  0.90395000  0.40142000  1.0
  O  O252  1  0.12253000  0.92177000  0.34891000  1.0
  O  O253  1  0.12477000  0.92092000  0.27058000  1.0
  O  O254  1  0.40222000  0.59267000  0.27603000  1.0
  O  O255  1  0.40032000  0.59412000  0.35444000  1.0
  O  O256  1  0.58546000  0.40300000  0.40088000  1.0
  O  O257  1  0.59200000  0.40300000  0.47918000  1.0
  O  O258  1  0.86522000  0.07482000  0.39558000  1.0
  O  O259  1  0.86985000  0.07417000  0.47391000  1.0
  O  O260  1  0.09567000  0.09346000  0.35446000  1.0
  O  O261  1  0.09069000  0.09309000  0.27608000  1.0
  O  O262  1  0.36851000  0.42136000  0.27058000  1.0
  O  O263  1  0.37231000  0.42197000  0.34890000  1.0
  O  O264  1  0.90987000  0.98832000  0.81237000  1.0
  O  O265  1  0.09511000  0.00597000  0.93769000  1.0
  O  O266  1  0.59622000  0.48826000  0.81265000  1.0
  O  O267  1  0.40737000  0.50588000  0.93727000  1.0
  O  O268  1  0.87022000  0.07361000  0.97353000  1.0
  O  O269  1  0.87039000  0.07566000  0.89518000  1.0
  O  O270  1  0.59152000  0.40208000  0.97975000  1.0
  O  O271  1  0.59110000  0.40395000  0.90141000  1.0
  O  O272  1  0.37745000  0.42178000  0.84891000  1.0
  O  O273  1  0.37524000  0.42091000  0.77058000  1.0
  O  O274  1  0.09778000  0.09267000  0.77604000  1.0
  O  O275  1  0.09968000  0.09412000  0.85444000  1.0
  O  O276  1  0.91454000  0.90300000  0.90088000  1.0
  O  O277  1  0.90800000  0.90301000  0.97918000  1.0
  O  O278  1  0.63478000  0.57482000  0.89559000  1.0
  O  O279  1  0.63014000  0.57418000  0.97391000  1.0
  O  O280  1  0.40434000  0.59347000  0.85446000  1.0
  O  O281  1  0.40932000  0.59310000  0.77608000  1.0
  O  O282  1  0.13148000  0.92135000  0.77058000  1.0
  O  O283  1  0.12769000  0.92197000  0.84890000  1.0
  O  O284  1  0.40987000  0.51168000  0.68764000  1.0
  O  O285  1  0.59510000  0.49402000  0.56230000  1.0
  O  O286  1  0.09621000  0.01174000  0.68735000  1.0
  O  O287  1  0.90734000  0.99412000  0.56274000  1.0
  O  O288  1  0.37021000  0.42640000  0.52647000  1.0
  O  O289  1  0.37038000  0.42434000  0.60482000  1.0
  O  O290  1  0.09151000  0.09793000  0.52025000  1.0
  O  O291  1  0.09110000  0.09605000  0.59859000  1.0
  O  O292  1  0.87745000  0.07822000  0.65108000  1.0
  O  O293  1  0.87524000  0.07908000  0.72942000  1.0
  O  O294  1  0.59779000  0.40733000  0.72396000  1.0
  O  O295  1  0.59966000  0.40588000  0.64556000  1.0
  O  O296  1  0.41455000  0.59701000  0.59912000  1.0
  O  O297  1  0.40801000  0.59700000  0.52081000  1.0
  O  O298  1  0.13478000  0.92518000  0.60442000  1.0
  O  O299  1  0.13015000  0.92582000  0.52609000  1.0
  O  O300  1  0.90434000  0.90653000  0.64554000  1.0
  O  O301  1  0.90931000  0.90691000  0.72392000  1.0
  O  O302  1  0.63149000  0.57864000  0.72942000  1.0
  O  O303  1  0.62769000  0.57804000  0.65110000  1.0
