# generated using pymatgen
data_CuH26C25S2BrO2
_symmetry_space_group_name_H-M   'P 1'
_cell_length_a   11.14000000
_cell_length_b   11.63880000
_cell_length_c   12.98550000
_cell_angle_alpha   85.06530000
_cell_angle_beta   64.97760000
_cell_angle_gamma   79.41240000
_symmetry_Int_Tables_number   1
_chemical_formula_structural   CuH26C25S2BrO2
_chemical_formula_sum   'Cu2 H52 C50 S4 Br2 O4'
_cell_volume   1499.58894141
_cell_formula_units_Z   2
loop_
 _symmetry_equiv_pos_site_id
 _symmetry_equiv_pos_as_xyz
  1  'x, y, z'
loop_
 _atom_site_type_symbol
 _atom_site_label
 _atom_site_symmetry_multiplicity
 _atom_site_fract_x
 _atom_site_fract_y
 _atom_site_fract_z
 _atom_site_occupancy
  Cu  Cu0  1  0.94446000  0.51351000  0.41995000  1.0
  Cu  Cu1  1  0.05555000  0.48649000  0.58005000  1.0
  H  H2  1  0.43437000  0.02262000  0.36605000  1.0
  H  H3  1  0.56564000  0.97738000  0.63395000  1.0
  H  H4  1  0.53991000  0.99975000  0.21844000  1.0
  H  H5  1  0.46009000  0.00025000  0.78156000  1.0
  H  H6  1  0.52545000  0.19949000  0.29853000  1.0
  H  H7  1  0.47454000  0.80051000  0.70147000  1.0
  H  H8  1  0.61964000  0.12460000  0.37245000  1.0
  H  H9  1  0.38036000  0.87540000  0.62755000  1.0
  H  H10  1  0.80416000  0.04886000  0.18628000  1.0
  H  H11  1  0.19584000  0.95115000  0.81371000  1.0
  H  H12  1  0.70595000  0.12218000  0.11379000  1.0
  H  H13  1  0.29405000  0.87782000  0.88621000  1.0
  H  H14  1  0.91700000  0.09970000  0.99619000  1.0
  H  H15  1  0.08300000  0.90030000  0.00381000  1.0
  H  H16  1  0.12912000  0.14144000  0.84079000  1.0
  H  H17  1  0.87088000  0.85856000  0.15921000  1.0
  H  H18  1  0.23304000  0.30780000  0.85546000  1.0
  H  H19  1  0.76696000  0.69221000  0.14455000  1.0
  H  H20  1  0.11957000  0.43431000  0.02626000  1.0
  H  H21  1  0.88043000  0.56569000  0.97374000  1.0
  H  H22  1  0.78094000  0.43262000  0.24628000  1.0
  H  H23  1  0.21905000  0.56738000  0.75372000  1.0
  H  H24  1  0.92338000  0.50422000  0.18659000  1.0
  H  H25  1  0.07660000  0.49578000  0.81341000  1.0
  H  H26  1  0.76831000  0.32016000  0.50090000  1.0
  H  H27  1  0.23169000  0.67984000  0.49910000  1.0
  H  H28  1  0.73046000  0.30341000  0.38375000  1.0
  H  H29  1  0.26954000  0.69658000  0.61626000  1.0
  H  H30  1  0.98984000  0.13383000  0.24125000  1.0
  H  H31  1  0.01016000  0.86617000  0.75875000  1.0
  H  H32  1  0.73273000  0.14314000  0.59826000  1.0
  H  H33  1  0.26727000  0.85686000  0.40175000  1.0
  H  H34  1  0.04812000  0.91853000  0.25301000  1.0
  H  H35  1  0.95189000  0.08147000  0.74699000  1.0
  H  H36  1  0.79696000  0.92791000  0.61143000  1.0
  H  H37  1  0.20305000  0.07209000  0.38857000  1.0
  H  H38  1  0.92559000  0.74844000  0.53070000  1.0
  H  H39  1  0.07441000  0.25156000  0.46930000  1.0
  H  H40  1  0.06911000  0.74717000  0.39934000  1.0
  H  H41  1  0.93089000  0.25282000  0.60066000  1.0
  H  H42  1  0.68770000  0.69815000  0.53903000  1.0
  H  H43  1  0.31230000  0.30185000  0.46097000  1.0
  H  H44  1  0.69685000  0.84003000  0.47047000  1.0
  H  H45  1  0.30314000  0.15997000  0.52953000  1.0
  H  H46  1  0.63926000  0.53917000  0.45042000  1.0
  H  H47  1  0.36074000  0.46083000  0.54959000  1.0
  H  H48  1  0.50781000  0.49005000  0.34870000  1.0
  H  H49  1  0.49219000  0.50995000  0.65130000  1.0
  H  H50  1  0.42704000  0.64427000  0.23809000  1.0
  H  H51  1  0.57296000  0.35573000  0.76191000  1.0
  H  H52  1  0.47527000  0.84497000  0.22807000  1.0
  H  H53  1  0.52473000  0.15503000  0.77193000  1.0
  C  C54  1  0.53890000  0.01367000  0.30183000  1.0
  C  C55  1  0.46110000  0.98633000  0.69817000  1.0
  C  C56  1  0.59953000  0.12187000  0.29681000  1.0
  C  C57  1  0.40047000  0.87813000  0.70319000  1.0
  C  C58  1  0.72726000  0.12468000  0.18923000  1.0
  C  C59  1  0.27274000  0.87532000  0.81077000  1.0
  C  C60  1  0.89641000  0.24589000  0.09885000  1.0
  C  C61  1  0.10358000  0.75412000  0.90115000  1.0
  C  C62  1  0.96056000  0.17339000  0.00342000  1.0
  C  C63  1  0.03943000  0.82661000  0.99658000  1.0
  C  C64  1  0.08133000  0.19613000  0.91613000  1.0
  C  C65  1  0.91867000  0.80387000  0.08387000  1.0
  C  C66  1  0.13932000  0.28974000  0.92358000  1.0
  C  C67  1  0.86067000  0.71026000  0.07643000  1.0
  C  C68  1  0.07538000  0.36063000  0.01931000  1.0
  C  C69  1  0.92461000  0.63937000  0.98069000  1.0
  C  C70  1  0.95406000  0.34090000  0.10778000  1.0
  C  C71  1  0.04593000  0.65910000  0.89221000  1.0
  C  C72  1  0.89092000  0.41859000  0.20934000  1.0
  C  C73  1  0.10907000  0.58142000  0.79066000  1.0
  C  C74  1  0.80922000  0.28310000  0.41543000  1.0
  C  C75  1  0.19079000  0.71690000  0.58457000  1.0
  C  C76  1  0.85356000  0.15315000  0.41876000  1.0
  C  C77  1  0.14644000  0.84684000  0.58124000  1.0
  C  C78  1  0.94420000  0.08855000  0.32205000  1.0
  C  C79  1  0.05580000  0.91145000  0.67795000  1.0
  C  C80  1  0.80116000  0.09360000  0.52229000  1.0
  C  C81  1  0.19884000  0.90640000  0.47771000  1.0
  C  C82  1  0.97824000  0.96788000  0.32902000  1.0
  C  C83  1  0.02176000  0.03212000  0.67098000  1.0
  C  C84  1  0.83602000  0.97277000  0.52942000  1.0
  C  C85  1  0.16398000  0.02723000  0.47058000  1.0
  C  C86  1  0.92488000  0.90820000  0.43300000  1.0
  C  C87  1  0.07513000  0.09179000  0.56700000  1.0
  C  C88  1  0.96065000  0.77874000  0.44182000  1.0
  C  C89  1  0.03935000  0.22125000  0.55818000  1.0
  C  C90  1  0.71120000  0.74571000  0.45769000  1.0
  C  C91  1  0.28880000  0.25428000  0.54231000  1.0
  C  C92  1  0.63080000  0.71884000  0.39780000  1.0
  C  C93  1  0.36920000  0.28116000  0.60220000  1.0
  C  C94  1  0.60267000  0.60582000  0.40133000  1.0
  C  C95  1  0.39733000  0.39418000  0.59867000  1.0
  C  C96  1  0.53042000  0.57806000  0.34407000  1.0
  C  C97  1  0.46958000  0.42194000  0.65593000  1.0
  C  C98  1  0.48504000  0.66483000  0.28187000  1.0
  C  C99  1  0.51496000  0.33517000  0.71813000  1.0
  C  C100  1  0.51101000  0.77856000  0.27741000  1.0
  C  C101  1  0.48900000  0.22144000  0.72259000  1.0
  C  C102  1  0.58387000  0.80606000  0.33482000  1.0
  C  C103  1  0.41614000  0.19394000  0.66518000  1.0
  S  S104  1  0.94397000  0.36318000  0.32382000  1.0
  S  S105  1  0.05603000  0.63682000  0.67618000  1.0
  S  S106  1  0.89069000  0.70025000  0.36963000  1.0
  S  S107  1  0.10932000  0.29975000  0.63037000  1.0
  Br  Br108  1  0.19327000  0.50143000  0.37312000  1.0
  Br  Br109  1  0.80674000  0.49857000  0.62688000  1.0
  O  O110  1  0.61671000  0.91476000  0.33217000  1.0
  O  O111  1  0.38330000  0.08524000  0.66782000  1.0
  O  O112  1  0.77721000  0.23013000  0.18783000  1.0
  O  O113  1  0.22278000  0.76987000  0.81217000  1.0
