# generated using pymatgen
data_ZnH9C15N4F
_symmetry_space_group_name_H-M   'P 1'
_cell_length_a   11.43570000
_cell_length_b   15.44040000
_cell_length_c   16.16045693
_cell_angle_alpha   113.16413294
_cell_angle_beta   92.24244062
_cell_angle_gamma   107.74500000
_symmetry_Int_Tables_number   1
_chemical_formula_structural   ZnH9C15N4F
_chemical_formula_sum   'Zn4 H36 C60 N16 F4'
_cell_volume   2457.07404204
_cell_formula_units_Z   4
loop_
 _symmetry_equiv_pos_site_id
 _symmetry_equiv_pos_as_xyz
  1  'x, y, z'
loop_
 _atom_site_type_symbol
 _atom_site_label
 _atom_site_symmetry_multiplicity
 _atom_site_fract_x
 _atom_site_fract_y
 _atom_site_fract_z
 _atom_site_occupancy
  Zn  Zn0  1  0.56686000  0.84138000  0.89323000  1.0
  Zn  Zn1  1  0.46993000  0.16861000  0.11691000  1.0
  Zn  Zn2  1  0.68836000  0.09723000  0.99501000  1.0
  Zn  Zn3  1  0.33294000  0.95494000  0.99926000  1.0
  H  H4  1  0.71236000  0.80237000  0.03872000  1.0
  H  H5  1  0.31610000  0.32842000  0.06382000  1.0
  H  H6  1  0.19160000  0.44111000  0.99061000  1.0
  H  H7  1  0.33660000  0.49527000  0.06853000  1.0
  H  H8  1  0.81638000  0.14876000  0.69583000  1.0
  H  H9  1  0.48637000  0.77497000  0.38326000  1.0
  H  H10  1  0.79738000  0.17658000  0.55748000  1.0
  H  H11  1  0.45195000  0.80743000  0.24849000  1.0
  H  H12  1  0.92405000  0.28906000  0.13886000  1.0
  H  H13  1  0.06233000  0.47352000  0.25473000  1.0
  H  H14  1  0.80850000  0.50838000  0.57484000  1.0
  H  H15  1  0.26247000  0.12806000  0.96209000  1.0
  H  H16  1  0.21144000  0.58784000  0.40001000  1.0
  H  H17  1  0.95827000  0.62148000  0.71943000  1.0
  H  H18  1  0.25410000  0.67510000  0.56869000  1.0
  H  H19  1  0.99914000  0.11920000  0.27904000  1.0
  H  H20  1  0.21128000  0.09851000  0.34446000  1.0
  H  H21  1  0.93404000  0.72042000  0.26097000  1.0
  H  H22  1  0.34304000  0.60721000  0.00263000  1.0
  H  H23  1  0.72541000  0.77306000  0.19008000  1.0
  H  H24  1  0.57296000  0.58946000  0.79363000  1.0
  H  H25  1  0.43521000  0.83956000  0.11285000  1.0
  H  H26  1  0.81139000  0.13717000  0.82807000  1.0
  H  H27  1  0.86802000  0.12862000  0.17318000  1.0
  H  H28  1  0.39261000  0.71606000  0.70985000  1.0
  H  H29  1  0.51526000  0.24588000  0.76287000  1.0
  H  H30  1  0.70058000  0.11469000  0.39648000  1.0
  H  H31  1  0.76528000  0.42244000  0.40526000  1.0
  H  H32  1  0.81707000  0.70743000  0.12089000  1.0
  H  H33  1  0.62826000  0.38382000  0.25977000  1.0
  H  H34  1  0.06355000  0.91823000  0.06919000  1.0
  H  H35  1  0.58824000  0.82122000  0.68966000  1.0
  H  H36  1  0.09477000  0.79435000  0.84243000  1.0
  H  H37  1  0.60478000  0.16363000  0.85335000  1.0
  H  H38  1  0.17168000  0.27231000  0.98507000  1.0
  H  H39  1  0.61298000  0.15674000  0.29486000  1.0
  C  C40  1  0.73742000  0.88295000  0.06196000  1.0
  C  C41  1  0.64193000  0.89773000  0.73760000  1.0
  C  C42  1  0.18180000  0.78539000  0.82330000  1.0
  C  C43  1  0.56269000  0.08306000  0.23996000  1.0
  C  C44  1  0.52604000  0.14423000  0.88608000  1.0
  C  C45  1  0.20499000  0.72514000  0.73932000  1.0
  C  C46  1  0.41929000  0.17245000  0.89029000  1.0
  C  C47  1  0.69965000  0.98162000  0.71963000  1.0
  C  C48  1  0.12188000  0.06973000  0.18842000  1.0
  C  C49  1  0.34981000  0.40546000  0.92528000  1.0
  C  C50  1  0.42131000  0.44811000  0.87317000  1.0
  C  C51  1  0.53967000  0.98682000  0.23695000  1.0
  C  C52  1  0.47250000  0.38056000  0.81257000  1.0
  C  C53  1  0.46593000  0.28800000  0.81008000  1.0
  C  C54  1  0.40162000  0.25179000  0.86939000  1.0
  C  C55  1  0.83657000  0.29926000  0.15545000  1.0
  C  C56  1  0.33923000  0.31238000  0.92301000  1.0
  C  C57  1  0.26802000  0.32544000  0.00184000  1.0
  C  C58  1  0.28031000  0.43121000  0.00487000  1.0
  C  C59  1  0.69498000  0.99213000  0.63374000  1.0
  C  C60  1  0.57218000  0.96467000  0.31299000  1.0
  C  C61  1  0.53289000  0.84927000  0.38605000  1.0
  C  C62  1  0.81512000  0.36914000  0.23517000  1.0
  C  C63  1  0.51461000  0.86766000  0.31065000  1.0
  C  C64  1  0.65287000  0.03989000  0.39263000  1.0
  C  C65  1  0.67253000  0.02446000  0.47175000  1.0
  C  C66  1  0.60961000  0.92739000  0.46910000  1.0
  C  C67  1  0.40371000  0.62050000  0.95554000  1.0
  C  C68  1  0.62432000  0.91586000  0.55094000  1.0
  C  C69  1  0.75870000  0.08683000  0.63255000  1.0
  C  C70  1  0.74853000  0.10272000  0.55517000  1.0
  C  C71  1  0.90269000  0.44049000  0.32033000  1.0
  C  C72  1  0.11737000  0.65653000  0.65384000  1.0
  C  C73  1  0.44621000  0.55130000  0.88772000  1.0
  C  C74  1  0.90614000  0.54493000  0.57357000  1.0
  C  C75  1  0.98949000  0.60843000  0.65405000  1.0
  C  C76  1  0.15709000  0.63739000  0.57041000  1.0
  C  C77  1  0.07413000  0.57201000  0.48661000  1.0
  C  C78  1  0.94525000  0.52502000  0.48766000  1.0
  C  C79  1  0.68602000  0.34708000  0.21761000  1.0
  C  C80  1  0.86251000  0.45990000  0.40367000  1.0
  C  C81  1  0.03066000  0.48766000  0.32007000  1.0
  C  C82  1  0.11357000  0.55150000  0.40079000  1.0
  C  C83  1  0.91820000  0.87269000  0.20288000  1.0
  C  C84  1  0.33503000  0.74866000  0.75550000  1.0
  C  C85  1  0.92204000  0.95871000  0.19511000  1.0
  C  C86  1  0.03192000  0.05477000  0.25179000  1.0
  C  C87  1  0.11524000  0.04556000  0.32452000  1.0
  C  C88  1  0.08078000  0.96332000  0.34021000  1.0
  C  C89  1  0.98459000  0.87884000  0.28419000  1.0
  C  C90  1  0.89243000  0.77907000  0.27296000  1.0
  C  C91  1  0.52113000  0.61050000  0.84861000  1.0
  C  C92  1  0.82034000  0.77181000  0.18412000  1.0
  C  C93  1  0.46911000  0.92105000  0.14868000  1.0
  C  C94  1  0.81718000  0.04956000  0.13031000  1.0
  C  C95  1  0.35188000  0.12801000  0.94214000  1.0
  C  C96  1  0.82946000  0.96341000  0.13524000  1.0
  C  C97  1  0.75614000  0.05862000  0.80760000  1.0
  C  C98  1  0.12719000  0.99532000  0.10513000  1.0
  C  C99  1  0.22711000  0.15173000  0.19950000  1.0
  N  N100  1  0.67776000  0.91916000  0.01769000  1.0
  N  N101  1  0.72852000  0.23851000  0.09617000  1.0
  N  N102  1  0.44853000  0.71200000  0.95778000  1.0
  N  N103  1  0.63447000  0.26908000  0.13465000  1.0
  N  N104  1  0.52147000  0.70544000  0.89139000  1.0
  N  N105  1  0.45142000  0.97499000  0.10409000  1.0
  N  N106  1  0.72611000  0.02150000  0.06002000  1.0
  N  N107  1  0.38539000  0.81747000  0.84177000  1.0
  N  N108  1  0.41746000  0.08090000  0.97099000  1.0
  N  N109  1  0.73252000  0.02392000  0.87208000  1.0
  N  N110  1  0.22635000  0.03046000  0.07067000  1.0
  N  N111  1  0.28991000  0.13003000  0.13021000  1.0
  N  N112  1  0.66114000  0.92337000  0.82809000  1.0
  N  N113  1  0.29036000  0.83989000  0.88367000  1.0
  N  N114  1  0.52485000  0.09079000  0.93453000  1.0
  N  N115  1  0.50922000  0.07463000  0.16056000  1.0
  F  F116  1  0.26857000  0.24474000  0.26855000  1.0
  F  F117  1  0.54066000  0.41052000  0.75424000  1.0
  F  F118  1  0.55988000  0.82299000  0.54717000  1.0
  F  F119  1  0.82180000  0.77903000  0.34219000  1.0
