# generated using pymatgen
data_CaH8C6(NO3)2
_symmetry_space_group_name_H-M   'P 1'
_cell_length_a   5.15676000
_cell_length_b   7.05960000
_cell_length_c   12.76270000
_cell_angle_alpha   90.00120000
_cell_angle_beta   90.00070000
_cell_angle_gamma   106.98000000
_symmetry_Int_Tables_number   1
_chemical_formula_structural   CaH8C6(NO3)2
_chemical_formula_sum   'Ca2 H16 C12 N4 O12'
_cell_volume   444.36741924
_cell_formula_units_Z   2
loop_
 _symmetry_equiv_pos_site_id
 _symmetry_equiv_pos_as_xyz
  1  'x, y, z'
loop_
 _atom_site_type_symbol
 _atom_site_label
 _atom_site_symmetry_multiplicity
 _atom_site_fract_x
 _atom_site_fract_y
 _atom_site_fract_z
 _atom_site_occupancy
  Ca  Ca0  1  0.00000000  0.50000000  0.00000000  1.0
  Ca  Ca1  1  0.00000000  0.00000000  0.50000000  1.0
  H  H2  1  0.00576000  0.90885000  0.86561000  1.0
  H  H3  1  0.99422000  0.59118000  0.36560000  1.0
  H  H4  1  0.99424000  0.09117000  0.13439000  1.0
  H  H5  1  0.00579000  0.40884000  0.63440000  1.0
  H  H6  1  0.81214000  0.07446000  0.88023000  1.0
  H  H7  1  0.18784000  0.42555000  0.38022000  1.0
  H  H8  1  0.18785000  0.92555000  0.11977000  1.0
  H  H9  1  0.81215000  0.57445000  0.61978000  1.0
  H  H10  1  0.32323000  0.73946000  0.78254000  1.0
  H  H11  1  0.67676000  0.76055000  0.28253000  1.0
  H  H12  1  0.67676000  0.26055000  0.21747000  1.0
  H  H13  1  0.32323000  0.23945000  0.71747000  1.0
  H  H14  1  0.39326000  0.78201000  0.64601000  1.0
  H  H15  1  0.60673000  0.71799000  0.14600000  1.0
  H  H16  1  0.60673000  0.21799000  0.35399000  1.0
  H  H17  1  0.39326000  0.28201000  0.85400000  1.0
  C  C18  1  0.62002000  0.79068000  0.94324000  1.0
  C  C19  1  0.37996000  0.70932000  0.44324000  1.0
  C  C20  1  0.37997000  0.20932000  0.05676000  1.0
  C  C21  1  0.62006000  0.29068000  0.55676000  1.0
  C  C22  1  0.79862000  0.92001000  0.86015000  1.0
  C  C23  1  0.20140000  0.57999000  0.36014000  1.0
  C  C24  1  0.20138000  0.07999000  0.13985000  1.0
  C  C25  1  0.79860000  0.42001000  0.63985000  1.0
  C  C26  1  0.71143000  0.89090000  0.74655000  1.0
  C  C27  1  0.28852000  0.60909000  0.24653000  1.0
  C  C28  1  0.28857000  0.10911000  0.25345000  1.0
  C  C29  1  0.71147000  0.39091000  0.75347000  1.0
  N  N30  1  0.45777000  0.79081000  0.72303000  1.0
  N  N31  1  0.54224000  0.70920000  0.22302000  1.0
  N  N32  1  0.54221000  0.20919000  0.27698000  1.0
  N  N33  1  0.45776000  0.29081000  0.77697000  1.0
  O  O34  1  0.73886000  0.71977000  0.01437000  1.0
  O  O35  1  0.26117000  0.78024000  0.51435000  1.0
  O  O36  1  0.26116000  0.28023000  0.98564000  1.0
  O  O37  1  0.73887000  0.21976000  0.48564000  1.0
  O  O38  1  0.36573000  0.76311000  0.93962000  1.0
  O  O39  1  0.63429000  0.73688000  0.43962000  1.0
  O  O40  1  0.63429000  0.23688000  0.06037000  1.0
  O  O41  1  0.36572000  0.26311000  0.56037000  1.0
  O  O42  1  0.88767000  0.96484000  0.67739000  1.0
  O  O43  1  0.11235000  0.53516000  0.17740000  1.0
  O  O44  1  0.11232000  0.03515000  0.32261000  1.0
  O  O45  1  0.88764000  0.46483000  0.82260000  1.0
