# generated using pymatgen
data_CdH20C17S2(IN2)2
_symmetry_space_group_name_H-M   'P 1'
_cell_length_a   7.75927000
_cell_length_b   11.30400000
_cell_length_c   13.75454130
_cell_angle_alpha   71.18160873
_cell_angle_beta   87.22341779
_cell_angle_gamma   86.75090000
_symmetry_Int_Tables_number   1
_chemical_formula_structural   CdH20C17S2(IN2)2
_chemical_formula_sum   'Cd2 H40 C34 S4 I4 N8'
_cell_volume   1139.51699119
_cell_formula_units_Z   2
loop_
 _symmetry_equiv_pos_site_id
 _symmetry_equiv_pos_as_xyz
  1  'x, y, z'
loop_
 _atom_site_type_symbol
 _atom_site_label
 _atom_site_symmetry_multiplicity
 _atom_site_fract_x
 _atom_site_fract_y
 _atom_site_fract_z
 _atom_site_occupancy
  Cd  Cd0  1  0.73156000  0.16469000  0.16844000  1.0
  Cd  Cd1  1  0.26843000  0.83532000  0.83155000  1.0
  H  H2  1  0.28910000  0.20399000  0.12403000  1.0
  H  H3  1  0.71089000  0.79602000  0.87597000  1.0
  H  H4  1  0.11247000  0.43402000  0.08361000  1.0
  H  H5  1  0.88753000  0.56598000  0.91640000  1.0
  H  H6  1  0.32816000  0.57949000  0.10647000  1.0
  H  H7  1  0.67184000  0.42052000  0.89354000  1.0
  H  H8  1  0.64134000  0.34746000  0.34575000  1.0
  H  H9  1  0.35866000  0.65255000  0.65424000  1.0
  H  H10  1  0.78499000  0.46502000  0.34103000  1.0
  H  H11  1  0.21501000  0.53497000  0.65897000  1.0
  H  H12  1  0.34134000  0.32339000  0.30831000  1.0
  H  H13  1  0.65864000  0.67662000  0.69168000  1.0
  H  H14  1  0.18002000  0.31988000  0.40362000  1.0
  H  H15  1  0.81997000  0.68013000  0.59638000  1.0
  H  H16  1  0.39565000  0.27123000  0.43834000  1.0
  H  H17  1  0.60435000  0.72877000  0.56165000  1.0
  H  H18  1  0.09102000  0.50663000  0.42565000  1.0
  H  H19  1  0.90899000  0.49337000  0.57435000  1.0
  H  H20  1  0.98106000  0.68261000  0.46098000  1.0
  H  H21  1  0.01893000  0.31739000  0.53902000  1.0
  H  H22  1  0.06221000  0.82415000  0.37708000  1.0
  H  H23  1  0.93779000  0.17585000  0.62291000  1.0
  H  H24  1  0.12604000  0.76767000  0.50549000  1.0
  H  H25  1  0.87396000  0.23233000  0.49451000  1.0
  H  H26  1  0.81884000  0.63165000  0.36922000  1.0
  H  H27  1  0.18116000  0.36835000  0.63078000  1.0
  H  H28  1  0.73463000  0.78740000  0.32797000  1.0
  H  H29  1  0.26537000  0.21260000  0.67203000  1.0
  H  H30  1  0.75546000  0.70094000  0.24127000  1.0
  H  H31  1  0.24454000  0.29905000  0.75873000  1.0
  H  H32  1  0.56502000  0.86627000  0.39371000  1.0
  H  H33  1  0.43498000  0.13373000  0.60629000  1.0
  H  H34  1  0.35563000  0.86201000  0.45173000  1.0
  H  H35  1  0.64437000  0.13799000  0.54827000  1.0
  H  H36  1  0.81242000  0.96635000  0.02879000  1.0
  H  H37  1  0.18758000  0.03366000  0.97120000  1.0
  H  H38  1  0.59704000  0.77692000  0.03006000  1.0
  H  H39  1  0.40297000  0.22308000  0.96994000  1.0
  H  H40  1  0.34356000  0.79768000  0.14919000  1.0
  H  H41  1  0.65644000  0.20232000  0.85081000  1.0
  C  C42  1  0.33560000  0.29267000  0.12355000  1.0
  C  C43  1  0.66440000  0.70733000  0.87646000  1.0
  C  C44  1  0.24504000  0.40577000  0.10429000  1.0
  C  C45  1  0.75495000  0.59424000  0.89572000  1.0
  C  C46  1  0.51502000  0.42530000  0.14394000  1.0
  C  C47  1  0.48498000  0.57471000  0.85606000  1.0
  C  C48  1  0.65830000  0.44854000  0.31682000  1.0
  C  C49  1  0.34170000  0.55146000  0.68318000  1.0
  C  C50  1  0.51452000  0.52317000  0.34939000  1.0
  C  C51  1  0.48548000  0.47684000  0.65061000  1.0
  C  C52  1  0.35102000  0.47173000  0.37755000  1.0
  C  C53  1  0.64898000  0.52827000  0.62245000  1.0
  C  C54  1  0.31532000  0.34066000  0.38169000  1.0
  C  C55  1  0.68468000  0.65934000  0.61831000  1.0
  C  C56  1  0.21878000  0.54497000  0.40546000  1.0
  C  C57  1  0.78122000  0.45502000  0.59455000  1.0
  C  C58  1  0.24353000  0.66461000  0.40911000  1.0
  C  C59  1  0.75647000  0.33539000  0.59089000  1.0
  C  C60  1  0.09622000  0.73794000  0.43968000  1.0
  C  C61  1  0.90379000  0.26205000  0.56032000  1.0
  C  C62  1  0.40868000  0.71503000  0.38343000  1.0
  C  C63  1  0.59132000  0.28497000  0.61657000  1.0
  C  C64  1  0.54386000  0.64484000  0.35210000  1.0
  C  C65  1  0.45614000  0.35516000  0.64790000  1.0
  C  C66  1  0.72079000  0.69467000  0.32130000  1.0
  C  C67  1  0.27921000  0.30533000  0.67870000  1.0
  C  C68  1  0.43115000  0.84416000  0.38772000  1.0
  C  C69  1  0.56885000  0.15583000  0.61229000  1.0
  C  C70  1  0.47609000  0.94017000  0.17949000  1.0
  C  C71  1  0.52392000  0.05982000  0.82051000  1.0
  C  C72  1  0.69217000  0.93824000  0.07126000  1.0
  C  C73  1  0.30784000  0.06175000  0.92874000  1.0
  C  C74  1  0.58603000  0.84512000  0.07018000  1.0
  C  C75  1  0.41397000  0.15487000  0.92982000  1.0
  S  S76  1  0.69393000  0.48999000  0.17459000  1.0
  S  S77  1  0.30608000  0.51002000  0.82541000  1.0
  S  S78  1  0.34326000  0.96976000  0.27444000  1.0
  S  S79  1  0.65675000  0.03023000  0.72556000  1.0
  I  I80  1  0.91554000  0.25057000  0.97727000  1.0
  I  I81  1  0.08446000  0.74943000  0.02273000  1.0
  I  I82  1  0.86743000  0.08667000  0.35817000  1.0
  I  I83  1  0.13254000  0.91333000  0.64183000  1.0
  N  N84  1  0.50253000  0.30586000  0.14686000  1.0
  N  N85  1  0.49747000  0.69415000  0.85314000  1.0
  N  N86  1  0.35941000  0.48693000  0.11725000  1.0
  N  N87  1  0.64059000  0.51308000  0.88275000  1.0
  N  N88  1  0.62292000  0.99630000  0.13887000  1.0
  N  N89  1  0.37708000  0.00369000  0.86113000  1.0
  N  N90  1  0.45141000  0.84864000  0.13750000  1.0
  N  N91  1  0.54860000  0.15136000  0.86250000  1.0
