# generated using pymatgen
data_ZnH11C15NO4
_symmetry_space_group_name_H-M   'P 1'
_cell_length_a   6.92552000
_cell_length_b   9.38790000
_cell_length_c   21.84160000
_cell_angle_alpha   90.00000000
_cell_angle_beta   90.00000000
_cell_angle_gamma   111.10900000
_symmetry_Int_Tables_number   1
_chemical_formula_structural   ZnH11C15NO4
_chemical_formula_sum   'Zn4 H44 C60 N4 O16'
_cell_volume   1324.76540031
_cell_formula_units_Z   4
loop_
 _symmetry_equiv_pos_site_id
 _symmetry_equiv_pos_as_xyz
  1  'x, y, z'
loop_
 _atom_site_type_symbol
 _atom_site_label
 _atom_site_symmetry_multiplicity
 _atom_site_fract_x
 _atom_site_fract_y
 _atom_site_fract_z
 _atom_site_occupancy
  Zn  Zn0  1  0.67245000  0.44883000  0.74562000  1.0
  Zn  Zn1  1  0.82754000  0.05117000  0.24562000  1.0
  Zn  Zn2  1  0.32755000  0.55117000  0.25439000  1.0
  Zn  Zn3  1  0.17245000  0.94883000  0.75438000  1.0
  H  H4  1  0.66772000  0.71161000  0.82587000  1.0
  H  H5  1  0.83228000  0.78838000  0.32587000  1.0
  H  H6  1  0.33228000  0.28838000  0.17413000  1.0
  H  H7  1  0.16771000  0.21161000  0.67413000  1.0
  H  H8  1  0.40643000  0.76754000  0.88985000  1.0
  H  H9  1  0.09358000  0.73246000  0.38985000  1.0
  H  H10  1  0.59358000  0.23246000  0.11015000  1.0
  H  H11  1  0.90641000  0.26754000  0.61015000  1.0
  H  H12  1  0.99517000  0.30095000  0.85805000  1.0
  H  H13  1  0.50482000  0.19905000  0.35804000  1.0
  H  H14  1  0.00481000  0.69905000  0.14196000  1.0
  H  H15  1  0.49517000  0.80095000  0.64195000  1.0
  H  H16  1  0.26575000  0.26794000  0.79363000  1.0
  H  H17  1  0.23422000  0.23206000  0.29363000  1.0
  H  H18  1  0.73422000  0.73206000  0.20637000  1.0
  H  H19  1  0.76576000  0.76794000  0.70637000  1.0
  H  H20  1  0.07212000  0.67916000  0.94126000  1.0
  H  H21  1  0.42788000  0.82084000  0.44126000  1.0
  H  H22  1  0.92788000  0.32084000  0.05874000  1.0
  H  H23  1  0.57212000  0.17916000  0.55874000  1.0
  H  H24  1  0.77563000  0.36032000  0.90119000  1.0
  H  H25  1  0.72437000  0.13968000  0.40119000  1.0
  H  H26  1  0.22437000  0.63968000  0.09881000  1.0
  H  H27  1  0.27563000  0.86032000  0.59880000  1.0
  H  H28  1  0.83441000  0.71962000  0.99517000  1.0
  H  H29  1  0.66560000  0.78039000  0.49516000  1.0
  H  H30  1  0.16559000  0.28039000  0.00484000  1.0
  H  H31  1  0.33441000  0.21963000  0.50484000  1.0
  H  H32  1  0.45070000  0.26200000  0.94212000  1.0
  H  H33  1  0.04930000  0.23801000  0.44212000  1.0
  H  H34  1  0.54930000  0.73800000  0.05788000  1.0
  H  H35  1  0.95071000  0.76201000  0.55788000  1.0
  H  H36  1  0.83423000  0.45932000  0.50790000  1.0
  H  H37  1  0.66577000  0.04068000  0.00789000  1.0
  H  H38  1  0.16578000  0.54069000  0.49211000  1.0
  H  H39  1  0.33423000  0.95932000  0.99210000  1.0
  H  H40  1  0.31536000  0.52436000  0.59496000  1.0
  H  H41  1  0.18465000  0.97564000  0.09496000  1.0
  H  H42  1  0.68466000  0.47566000  0.40504000  1.0
  H  H43  1  0.81536000  0.02435000  0.90504000  1.0
  H  H44  1  0.13438000  0.54209000  0.72061000  1.0
  H  H45  1  0.36561000  0.95790000  0.22060000  1.0
  H  H46  1  0.86560000  0.45790000  0.27940000  1.0
  H  H47  1  0.63438000  0.04209000  0.77939000  1.0
  C  C48  1  0.51509000  0.62470000  0.83367000  1.0
  C  C49  1  0.98491000  0.87529000  0.33366000  1.0
  C  C50  1  0.48491000  0.37529000  0.16634000  1.0
  C  C51  1  0.01509000  0.12470000  0.66633000  1.0
  C  C52  1  0.36973000  0.65401000  0.87020000  1.0
  C  C53  1  0.13027000  0.84599000  0.37019000  1.0
  C  C54  1  0.63027000  0.34599000  0.12981000  1.0
  C  C55  1  0.86973000  0.15400000  0.62980000  1.0
  C  C56  1  0.17448000  0.53923000  0.88024000  1.0
  C  C57  1  0.32552000  0.96077000  0.38023000  1.0
  C  C58  1  0.82552000  0.46077000  0.11977000  1.0
  C  C59  1  0.67448000  0.03923000  0.61976000  1.0
  C  C60  1  0.13980000  0.39674000  0.85237000  1.0
  C  C61  1  0.36020000  0.10326000  0.35237000  1.0
  C  C62  1  0.86020000  0.60326000  0.14763000  1.0
  C  C63  1  0.63979000  0.89673000  0.64763000  1.0
  C  C64  1  0.29044000  0.37664000  0.81595000  1.0
  C  C65  1  0.20954000  0.12335000  0.31595000  1.0
  C  C66  1  0.70954000  0.62335000  0.18405000  1.0
  C  C67  1  0.79045000  0.87664000  0.68405000  1.0
  C  C68  1  0.02060000  0.56885000  0.91801000  1.0
  C  C69  1  0.47940000  0.93115000  0.41801000  1.0
  C  C70  1  0.97940000  0.43114000  0.08199000  1.0
  C  C71  1  0.52060000  0.06885000  0.58199000  1.0
  C  C72  1  0.82405000  0.46921000  0.92570000  1.0
  C  C73  1  0.67595000  0.03079000  0.42570000  1.0
  C  C74  1  0.17596000  0.53079000  0.07430000  1.0
  C  C75  1  0.32405000  0.96921000  0.57430000  1.0
  C  C76  1  0.66380000  0.48894000  0.96362000  1.0
  C  C77  1  0.83620000  0.01107000  0.46362000  1.0
  C  C78  1  0.33620000  0.51107000  0.03638000  1.0
  C  C79  1  0.16380000  0.98894000  0.53637000  1.0
  C  C80  1  0.68847000  0.62303000  0.99693000  1.0
  C  C81  1  0.81153000  0.87697000  0.49692000  1.0
  C  C82  1  0.31153000  0.37697000  0.00307000  1.0
  C  C83  1  0.18847000  0.12304000  0.50307000  1.0
  C  C84  1  0.47170000  0.36650000  0.96766000  1.0
  C  C85  1  0.02830000  0.13351000  0.46766000  1.0
  C  C86  1  0.52830000  0.63350000  0.03234000  1.0
  C  C87  1  0.97171000  0.86650000  0.53233000  1.0
  C  C88  1  0.67995000  0.48424000  0.61893000  1.0
  C  C89  1  0.82006000  0.01575000  0.11892000  1.0
  C  C90  1  0.32007000  0.51577000  0.38108000  1.0
  C  C91  1  0.17995000  0.98424000  0.88107000  1.0
  C  C92  1  0.58508000  0.49189000  0.55767000  1.0
  C  C93  1  0.91493000  0.00812000  0.05766000  1.0
  C  C94  1  0.41495000  0.50813000  0.44234000  1.0
  C  C95  1  0.08508000  0.99188000  0.94234000  1.0
  C  C96  1  0.68771000  0.47713000  0.50400000  1.0
  C  C97  1  0.81231000  0.02288000  0.00400000  1.0
  C  C98  1  0.31232000  0.52289000  0.49601000  1.0
  C  C99  1  0.18771000  0.97712000  0.99600000  1.0
  C  C100  1  0.39600000  0.51452000  0.55326000  1.0
  C  C101  1  0.10401000  0.98549000  0.05325000  1.0
  C  C102  1  0.60402000  0.48551000  0.44675000  1.0
  C  C103  1  0.89600000  0.01451000  0.94675000  1.0
  C  C104  1  0.10514000  0.64460000  0.73576000  1.0
  C  C105  1  0.39484000  0.85539000  0.23576000  1.0
  C  C106  1  0.89484000  0.35540000  0.26424000  1.0
  C  C107  1  0.60515000  0.14460000  0.76424000  1.0
  N  N108  1  0.47664000  0.48835000  0.80613000  1.0
  N  N109  1  0.02335000  0.01164000  0.30613000  1.0
  N  N110  1  0.52335000  0.51163000  0.19387000  1.0
  N  N111  1  0.97664000  0.98836000  0.69386000  1.0
  O  O112  1  0.55462000  0.46314000  0.66538000  1.0
  O  O113  1  0.94538000  0.03686000  0.16538000  1.0
  O  O114  1  0.44540000  0.53687000  0.33463000  1.0
  O  O115  1  0.05462000  0.96313000  0.83462000  1.0
  O  O116  1  0.86612000  0.49784000  0.62239000  1.0
  O  O117  1  0.63387000  0.00214000  0.12239000  1.0
  O  O118  1  0.13389000  0.50215000  0.37761000  1.0
  O  O119  1  0.36613000  0.99784000  0.87761000  1.0
  O  O120  1  0.25217000  0.77238000  0.72993000  1.0
  O  O121  1  0.24782000  0.72761000  0.22993000  1.0
  O  O122  1  0.74782000  0.22761000  0.27007000  1.0
  O  O123  1  0.75217000  0.27238000  0.77007000  1.0
  O  O124  1  0.93033000  0.63131000  0.75823000  1.0
  O  O125  1  0.56965000  0.86869000  0.25823000  1.0
  O  O126  1  0.06966000  0.36869000  0.24177000  1.0
  O  O127  1  0.43033000  0.13130000  0.74177000  1.0
