# generated using pymatgen
data_CuH16C16(NO2)2
_symmetry_space_group_name_H-M   'P 1'
_cell_length_a   5.00012000
_cell_length_b   9.53174000
_cell_length_c   15.00070000
_cell_angle_alpha   102.50600000
_cell_angle_beta   89.99930000
_cell_angle_gamma   90.00000000
_symmetry_Int_Tables_number   1
_chemical_formula_structural   CuH16C16(NO2)2
_chemical_formula_sum   'Cu2 H32 C32 N4 O8'
_cell_volume   697.96809108
_cell_formula_units_Z   2
loop_
 _symmetry_equiv_pos_site_id
 _symmetry_equiv_pos_as_xyz
  1  'x, y, z'
loop_
 _atom_site_type_symbol
 _atom_site_label
 _atom_site_symmetry_multiplicity
 _atom_site_fract_x
 _atom_site_fract_y
 _atom_site_fract_z
 _atom_site_occupancy
  Cu  Cu0  1  0.17912000  0.73500000  0.48588000  1.0
  Cu  Cu1  1  0.67912000  0.26500000  0.51412000  1.0
  H  H2  1  0.97152000  0.66999000  0.33214000  1.0
  H  H3  1  0.47152000  0.33001000  0.66786000  1.0
  H  H4  1  0.74360000  0.75996000  0.40142000  1.0
  H  H5  1  0.24358000  0.24007000  0.59859000  1.0
  H  H6  1  0.84823000  0.97023000  0.37547000  1.0
  H  H7  1  0.34819000  0.02979000  0.62452000  1.0
  H  H8  1  0.39565000  0.73461000  0.25063000  1.0
  H  H9  1  0.89560000  0.26539000  0.74937000  1.0
  H  H10  1  0.70795000  0.99680000  0.22880000  1.0
  H  H11  1  0.20791000  0.00319000  0.77119000  1.0
  H  H12  1  0.54127000  0.62808000  0.56200000  1.0
  H  H13  1  0.04126000  0.37193000  0.43800000  1.0
  H  H14  1  0.53012000  0.79896000  0.61368000  1.0
  H  H15  1  0.03013000  0.20104000  0.38632000  1.0
  H  H16  1  0.10367000  0.76220000  0.68219000  1.0
  H  H17  1  0.60367000  0.23780000  0.31781000  1.0
  H  H18  1  0.67337000  0.80590000  0.73842000  1.0
  H  H19  1  0.17338000  0.19409000  0.26158000  1.0
  H  H20  1  0.90768000  0.77489000  0.87601000  1.0
  H  H21  1  0.40769000  0.22510000  0.12399000  1.0
  H  H22  1  0.76084000  0.58781000  0.95873000  1.0
  H  H23  1  0.26086000  0.41219000  0.04127000  1.0
  H  H24  1  0.36150000  0.43740000  0.90249000  1.0
  H  H25  1  0.86154000  0.56260000  0.09751000  1.0
  H  H26  1  0.11665000  0.47329000  0.76530000  1.0
  H  H27  1  0.61667000  0.52672000  0.23470000  1.0
  H  H28  1  0.47646000  0.70267000  0.08420000  1.0
  H  H29  1  0.97639000  0.29731000  0.91580000  1.0
  H  H30  1  0.17946000  0.81831000  0.98981000  1.0
  H  H31  1  0.67939000  0.18166000  0.01019000  1.0
  H  H32  1  0.78971000  0.96492000  0.06176000  1.0
  H  H33  1  0.28964000  0.03505000  0.93823000  1.0
  C  C34  1  0.26913000  0.95995000  0.39972000  1.0
  C  C35  1  0.76910000  0.04007000  0.60027000  1.0
  C  C36  1  0.01043000  0.89285000  0.35290000  1.0
  C  C37  1  0.51040000  0.10715000  0.64710000  1.0
  C  C38  1  0.04765000  0.86929000  0.25063000  1.0
  C  C39  1  0.54760000  0.13071000  0.74937000  1.0
  C  C40  1  0.26274000  0.78535000  0.20919000  1.0
  C  C41  1  0.76268000  0.21464000  0.79081000  1.0
  C  C42  1  0.87755000  0.93315000  0.19691000  1.0
  C  C43  1  0.37750000  0.06684000  0.80308000  1.0
  C  C44  1  0.03780000  0.55684000  0.60270000  1.0
  C  C45  1  0.53779000  0.44316000  0.39730000  1.0
  C  C46  1  0.23484000  0.66851000  0.65734000  1.0
  C  C47  1  0.73485000  0.33149000  0.34266000  1.0
  C  C48  1  0.38142000  0.63787000  0.73977000  1.0
  C  C49  1  0.88144000  0.36214000  0.26023000  1.0
  C  C50  1  0.60291000  0.72373000  0.77330000  1.0
  C  C51  1  0.10293000  0.27627000  0.22670000  1.0
  C  C52  1  0.73564000  0.70722000  0.85200000  1.0
  C  C53  1  0.23566000  0.29277000  0.14800000  1.0
  C  C54  1  0.65166000  0.60348000  0.89872000  1.0
  C  C55  1  0.15169000  0.39652000  0.10128000  1.0
  C  C56  1  0.42928000  0.51922000  0.86693000  1.0
  C  C57  1  0.92931000  0.48078000  0.13308000  1.0
  C  C58  1  0.29340000  0.53678000  0.78872000  1.0
  C  C59  1  0.79343000  0.46323000  0.21129000  1.0
  C  C60  1  0.30830000  0.76714000  0.11588000  1.0
  C  C61  1  0.80823000  0.23285000  0.88413000  1.0
  C  C62  1  0.13997000  0.83264000  0.06270000  1.0
  C  C63  1  0.63990000  0.16734000  0.93729000  1.0
  C  C64  1  0.92353000  0.91495000  0.10320000  1.0
  C  C65  1  0.42347000  0.08504000  0.89680000  1.0
  N  N66  1  0.94175000  0.75897000  0.38347000  1.0
  N  N67  1  0.44173000  0.24105000  0.61653000  1.0
  N  N68  1  0.41214000  0.71064000  0.58859000  1.0
  N  N69  1  0.91213000  0.28936000  0.41141000  1.0
  O  O70  1  0.39431000  0.88958000  0.45132000  1.0
  O  O71  1  0.89431000  0.11043000  0.54869000  1.0
  O  O72  1  0.34908000  0.07635000  0.38343000  1.0
  O  O73  1  0.84906000  0.92364000  0.61658000  1.0
  O  O74  1  0.95814000  0.58885000  0.52709000  1.0
  O  O75  1  0.45811000  0.41114000  0.47291000  1.0
  O  O76  1  0.95278000  0.45037000  0.62983000  1.0
  O  O77  1  0.45280000  0.54964000  0.37018000  1.0
