# generated using pymatgen
data_Cu2H20W(C7N3)4
_symmetry_space_group_name_H-M   'P 1'
_cell_length_a   13.29480000
_cell_length_b   15.30900000
_cell_length_c   15.31320000
_cell_angle_alpha   79.20480000
_cell_angle_beta   64.34150000
_cell_angle_gamma   64.39120000
_symmetry_Int_Tables_number   1
_chemical_formula_structural   Cu2H20W(C7N3)4
_chemical_formula_sum   'Cu4 H40 W2 C56 N24'
_cell_volume   2533.38779313
_cell_formula_units_Z   2
loop_
 _symmetry_equiv_pos_site_id
 _symmetry_equiv_pos_as_xyz
  1  'x, y, z'
loop_
 _atom_site_type_symbol
 _atom_site_label
 _atom_site_symmetry_multiplicity
 _atom_site_fract_x
 _atom_site_fract_y
 _atom_site_fract_z
 _atom_site_occupancy
  Cu  Cu0  1  0.49953000  0.99961000  0.99995000  1.0
  Cu  Cu1  1  0.49906000  0.50029000  0.50000000  1.0
  Cu  Cu2  1  0.99940000  0.49991000  0.99986000  1.0
  Cu  Cu3  1  0.49890000  0.00007000  0.50043000  1.0
  H  H4  1  0.36206000  0.21448000  0.03441000  1.0
  H  H5  1  0.34357000  0.97394000  0.20968000  1.0
  H  H6  1  0.18407000  0.07571000  0.35156000  1.0
  H  H7  1  0.11073000  0.25856000  0.33447000  1.0
  H  H8  1  0.20182000  0.32769000  0.17090000  1.0
  H  H9  1  0.61088000  0.28543000  0.46526000  1.0
  H  H10  1  0.52689000  0.52595000  0.29008000  1.0
  H  H11  1  0.61138000  0.42419000  0.14798000  1.0
  H  H12  1  0.70404000  0.24138000  0.16493000  1.0
  H  H13  1  0.70064000  0.17222000  0.32854000  1.0
  H  H14  1  0.89676000  0.46516000  0.21464000  1.0
  H  H15  1  0.05260000  0.29053000  0.97369000  1.0
  H  H16  1  0.03504000  0.14841000  0.07515000  1.0
  H  H17  1  0.94512000  0.16498000  0.25808000  1.0
  H  H18  1  0.87310000  0.32835000  0.32759000  1.0
  H  H19  1  0.57640000  0.03477000  0.28552000  1.0
  H  H20  1  0.31728000  0.20999000  0.52588000  1.0
  H  H21  1  0.25958000  0.35180000  0.42396000  1.0
  H  H22  1  0.36899000  0.33466000  0.24113000  1.0
  H  H23  1  0.52928000  0.17116000  0.17216000  1.0
  H  H24  1  0.64175000  0.78485000  0.96369000  1.0
  H  H25  1  0.65891000  0.02557000  0.78877000  1.0
  H  H26  1  0.81771000  0.92399000  0.64626000  1.0
  H  H27  1  0.89096000  0.74119000  0.66303000  1.0
  H  H28  1  0.80093000  0.67165000  0.82666000  1.0
  H  H29  1  0.39000000  0.71518000  0.53642000  1.0
  H  H30  1  0.47331000  0.47446000  0.71121000  1.0
  H  H31  1  0.38810000  0.57598000  0.85383000  1.0
  H  H32  1  0.29508000  0.75880000  0.83724000  1.0
  H  H33  1  0.29897000  0.82832000  0.67361000  1.0
  H  H34  1  0.10448000  0.53650000  0.78516000  1.0
  H  H35  1  0.94811000  0.71103000  0.02600000  1.0
  H  H36  1  0.96461000  0.85360000  0.92448000  1.0
  H  H37  1  0.05408000  0.83708000  0.74161000  1.0
  H  H38  1  0.12676000  0.67360000  0.67202000  1.0
  H  H39  1  0.42626000  0.96362000  0.71525000  1.0
  H  H40  1  0.68445000  0.78899000  0.47459000  1.0
  H  H41  1  0.74175000  0.64651000  0.57622000  1.0
  H  H42  1  0.63212000  0.66311000  0.75902000  1.0
  H  H43  1  0.47228000  0.82658000  0.82849000  1.0
  W  W44  1  0.37361000  0.25007000  0.75012000  1.0
  W  W45  1  0.62389000  0.74994000  0.25000000  1.0
  C  C46  1  0.41799000  0.14700000  0.85472000  1.0
  C  C47  1  0.32039000  0.18727000  0.10617000  1.0
  C  C48  1  0.57068000  0.18253000  0.68380000  1.0
  C  C49  1  0.31016000  0.05249000  0.20341000  1.0
  C  C50  1  0.22005000  0.11072000  0.28329000  1.0
  C  C51  1  0.18014000  0.21103000  0.27309000  1.0
  C  C52  1  0.23080000  0.24974000  0.18274000  1.0
  C  C53  1  0.41993000  0.35288000  0.64538000  1.0
  C  C54  1  0.61374000  0.31265000  0.39350000  1.0
  C  C55  1  0.43707000  0.31746000  0.81662000  1.0
  C  C56  1  0.56590000  0.44740000  0.29629000  1.0
  C  C57  1  0.61407000  0.38918000  0.21627000  1.0
  C  C58  1  0.66439000  0.28889000  0.22643000  1.0
  C  C59  1  0.66337000  0.25017000  0.31679000  1.0
  C  C60  1  0.77291000  0.64518000  0.14715000  1.0
  C  C61  1  0.92666000  0.39349000  0.18728000  1.0
  C  C62  1  0.75447000  0.81657000  0.18251000  1.0
  C  C63  1  0.01317000  0.29659000  0.05227000  1.0
  C  C64  1  0.00294000  0.21655000  0.11035000  1.0
  C  C65  1  0.95315000  0.22650000  0.21068000  1.0
  C  C66  1  0.91369000  0.31672000  0.24961000  1.0
  C  C67  1  0.56531000  0.85461000  0.35302000  1.0
  C  C68  1  0.50746000  0.10648000  0.31265000  1.0
  C  C69  1  0.75358000  0.68363000  0.31758000  1.0
  C  C70  1  0.36249000  0.20370000  0.44733000  1.0
  C  C71  1  0.33056000  0.28356000  0.38902000  1.0
  C  C72  1  0.39095000  0.27331000  0.28873000  1.0
  C  C73  1  0.48032000  0.18302000  0.25010000  1.0
  C  C74  1  0.57944000  0.85196000  0.14518000  1.0
  C  C75  1  0.68321000  0.81201000  0.89184000  1.0
  C  C76  1  0.42687000  0.81780000  0.31569000  1.0
  C  C77  1  0.69272000  0.94695000  0.79481000  1.0
  C  C78  1  0.78221000  0.88892000  0.71461000  1.0
  C  C79  1  0.82208000  0.78858000  0.72465000  1.0
  C  C80  1  0.77209000  0.74963000  0.81502000  1.0
  C  C81  1  0.57661000  0.64794000  0.35481000  1.0
  C  C82  1  0.38687000  0.68798000  0.60826000  1.0
  C  C83  1  0.56066000  0.68193000  0.18392000  1.0
  C  C84  1  0.43443000  0.55307000  0.70520000  1.0
  C  C85  1  0.38579000  0.61109000  0.78549000  1.0
  C  C86  1  0.33523000  0.71141000  0.77555000  1.0
  C  C87  1  0.33655000  0.75036000  0.68519000  1.0
  C  C88  1  0.22452000  0.35493000  0.85221000  1.0
  C  C89  1  0.07440000  0.60828000  0.81239000  1.0
  C  C90  1  0.24228000  0.18422000  0.81799000  1.0
  C  C91  1  0.98763000  0.70509000  0.94737000  1.0
  C  C92  1  0.99713000  0.78534000  0.88933000  1.0
  C  C93  1  0.04671000  0.77543000  0.78899000  1.0
  C  C94  1  0.08658000  0.68516000  0.74999000  1.0
  C  C95  1  0.43104000  0.14526000  0.64817000  1.0
  C  C96  1  0.49492000  0.89184000  0.68810000  1.0
  C  C97  1  0.24446000  0.31604000  0.68207000  1.0
  C  C98  1  0.63949000  0.79497000  0.55321000  1.0
  C  C99  1  0.67108000  0.71479000  0.61128000  1.0
  C  C100  1  0.61055000  0.72474000  0.71161000  1.0
  C  C101  1  0.52148000  0.81500000  0.75052000  1.0
  N  N102  1  0.36002000  0.09013000  0.11668000  1.0
  N  N103  1  0.44561000  0.09114000  0.91245000  1.0
  N  N104  1  0.67694000  0.14341000  0.64689000  1.0
  N  N105  1  0.56663000  0.40978000  0.38305000  1.0
  N  N106  1  0.44996000  0.40830000  0.58722000  1.0
  N  N107  1  0.46729000  0.35671000  0.85366000  1.0
  N  N108  1  0.97654000  0.38322000  0.09010000  1.0
  N  N109  1  0.85809000  0.58736000  0.09143000  1.0
  N  N110  1  0.82378000  0.85368000  0.14330000  1.0
  N  N111  1  0.44993000  0.11700000  0.40979000  1.0
  N  N112  1  0.53685000  0.91270000  0.40866000  1.0
  N  N113  1  0.82074000  0.64669000  0.35678000  1.0
  N  N114  1  0.64376000  0.90907000  0.88152000  1.0
  N  N115  1  0.55421000  0.90374000  0.08423000  1.0
  N  N116  1  0.32063000  0.85731000  0.35218000  1.0
  N  N117  1  0.43418000  0.59092000  0.61850000  1.0
  N  N118  1  0.54203000  0.59622000  0.41579000  1.0
  N  N119  1  0.53053000  0.64239000  0.14710000  1.0
  N  N120  1  0.02496000  0.61845000  0.90944000  1.0
  N  N121  1  0.13846000  0.41586000  0.90393000  1.0
  N  N122  1  0.17255000  0.14755000  0.85759000  1.0
  N  N123  1  0.55258000  0.88158000  0.59105000  1.0
  N  N124  1  0.45743000  0.08429000  0.59640000  1.0
  N  N125  1  0.17775000  0.35268000  0.64245000  1.0
