# generated using pymatgen
data_Al2H18C29N3ClO14
_symmetry_space_group_name_H-M   'P 1'
_cell_length_a   6.73111000
_cell_length_b   22.32710000
_cell_length_c   25.58640000
_cell_angle_alpha   90.77500000
_cell_angle_beta   90.51720000
_cell_angle_gamma   90.15610000
_symmetry_Int_Tables_number   1
_chemical_formula_structural   Al2H18C29N3ClO14
_chemical_formula_sum   'Al4 H36 C58 N6 Cl2 O28'
_cell_volume   3844.75796734
_cell_formula_units_Z   2
loop_
 _symmetry_equiv_pos_site_id
 _symmetry_equiv_pos_as_xyz
  1  'x, y, z'
loop_
 _atom_site_type_symbol
 _atom_site_label
 _atom_site_symmetry_multiplicity
 _atom_site_fract_x
 _atom_site_fract_y
 _atom_site_fract_z
 _atom_site_occupancy
  Al  Al0  1  0.27288000  0.25568000  0.74589000  1.0
  Al  Al1  1  0.72712000  0.74432000  0.25411000  1.0
  Al  Al2  1  0.77245000  0.25171000  0.74680000  1.0
  Al  Al3  1  0.22754000  0.74829000  0.25320000  1.0
  H  H4  1  0.74189000  0.11289000  0.85131000  1.0
  H  H5  1  0.25810000  0.88711000  0.14869000  1.0
  H  H6  1  0.84638000  0.96005000  0.97297000  1.0
  H  H7  1  0.15363000  0.03996000  0.02703000  1.0
  H  H8  1  0.71576000  0.12185000  0.63036000  1.0
  H  H9  1  0.28424000  0.87815000  0.36964000  1.0
  H  H10  1  0.62962000  0.93051000  0.44767000  1.0
  H  H11  1  0.37037000  0.06949000  0.55232000  1.0
  H  H12  1  0.64915000  0.85524000  0.37444000  1.0
  H  H13  1  0.35084000  0.14477000  0.62555000  1.0
  H  H14  1  0.78380000  0.62091000  0.13244000  1.0
  H  H15  1  0.21621000  0.37909000  0.86756000  1.0
  H  H16  1  0.76726000  0.54817000  0.05638000  1.0
  H  H17  1  0.23275000  0.45184000  0.94362000  1.0
  H  H18  1  0.86866000  0.43618000  0.94682000  1.0
  H  H19  1  0.13135000  0.56382000  0.05318000  1.0
  H  H20  1  0.85212000  0.36399000  0.86995000  1.0
  H  H21  1  0.14788000  0.63601000  0.13005000  1.0
  H  H22  1  0.78196000  0.61848000  0.36949000  1.0
  H  H23  1  0.21804000  0.38152000  0.63051000  1.0
  H  H24  1  0.87187000  0.43295000  0.55235000  1.0
  H  H25  1  0.12812000  0.56705000  0.44765000  1.0
  H  H26  1  0.85332000  0.35975000  0.62545000  1.0
  H  H27  1  0.14667000  0.64025000  0.37455000  1.0
  H  H28  1  0.75691000  0.51339000  0.47480000  1.0
  H  H29  1  0.24308000  0.48660000  0.52520000  1.0
  H  H30  1  0.36621000  0.06254000  0.99249000  1.0
  H  H31  1  0.63380000  0.93747000  0.00750000  1.0
  H  H32  1  0.40911000  0.94022000  0.07345000  1.0
  H  H33  1  0.59089000  0.05978000  0.92656000  1.0
  H  H34  1  0.74219000  0.01380000  0.52480000  1.0
  H  H35  1  0.25781000  0.98620000  0.47520000  1.0
  H  H36  1  0.51287000  0.18041000  0.76801000  1.0
  H  H37  1  0.48714000  0.81959000  0.23199000  1.0
  H  H38  1  0.01513000  0.33236000  0.75598000  1.0
  H  H39  1  0.98488000  0.66764000  0.24402000  1.0
  C  C40  1  0.52457000  0.32634000  0.81796000  1.0
  C  C41  1  0.47543000  0.67366000  0.18204000  1.0
  C  C42  1  0.52762000  0.32365000  0.67592000  1.0
  C  C43  1  0.47239000  0.67635000  0.32408000  1.0
  C  C44  1  0.02638000  0.18164000  0.67601000  1.0
  C  C45  1  0.97361000  0.81836000  0.32399000  1.0
  C  C46  1  0.02636000  0.18422000  0.81850000  1.0
  C  C47  1  0.97363000  0.81578000  0.18149000  1.0
  C  C48  1  0.03882000  0.14453000  0.86514000  1.0
  C  C49  1  0.96117000  0.85547000  0.13486000  1.0
  C  C50  1  0.87334000  0.10882000  0.87605000  1.0
  C  C51  1  0.12666000  0.89118000  0.12395000  1.0
  C  C52  1  0.87420000  0.06856000  0.91710000  1.0
  C  C53  1  0.12580000  0.93144000  0.08291000  1.0
  C  C54  1  0.04458000  0.06227000  0.94938000  1.0
  C  C55  1  0.95543000  0.93774000  0.05063000  1.0
  C  C56  1  0.21123000  0.09814000  0.93752000  1.0
  C  C57  1  0.78878000  0.90186000  0.06248000  1.0
  C  C58  1  0.20986000  0.13967000  0.89695000  1.0
  C  C59  1  0.79014000  0.86033000  0.10305000  1.0
  C  C60  1  0.05358000  0.02514000  0.99553000  1.0
  C  C61  1  0.94644000  0.97486000  0.00448000  1.0
  C  C62  1  0.96759000  0.86255000  0.36828000  1.0
  C  C63  1  0.03241000  0.13745000  0.63172000  1.0
  C  C64  1  0.14186000  0.88946000  0.38704000  1.0
  C  C65  1  0.85814000  0.11054000  0.61296000  1.0
  C  C66  1  0.13414000  0.93143000  0.42810000  1.0
  C  C67  1  0.86585000  0.06856000  0.57190000  1.0
  C  C68  1  0.94570000  0.94602000  0.45037000  1.0
  C  C69  1  0.05429000  0.05398000  0.54962000  1.0
  C  C70  1  0.77179000  0.91815000  0.43069000  1.0
  C  C71  1  0.22820000  0.08185000  0.56930000  1.0
  C  C72  1  0.78198000  0.87695000  0.39019000  1.0
  C  C73  1  0.21802000  0.12305000  0.60981000  1.0
  C  C74  1  0.53347000  0.36802000  0.86411000  1.0
  C  C75  1  0.46653000  0.63198000  0.13589000  1.0
  C  C76  1  0.35812000  0.39221000  0.88514000  1.0
  C  C77  1  0.64189000  0.60780000  0.11486000  1.0
  C  C78  1  0.36648000  0.43214000  0.92707000  1.0
  C  C79  1  0.63353000  0.56787000  0.07293000  1.0
  C  C80  1  0.55230000  0.44812000  0.94898000  1.0
  C  C81  1  0.44771000  0.55188000  0.05102000  1.0
  C  C82  1  0.72740000  0.42330000  0.92866000  1.0
  C  C83  1  0.27260000  0.57670000  0.07134000  1.0
  C  C84  1  0.71801000  0.38363000  0.88636000  1.0
  C  C85  1  0.28199000  0.61637000  0.11364000  1.0
  C  C86  1  0.53489000  0.36666000  0.63182000  1.0
  C  C87  1  0.46511000  0.63334000  0.36818000  1.0
  C  C88  1  0.36040000  0.39269000  0.61316000  1.0
  C  C89  1  0.63959000  0.60731000  0.38684000  1.0
  C  C90  1  0.36757000  0.43356000  0.57224000  1.0
  C  C91  1  0.63243000  0.56643000  0.42776000  1.0
  C  C92  1  0.55565000  0.44786000  0.54980000  1.0
  C  C93  1  0.44435000  0.55214000  0.45020000  1.0
  C  C94  1  0.72983000  0.42091000  0.56940000  1.0
  C  C95  1  0.27017000  0.57909000  0.43060000  1.0
  C  C96  1  0.72027000  0.38082000  0.60987000  1.0
  C  C97  1  0.27973000  0.61918000  0.39013000  1.0
  N  N98  1  0.92090000  0.98687000  0.49089000  1.0
  N  N99  1  0.07909000  0.01312000  0.50911000  1.0
  N  N100  1  0.57951000  0.48856000  0.99136000  1.0
  N  N101  1  0.42050000  0.51145000  0.00864000  1.0
  N  N102  1  0.57935000  0.48738000  0.50909000  1.0
  N  N103  1  0.42064000  0.51262000  0.49090000  1.0
  Cl  Cl104  1  0.58011000  0.81666000  0.10963000  1.0
  Cl  Cl105  1  0.41988000  0.18334000  0.89036000  1.0
  O  O106  1  0.69290000  0.30203000  0.69093000  1.0
  O  O107  1  0.30711000  0.69797000  0.30907000  1.0
  O  O108  1  0.35271000  0.30981000  0.80185000  1.0
  O  O109  1  0.64729000  0.69019000  0.19815000  1.0
  O  O110  1  0.18820000  0.19733000  0.79620000  1.0
  O  O111  1  0.81179000  0.80266000  0.20380000  1.0
  O  O112  1  0.35860000  0.31221000  0.69557000  1.0
  O  O113  1  0.64141000  0.68779000  0.30443000  1.0
  O  O114  1  0.19274000  0.20402000  0.69011000  1.0
  O  O115  1  0.80726000  0.79598000  0.30989000  1.0
  O  O116  1  0.69034000  0.31118000  0.79803000  1.0
  O  O117  1  0.30967000  0.68882000  0.20197000  1.0
  O  O118  1  0.52043000  0.21693000  0.74802000  1.0
  O  O119  1  0.47957000  0.78307000  0.25198000  1.0
  O  O120  1  0.85878000  0.19309000  0.69668000  1.0
  O  O121  1  0.14121000  0.80691000  0.30332000  1.0
  O  O122  1  0.85305000  0.20035000  0.80388000  1.0
  O  O123  1  0.14694000  0.79964000  0.19612000  1.0
  O  O124  1  0.02058000  0.29006000  0.74732000  1.0
  O  O125  1  0.97942000  0.70994000  0.25268000  1.0
  O  O126  1  0.80088000  0.54113000  0.44539000  1.0
  O  O127  1  0.19912000  0.45887000  0.55461000  1.0
  O  O128  1  0.38534000  0.09268000  0.96559000  1.0
  O  O129  1  0.61467000  0.90733000  0.03441000  1.0
  O  O130  1  0.28975000  0.96566000  0.07251000  1.0
  O  O131  1  0.71025000  0.03435000  0.92749000  1.0
  O  O132  1  0.69763000  0.04243000  0.55409000  1.0
  O  O133  1  0.30236000  0.95757000  0.44591000  1.0
