# generated using pymatgen
data_AgH15C13(SO)3
_symmetry_space_group_name_H-M   'P 1'
_cell_length_a   8.31534000
_cell_length_b   8.82844000
_cell_length_c   21.21130000
_cell_angle_alpha   90.00010000
_cell_angle_beta   90.00010000
_cell_angle_gamma   110.87600000
_symmetry_Int_Tables_number   1
_chemical_formula_structural   AgH15C13(SO)3
_chemical_formula_sum   'Ag4 H60 C52 S12 O12'
_cell_volume   1454.93179358
_cell_formula_units_Z   4
loop_
 _symmetry_equiv_pos_site_id
 _symmetry_equiv_pos_as_xyz
  1  'x, y, z'
loop_
 _atom_site_type_symbol
 _atom_site_label
 _atom_site_symmetry_multiplicity
 _atom_site_fract_x
 _atom_site_fract_y
 _atom_site_fract_z
 _atom_site_occupancy
  Ag  Ag0  1  0.81115000  0.45454000  0.48416000  1.0
  Ag  Ag1  1  0.18885000  0.04546000  0.98416000  1.0
  Ag  Ag2  1  0.18885000  0.54546000  0.51584000  1.0
  Ag  Ag3  1  0.81115000  0.95454000  0.01584000  1.0
  H  H4  1  0.00739000  0.14270000  0.50077000  1.0
  H  H5  1  0.99261000  0.35730000  0.00077000  1.0
  H  H6  1  0.99261000  0.85730000  0.49923000  1.0
  H  H7  1  0.00739000  0.64270000  0.99923000  1.0
  H  H8  1  0.89665000  0.03858000  0.56979000  1.0
  H  H9  1  0.10335000  0.46143000  0.06979000  1.0
  H  H10  1  0.10335000  0.96142000  0.43021000  1.0
  H  H11  1  0.89665000  0.53858000  0.93021000  1.0
  H  H12  1  0.59032000  0.01105000  0.60185000  1.0
  H  H13  1  0.40968000  0.48895000  0.10185000  1.0
  H  H14  1  0.40968000  0.98895000  0.39815000  1.0
  H  H15  1  0.59032000  0.51105000  0.89815000  1.0
  H  H16  1  0.48481000  0.14062000  0.57097000  1.0
  H  H17  1  0.51520000  0.35938000  0.07097000  1.0
  H  H18  1  0.51519000  0.85938000  0.42903000  1.0
  H  H19  1  0.48481000  0.64062000  0.92903000  1.0
  H  H20  1  0.67167000  0.22625000  0.61930000  1.0
  H  H21  1  0.32833000  0.27375000  0.11930000  1.0
  H  H22  1  0.32833000  0.77375000  0.38070000  1.0
  H  H23  1  0.67167000  0.72625000  0.88070000  1.0
  H  H24  1  0.27897000  0.22326000  0.57290000  1.0
  H  H25  1  0.72104000  0.27674000  0.07290000  1.0
  H  H26  1  0.72103000  0.77674000  0.42710000  1.0
  H  H27  1  0.27897000  0.72326000  0.92710000  1.0
  H  H28  1  0.31649000  0.36025000  0.63779000  1.0
  H  H29  1  0.68352000  0.13976000  0.13779000  1.0
  H  H30  1  0.68351000  0.63975000  0.36221000  1.0
  H  H31  1  0.31649000  0.86025000  0.86221000  1.0
  H  H32  1  0.16887000  0.15506000  0.64733000  1.0
  H  H33  1  0.83114000  0.34495000  0.14733000  1.0
  H  H34  1  0.83113000  0.84495000  0.35268000  1.0
  H  H35  1  0.16887000  0.65506000  0.85268000  1.0
  H  H36  1  0.98328000  0.71835000  0.59174000  1.0
  H  H37  1  0.01672000  0.78164000  0.09174000  1.0
  H  H38  1  0.01672000  0.28164000  0.40826000  1.0
  H  H39  1  0.98328000  0.21836000  0.90826000  1.0
  H  H40  1  0.28837000  0.81773000  0.62258000  1.0
  H  H41  1  0.71163000  0.68227000  0.12258000  1.0
  H  H42  1  0.71163000  0.18226000  0.37742000  1.0
  H  H43  1  0.28837000  0.31774000  0.87742000  1.0
  H  H44  1  0.38486000  0.97803000  0.72177000  1.0
  H  H45  1  0.61514000  0.52197000  0.22176000  1.0
  H  H46  1  0.61514000  0.02197000  0.27823000  1.0
  H  H47  1  0.38486000  0.47803000  0.77823000  1.0
  H  H48  1  0.16862000  0.02523000  0.79237000  1.0
  H  H49  1  0.83139000  0.47478000  0.29237000  1.0
  H  H50  1  0.83139000  0.97477000  0.20763000  1.0
  H  H51  1  0.16861000  0.52523000  0.70763000  1.0
  H  H52  1  0.87046000  0.98228000  0.81905000  1.0
  H  H53  1  0.12953000  0.51772000  0.31905000  1.0
  H  H54  1  0.12954000  0.01772000  0.18095000  1.0
  H  H55  1  0.87046000  0.48228000  0.68094000  1.0
  H  H56  1  0.56144000  0.87473000  0.79242000  1.0
  H  H57  1  0.43856000  0.62526000  0.29242000  1.0
  H  H58  1  0.43856000  0.12526000  0.20758000  1.0
  H  H59  1  0.56144000  0.37473000  0.70758000  1.0
  H  H60  1  0.46425000  0.73011000  0.68967000  1.0
  H  H61  1  0.53575000  0.76988000  0.18967000  1.0
  H  H62  1  0.53575000  0.26989000  0.31033000  1.0
  H  H63  1  0.46425000  0.23011000  0.81033000  1.0
  C  C64  1  0.92883000  0.14953000  0.54146000  1.0
  C  C65  1  0.07118000  0.35048000  0.04146000  1.0
  C  C66  1  0.07117000  0.85048000  0.45854000  1.0
  C  C67  1  0.92883000  0.64953000  0.95854000  1.0
  C  C68  1  0.60879000  0.13299000  0.58431000  1.0
  C  C69  1  0.39122000  0.36702000  0.08431000  1.0
  C  C70  1  0.39121000  0.86702000  0.41569000  1.0
  C  C71  1  0.60879000  0.63298000  0.91569000  1.0
  C  C72  1  0.22099000  0.25643000  0.61452000  1.0
  C  C73  1  0.77902000  0.24357000  0.11452000  1.0
  C  C74  1  0.77901000  0.74357000  0.38548000  1.0
  C  C75  1  0.22099000  0.75643000  0.88548000  1.0
  C  C76  1  0.71720000  0.75681000  0.65976000  1.0
  C  C77  1  0.28279000  0.74318000  0.15976000  1.0
  C  C78  1  0.28279000  0.24318000  0.34025000  1.0
  C  C79  1  0.71721000  0.25682000  0.84024000  1.0
  C  C80  1  0.89695000  0.81362000  0.67417000  1.0
  C  C81  1  0.10304000  0.68637000  0.17417000  1.0
  C  C82  1  0.10305000  0.18637000  0.32583000  1.0
  C  C83  1  0.89695000  0.31363000  0.82583000  1.0
  C  C84  1  0.02358000  0.78750000  0.63516000  1.0
  C  C85  1  0.97641000  0.71250000  0.13515000  1.0
  C  C86  1  0.97643000  0.21250000  0.36484000  1.0
  C  C87  1  0.02358000  0.28750000  0.86484000  1.0
  C  C88  1  0.19462000  0.84278000  0.65276000  1.0
  C  C89  1  0.80538000  0.65723000  0.15276000  1.0
  C  C90  1  0.80538000  0.15721000  0.34724000  1.0
  C  C91  1  0.19462000  0.34278000  0.84724000  1.0
  C  C92  1  0.24867000  0.93091000  0.70936000  1.0
  C  C93  1  0.75133000  0.56909000  0.20936000  1.0
  C  C94  1  0.75134000  0.06909000  0.29064000  1.0
  C  C95  1  0.24867000  0.43091000  0.79064000  1.0
  C  C96  1  0.12915000  0.95771000  0.74850000  1.0
  C  C97  1  0.87085000  0.54230000  0.24850000  1.0
  C  C98  1  0.87084000  0.04229000  0.25150000  1.0
  C  C99  1  0.12916000  0.45771000  0.75150000  1.0
  C  C100  1  0.95139000  0.89830000  0.73286000  1.0
  C  C101  1  0.04860000  0.60169000  0.23286000  1.0
  C  C102  1  0.04861000  0.10170000  0.26714000  1.0
  C  C103  1  0.95140000  0.39830000  0.76714000  1.0
  C  C104  1  0.82765000  0.91964000  0.77453000  1.0
  C  C105  1  0.17235000  0.58036000  0.27453000  1.0
  C  C106  1  0.17236000  0.08036000  0.22547000  1.0
  C  C107  1  0.82764000  0.41963000  0.72547000  1.0
  C  C108  1  0.65529000  0.85936000  0.75962000  1.0
  C  C109  1  0.34470000  0.64063000  0.25962000  1.0
  C  C110  1  0.34471000  0.14063000  0.24039000  1.0
  C  C111  1  0.65530000  0.35936000  0.74038000  1.0
  C  C112  1  0.60017000  0.77758000  0.70197000  1.0
  C  C113  1  0.39982000  0.72242000  0.20197000  1.0
  C  C114  1  0.39983000  0.22242000  0.29803000  1.0
  C  C115  1  0.60017000  0.27758000  0.79803000  1.0
  S  S116  1  0.73289000  0.16478000  0.51262000  1.0
  S  S117  1  0.26711000  0.33523000  0.01262000  1.0
  S  S118  1  0.26711000  0.83522000  0.48738000  1.0
  S  S119  1  0.73289000  0.66478000  0.98738000  1.0
  S  S120  1  0.04980000  0.32309000  0.58930000  1.0
  S  S121  1  0.95021000  0.17691000  0.08930000  1.0
  S  S122  1  0.95021000  0.67691000  0.41071000  1.0
  S  S123  1  0.04980000  0.82309000  0.91071000  1.0
  S  S124  1  0.63599000  0.66006000  0.58614000  1.0
  S  S125  1  0.36401000  0.83994000  0.08614000  1.0
  S  S126  1  0.36401000  0.33994000  0.41386000  1.0
  S  S127  1  0.63599000  0.16006000  0.91386000  1.0
  O  O128  1  0.68338000  0.51375000  0.58345000  1.0
  O  O129  1  0.31662000  0.98625000  0.08346000  1.0
  O  O130  1  0.31662000  0.48625000  0.41655000  1.0
  O  O131  1  0.68338000  0.01375000  0.91655000  1.0
  O  O132  1  0.72068000  0.77875000  0.53690000  1.0
  O  O133  1  0.27932000  0.72125000  0.03690000  1.0
  O  O134  1  0.27932000  0.22125000  0.46310000  1.0
  O  O135  1  0.72067000  0.27875000  0.96310000  1.0
  O  O136  1  0.44906000  0.62213000  0.58959000  1.0
  O  O137  1  0.55094000  0.87788000  0.08960000  1.0
  O  O138  1  0.55094000  0.37788000  0.41041000  1.0
  O  O139  1  0.44906000  0.12213000  0.91040000  1.0
