# generated using pymatgen
data_ZnH8C6N8O
_symmetry_space_group_name_H-M   'P 1'
_cell_length_a   13.07770000
_cell_length_b   15.12330000
_cell_length_c   15.12200000
_cell_angle_alpha   112.04400000
_cell_angle_beta   106.74800000
_cell_angle_gamma   106.76200000
_symmetry_Int_Tables_number   1
_chemical_formula_structural   ZnH8C6N8O
_chemical_formula_sum   'Zn6 H48 C36 N48 O6'
_cell_volume   2374.89673920
_cell_formula_units_Z   6
loop_
 _symmetry_equiv_pos_site_id
 _symmetry_equiv_pos_as_xyz
  1  'x, y, z'
loop_
 _atom_site_type_symbol
 _atom_site_label
 _atom_site_symmetry_multiplicity
 _atom_site_fract_x
 _atom_site_fract_y
 _atom_site_fract_z
 _atom_site_occupancy
  Zn  Zn0  1  0.77434000  0.52174000  0.80908000  1.0
  Zn  Zn1  1  0.25262000  0.28737000  0.47827000  1.0
  Zn  Zn2  1  0.96522000  0.19090000  0.71265000  1.0
  Zn  Zn3  1  0.22566000  0.47826000  0.19092000  1.0
  Zn  Zn4  1  0.74738000  0.71263000  0.52173000  1.0
  Zn  Zn5  1  0.03478000  0.80910000  0.28735000  1.0
  H  H6  1  0.98491000  0.47949000  0.71805000  1.0
  H  H7  1  0.50535000  0.23863000  0.52053000  1.0
  H  H8  1  0.26673000  0.28198000  0.76145000  1.0
  H  H9  1  0.01509000  0.52051000  0.28195000  1.0
  H  H10  1  0.49465000  0.76137000  0.47947000  1.0
  H  H11  1  0.73327000  0.71802000  0.23855000  1.0
  H  H12  1  0.06059000  0.40941000  0.75454000  1.0
  H  H13  1  0.65117000  0.34516000  0.59060000  1.0
  H  H14  1  0.30604000  0.24553000  0.65493000  1.0
  H  H15  1  0.93941000  0.59059000  0.24546000  1.0
  H  H16  1  0.34883000  0.65484000  0.40940000  1.0
  H  H17  1  0.69396000  0.75447000  0.34507000  1.0
  H  H18  1  0.10148000  0.52080000  0.94751000  1.0
  H  H19  1  0.58070000  0.42677000  0.47920000  1.0
  H  H20  1  0.15400000  0.05253000  0.57330000  1.0
  H  H21  1  0.89852000  0.47920000  0.05249000  1.0
  H  H22  1  0.41930000  0.57323000  0.52080000  1.0
  H  H23  1  0.84600000  0.94747000  0.42670000  1.0
  H  H24  1  0.17187000  0.59136000  0.89345000  1.0
  H  H25  1  0.58048000  0.30213000  0.40866000  1.0
  H  H26  1  0.27838000  0.10663000  0.69797000  1.0
  H  H27  1  0.82813000  0.40864000  0.10655000  1.0
  H  H28  1  0.41952000  0.69787000  0.59134000  1.0
  H  H29  1  0.72162000  0.89336000  0.30203000  1.0
  H  H30  1  0.17632000  0.75939000  0.01190000  1.0
  H  H31  1  0.41683000  0.25257000  0.24061000  1.0
  H  H32  1  0.16430000  0.98808000  0.74742000  1.0
  H  H33  1  0.82368000  0.24061000  0.98811000  1.0
  H  H34  1  0.58317000  0.74743000  0.75939000  1.0
  H  H35  1  0.83570000  0.01192000  0.25258000  1.0
  H  H36  1  0.12753000  0.68596000  0.07239000  1.0
  H  H37  1  0.44152000  0.38648000  0.31406000  1.0
  H  H38  1  0.05501000  0.92761000  0.61353000  1.0
  H  H39  1  0.87247000  0.31404000  0.92761000  1.0
  H  H40  1  0.55848000  0.61352000  0.68594000  1.0
  H  H41  1  0.94499000  0.07239000  0.38647000  1.0
  H  H42  1  0.07783000  0.84104000  0.10786000  1.0
  H  H43  1  0.23672000  0.26687000  0.15901000  1.0
  H  H44  1  0.96994000  0.89212000  0.73321000  1.0
  H  H45  1  0.92217000  0.15896000  0.89214000  1.0
  H  H46  1  0.76328000  0.73313000  0.84099000  1.0
  H  H47  1  0.03006000  0.10788000  0.26679000  1.0
  H  H48  1  0.98885000  0.78190000  0.96852000  1.0
  H  H49  1  0.20688000  0.18668000  0.21816000  1.0
  H  H50  1  0.02027000  0.03145000  0.81340000  1.0
  H  H51  1  0.01115000  0.21810000  0.03148000  1.0
  H  H52  1  0.79312000  0.81332000  0.78184000  1.0
  H  H53  1  0.97973000  0.96855000  0.18660000  1.0
  C  C54  1  0.89495000  0.37399000  0.76094000  1.0
  C  C55  1  0.52098000  0.38701000  0.62605000  1.0
  C  C56  1  0.13398000  0.23908000  0.61303000  1.0
  C  C57  1  0.10505000  0.62601000  0.23906000  1.0
  C  C58  1  0.47902000  0.61299000  0.37395000  1.0
  C  C59  1  0.86602000  0.76092000  0.38697000  1.0
  C  C60  1  0.00744000  0.45098000  0.77466000  1.0
  C  C61  1  0.55646000  0.32376000  0.54905000  1.0
  C  C62  1  0.23272000  0.22536000  0.67632000  1.0
  C  C63  1  0.99256000  0.54903000  0.22533000  1.0
  C  C64  1  0.44354000  0.67624000  0.45095000  1.0
  C  C65  1  0.76728000  0.77464000  0.32368000  1.0
  C  C66  1  0.08457000  0.54614000  0.88721000  1.0
  C  C67  1  0.53842000  0.34112000  0.45387000  1.0
  C  C68  1  0.19731000  0.11282000  0.65895000  1.0
  C  C69  1  0.91543000  0.45386000  0.11279000  1.0
  C  C70  1  0.46158000  0.65888000  0.54613000  1.0
  C  C71  1  0.80269000  0.88718000  0.34105000  1.0
  C  C72  1  0.09640000  0.70655000  0.01040000  1.0
  C  C73  1  0.38979000  0.30392000  0.29348000  1.0
  C  C74  1  0.08589000  0.98958000  0.69610000  1.0
  C  C75  1  0.90360000  0.29346000  0.98960000  1.0
  C  C76  1  0.61021000  0.69608000  0.70652000  1.0
  C  C77  1  0.91411000  0.01042000  0.30390000  1.0
  C  C78  1  0.02082000  0.76464000  0.03296000  1.0
  C  C79  1  0.25611000  0.26836000  0.23540000  1.0
  C  C80  1  0.98780000  0.96701000  0.73170000  1.0
  C  C81  1  0.97918000  0.23536000  0.96704000  1.0
  C  C82  1  0.74389000  0.73164000  0.76460000  1.0
  C  C83  1  0.01220000  0.03299000  0.26830000  1.0
  C  C84  1  0.91730000  0.70225000  0.04235000  1.0
  C  C85  1  0.21499000  0.34015000  0.29779000  1.0
  C  C86  1  0.87487000  0.95761000  0.65994000  1.0
  C  C87  1  0.08270000  0.29775000  0.95765000  1.0
  C  C88  1  0.78501000  0.65985000  0.70221000  1.0
  C  C89  1  0.12513000  0.04239000  0.34006000  1.0
  N  N90  1  0.80595000  0.39462000  0.77552000  1.0
  N  N91  1  0.41135000  0.38096000  0.60541000  1.0
  N  N92  1  0.03038000  0.22448000  0.61906000  1.0
  N  N93  1  0.19405000  0.60538000  0.22448000  1.0
  N  N94  1  0.58865000  0.61904000  0.39459000  1.0
  N  N95  1  0.96962000  0.77552000  0.38094000  1.0
  N  N96  1  0.72099000  0.30243000  0.75554000  1.0
  N  N97  1  0.41858000  0.45316000  0.69761000  1.0
  N  N98  1  0.96542000  0.24443000  0.54682000  1.0
  N  N99  1  0.27901000  0.69757000  0.24446000  1.0
  N  N100  1  0.58141000  0.54684000  0.30239000  1.0
  N  N101  1  0.03458000  0.75557000  0.45318000  1.0
  N  N102  1  0.75681000  0.22891000  0.72988000  1.0
  N  N103  1  0.52792000  0.50101000  0.77113000  1.0
  N  N104  1  0.02693000  0.27010000  0.49898000  1.0
  N  N105  1  0.24319000  0.77109000  0.27012000  1.0
  N  N106  1  0.47208000  0.49899000  0.22887000  1.0
  N  N107  1  0.97307000  0.72990000  0.50102000  1.0
  N  N108  1  0.86524000  0.27123000  0.73231000  1.0
  N  N109  1  0.59404000  0.46114000  0.72881000  1.0
  N  N110  1  0.13293000  0.26768000  0.53888000  1.0
  N  N111  1  0.13476000  0.72877000  0.26769000  1.0
  N  N112  1  0.40596000  0.53886000  0.27119000  1.0
  N  N113  1  0.86707000  0.73232000  0.46112000  1.0
  N  N114  1  0.81867000  0.61424000  0.96184000  1.0
  N  N115  1  0.20439000  0.34766000  0.38582000  1.0
  N  N116  1  0.85678000  0.03813000  0.65245000  1.0
  N  N117  1  0.18133000  0.38576000  0.03816000  1.0
  N  N118  1  0.79561000  0.65234000  0.61418000  1.0
  N  N119  1  0.14322000  0.96187000  0.34755000  1.0
  N  N120  1  0.74918000  0.57965000  0.00525000  1.0
  N  N121  1  0.16952000  0.42567000  0.42042000  1.0
  N  N122  1  0.74392000  0.99473000  0.57440000  1.0
  N  N123  1  0.25082000  0.42035000  0.99475000  1.0
  N  N124  1  0.83048000  0.57433000  0.57958000  1.0
  N  N125  1  0.25608000  0.00527000  0.42560000  1.0
  N  N126  1  0.80311000  0.64415000  0.10756000  1.0
  N  N127  1  0.15892000  0.46346000  0.35590000  1.0
  N  N128  1  0.69552000  0.89242000  0.53658000  1.0
  N  N129  1  0.19689000  0.35585000  0.89244000  1.0
  N  N130  1  0.84108000  0.53654000  0.64410000  1.0
  N  N131  1  0.30448000  0.10758000  0.46342000  1.0
  N  N132  1  0.90880000  0.72232000  0.13345000  1.0
  N  N133  1  0.18641000  0.41116000  0.27772000  1.0
  N  N134  1  0.77527000  0.86651000  0.58888000  1.0
  N  N135  1  0.09120000  0.27768000  0.86655000  1.0
  N  N136  1  0.81359000  0.58884000  0.72228000  1.0
  N  N137  1  0.22473000  0.13349000  0.41112000  1.0
  O  O138  1  0.02586000  0.61275000  0.90829000  1.0
  O  O139  1  0.41308000  0.29561000  0.38728000  1.0
  O  O140  1  0.11744000  0.09169000  0.70441000  1.0
  O  O141  1  0.97415000  0.38725000  0.09171000  1.0
  O  O142  1  0.58692000  0.70439000  0.61272000  1.0
  O  O143  1  0.88256000  0.90831000  0.29559000  1.0
