# generated using pymatgen
data_MnH16C26(NO2)2
_symmetry_space_group_name_H-M   'P 1'
_cell_length_a   7.07985000
_cell_length_b   11.69000000
_cell_length_c   14.48248995
_cell_angle_alpha   113.78779698
_cell_angle_beta   103.02410442
_cell_angle_gamma   90.04040000
_symmetry_Int_Tables_number   1
_chemical_formula_structural   MnH16C26(NO2)2
_chemical_formula_sum   'Mn2 H32 C52 N4 O8'
_cell_volume   1062.92201223
_cell_formula_units_Z   2
loop_
 _symmetry_equiv_pos_site_id
 _symmetry_equiv_pos_as_xyz
  1  'x, y, z'
loop_
 _atom_site_type_symbol
 _atom_site_label
 _atom_site_symmetry_multiplicity
 _atom_site_fract_x
 _atom_site_fract_y
 _atom_site_fract_z
 _atom_site_occupancy
  Mn  Mn0  1  0.25004000  0.61939000  0.99996000  1.0
  Mn  Mn1  1  0.74994000  0.38059000  0.00000000  1.0
  H  H2  1  0.95330000  0.57997000  0.78170000  1.0
  H  H3  1  0.54667000  0.79855000  0.21861000  1.0
  H  H4  1  0.04673000  0.42005000  0.21828000  1.0
  H  H5  1  0.45329000  0.20146000  0.78141000  1.0
  H  H6  1  0.83098000  0.70623000  0.67899000  1.0
  H  H7  1  0.66888000  0.02755000  0.32131000  1.0
  H  H8  1  0.16904000  0.29381000  0.32101000  1.0
  H  H9  1  0.33108000  0.97245000  0.67872000  1.0
  H  H10  1  0.94601000  0.93721000  0.75728000  1.0
  H  H11  1  0.55419000  0.18009000  0.24288000  1.0
  H  H12  1  0.05401000  0.06282000  0.24275000  1.0
  H  H13  1  0.44579000  0.81992000  0.75715000  1.0
  H  H14  1  0.13607000  0.12851000  0.91408000  1.0
  H  H15  1  0.36416000  0.21453000  0.08608000  1.0
  H  H16  1  0.86393000  0.87150000  0.08594000  1.0
  H  H17  1  0.63587000  0.78547000  0.91394000  1.0
  H  H18  1  0.21781000  0.35180000  0.70871000  1.0
  H  H19  1  0.28215000  0.64321000  0.29140000  1.0
  H  H20  1  0.78219000  0.64812000  0.29122000  1.0
  H  H21  1  0.71782000  0.35684000  0.70862000  1.0
  H  H22  1  0.20527000  0.18242000  0.53819000  1.0
  H  H23  1  0.29499000  0.64426000  0.46192000  1.0
  H  H24  1  0.79466000  0.81746000  0.46173000  1.0
  H  H25  1  0.70501000  0.35580000  0.53811000  1.0
  H  H26  1  0.80057000  0.95532000  0.59471000  1.0
  H  H27  1  0.69891000  0.36062000  0.40510000  1.0
  H  H28  1  0.19948000  0.04458000  0.40528000  1.0
  H  H29  1  0.30115000  0.63947000  0.59494000  1.0
  H  H30  1  0.82906000  0.12466000  0.76888000  1.0
  H  H31  1  0.67042000  0.35605000  0.23100000  1.0
  H  H32  1  0.17095000  0.87530000  0.23110000  1.0
  H  H33  1  0.32958000  0.64401000  0.76902000  1.0
  C  C34  1  0.99826000  0.68027000  0.81235000  1.0
  C  C35  1  0.50189000  0.86811000  0.18786000  1.0
  C  C36  1  0.00174000  0.31975000  0.18764000  1.0
  C  C37  1  0.49809000  0.13188000  0.81216000  1.0
  C  C38  1  0.93191000  0.75185000  0.75548000  1.0
  C  C39  1  0.56826000  0.99658000  0.24473000  1.0
  C  C40  1  0.06810000  0.24817000  0.24452000  1.0
  C  C41  1  0.43171000  0.00342000  0.75529000  1.0
  C  C42  1  0.99412000  0.87876000  0.79888000  1.0
  C  C43  1  0.50621000  0.08003000  0.20125000  1.0
  C  C44  1  0.00589000  0.12127000  0.20114000  1.0
  C  C45  1  0.49378000  0.91998000  0.79878000  1.0
  C  C46  1  0.12128000  0.93471000  0.89933000  1.0
  C  C47  1  0.37910000  0.03545000  0.10078000  1.0
  C  C48  1  0.87872000  0.06530000  0.10069000  1.0
  C  C49  1  0.62089000  0.96455000  0.89924000  1.0
  C  C50  1  0.18345000  0.85396000  0.94934000  1.0
  C  C51  1  0.31686000  0.90470000  0.05081000  1.0
  C  C52  1  0.81656000  0.14605000  0.05068000  1.0
  C  C53  1  0.68312000  0.09529000  0.94919000  1.0
  C  C54  1  0.18776000  0.06612000  0.95162000  1.0
  C  C55  1  0.31251000  0.11459000  0.04853000  1.0
  C  C56  1  0.81225000  0.93389000  0.04840000  1.0
  C  C57  1  0.68749000  0.88542000  0.95149000  1.0
  C  C58  1  0.04342000  0.35073000  0.85817000  1.0
  C  C59  1  0.45637000  0.49277000  0.14180000  1.0
  C  C60  1  0.95659000  0.64922000  0.14179000  1.0
  C  C61  1  0.54361000  0.50724000  0.85820000  1.0
  C  C62  1  0.02770000  0.24873000  0.75166000  1.0
  C  C63  1  0.47193000  0.49721000  0.24829000  1.0
  C  C64  1  0.97230000  0.75121000  0.24829000  1.0
  C  C65  1  0.52805000  0.50284000  0.75173000  1.0
  C  C66  1  0.12885000  0.26367000  0.68373000  1.0
  C  C67  1  0.37098000  0.58000000  0.31628000  1.0
  C  C68  1  0.87114000  0.73625000  0.31621000  1.0
  C  C69  1  0.62903000  0.42005000  0.68374000  1.0
  C  C70  1  0.11964000  0.16701000  0.58671000  1.0
  C  C71  1  0.38036000  0.58033000  0.41332000  1.0
  C  C72  1  0.88033000  0.83289000  0.41323000  1.0
  C  C73  1  0.61966000  0.41975000  0.58671000  1.0
  C  C74  1  0.00426000  0.05184000  0.55140000  1.0
  C  C75  1  0.49563000  0.50046000  0.44857000  1.0
  C  C76  1  0.99574000  0.94806000  0.44858000  1.0
  C  C77  1  0.50442000  0.49961000  0.55146000  1.0
  C  C78  1  0.89690000  0.04045000  0.61893000  1.0
  C  C79  1  0.60263000  0.42151000  0.38094000  1.0
  C  C80  1  0.10311000  0.95946000  0.38105000  1.0
  C  C81  1  0.39742000  0.57857000  0.61909000  1.0
  C  C82  1  0.91075000  0.13567000  0.71718000  1.0
  C  C83  1  0.58876000  0.41861000  0.28272000  1.0
  C  C84  1  0.08925000  0.86428000  0.28280000  1.0
  C  C85  1  0.41126000  0.58144000  0.71731000  1.0
  N  N86  1  0.12198000  0.72966000  0.90581000  1.0
  N  N87  1  0.37832000  0.82396000  0.09436000  1.0
  N  N88  1  0.87802000  0.27036000  0.09420000  1.0
  N  N89  1  0.62166000  0.17604000  0.90565000  1.0
  O  O90  1  0.11112000  0.45984000  0.87292000  1.0
  O  O91  1  0.38878000  0.58713000  0.12710000  1.0
  O  O92  1  0.88893000  0.54011000  0.12702000  1.0
  O  O93  1  0.61116000  0.41289000  0.87290000  1.0
  O  O94  1  0.99015000  0.32236000  0.92496000  1.0
  O  O95  1  0.50964000  0.39770000  0.07500000  1.0
  O  O96  1  0.00987000  0.67762000  0.07499000  1.0
  O  O97  1  0.49033000  0.60234000  0.92502000  1.0
