# generated using pymatgen
data_CdH5C3SNO2
_symmetry_space_group_name_H-M   'P 1'
_cell_length_a   5.62436000
_cell_length_b   9.55269000
_cell_length_c   9.57104000
_cell_angle_alpha   90.00020000
_cell_angle_beta   89.99960000
_cell_angle_gamma   89.99950000
_symmetry_Int_Tables_number   1
_chemical_formula_structural   CdH5C3SNO2
_chemical_formula_sum   'Cd4 H20 C12 S4 N4 O8'
_cell_volume   514.23061209
_cell_formula_units_Z   4
loop_
 _symmetry_equiv_pos_site_id
 _symmetry_equiv_pos_as_xyz
  1  'x, y, z'
loop_
 _atom_site_type_symbol
 _atom_site_label
 _atom_site_symmetry_multiplicity
 _atom_site_fract_x
 _atom_site_fract_y
 _atom_site_fract_z
 _atom_site_occupancy
  Cd  Cd0  1  0.85936000  0.33527000  0.41147000  1.0
  Cd  Cd1  1  0.64063000  0.66473000  0.91147000  1.0
  Cd  Cd2  1  0.35936000  0.16475000  0.58852000  1.0
  Cd  Cd3  1  0.14064000  0.83526000  0.08853000  1.0
  H  H4  1  0.44475000  0.51040000  0.60574000  1.0
  H  H5  1  0.05525000  0.48959000  0.10574000  1.0
  H  H6  1  0.94475000  0.98961000  0.39425000  1.0
  H  H7  1  0.55526000  0.01039000  0.89425000  1.0
  H  H8  1  0.50365000  0.60005000  0.44603000  1.0
  H  H9  1  0.99635000  0.39994000  0.94603000  1.0
  H  H10  1  0.00365000  0.89996000  0.55396000  1.0
  H  H11  1  0.49635000  0.10004000  0.05397000  1.0
  H  H12  1  0.16151000  0.69741000  0.56960000  1.0
  H  H13  1  0.33849000  0.30259000  0.06960000  1.0
  H  H14  1  0.66150000  0.80261000  0.43039000  1.0
  H  H15  1  0.83849000  0.19739000  0.93039000  1.0
  H  H16  1  0.81759000  0.56899000  0.60293000  1.0
  H  H17  1  0.68241000  0.43100000  0.10293000  1.0
  H  H18  1  0.31759000  0.93101000  0.39707000  1.0
  H  H19  1  0.18241000  0.06899000  0.89708000  1.0
  H  H20  1  0.02822000  0.46932000  0.66399000  1.0
  H  H21  1  0.47177000  0.53067000  0.16398000  1.0
  H  H22  1  0.52821000  0.03070000  0.33601000  1.0
  H  H23  1  0.97180000  0.96931000  0.83603000  1.0
  C  C24  1  0.37943000  0.52979000  0.49961000  1.0
  C  C25  1  0.12057000  0.47020000  0.99961000  1.0
  C  C26  1  0.87943000  0.97023000  0.50039000  1.0
  C  C27  1  0.62058000  0.02978000  0.00039000  1.0
  C  C28  1  0.13688000  0.60129000  0.50758000  1.0
  C  C29  1  0.36313000  0.39871000  0.00757000  1.0
  C  C30  1  0.63686000  0.89873000  0.49242000  1.0
  C  C31  1  0.86313000  0.10128000  0.99242000  1.0
  C  C32  1  0.05688000  0.64475000  0.36008000  1.0
  C  C33  1  0.44312000  0.35525000  0.86008000  1.0
  C  C34  1  0.55690000  0.85525000  0.63993000  1.0
  C  C35  1  0.94311000  0.14475000  0.13994000  1.0
  S  S36  1  0.37722000  0.36483000  0.40246000  1.0
  S  S37  1  0.12277000  0.63516000  0.90246000  1.0
  S  S38  1  0.87723000  0.13518000  0.59753000  1.0
  S  S39  1  0.62277000  0.86482000  0.09754000  1.0
  N  N40  1  0.96091000  0.50964000  0.57312000  1.0
  N  N41  1  0.53908000  0.49036000  0.07312000  1.0
  N  N42  1  0.46090000  0.99037000  0.42688000  1.0
  N  N43  1  0.03911000  0.00964000  0.92690000  1.0
  O  O44  1  0.17028000  0.74970000  0.30994000  1.0
  O  O45  1  0.32973000  0.25027000  0.80994000  1.0
  O  O46  1  0.67028000  0.75031000  0.69006000  1.0
  O  O47  1  0.82970000  0.24970000  0.19005000  1.0
  O  O48  1  0.89842000  0.57541000  0.29758000  1.0
  O  O49  1  0.60157000  0.42459000  0.79758000  1.0
  O  O50  1  0.39846000  0.92460000  0.70242000  1.0
  O  O51  1  0.10153000  0.07542000  0.20243000  1.0
