# generated using pymatgen
data_ZnH11C16NO5
_symmetry_space_group_name_H-M   'P 1'
_cell_length_a   9.73322000
_cell_length_b   10.49290000
_cell_length_c   14.57340000
_cell_angle_alpha   86.98210000
_cell_angle_beta   80.68320000
_cell_angle_gamma   71.58770000
_symmetry_Int_Tables_number   1
_chemical_formula_structural   ZnH11C16NO5
_chemical_formula_sum   'Zn4 H44 C64 N4 O20'
_cell_volume   1393.55342368
_cell_formula_units_Z   4
loop_
 _symmetry_equiv_pos_site_id
 _symmetry_equiv_pos_as_xyz
  1  'x, y, z'
loop_
 _atom_site_type_symbol
 _atom_site_label
 _atom_site_symmetry_multiplicity
 _atom_site_fract_x
 _atom_site_fract_y
 _atom_site_fract_z
 _atom_site_occupancy
  Zn  Zn0  1  0.19261000  0.07234000  0.11585000  1.0
  Zn  Zn1  1  0.80739000  0.92766000  0.88415000  1.0
  Zn  Zn2  1  0.75923000  0.09225000  0.38967000  1.0
  Zn  Zn3  1  0.24077000  0.90775000  0.61033000  1.0
  H  H4  1  0.23656000  0.28331000  0.97983000  1.0
  H  H5  1  0.76343000  0.71669000  0.02016000  1.0
  H  H6  1  0.34284000  0.29745000  0.81347000  1.0
  H  H7  1  0.65716000  0.70254000  0.18653000  1.0
  H  H8  1  0.47386000  0.86395000  0.80422000  1.0
  H  H9  1  0.52614000  0.13605000  0.19578000  1.0
  H  H10  1  0.35236000  0.86818000  0.96884000  1.0
  H  H11  1  0.64763000  0.13182000  0.03116000  1.0
  H  H12  1  0.33384000  0.26478000  0.65196000  1.0
  H  H13  1  0.66616000  0.73521000  0.34804000  1.0
  H  H14  1  0.47398000  0.25364000  0.49145000  1.0
  H  H15  1  0.52603000  0.74635000  0.50855000  1.0
  H  H16  1  0.78768000  0.90056000  0.55049000  1.0
  H  H17  1  0.21232000  0.09943000  0.44952000  1.0
  H  H18  1  0.66069000  0.89488000  0.71157000  1.0
  H  H19  1  0.33930000  0.10511000  0.28843000  1.0
  H  H20  1  0.09884000  0.37267000  0.39515000  1.0
  H  H21  1  0.90115000  0.62733000  0.60484000  1.0
  H  H22  1  0.02482000  0.60853000  0.45316000  1.0
  H  H23  1  0.97518000  0.39147000  0.54684000  1.0
  H  H24  1  0.94562000  0.75475000  0.17989000  1.0
  H  H25  1  0.05438000  0.24526000  0.82011000  1.0
  H  H26  1  0.14066000  0.64589000  0.03755000  1.0
  H  H27  1  0.85934000  0.35411000  0.96245000  1.0
  H  H28  1  0.12658000  0.61091000  0.87436000  1.0
  H  H29  1  0.87342000  0.38909000  0.12564000  1.0
  H  H30  1  0.32410000  0.73123000  0.32427000  1.0
  H  H31  1  0.67590000  0.26878000  0.67574000  1.0
  H  H32  1  0.39877000  0.57835000  0.04713000  1.0
  H  H33  1  0.60123000  0.42166000  0.95287000  1.0
  H  H34  1  0.57445000  0.36486000  0.09636000  1.0
  H  H35  1  0.42555000  0.63514000  0.90364000  1.0
  H  H36  1  0.25306000  0.58041000  0.45385000  1.0
  H  H37  1  0.74694000  0.41960000  0.54615000  1.0
  H  H38  1  0.27735000  0.55892000  0.61968000  1.0
  H  H39  1  0.72265000  0.44108000  0.38032000  1.0
  H  H40  1  0.93231000  0.17438000  0.47720000  1.0
  H  H41  1  0.06770000  0.82562000  0.52280000  1.0
  H  H42  1  0.96308000  0.20378000  0.36642000  1.0
  H  H43  1  0.03692000  0.79622000  0.63358000  1.0
  H  H44  1  0.99385000  0.98041000  0.10531000  1.0
  H  H45  1  0.00616000  0.01958000  0.89469000  1.0
  H  H46  1  0.90196000  0.12555000  0.15257000  1.0
  H  H47  1  0.09804000  0.87444000  0.84742000  1.0
  C  C48  1  0.28838000  0.19318000  0.93759000  1.0
  C  C49  1  0.71162000  0.80682000  0.06241000  1.0
  C  C50  1  0.34750000  0.19986000  0.84470000  1.0
  C  C51  1  0.65250000  0.80014000  0.15530000  1.0
  C  C52  1  0.41604000  0.08081000  0.79389000  1.0
  C  C53  1  0.58396000  0.91918000  0.20611000  1.0
  C  C54  1  0.42163000  0.95921000  0.84017000  1.0
  C  C55  1  0.57836000  0.04079000  0.15983000  1.0
  C  C56  1  0.35663000  0.96025000  0.93202000  1.0
  C  C57  1  0.64337000  0.03975000  0.06797000  1.0
  C  C58  1  0.48561000  0.07974000  0.69622000  1.0
  C  C59  1  0.51440000  0.92026000  0.30378000  1.0
  C  C60  1  0.43342000  0.18145000  0.63257000  1.0
  C  C61  1  0.56659000  0.81854000  0.36742000  1.0
  C  C62  1  0.51030000  0.17627000  0.54295000  1.0
  C  C63  1  0.48970000  0.82372000  0.45705000  1.0
  C  C64  1  0.68503000  0.97724000  0.57552000  1.0
  C  C65  1  0.31498000  0.02276000  0.42448000  1.0
  C  C66  1  0.61267000  0.97483000  0.66507000  1.0
  C  C67  1  0.38734000  0.02516000  0.33493000  1.0
  C  C68  1  0.11381000  0.28731000  0.22654000  1.0
  C  C69  1  0.88618000  0.71270000  0.77346000  1.0
  C  C70  1  0.06417000  0.43142000  0.25508000  1.0
  C  C71  1  0.93583000  0.56858000  0.74492000  1.0
  C  C72  1  0.06458000  0.45750000  0.34841000  1.0
  C  C73  1  0.93542000  0.54250000  0.65159000  1.0
  C  C74  1  0.02502000  0.58821000  0.38064000  1.0
  C  C75  1  0.97498000  0.41179000  0.61936000  1.0
  C  C76  1  0.98279000  0.69627000  0.31959000  1.0
  C  C77  1  0.01720000  0.30373000  0.68041000  1.0
  C  C78  1  0.98074000  0.67052000  0.22661000  1.0
  C  C79  1  0.01925000  0.32948000  0.77339000  1.0
  C  C80  1  0.02101000  0.53911000  0.19228000  1.0
  C  C81  1  0.97899000  0.46090000  0.80771000  1.0
  C  C82  1  0.01071000  0.51834000  0.09385000  1.0
  C  C83  1  0.98929000  0.48166000  0.90614000  1.0
  C  C84  1  0.07947000  0.58116000  0.02141000  1.0
  C  C85  1  0.92053000  0.41884000  0.97859000  1.0
  C  C86  1  0.06975000  0.56229000  0.92896000  1.0
  C  C87  1  0.93025000  0.43771000  0.07104000  1.0
  C  C88  1  0.93370000  0.83618000  0.35748000  1.0
  C  C89  1  0.06629000  0.16382000  0.64252000  1.0
  C  C90  1  0.64620000  0.29229000  0.26223000  1.0
  C  C91  1  0.35379000  0.70771000  0.73778000  1.0
  C  C92  1  0.54120000  0.42489000  0.23876000  1.0
  C  C93  1  0.45879000  0.57512000  0.76124000  1.0
  C  C94  1  0.46684000  0.52683000  0.30527000  1.0
  C  C95  1  0.53316000  0.47317000  0.69473000  1.0
  C  C96  1  0.37650000  0.64924000  0.27488000  1.0
  C  C97  1  0.62350000  0.35077000  0.72512000  1.0
  C  C98  1  0.35410000  0.66945000  0.18215000  1.0
  C  C99  1  0.64590000  0.33055000  0.81785000  1.0
  C  C100  1  0.42062000  0.56425000  0.11845000  1.0
  C  C101  1  0.57938000  0.43575000  0.88155000  1.0
  C  C102  1  0.51652000  0.44515000  0.14628000  1.0
  C  C103  1  0.48348000  0.55485000  0.85373000  1.0
  C  C104  1  0.26838000  0.80339000  0.14747000  1.0
  C  C105  1  0.73162000  0.19662000  0.85253000  1.0
  C  C106  1  0.48525000  0.51174000  0.40457000  1.0
  C  C107  1  0.51475000  0.48826000  0.59544000  1.0
  C  C108  1  0.36167000  0.54516000  0.47398000  1.0
  C  C109  1  0.63833000  0.45484000  0.52603000  1.0
  C  C110  1  0.37586000  0.53293000  0.56778000  1.0
  C  C111  1  0.62414000  0.46707000  0.43222000  1.0
  N  N112  1  0.29112000  0.07527000  0.98049000  1.0
  N  N113  1  0.70888000  0.92473000  0.01951000  1.0
  N  N114  1  0.63564000  0.07669000  0.51496000  1.0
  N  N115  1  0.36436000  0.92330000  0.48504000  1.0
  O  O116  1  0.08054000  0.20001000  0.28079000  1.0
  O  O117  1  0.91946000  0.79999000  0.71921000  1.0
  O  O118  1  0.19415000  0.25457000  0.14684000  1.0
  O  O119  1  0.80585000  0.74543000  0.85316000  1.0
  O  O120  1  0.96727000  0.85818000  0.43386000  1.0
  O  O121  1  0.03273000  0.14182000  0.56614000  1.0
  O  O122  1  0.85067000  0.92933000  0.31109000  1.0
  O  O123  1  0.14933000  0.07068000  0.68891000  1.0
  O  O124  1  0.60258000  0.22934000  0.33364000  1.0
  O  O125  1  0.39742000  0.77066000  0.66637000  1.0
  O  O126  1  0.76754000  0.25012000  0.21028000  1.0
  O  O127  1  0.23246000  0.74987000  0.78972000  1.0
  O  O128  1  0.28100000  0.90766000  0.18510000  1.0
  O  O129  1  0.71900000  0.09234000  0.81490000  1.0
  O  O130  1  0.19544000  0.81024000  0.08266000  1.0
  O  O131  1  0.80455000  0.18976000  0.91734000  1.0
  O  O132  1  0.98568000  0.07573000  0.10508000  1.0
  O  O133  1  0.01432000  0.92427000  0.89492000  1.0
  O  O134  1  0.88535000  0.19669000  0.42029000  1.0
  O  O135  1  0.11465000  0.80331000  0.57971000  1.0
