# generated using pymatgen
data_Cd3H16C16S2N4O15
_symmetry_space_group_name_H-M   'P 1'
_cell_length_a   6.62231000
_cell_length_b   13.10150000
_cell_length_c   13.59330000
_cell_angle_alpha   104.25100000
_cell_angle_beta   96.63260000
_cell_angle_gamma   97.66310000
_symmetry_Int_Tables_number   1
_chemical_formula_structural   Cd3H16C16S2N4O15
_chemical_formula_sum   'Cd6 H32 C32 S4 N8 O30'
_cell_volume   1119.29417272
_cell_formula_units_Z   2
loop_
 _symmetry_equiv_pos_site_id
 _symmetry_equiv_pos_as_xyz
  1  'x, y, z'
loop_
 _atom_site_type_symbol
 _atom_site_label
 _atom_site_symmetry_multiplicity
 _atom_site_fract_x
 _atom_site_fract_y
 _atom_site_fract_z
 _atom_site_occupancy
  Cd  Cd0  1  0.60789000  0.48006000  0.36952000  1.0
  Cd  Cd1  1  0.39211000  0.51994000  0.63048000  1.0
  Cd  Cd2  1  0.84544000  0.24382000  0.31311000  1.0
  Cd  Cd3  1  0.15456000  0.75618000  0.68689000  1.0
  Cd  Cd4  1  0.17596000  0.31965000  0.10819000  1.0
  Cd  Cd5  1  0.82404000  0.68035000  0.89181000  1.0
  H  H6  1  0.94439000  0.56781000  0.08238000  1.0
  H  H7  1  0.05561000  0.43219000  0.91762000  1.0
  H  H8  1  0.05352000  0.94058000  0.03873000  1.0
  H  H9  1  0.94648000  0.05942000  0.96126000  1.0
  H  H10  1  0.20556000  0.06513000  0.36763000  1.0
  H  H11  1  0.79444000  0.93487000  0.63237000  1.0
  H  H12  1  0.16121000  0.88002000  0.39233000  1.0
  H  H13  1  0.83879000  0.11998000  0.60767000  1.0
  H  H14  1  0.66932000  0.88523000  0.48321000  1.0
  H  H15  1  0.33068000  0.11478000  0.51679000  1.0
  H  H16  1  0.71685000  0.06415000  0.44603000  1.0
  H  H17  1  0.28315000  0.93585000  0.55397000  1.0
  H  H18  1  0.54630000  0.72315000  0.15919000  1.0
  H  H19  1  0.45370000  0.27684000  0.84081000  1.0
  H  H20  1  0.06056000  0.65920000  0.26982000  1.0
  H  H21  1  0.93944000  0.34080000  0.73019000  1.0
  H  H22  1  0.56132000  0.87075000  0.04039000  1.0
  H  H23  1  0.43868000  0.12925000  0.95961000  1.0
  H  H24  1  0.65360000  0.07969000  0.07938000  1.0
  H  H25  1  0.34639000  0.92030000  0.92062000  1.0
  H  H26  1  0.11189000  0.24878000  0.49205000  1.0
  H  H27  1  0.88811000  0.75122000  0.50795000  1.0
  H  H28  1  0.92017000  0.29531000  0.52442000  1.0
  H  H29  1  0.07982000  0.70469000  0.47558000  1.0
  H  H30  1  0.31845000  0.52575000  0.02651000  1.0
  H  H31  1  0.68155000  0.47426000  0.97349000  1.0
  H  H32  1  0.40591000  0.53629000  0.14425000  1.0
  H  H33  1  0.59409000  0.46371000  0.85575000  1.0
  H  H34  1  0.50183000  0.30397000  0.45552000  1.0
  H  H35  1  0.49817000  0.69602000  0.54448000  1.0
  H  H36  1  0.40567000  0.26472000  0.33832000  1.0
  H  H37  1  0.59433000  0.73528000  0.66168000  1.0
  C  C38  1  0.98470000  0.65357000  0.11217000  1.0
  C  C39  1  0.01530000  0.34643000  0.88783000  1.0
  C  C40  1  0.08082000  0.92745000  0.11477000  1.0
  C  C41  1  0.91918000  0.07255000  0.88523000  1.0
  C  C42  1  0.04832000  0.82474000  0.12813000  1.0
  C  C43  1  0.95168000  0.17526000  0.87187000  1.0
  C  C44  1  0.16564000  0.99547000  0.30194000  1.0
  C  C45  1  0.83436000  0.00453000  0.69806000  1.0
  C  C46  1  0.14141000  0.89366000  0.31632000  1.0
  C  C47  1  0.85859000  0.10634000  0.68368000  1.0
  C  C48  1  0.08522000  0.80881000  0.22800000  1.0
  C  C49  1  0.91478000  0.19119000  0.77200000  1.0
  C  C50  1  0.14001000  0.01321000  0.20306000  1.0
  C  C51  1  0.86000000  0.98679000  0.79694000  1.0
  C  C52  1  0.65220000  0.89093000  0.40431000  1.0
  C  C53  1  0.34780000  0.10907000  0.59569000  1.0
  C  C54  1  0.60397000  0.69087000  0.35042000  1.0
  C  C55  1  0.39603000  0.30913000  0.64958000  1.0
  C  C56  1  0.60785000  0.79467000  0.32447000  1.0
  C  C57  1  0.39215000  0.20533000  0.67553000  1.0
  C  C58  1  0.67695000  0.99043000  0.38464000  1.0
  C  C59  1  0.32305000  0.00957000  0.61536000  1.0
  C  C60  1  0.57943000  0.79621000  0.22134000  1.0
  C  C61  1  0.42057000  0.20379000  0.77866000  1.0
  C  C62  1  0.60223000  0.89614000  0.20211000  1.0
  C  C63  1  0.39778000  0.10386000  0.79789000  1.0
  C  C64  1  0.65432000  0.99253000  0.28161000  1.0
  C  C65  1  0.34568000  0.00747000  0.71839000  1.0
  C  C66  1  0.16867000  0.12506000  0.19378000  1.0
  C  C67  1  0.83133000  0.87494000  0.80622000  1.0
  C  C68  1  0.64121000  0.03370000  0.13536000  1.0
  C  C69  1  0.35879000  0.96630000  0.86464000  1.0
  S  S70  1  0.66073000  0.33419000  0.11407000  1.0
  S  S71  1  0.33926000  0.66581000  0.88593000  1.0
  S  S72  1  0.12721000  0.49425000  0.36325000  1.0
  S  S73  1  0.87279000  0.50576000  0.63676000  1.0
  N  N74  1  0.98139000  0.72505000  0.05776000  1.0
  N  N75  1  0.01861000  0.27496000  0.94224000  1.0
  N  N76  1  0.04592000  0.69983000  0.21383000  1.0
  N  N77  1  0.95409000  0.30017000  0.78617000  1.0
  N  N78  1  0.59393000  0.92632000  0.11136000  1.0
  N  N79  1  0.40607000  0.07368000  0.88864000  1.0
  N  N80  1  0.67722000  0.07708000  0.23693000  1.0
  N  N81  1  0.32278000  0.92292000  0.76307000  1.0
  O  O82  1  0.82465000  0.27476000  0.14983000  1.0
  O  O83  1  0.17535000  0.72524000  0.85017000  1.0
  O  O84  1  0.53311000  0.35981000  0.19994000  1.0
  O  O85  1  0.46688000  0.64019000  0.80006000  1.0
  O  O86  1  0.75989000  0.43101000  0.09173000  1.0
  O  O87  1  0.24010000  0.56899000  0.90827000  1.0
  O  O88  1  0.57281000  0.60430000  0.27841000  1.0
  O  O89  1  0.42719000  0.39570000  0.72159000  1.0
  O  O90  1  0.64105000  0.68911000  0.44501000  1.0
  O  O91  1  0.35894000  0.31089000  0.55499000  1.0
  O  O92  1  0.93229000  0.42961000  0.37929000  1.0
  O  O93  1  0.06771000  0.57039000  0.62072000  1.0
  O  O94  1  0.09455000  0.60625000  0.37635000  1.0
  O  O95  1  0.90545000  0.39375000  0.62365000  1.0
  O  O96  1  0.17777000  0.45049000  0.26097000  1.0
  O  O97  1  0.82223000  0.54951000  0.73903000  1.0
  O  O98  1  0.51951000  0.26345000  0.02353000  1.0
  O  O99  1  0.48049000  0.73655000  0.97647000  1.0
  O  O100  1  0.30003000  0.48833000  0.44234000  1.0
  O  O101  1  0.69997000  0.51167000  0.55766000  1.0
  O  O102  1  0.18352000  0.14159000  0.10661000  1.0
  O  O103  1  0.81648000  0.85841000  0.89339000  1.0
  O  O104  1  0.17428000  0.20225000  0.27545000  1.0
  O  O105  1  0.82571000  0.79775000  0.72455000  1.0
  O  O106  1  0.95863000  0.23342000  0.47508000  1.0
  O  O107  1  0.04137000  0.76658000  0.52492000  1.0
  O  O108  1  0.30573000  0.49368000  0.08446000  1.0
  O  O109  1  0.69427000  0.50632000  0.91554000  1.0
  O  O110  1  0.53790000  0.30067000  0.38569000  1.0
  O  O111  1  0.46210000  0.69933000  0.61431000  1.0
