# generated using pymatgen
data_CuH22C17BrNO3
_symmetry_space_group_name_H-M   'P 1'
_cell_length_a   7.27667000
_cell_length_b   11.46570000
_cell_length_c   11.68100000
_cell_angle_alpha   112.94800000
_cell_angle_beta   89.99950000
_cell_angle_gamma   89.99950000
_symmetry_Int_Tables_number   1
_chemical_formula_structural   CuH22C17BrNO3
_chemical_formula_sum   'Cu2 H44 C34 Br2 N2 O6'
_cell_volume   897.44213914
_cell_formula_units_Z   2
loop_
 _symmetry_equiv_pos_site_id
 _symmetry_equiv_pos_as_xyz
  1  'x, y, z'
loop_
 _atom_site_type_symbol
 _atom_site_label
 _atom_site_symmetry_multiplicity
 _atom_site_fract_x
 _atom_site_fract_y
 _atom_site_fract_z
 _atom_site_occupancy
  Cu  Cu0  1  0.12447000  0.35910000  0.91733000  1.0
  Cu  Cu1  1  0.62446000  0.64090000  0.08267000  1.0
  H  H2  1  0.84229000  0.78263000  0.40688000  1.0
  H  H3  1  0.34229000  0.21735000  0.59311000  1.0
  H  H4  1  0.82921000  0.99818000  0.49839000  1.0
  H  H5  1  0.32920000  0.00180000  0.50160000  1.0
  H  H6  1  0.43302000  0.21064000  0.38596000  1.0
  H  H7  1  0.93300000  0.78935000  0.61404000  1.0
  H  H8  1  0.05682000  0.14226000  0.18353000  1.0
  H  H9  1  0.55681000  0.85776000  0.81648000  1.0
  H  H10  1  0.26619000  0.22124000  0.24000000  1.0
  H  H11  1  0.76619000  0.77877000  0.76002000  1.0
  H  H12  1  0.12443000  0.17236000  0.33825000  1.0
  H  H13  1  0.62442000  0.82764000  0.66177000  1.0
  H  H14  1  0.07211000  0.94002000  0.28794000  1.0
  H  H15  1  0.57209000  0.05999000  0.71205000  1.0
  H  H16  1  0.17665000  0.82109000  0.15598000  1.0
  H  H17  1  0.67663000  0.17892000  0.84400000  1.0
  H  H18  1  0.00486000  0.92271000  0.13623000  1.0
  H  H19  1  0.50483000  0.07731000  0.86376000  1.0
  H  H20  1  0.40177000  0.89508000  0.01876000  1.0
  H  H21  1  0.90174000  0.10494000  0.98123000  1.0
  H  H22  1  0.43402000  0.06087000  0.06036000  1.0
  H  H23  1  0.93400000  0.93915000  0.93965000  1.0
  H  H24  1  0.21876000  0.99036000  0.00107000  1.0
  H  H25  1  0.71875000  0.00965000  0.99893000  1.0
  H  H26  1  0.58789000  0.63578000  0.44347000  1.0
  H  H27  1  0.08793000  0.36422000  0.55652000  1.0
  H  H28  1  0.79174000  0.57032000  0.47950000  1.0
  H  H29  1  0.29180000  0.42968000  0.52050000  1.0
  H  H30  1  0.57828000  0.49136000  0.46492000  1.0
  H  H31  1  0.07834000  0.50864000  0.53507000  1.0
  H  H32  1  0.94703000  0.57960000  0.30055000  1.0
  H  H33  1  0.44705000  0.42040000  0.69946000  1.0
  H  H34  1  0.42870000  0.38335000  0.25422000  1.0
  H  H35  1  0.92871000  0.61664000  0.74577000  1.0
  H  H36  1  0.53872000  0.37914000  0.11721000  1.0
  H  H37  1  0.03870000  0.62084000  0.88278000  1.0
  H  H38  1  0.43888000  0.52185000  0.22202000  1.0
  H  H39  1  0.93888000  0.47814000  0.77796000  1.0
  H  H40  1  0.71802000  0.29552000  0.31645000  1.0
  H  H41  1  0.21805000  0.70447000  0.68356000  1.0
  H  H42  1  0.93429000  0.36820000  0.31931000  1.0
  H  H43  1  0.43432000  0.63179000  0.68071000  1.0
  H  H44  1  0.82112000  0.28710000  0.17554000  1.0
  H  H45  1  0.32112000  0.71290000  0.82447000  1.0
  C  C46  1  0.52934000  0.89372000  0.24846000  1.0
  C  C47  1  0.02933000  0.10628000  0.75154000  1.0
  C  C48  1  0.66576000  0.89009000  0.33629000  1.0
  C  C49  1  0.16576000  0.10991000  0.66371000  1.0
  C  C50  1  0.75163000  0.77508000  0.32920000  1.0
  C  C51  1  0.25165000  0.22490000  0.67080000  1.0
  C  C52  1  0.72262000  0.00264000  0.43466000  1.0
  C  C53  1  0.22260000  0.99735000  0.56533000  1.0
  C  C54  1  0.64400000  0.11590000  0.44695000  1.0
  C  C55  1  0.14399000  0.88409000  0.55306000  1.0
  C  C56  1  0.26919000  0.01570000  0.19329000  1.0
  C  C57  1  0.76917000  0.98431000  0.80672000  1.0
  C  C58  1  0.49811000  0.11997000  0.36937000  1.0
  C  C59  1  0.99811000  0.88004000  0.63064000  1.0
  C  C60  1  0.43371000  0.01141000  0.27347000  1.0
  C  C61  1  0.93370000  0.98858000  0.72652000  1.0
  C  C62  1  0.17542000  0.14576000  0.24276000  1.0
  C  C63  1  0.67541000  0.85425000  0.75725000  1.0
  C  C64  1  0.12280000  0.91790000  0.19317000  1.0
  C  C65  1  0.62278000  0.08212000  0.80683000  1.0
  C  C66  1  0.33548000  0.98803000  0.05976000  1.0
  C  C67  1  0.83546000  0.01199000  0.94024000  1.0
  C  C68  1  0.66221000  0.54735000  0.42679000  1.0
  C  C69  1  0.16224000  0.45265000  0.57321000  1.0
  C  C70  1  0.82539000  0.55267000  0.23974000  1.0
  C  C71  1  0.32540000  0.44733000  0.76026000  1.0
  C  C72  1  0.69815000  0.47061000  0.28817000  1.0
  C  C73  1  0.19817000  0.52938000  0.71183000  1.0
  C  C74  1  0.51651000  0.43756000  0.21619000  1.0
  C  C75  1  0.01652000  0.56243000  0.78379000  1.0
  C  C76  1  0.79944000  0.34843000  0.27350000  1.0
  C  C77  1  0.29946000  0.65157000  0.72651000  1.0
  C  C78  1  0.89081000  0.48073000  0.10639000  1.0
  C  C79  1  0.39081000  0.51927000  0.89362000  1.0
  Br  Br80  1  0.73144000  0.26909000  0.57390000  1.0
  Br  Br81  1  0.23142000  0.73090000  0.42609000  1.0
  N  N82  1  0.73227000  0.66499000  0.23924000  1.0
  N  N83  1  0.23229000  0.33501000  0.76077000  1.0
  O  O84  1  0.02856000  0.40808000  0.08755000  1.0
  O  O85  1  0.52856000  0.59191000  0.91244000  1.0
  O  O86  1  0.48780000  0.79566000  0.14810000  1.0
  O  O87  1  0.98781000  0.20434000  0.85190000  1.0
  O  O88  1  0.80540000  0.49889000  0.01882000  1.0
  O  O89  1  0.30538000  0.50112000  0.98118000  1.0
