# generated using pymatgen
data_AgH3C4N2O
_symmetry_space_group_name_H-M   'P 1'
_cell_length_a   7.10976000
_cell_length_b   11.56080000
_cell_length_c   11.91980000
_cell_angle_alpha   89.99300000
_cell_angle_beta   89.99280000
_cell_angle_gamma   89.99910000
_symmetry_Int_Tables_number   1
_chemical_formula_structural   AgH3C4N2O
_chemical_formula_sum   'Ag8 H24 C32 N16 O8'
_cell_volume   979.74214575
_cell_formula_units_Z   8
loop_
 _symmetry_equiv_pos_site_id
 _symmetry_equiv_pos_as_xyz
  1  'x, y, z'
loop_
 _atom_site_type_symbol
 _atom_site_label
 _atom_site_symmetry_multiplicity
 _atom_site_fract_x
 _atom_site_fract_y
 _atom_site_fract_z
 _atom_site_occupancy
  Ag  Ag0  1  0.73796000  0.44665000  0.42677000  1.0
  Ag  Ag1  1  0.76209000  0.05337000  0.92671000  1.0
  Ag  Ag2  1  0.73798000  0.55336000  0.07323000  1.0
  Ag  Ag3  1  0.76203000  0.94664000  0.57330000  1.0
  Ag  Ag4  1  0.26205000  0.55336000  0.57325000  1.0
  Ag  Ag5  1  0.23796000  0.94664000  0.07328000  1.0
  Ag  Ag6  1  0.26208000  0.44664000  0.92679000  1.0
  Ag  Ag7  1  0.23795000  0.05337000  0.42669000  1.0
  H  H8  1  0.74479000  0.65366000  0.55231000  1.0
  H  H9  1  0.75520000  0.84631000  0.05230000  1.0
  H  H10  1  0.74483000  0.34632000  0.94767000  1.0
  H  H11  1  0.75517000  0.15369000  0.44772000  1.0
  H  H12  1  0.25521000  0.34634000  0.44768000  1.0
  H  H13  1  0.24483000  0.15369000  0.94772000  1.0
  H  H14  1  0.25521000  0.65368000  0.05233000  1.0
  H  H15  1  0.24486000  0.84633000  0.55229000  1.0
  H  H16  1  0.03239000  0.31690000  0.78757000  1.0
  H  H17  1  0.46751000  0.18311000  0.28752000  1.0
  H  H18  1  0.03250000  0.68313000  0.71242000  1.0
  H  H19  1  0.46765000  0.81691000  0.21246000  1.0
  H  H20  1  0.96763000  0.68308000  0.21246000  1.0
  H  H21  1  0.53250000  0.81688000  0.71246000  1.0
  H  H22  1  0.96754000  0.31687000  0.28759000  1.0
  H  H23  1  0.53234000  0.18308000  0.78753000  1.0
  H  H24  1  0.49918000  0.60256000  0.23927000  1.0
  H  H25  1  0.00091000  0.89749000  0.73926000  1.0
  H  H26  1  0.49912000  0.39746000  0.26071000  1.0
  H  H27  1  0.00085000  0.10254000  0.76073000  1.0
  H  H28  1  0.50081000  0.39743000  0.76072000  1.0
  H  H29  1  0.99906000  0.10250000  0.26073000  1.0
  H  H30  1  0.50086000  0.60253000  0.73928000  1.0
  H  H31  1  0.99915000  0.89744000  0.23927000  1.0
  C  C32  1  0.68094000  0.69112000  0.47715000  1.0
  C  C33  1  0.81912000  0.80889000  0.97714000  1.0
  C  C34  1  0.68093000  0.30888000  0.02283000  1.0
  C  C35  1  0.81910000  0.19112000  0.52287000  1.0
  C  C36  1  0.31909000  0.30890000  0.52283000  1.0
  C  C37  1  0.18086000  0.19111000  0.02286000  1.0
  C  C38  1  0.31910000  0.69112000  0.97716000  1.0
  C  C39  1  0.18090000  0.80889000  0.47716000  1.0
  C  C40  1  0.91011000  0.35810000  0.62446000  1.0
  C  C41  1  0.58989000  0.14190000  0.12444000  1.0
  C  C42  1  0.91016000  0.64192000  0.87553000  1.0
  C  C43  1  0.58995000  0.85811000  0.37555000  1.0
  C  C44  1  0.08987000  0.64190000  0.37558000  1.0
  C  C45  1  0.41012000  0.85809000  0.87555000  1.0
  C  C46  1  0.08979000  0.35808000  0.12446000  1.0
  C  C47  1  0.41004000  0.14189000  0.62442000  1.0
  C  C48  1  0.97109000  0.28064000  0.71157000  1.0
  C  C49  1  0.52880000  0.21938000  0.21151000  1.0
  C  C50  1  0.97117000  0.71939000  0.78842000  1.0
  C  C51  1  0.52890000  0.78063000  0.28847000  1.0
  C  C52  1  0.02889000  0.71936000  0.28846000  1.0
  C  C53  1  0.47118000  0.78061000  0.78847000  1.0
  C  C54  1  0.02882000  0.28060000  0.21158000  1.0
  C  C55  1  0.47109000  0.21935000  0.71151000  1.0
  C  C56  1  0.54830000  0.66371000  0.30285000  1.0
  C  C57  1  0.95176000  0.83631000  0.80281000  1.0
  C  C58  1  0.54825000  0.33631000  0.19714000  1.0
  C  C59  1  0.95167000  0.16371000  0.69719000  1.0
  C  C60  1  0.45165000  0.33629000  0.69715000  1.0
  C  C61  1  0.04825000  0.16368000  0.19719000  1.0
  C  C62  1  0.45174000  0.66369000  0.80285000  1.0
  C  C63  1  0.04837000  0.83628000  0.30282000  1.0
  N  N64  1  0.62719000  0.61649000  0.39673000  1.0
  N  N65  1  0.87287000  0.88352000  0.89670000  1.0
  N  N66  1  0.62717000  0.38351000  0.10325000  1.0
  N  N67  1  0.87282000  0.11650000  0.60330000  1.0
  N  N68  1  0.37281000  0.38351000  0.60326000  1.0
  N  N69  1  0.12712000  0.11648000  0.10329000  1.0
  N  N70  1  0.37284000  0.61648000  0.89675000  1.0
  N  N71  1  0.12718000  0.88351000  0.39671000  1.0
  N  N72  1  0.66509000  0.80528000  0.47203000  1.0
  N  N73  1  0.83494000  0.69472000  0.97199000  1.0
  N  N74  1  0.66509000  0.19472000  0.02797000  1.0
  N  N75  1  0.83490000  0.30529000  0.52801000  1.0
  N  N76  1  0.33489000  0.19473000  0.52796000  1.0
  N  N77  1  0.16507000  0.30528000  0.02801000  1.0
  N  N78  1  0.33495000  0.80528000  0.97203000  1.0
  N  N79  1  0.16511000  0.69473000  0.47202000  1.0
  O  O80  1  0.91962000  0.46641000  0.62757000  1.0
  O  O81  1  0.58036000  0.03360000  0.12755000  1.0
  O  O82  1  0.91968000  0.53361000  0.87242000  1.0
  O  O83  1  0.58041000  0.96641000  0.37246000  1.0
  O  O84  1  0.08034000  0.53360000  0.37248000  1.0
  O  O85  1  0.41963000  0.96640000  0.87244000  1.0
  O  O86  1  0.08023000  0.46639000  0.12757000  1.0
  O  O87  1  0.41957000  0.03358000  0.62751000  1.0
