# generated using pymatgen
data_CeH12C12(NO3)3
_symmetry_space_group_name_H-M   'P 1'
_cell_length_a   8.61866000
_cell_length_b   9.13313000
_cell_length_c   10.55550000
_cell_angle_alpha   98.72720000
_cell_angle_beta   97.63520000
_cell_angle_gamma   117.11600000
_symmetry_Int_Tables_number   1
_chemical_formula_structural   CeH12C12(NO3)3
_chemical_formula_sum   'Ce2 H24 C24 N6 O18'
_cell_volume   711.45816498
_cell_formula_units_Z   2
loop_
 _symmetry_equiv_pos_site_id
 _symmetry_equiv_pos_as_xyz
  1  'x, y, z'
loop_
 _atom_site_type_symbol
 _atom_site_label
 _atom_site_symmetry_multiplicity
 _atom_site_fract_x
 _atom_site_fract_y
 _atom_site_fract_z
 _atom_site_occupancy
  Ce  Ce0  1  0.26597000  0.15746000  0.97002000  1.0
  Ce  Ce1  1  0.73404000  0.84254000  0.02998000  1.0
  H  H2  1  0.45153000  0.86066000  0.31131000  1.0
  H  H3  1  0.54847000  0.13934000  0.68870000  1.0
  H  H4  1  0.41538000  0.02052000  0.25631000  1.0
  H  H5  1  0.58461000  0.97947000  0.74369000  1.0
  H  H6  1  0.28022000  0.76343000  0.08414000  1.0
  H  H7  1  0.71976000  0.23656000  0.91585000  1.0
  H  H8  1  0.15551000  0.63754000  0.18461000  1.0
  H  H9  1  0.84448000  0.36247000  0.81540000  1.0
  H  H10  1  0.19013000  0.28611000  0.67207000  1.0
  H  H11  1  0.80987000  0.71390000  0.32793000  1.0
  H  H12  1  0.22205000  0.32496000  0.51369000  1.0
  H  H13  1  0.77795000  0.67503000  0.48631000  1.0
  H  H14  1  0.55771000  0.40404000  0.60503000  1.0
  H  H15  1  0.44229000  0.59596000  0.39496000  1.0
  H  H16  1  0.48573000  0.55175000  0.64410000  1.0
  H  H17  1  0.51427000  0.44826000  0.35591000  1.0
  H  H18  1  0.96821000  0.59298000  0.56719000  1.0
  H  H19  1  0.03178000  0.40702000  0.43280000  1.0
  H  H20  1  0.99763000  0.74690000  0.70679000  1.0
  H  H21  1  0.00237000  0.25310000  0.29321000  1.0
  H  H22  1  0.11891000  0.55173000  0.75966000  1.0
  H  H23  1  0.88109000  0.44827000  0.24034000  1.0
  H  H24  1  0.26782000  0.62356000  0.65674000  1.0
  H  H25  1  0.73217000  0.37642000  0.34326000  1.0
  C  C26  1  0.22049000  0.80681000  0.46853000  1.0
  C  C27  1  0.77951000  0.19319000  0.53147000  1.0
  C  C28  1  0.29974000  0.09102000  0.43818000  1.0
  C  C29  1  0.70026000  0.90898000  0.56182000  1.0
  C  C30  1  0.16284000  0.99752000  0.62067000  1.0
  C  C31  1  0.83717000  0.00248000  0.37932000  1.0
  C  C32  1  0.35119000  0.89871000  0.28223000  1.0
  C  C33  1  0.64881000  0.10129000  0.71777000  1.0
  C  C34  1  0.20973000  0.76307000  0.16364000  1.0
  C  C35  1  0.79026000  0.23693000  0.83636000  1.0
  C  C36  1  0.05579000  0.79426000  0.11833000  1.0
  C  C37  1  0.94423000  0.20576000  0.88167000  1.0
  C  C38  1  0.27271000  0.29350000  0.60035000  1.0
  C  C39  1  0.72730000  0.70650000  0.39965000  1.0
  C  C40  1  0.46768000  0.42925000  0.65843000  1.0
  C  C41  1  0.53233000  0.57076000  0.34158000  1.0
  C  C42  1  0.53780000  0.45257000  0.80354000  1.0
  C  C43  1  0.46218000  0.54741000  0.19646000  1.0
  C  C44  1  0.06755000  0.70536000  0.64313000  1.0
  C  C45  1  0.93244000  0.29463000  0.35687000  1.0
  C  C46  1  0.19603000  0.66221000  0.72077000  1.0
  C  C47  1  0.80397000  0.33779000  0.27923000  1.0
  C  C48  1  0.33459000  0.80282000  0.83626000  1.0
  C  C49  1  0.66541000  0.19718000  0.16373000  1.0
  N  N50  1  0.28351000  0.93101000  0.39891000  1.0
  N  N51  1  0.71650000  0.06899000  0.60109000  1.0
  N  N52  1  0.24725000  0.12120000  0.55452000  1.0
  N  N53  1  0.75275000  0.87880000  0.44549000  1.0
  N  N54  1  0.15615000  0.84327000  0.57680000  1.0
  N  N55  1  0.84385000  0.15673000  0.42320000  1.0
  O  O56  1  0.21971000  0.67137000  0.43540000  1.0
  O  O57  1  0.78029000  0.32864000  0.56460000  1.0
  O  O58  1  0.35912000  0.20000000  0.37652000  1.0
  O  O59  1  0.64089000  0.80001000  0.62349000  1.0
  O  O60  1  0.09627000  0.02292000  0.71278000  1.0
  O  O61  1  0.90373000  0.97709000  0.28724000  1.0
  O  O62  1  0.08380000  0.92418000  0.06970000  1.0
  O  O63  1  0.91622000  0.07584000  0.93031000  1.0
  O  O64  1  0.90132000  0.69357000  0.12907000  1.0
  O  O65  1  0.09868000  0.30644000  0.87094000  1.0
  O  O66  1  0.66809000  0.59564000  0.86621000  1.0
  O  O67  1  0.33190000  0.40435000  0.13381000  1.0
  O  O68  1  0.46566000  0.32635000  0.85460000  1.0
  O  O69  1  0.53434000  0.67363000  0.14538000  1.0
  O  O70  1  0.31539000  0.93084000  0.87489000  1.0
  O  O71  1  0.68463000  0.06917000  0.12509000  1.0
  O  O72  1  0.46398000  0.78280000  0.88596000  1.0
  O  O73  1  0.53602000  0.21720000  0.11404000  1.0
