# generated using pymatgen
data_NdH18C20NO8
_symmetry_space_group_name_H-M   'P 1'
_cell_length_a   12.08360000
_cell_length_b   14.67740000
_cell_length_c   16.23549074
_cell_angle_alpha   116.82928770
_cell_angle_beta   102.52384617
_cell_angle_gamma   90.01080000
_symmetry_Int_Tables_number   1
_chemical_formula_structural   NdH18C20NO8
_chemical_formula_sum   'Nd4 H72 C80 N4 O32'
_cell_volume   2492.41875895
_cell_formula_units_Z   4
loop_
 _symmetry_equiv_pos_site_id
 _symmetry_equiv_pos_as_xyz
  1  'x, y, z'
loop_
 _atom_site_type_symbol
 _atom_site_label
 _atom_site_symmetry_multiplicity
 _atom_site_fract_x
 _atom_site_fract_y
 _atom_site_fract_z
 _atom_site_occupancy
  Nd  Nd0  1  0.55572000  0.04386000  0.64217000  1.0
  Nd  Nd1  1  0.94407000  0.40198000  0.35792000  1.0
  Nd  Nd2  1  0.44429000  0.95614000  0.35783000  1.0
  Nd  Nd3  1  0.05593000  0.59802000  0.64208000  1.0
  H  H4  1  0.45045000  0.11372000  0.93680000  1.0
  H  H5  1  0.04954000  0.17734000  0.06360000  1.0
  H  H6  1  0.54953000  0.88628000  0.06319000  1.0
  H  H7  1  0.95040000  0.82266000  0.93638000  1.0
  H  H8  1  0.39760000  0.21975000  0.09143000  1.0
  H  H9  1  0.10271000  0.12861000  0.90904000  1.0
  H  H10  1  0.60237000  0.78023000  0.90855000  1.0
  H  H11  1  0.89725000  0.87139000  0.09095000  1.0
  H  H12  1  0.38894000  0.48040000  0.03572000  1.0
  H  H13  1  0.11129000  0.44463000  0.96396000  1.0
  H  H14  1  0.61105000  0.51959000  0.96428000  1.0
  H  H15  1  0.88871000  0.55538000  0.03605000  1.0
  H  H16  1  0.44101000  0.37255000  0.88024000  1.0
  H  H17  1  0.05890000  0.49245000  0.11939000  1.0
  H  H18  1  0.55898000  0.62745000  0.11976000  1.0
  H  H19  1  0.94111000  0.50757000  0.88062000  1.0
  H  H20  1  0.44625000  0.70286000  0.31887000  1.0
  H  H21  1  0.05440000  0.38363000  0.68096000  1.0
  H  H22  1  0.55376000  0.29714000  0.68113000  1.0
  H  H23  1  0.94560000  0.61638000  0.31904000  1.0
  H  H24  1  0.23683000  0.44823000  0.29217000  1.0
  H  H25  1  0.26329000  0.15540000  0.70755000  1.0
  H  H26  1  0.76317000  0.55177000  0.70783000  1.0
  H  H27  1  0.73670000  0.84461000  0.29246000  1.0
  H  H28  1  0.33761000  0.71885000  0.56133000  1.0
  H  H29  1  0.16240000  0.15707000  0.43834000  1.0
  H  H30  1  0.66240000  0.28115000  0.43867000  1.0
  H  H31  1  0.83761000  0.84293000  0.56166000  1.0
  H  H32  1  0.00623000  0.02992000  0.68485000  1.0
  H  H33  1  0.49346000  0.34501000  0.31522000  1.0
  H  H34  1  0.99370000  0.96996000  0.31516000  1.0
  H  H35  1  0.50654000  0.65501000  0.68478000  1.0
  H  H36  1  0.86518000  0.28455000  0.80737000  1.0
  H  H37  1  0.63410000  0.47702000  0.19286000  1.0
  H  H38  1  0.13481000  0.71547000  0.19263000  1.0
  H  H39  1  0.36591000  0.52298000  0.80714000  1.0
  H  H40  1  0.92940000  0.18860000  0.65409000  1.0
  H  H41  1  0.57068000  0.53449000  0.34651000  1.0
  H  H42  1  0.07060000  0.81139000  0.34591000  1.0
  H  H43  1  0.42933000  0.46551000  0.65349000  1.0
  H  H44  1  0.84767000  0.28592000  0.65021000  1.0
  H  H45  1  0.65221000  0.63554000  0.34994000  1.0
  H  H46  1  0.15235000  0.71409000  0.34979000  1.0
  H  H47  1  0.34780000  0.36446000  0.65006000  1.0
  H  H48  1  0.78310000  0.15363000  0.58669000  1.0
  H  H49  1  0.71714000  0.56689000  0.41353000  1.0
  H  H50  1  0.21690000  0.84637000  0.41331000  1.0
  H  H51  1  0.28288000  0.43311000  0.58647000  1.0
  H  H52  1  0.99563000  0.97915000  0.64060000  1.0
  H  H53  1  0.50466000  0.33851000  0.35953000  1.0
  H  H54  1  0.00465000  0.02079000  0.35937000  1.0
  H  H55  1  0.49539000  0.66149000  0.64046000  1.0
  H  H56  1  0.68272000  0.82923000  0.64562000  1.0
  H  H57  1  0.81716000  0.18410000  0.35484000  1.0
  H  H58  1  0.31729000  0.17080000  0.35441000  1.0
  H  H59  1  0.18284000  0.81590000  0.64516000  1.0
  H  H60  1  0.84894000  0.92925000  0.84754000  1.0
  H  H61  1  0.65124000  0.08185000  0.15277000  1.0
  H  H62  1  0.15109000  0.07078000  0.15248000  1.0
  H  H63  1  0.34878000  0.91814000  0.84723000  1.0
  H  H64  1  0.88228000  0.83074000  0.74144000  1.0
  H  H65  1  0.61792000  0.08931000  0.25889000  1.0
  H  H66  1  0.11772000  0.16926000  0.25857000  1.0
  H  H67  1  0.38207000  0.91070000  0.74110000  1.0
  H  H68  1  0.77633000  0.80004000  0.78519000  1.0
  H  H69  1  0.72414000  0.01523000  0.21532000  1.0
  H  H70  1  0.22367000  0.19999000  0.21484000  1.0
  H  H71  1  0.27586000  0.98476000  0.78469000  1.0
  H  H72  1  0.36402000  0.37474000  0.20742000  1.0
  H  H73  1  0.13608000  0.16723000  0.79274000  1.0
  H  H74  1  0.63596000  0.62525000  0.79258000  1.0
  H  H75  1  0.86389000  0.83276000  0.20725000  1.0
  C  C76  1  0.48497000  0.17345000  0.81036000  1.0
  C  C77  1  0.01473000  0.36354000  0.18964000  1.0
  C  C78  1  0.51502000  0.82655000  0.18964000  1.0
  C  C79  1  0.98525000  0.63647000  0.81036000  1.0
  C  C80  1  0.44895000  0.23734000  0.90031000  1.0
  C  C81  1  0.05100000  0.33734000  0.09972000  1.0
  C  C82  1  0.55103000  0.76265000  0.09968000  1.0
  C  C83  1  0.94898000  0.66267000  0.90028000  1.0
  C  C84  1  0.43567000  0.19372000  0.95909000  1.0
  C  C85  1  0.06440000  0.23497000  0.04118000  1.0
  C  C86  1  0.56431000  0.80627000  0.04090000  1.0
  C  C87  1  0.93556000  0.76503000  0.95881000  1.0
  C  C88  1  0.40689000  0.25293000  0.04476000  1.0
  C  C89  1  0.09337000  0.20843000  0.95554000  1.0
  C  C90  1  0.59309000  0.74705000  0.95523000  1.0
  C  C91  1  0.90660000  0.79157000  0.04445000  1.0
  C  C92  1  0.39125000  0.35680000  0.07320000  1.0
  C  C93  1  0.10912000  0.28371000  0.92689000  1.0
  C  C94  1  0.60873000  0.64318000  0.92679000  1.0
  C  C95  1  0.89086000  0.71630000  0.07311000  1.0
  C  C96  1  0.40233000  0.39999000  0.01312000  1.0
  C  C97  1  0.09793000  0.38692000  0.98674000  1.0
  C  C98  1  0.59765000  0.60000000  0.98688000  1.0
  C  C99  1  0.90207000  0.61308000  0.01326000  1.0
  C  C100  1  0.43094000  0.34055000  0.92745000  1.0
  C  C101  1  0.06908000  0.41325000  0.07237000  1.0
  C  C102  1  0.56905000  0.65946000  0.07255000  1.0
  C  C103  1  0.93091000  0.58676000  0.92763000  1.0
  C  C104  1  0.36953000  0.41740000  0.16673000  1.0
  C  C105  1  0.13093000  0.25060000  0.83334000  1.0
  C  C106  1  0.63046000  0.58258000  0.83327000  1.0
  C  C107  1  0.86906000  0.74940000  0.16666000  1.0
  C  C108  1  0.45595000  0.82858000  0.50703000  1.0
  C  C109  1  0.04432000  0.32138000  0.49281000  1.0
  C  C110  1  0.54406000  0.17142000  0.49297000  1.0
  C  C111  1  0.95568000  0.67863000  0.50719000  1.0
  C  C112  1  0.39908000  0.72179000  0.44707000  1.0
  C  C113  1  0.10123000  0.27436000  0.55267000  1.0
  C  C114  1  0.60093000  0.27821000  0.55293000  1.0
  C  C115  1  0.89877000  0.72564000  0.44733000  1.0
  C  C116  1  0.40156000  0.66834000  0.35132000  1.0
  C  C117  1  0.09894000  0.31664000  0.64847000  1.0
  C  C118  1  0.59845000  0.33165000  0.64868000  1.0
  C  C119  1  0.90106000  0.68337000  0.35153000  1.0
  C  C120  1  0.34864000  0.56704000  0.29577000  1.0
  C  C121  1  0.15187000  0.27088000  0.70406000  1.0
  C  C122  1  0.65137000  0.43296000  0.70423000  1.0
  C  C123  1  0.84812000  0.72913000  0.29594000  1.0
  C  C124  1  0.28531000  0.52380000  0.33521000  1.0
  C  C125  1  0.21490000  0.18806000  0.66454000  1.0
  C  C126  1  0.71470000  0.47620000  0.66479000  1.0
  C  C127  1  0.78510000  0.81194000  0.33546000  1.0
  C  C128  1  0.28057000  0.57858000  0.43043000  1.0
  C  C129  1  0.21944000  0.14761000  0.56927000  1.0
  C  C130  1  0.71943000  0.42143000  0.56957000  1.0
  C  C131  1  0.78056000  0.85240000  0.43074000  1.0
  C  C132  1  0.34020000  0.67656000  0.48700000  1.0
  C  C133  1  0.15990000  0.18914000  0.51270000  1.0
  C  C134  1  0.65981000  0.32344000  0.51300000  1.0
  C  C135  1  0.84011000  0.81088000  0.48731000  1.0
  C  C136  1  0.20726000  0.53366000  0.47005000  1.0
  C  C137  1  0.29264000  0.06304000  0.52968000  1.0
  C  C138  1  0.79274000  0.46635000  0.52996000  1.0
  C  C139  1  0.70736000  0.93697000  0.47033000  1.0
  C  C140  1  0.81003000  0.22579000  0.73876000  1.0
  C  C141  1  0.68957000  0.48692000  0.26141000  1.0
  C  C142  1  0.18997000  0.77423000  0.26124000  1.0
  C  C143  1  0.31044000  0.51309000  0.73859000  1.0
  C  C144  1  0.84235000  0.21133000  0.65088000  1.0
  C  C145  1  0.65762000  0.56037000  0.34942000  1.0
  C  C146  1  0.15765000  0.78867000  0.34912000  1.0
  C  C147  1  0.34240000  0.43963000  0.65058000  1.0
  C  C148  1  0.72687000  0.89211000  0.71651000  1.0
  C  C149  1  0.77312000  0.17594000  0.28384000  1.0
  C  C150  1  0.27315000  0.10793000  0.28352000  1.0
  C  C151  1  0.22688000  0.82407000  0.71617000  1.0
  C  C152  1  0.81392000  0.86348000  0.77774000  1.0
  C  C153  1  0.68630000  0.08596000  0.22264000  1.0
  C  C154  1  0.18609000  0.13654000  0.22228000  1.0
  C  C155  1  0.31371000  0.91404000  0.77736000  1.0
  N  N156  1  0.36325000  0.51481000  0.20286000  1.0
  N  N157  1  0.13752000  0.31173000  0.79707000  1.0
  N  N158  1  0.63676000  0.48518000  0.79714000  1.0
  N  N159  1  0.86247000  0.68827000  0.20293000  1.0
  O  O160  1  0.49815000  0.21209000  0.75623000  1.0
  O  O161  1  0.00124000  0.45623000  0.24348000  1.0
  O  O162  1  0.50185000  0.78791000  0.24377000  1.0
  O  O163  1  0.99876000  0.54378000  0.75652000  1.0
  O  O164  1  0.50170000  0.08025000  0.79027000  1.0
  O  O165  1  0.99806000  0.29054000  0.20994000  1.0
  O  O166  1  0.49829000  0.91975000  0.20973000  1.0
  O  O167  1  0.00192000  0.70946000  0.79005000  1.0
  O  O168  1  0.48429000  0.86479000  0.59693000  1.0
  O  O169  1  0.01584000  0.26792000  0.40288000  1.0
  O  O170  1  0.51572000  0.13520000  0.40306000  1.0
  O  O171  1  0.98416000  0.73207000  0.59711000  1.0
  O  O172  1  0.47471000  0.88260000  0.46640000  1.0
  O  O173  1  0.02553000  0.41595000  0.53357000  1.0
  O  O174  1  0.52529000  0.11741000  0.53360000  1.0
  O  O175  1  0.97446000  0.58405000  0.46643000  1.0
  O  O176  1  0.20669000  0.58585000  0.55744000  1.0
  O  O177  1  0.29342000  0.02809000  0.44234000  1.0
  O  O178  1  0.79330000  0.41416000  0.44256000  1.0
  O  O179  1  0.70658000  0.97191000  0.55766000  1.0
  O  O180  1  0.14929000  0.44706000  0.41286000  1.0
  O  O181  1  0.35035000  0.03341000  0.58684000  1.0
  O  O182  1  0.85071000  0.55294000  0.58714000  1.0
  O  O183  1  0.64965000  0.96660000  0.41317000  1.0
  O  O184  1  0.72838000  0.17799000  0.74138000  1.0
  O  O185  1  0.77120000  0.43649000  0.25862000  1.0
  O  O186  1  0.27162000  0.82202000  0.25862000  1.0
  O  O187  1  0.22880000  0.56350000  0.74137000  1.0
  O  O188  1  0.70167000  0.98021000  0.73997000  1.0
  O  O189  1  0.79819000  0.24054000  0.26025000  1.0
  O  O190  1  0.29836000  0.01983000  0.26005000  1.0
  O  O191  1  0.20180000  0.75946000  0.73975000  1.0
