# generated using pymatgen
data_CuH6C4N10Cl
_symmetry_space_group_name_H-M   'P 1'
_cell_length_a   6.19095000
_cell_length_b   8.52655000
_cell_length_c   10.23400000
_cell_angle_alpha   106.78400000
_cell_angle_beta   89.99820000
_cell_angle_gamma   89.99960000
_symmetry_Int_Tables_number   1
_chemical_formula_structural   CuH6C4N10Cl
_chemical_formula_sum   'Cu2 H12 C8 N20 Cl2'
_cell_volume   517.21314466
_cell_formula_units_Z   2
loop_
 _symmetry_equiv_pos_site_id
 _symmetry_equiv_pos_as_xyz
  1  'x, y, z'
loop_
 _atom_site_type_symbol
 _atom_site_label
 _atom_site_symmetry_multiplicity
 _atom_site_fract_x
 _atom_site_fract_y
 _atom_site_fract_z
 _atom_site_occupancy
  Cu  Cu0  1  0.20765000  0.99999000  0.24999000  1.0
  Cu  Cu1  1  0.79234000  0.00000000  0.74999000  1.0
  H  H2  1  0.31984000  0.66176000  0.30412000  1.0
  H  H3  1  0.31969000  0.33830000  0.19589000  1.0
  H  H4  1  0.68025000  0.33826000  0.69591000  1.0
  H  H5  1  0.68022000  0.66175000  0.80411000  1.0
  H  H6  1  0.47373000  0.55681000  0.40266000  1.0
  H  H7  1  0.47366000  0.44320000  0.09733000  1.0
  H  H8  1  0.52630000  0.44319000  0.59735000  1.0
  H  H9  1  0.52629000  0.55682000  0.90267000  1.0
  H  H10  1  0.50482000  0.77363000  0.43149000  1.0
  H  H11  1  0.50471000  0.22639000  0.06856000  1.0
  H  H12  1  0.49522000  0.22635000  0.56856000  1.0
  H  H13  1  0.49525000  0.77364000  0.93148000  1.0
  C  C14  1  0.07948000  0.82615000  0.53815000  1.0
  C  C15  1  0.07945000  0.17386000  0.96185000  1.0
  C  C16  1  0.92052000  0.17384000  0.46185000  1.0
  C  C17  1  0.92055000  0.82615000  0.03814000  1.0
  C  C18  1  0.39120000  0.67045000  0.40383000  1.0
  C  C19  1  0.39112000  0.32957000  0.09618000  1.0
  C  C20  1  0.60883000  0.32955000  0.59619000  1.0
  C  C21  1  0.60883000  0.67045000  0.90383000  1.0
  N  N22  1  0.21997000  0.69947000  0.50475000  1.0
  N  N23  1  0.21992000  0.30054000  0.99526000  1.0
  N  N24  1  0.78006000  0.30053000  0.49525000  1.0
  N  N25  1  0.78006000  0.69945000  0.00474000  1.0
  N  N26  1  0.19138000  0.60951000  0.59144000  1.0
  N  N27  1  0.19134000  0.39049000  0.90855000  1.0
  N  N28  1  0.80865000  0.39050000  0.40855000  1.0
  N  N29  1  0.80865000  0.60949000  0.09146000  1.0
  N  N30  1  0.03604000  0.67787000  0.67595000  1.0
  N  N31  1  0.03601000  0.32212000  0.82404000  1.0
  N  N32  1  0.96398000  0.32214000  0.32405000  1.0
  N  N33  1  0.96398000  0.67785000  0.17595000  1.0
  N  N34  1  0.96305000  0.81301000  0.64564000  1.0
  N  N35  1  0.96303000  0.18697000  0.85434000  1.0
  N  N36  1  0.03695000  0.18698000  0.35434000  1.0
  N  N37  1  0.03695000  0.81299000  0.14564000  1.0
  N  N38  1  0.07049000  0.94376000  0.47270000  1.0
  N  N39  1  0.07047000  0.05625000  0.02728000  1.0
  N  N40  1  0.92953000  0.05619000  0.52729000  1.0
  N  N41  1  0.92954000  0.94379000  0.97268000  1.0
  Cl  Cl42  1  0.56029000  0.00001000  0.24997000  1.0
  Cl  Cl43  1  0.43971000  0.00000000  0.74999000  1.0
