# generated using pymatgen
data_H31PbC29N5O7
_symmetry_space_group_name_H-M   'P 1'
_cell_length_a   4.62638000
_cell_length_b   12.03730000
_cell_length_c   15.20080000
_cell_angle_alpha   71.80420000
_cell_angle_beta   86.88200000
_cell_angle_gamma   88.81720000
_symmetry_Int_Tables_number   1
_chemical_formula_structural   H31PbC29N5O7
_chemical_formula_sum   'H31 Pb1 C29 N5 O7'
_cell_volume   802.99252966
_cell_formula_units_Z   1
loop_
 _symmetry_equiv_pos_site_id
 _symmetry_equiv_pos_as_xyz
  1  'x, y, z'
loop_
 _atom_site_type_symbol
 _atom_site_label
 _atom_site_symmetry_multiplicity
 _atom_site_fract_x
 _atom_site_fract_y
 _atom_site_fract_z
 _atom_site_occupancy
  H  H0  1  0.92959000  0.39990000  0.32097000  1.0
  H  H1  1  0.91798000  0.22470000  0.40855000  1.0
  H  H2  1  0.78204000  0.78637000  0.66209000  1.0
  H  H3  1  0.75842000  0.60554000  0.74464000  1.0
  H  H4  1  0.26311000  0.51372000  0.47477000  1.0
  H  H5  1  0.88880000  0.60490000  0.55471000  1.0
  H  H6  1  0.64026000  0.78811000  0.46607000  1.0
  H  H7  1  0.77458000  0.88183000  0.29924000  1.0
  H  H8  1  0.15202000  0.79093000  0.22010000  1.0
  H  H9  1  0.60922000  0.53945000  0.34033000  1.0
  H  H10  1  0.56345000  0.65352000  0.23576000  1.0
  H  H11  1  0.12304000  0.55301000  0.20787000  1.0
  H  H12  1  0.98074000  0.00818000  0.42457000  1.0
  H  H13  1  0.16335000  0.82091000  0.52703000  1.0
  H  H14  1  0.72222000  0.00825000  0.64899000  1.0
  H  H15  1  0.53827000  0.19535000  0.54690000  1.0
  H  H16  1  0.18067000  0.53996000  0.83002000  1.0
  H  H17  1  0.12624000  0.35451000  0.81840000  1.0
  H  H18  1  0.17150000  0.45442000  0.70564000  1.0
  H  H19  1  0.59254000  0.43871000  0.60356000  1.0
  H  H20  1  0.97836000  0.31033000  0.56770000  1.0
  H  H21  1  0.12630000  0.12998000  0.68947000  1.0
  H  H22  1  0.88140000  0.07810000  0.84793000  1.0
  H  H23  1  0.49887000  0.20788000  0.88322000  1.0
  H  H24  1  0.05424000  0.67933000  0.88841000  1.0
  H  H25  1  0.16827000  0.85613000  0.80621000  1.0
  H  H26  1  0.52406000  0.90026000  0.81933000  1.0
  H  H27  1  0.22350000  0.95308000  0.87270000  1.0
  H  H28  1  0.40152000  0.83982000  0.04899000  1.0
  H  H29  1  0.71531000  0.83022000  0.97817000  1.0
  H  H30  1  0.55838000  0.69947000  0.05697000  1.0
  Pb  Pb31  1  0.94143000  0.39317000  0.06102000  1.0
  C  C32  1  0.15466000  0.59431000  0.43630000  1.0
  C  C33  1  0.94410000  0.64522000  0.48099000  1.0
  C  C34  1  0.80596000  0.74849000  0.43169000  1.0
  C  C35  1  0.88219000  0.80117000  0.33790000  1.0
  C  C36  1  0.09332000  0.74996000  0.29367000  1.0
  C  C37  1  0.23159000  0.64575000  0.34196000  1.0
  C  C38  1  0.44707000  0.58784000  0.29265000  1.0
  C  C39  1  0.29474000  0.50405000  0.25160000  1.0
  C  C40  1  0.30179000  0.31392000  0.37080000  1.0
  C  C41  1  0.24756000  0.11467000  0.47849000  1.0
  C  C42  1  0.14189000  0.00825000  0.47431000  1.0
  C  C43  1  0.24303000  0.90280000  0.53248000  1.0
  C  C44  1  0.45188000  0.90146000  0.59622000  1.0
  C  C45  1  0.55871000  0.00774000  0.60011000  1.0
  C  C46  1  0.45761000  0.11341000  0.54185000  1.0
  C  C47  1  0.39265000  0.70061000  0.69995000  1.0
  C  C48  1  0.38419000  0.50407000  0.80891000  1.0
  C  C49  1  0.28614000  0.40903000  0.76833000  1.0
  C  C50  1  0.52120000  0.33252000  0.74615000  1.0
  C  C51  1  0.65831000  0.36006000  0.65751000  1.0
  C  C52  1  0.87447000  0.28767000  0.63716000  1.0
  C  C53  1  0.95629000  0.18582000  0.70543000  1.0
  C  C54  1  0.81971000  0.15732000  0.79383000  1.0
  C  C55  1  0.60462000  0.22979000  0.81410000  1.0
  C  C56  1  0.49083000  0.45824000  0.18550000  1.0
  C  C57  1  0.54373000  0.45511000  0.89830000  1.0
  C  C58  1  0.18645000  0.67705000  0.94729000  1.0
  C  C59  1  0.30978000  0.87675000  0.85456000  1.0
  C  C60  1  0.51167000  0.78672000  0.00980000  1.0
  N  N61  1  0.14913000  0.40837000  0.32128000  1.0
  N  N62  1  0.13483000  0.22010000  0.42098000  1.0
  N  N63  1  0.56251000  0.79497000  0.65375000  1.0
  N  N64  1  0.53855000  0.60032000  0.74233000  1.0
  N  N65  1  0.33161000  0.77616000  0.93721000  1.0
  O  O66  1  0.57352000  0.31343000  0.37017000  1.0
  O  O67  1  0.12007000  0.70575000  0.70486000  1.0
  O  O68  1  0.40898000  0.37054000  0.16382000  1.0
  O  O69  1  0.72542000  0.51337000  0.15184000  1.0
  O  O70  1  0.76810000  0.50990000  0.90820000  1.0
  O  O71  1  0.44219000  0.36513000  0.95958000  1.0
  O  O72  1  0.19817000  0.58869000  0.01723000  1.0
