# generated using pymatgen
data_ZnH20C22(N3O4)2
_symmetry_space_group_name_H-M   'P 1'
_cell_length_a   9.97012000
_cell_length_b   11.30630000
_cell_length_c   13.97800000
_cell_angle_alpha   73.63490000
_cell_angle_beta   69.70090000
_cell_angle_gamma   67.97290000
_symmetry_Int_Tables_number   1
_chemical_formula_structural   ZnH20C22(N3O4)2
_chemical_formula_sum   'Zn2 H40 C44 N12 O16'
_cell_volume   1348.94434517
_cell_formula_units_Z   2
loop_
 _symmetry_equiv_pos_site_id
 _symmetry_equiv_pos_as_xyz
  1  'x, y, z'
loop_
 _atom_site_type_symbol
 _atom_site_label
 _atom_site_symmetry_multiplicity
 _atom_site_fract_x
 _atom_site_fract_y
 _atom_site_fract_z
 _atom_site_occupancy
  Zn  Zn0  1  0.34840000  0.79707000  0.43654000  1.0
  Zn  Zn1  1  0.65160000  0.20293000  0.56347000  1.0
  H  H2  1  0.43896000  0.06536000  0.78098000  1.0
  H  H3  1  0.56104000  0.93464000  0.21902000  1.0
  H  H4  1  0.12186000  0.03162000  0.51736000  1.0
  H  H5  1  0.87814000  0.96838000  0.48264000  1.0
  H  H6  1  0.49857000  0.77340000  0.60776000  1.0
  H  H7  1  0.50143000  0.22660000  0.39224000  1.0
  H  H8  1  0.06702000  0.16618000  0.64966000  1.0
  H  H9  1  0.93298000  0.83382000  0.35034000  1.0
  H  H10  1  0.45495000  0.89108000  0.74494000  1.0
  H  H11  1  0.54505000  0.10892000  0.25506000  1.0
  H  H12  1  0.10313000  0.31113000  0.90728000  1.0
  H  H13  1  0.89688000  0.68888000  0.09272000  1.0
  H  H14  1  0.56095000  0.07177000  0.88980000  1.0
  H  H15  1  0.43905000  0.92822000  0.11020000  1.0
  H  H16  1  0.12266000  0.43800000  0.01842000  1.0
  H  H17  1  0.87736000  0.56201000  0.98157000  1.0
  H  H18  1  0.57946000  0.19586000  0.00235000  1.0
  H  H19  1  0.42056000  0.80413000  0.99765000  1.0
  H  H20  1  0.14575000  0.68483000  0.19620000  1.0
  H  H21  1  0.85425000  0.31516000  0.80380000  1.0
  H  H22  1  0.59580000  0.43813000  0.20790000  1.0
  H  H23  1  0.40420000  0.56186000  0.79211000  1.0
  H  H24  1  0.15948000  0.81112000  0.30985000  1.0
  H  H25  1  0.84051000  0.18888000  0.69015000  1.0
  H  H26  1  0.58877000  0.57749000  0.32024000  1.0
  H  H27  1  0.41122000  0.42251000  0.67977000  1.0
  H  H28  1  0.21904000  0.64988000  0.63357000  1.0
  H  H29  1  0.78096000  0.35011000  0.36643000  1.0
  H  H30  1  0.12565000  0.51656000  0.75603000  1.0
  H  H31  1  0.87435000  0.48344000  0.24397000  1.0
  H  H32  1  0.05080000  0.43403000  0.70586000  1.0
  H  H33  1  0.94920000  0.56597000  0.29414000  1.0
  H  H34  1  0.92677000  0.54714000  0.79043000  1.0
  H  H35  1  0.07322000  0.45286000  0.20957000  1.0
  H  H36  1  0.90226000  0.73981000  0.53058000  1.0
  H  H37  1  0.09774000  0.26019000  0.46942000  1.0
  H  H38  1  0.78948000  0.69154000  0.65679000  1.0
  H  H39  1  0.21051000  0.30846000  0.34321000  1.0
  H  H40  1  0.89834000  0.57643000  0.57191000  1.0
  H  H41  1  0.10166000  0.42357000  0.42809000  1.0
  C  C42  1  0.19443000  0.00560000  0.56798000  1.0
  C  C43  1  0.80557000  0.99440000  0.43202000  1.0
  C  C44  1  0.40371000  0.86102000  0.61883000  1.0
  C  C45  1  0.59629000  0.13898000  0.38117000  1.0
  C  C46  1  0.16303000  0.07893000  0.64219000  1.0
  C  C47  1  0.83697000  0.92107000  0.35781000  1.0
  C  C48  1  0.37826000  0.92808000  0.69613000  1.0
  C  C49  1  0.62174000  0.07192000  0.30387000  1.0
  C  C50  1  0.25604000  0.04124000  0.70762000  1.0
  C  C51  1  0.74396000  0.95876000  0.29238000  1.0
  C  C52  1  0.21592000  0.12403000  0.78680000  1.0
  C  C53  1  0.78408000  0.87597000  0.21320000  1.0
  C  C54  1  0.33172000  0.18545000  0.88901000  1.0
  C  C55  1  0.66828000  0.81455000  0.11099000  1.0
  C  C56  1  0.20698000  0.28790000  0.92743000  1.0
  C  C57  1  0.79303000  0.71210000  0.07258000  1.0
  C  C58  1  0.46533000  0.15286000  0.91764000  1.0
  C  C59  1  0.53468000  0.84713000  0.08236000  1.0
  C  C60  1  0.21868000  0.35762000  0.98986000  1.0
  C  C61  1  0.78134000  0.64238000  0.01014000  1.0
  C  C62  1  0.47553000  0.22205000  0.98089000  1.0
  C  C63  1  0.52447000  0.77795000  0.01911000  1.0
  C  C64  1  0.35264000  0.32734000  0.01733000  1.0
  C  C65  1  0.64737000  0.67266000  0.98267000  1.0
  C  C66  1  0.36210000  0.40131000  0.07945000  1.0
  C  C67  1  0.63790000  0.59870000  0.92055000  1.0
  C  C68  1  0.36650000  0.46840000  0.13255000  1.0
  C  C69  1  0.63350000  0.53159000  0.86745000  1.0
  C  C70  1  0.36955000  0.54636000  0.19422000  1.0
  C  C71  1  0.63045000  0.45364000  0.80578000  1.0
  C  C72  1  0.24588000  0.65529000  0.22287000  1.0
  C  C73  1  0.75412000  0.34470000  0.77713000  1.0
  C  C74  1  0.49614000  0.51937000  0.22934000  1.0
  C  C75  1  0.50386000  0.48062000  0.77066000  1.0
  C  C76  1  0.25243000  0.72640000  0.28628000  1.0
  C  C77  1  0.74757000  0.27360000  0.71372000  1.0
  C  C78  1  0.49256000  0.59652000  0.29214000  1.0
  C  C79  1  0.50744000  0.40348000  0.70786000  1.0
  C  C80  1  0.12984000  0.68478000  0.59364000  1.0
  C  C81  1  0.87016000  0.31522000  0.40636000  1.0
  C  C82  1  0.03145000  0.52625000  0.72797000  1.0
  C  C83  1  0.96855000  0.47375000  0.27203000  1.0
  C  C84  1  0.89536000  0.66133000  0.59698000  1.0
  C  C85  1  0.10464000  0.33867000  0.40301000  1.0
  N  N86  1  0.31465000  0.89856000  0.55516000  1.0
  N  N87  1  0.68535000  0.10145000  0.44484000  1.0
  N  N88  1  0.33287000  0.11431000  0.82140000  1.0
  N  N89  1  0.66713000  0.88569000  0.17860000  1.0
  N  N90  1  0.37232000  0.69739000  0.32232000  1.0
  N  N91  1  0.62767000  0.30261000  0.67768000  1.0
  N  N92  1  0.02073000  0.63058000  0.63942000  1.0
  N  N93  1  0.97926000  0.36942000  0.36058000  1.0
  N  N94  1  0.25878000  0.04470000  0.29416000  1.0
  N  N95  1  0.74122000  0.95530000  0.70584000  1.0
  N  N96  1  0.60716000  0.63137000  0.47900000  1.0
  N  N97  1  0.39283000  0.36863000  0.52101000  1.0
  O  O98  1  0.08496000  0.19433000  0.81611000  1.0
  O  O99  1  0.91504000  0.80567000  0.18389000  1.0
  O  O100  1  0.13572000  0.76838000  0.51186000  1.0
  O  O101  1  0.86428000  0.23163000  0.48815000  1.0
  O  O102  1  0.37823000  0.95899000  0.32142000  1.0
  O  O103  1  0.62177000  0.04101000  0.67858000  1.0
  O  O104  1  0.13337000  0.02836000  0.34088000  1.0
  O  O105  1  0.86663000  0.97164000  0.65911000  1.0
  O  O106  1  0.27908000  0.13703000  0.22314000  1.0
  O  O107  1  0.72092000  0.86297000  0.77686000  1.0
  O  O108  1  0.47293000  0.62441000  0.52628000  1.0
  O  O109  1  0.52706000  0.37559000  0.47373000  1.0
  O  O110  1  0.61892000  0.72630000  0.40422000  1.0
  O  O111  1  0.38108000  0.27370000  0.59579000  1.0
  O  O112  1  0.71771000  0.54960000  0.50595000  1.0
  O  O113  1  0.28229000  0.45040000  0.49405000  1.0
