# generated using pymatgen
data_CoH4C9(NO2)2
_symmetry_space_group_name_H-M   'P 1'
_cell_length_a   5.90602000
_cell_length_b   10.04840000
_cell_length_c   13.36590000
_cell_angle_alpha   83.97230000
_cell_angle_beta   89.99940000
_cell_angle_gamma   89.99950000
_symmetry_Int_Tables_number   1
_chemical_formula_structural   CoH4C9(NO2)2
_chemical_formula_sum   'Co4 H16 C36 N8 O16'
_cell_volume   788.82790480
_cell_formula_units_Z   4
loop_
 _symmetry_equiv_pos_site_id
 _symmetry_equiv_pos_as_xyz
  1  'x, y, z'
loop_
 _atom_site_type_symbol
 _atom_site_label
 _atom_site_symmetry_multiplicity
 _atom_site_fract_x
 _atom_site_fract_y
 _atom_site_fract_z
 _atom_site_occupancy
  Co  Co0  1  0.77280000  0.75422000  0.82846000  1.0
  Co  Co1  1  0.27280000  0.74578000  0.67154000  1.0
  Co  Co2  1  0.22720000  0.24578000  0.17154000  1.0
  Co  Co3  1  0.72719000  0.25422000  0.32846000  1.0
  H  H4  1  0.86882000  0.36141000  0.92666000  1.0
  H  H5  1  0.36883000  0.13858000  0.57333000  1.0
  H  H6  1  0.13118000  0.63859000  0.07334000  1.0
  H  H7  1  0.63117000  0.86141000  0.42666000  1.0
  H  H8  1  0.65085000  0.41416000  0.08008000  1.0
  H  H9  1  0.15084000  0.08583000  0.41992000  1.0
  H  H10  1  0.34914000  0.58585000  0.91992000  1.0
  H  H11  1  0.84914000  0.91416000  0.58008000  1.0
  H  H12  1  0.81059000  0.17394000  0.77578000  1.0
  H  H13  1  0.31062000  0.32606000  0.72421000  1.0
  H  H14  1  0.18939000  0.82607000  0.22422000  1.0
  H  H15  1  0.68941000  0.67394000  0.27578000  1.0
  H  H16  1  0.08835000  0.08224000  0.97134000  1.0
  H  H17  1  0.58836000  0.41777000  0.52867000  1.0
  H  H18  1  0.91164000  0.91777000  0.02866000  1.0
  H  H19  1  0.41164000  0.58223000  0.47134000  1.0
  C  C20  1  0.59621000  0.34116000  0.03097000  1.0
  C  C21  1  0.09622000  0.15883000  0.46903000  1.0
  C  C22  1  0.40377000  0.65885000  0.96903000  1.0
  C  C23  1  0.90377000  0.84116000  0.53097000  1.0
  C  C24  1  0.40483000  0.19032000  0.96109000  1.0
  C  C25  1  0.90484000  0.30968000  0.53890000  1.0
  C  C26  1  0.59517000  0.80969000  0.03891000  1.0
  C  C27  1  0.09517000  0.69032000  0.46109000  1.0
  C  C28  1  0.60453000  0.21810000  0.90343000  1.0
  C  C29  1  0.10453000  0.28190000  0.59656000  1.0
  C  C30  1  0.39547000  0.78191000  0.09657000  1.0
  C  C31  1  0.89548000  0.71809000  0.40343000  1.0
  C  C32  1  0.65506000  0.15354000  0.81850000  1.0
  C  C33  1  0.15508000  0.34645000  0.68149000  1.0
  C  C34  1  0.34493000  0.84646000  0.18149000  1.0
  C  C35  1  0.84494000  0.65354000  0.31850000  1.0
  C  C36  1  0.49991000  0.05871000  0.79189000  1.0
  C  C37  1  0.99994000  0.44129000  0.70810000  1.0
  C  C38  1  0.50009000  0.94129000  0.20811000  1.0
  C  C39  1  0.00007000  0.55870000  0.29189000  1.0
  C  C40  1  0.29498000  0.03450000  0.84633000  1.0
  C  C41  1  0.79501000  0.46551000  0.65366000  1.0
  C  C42  1  0.70501000  0.96551000  0.15367000  1.0
  C  C43  1  0.20500000  0.53449000  0.34633000  1.0
  C  C44  1  0.24659000  0.09987000  0.93090000  1.0
  C  C45  1  0.74660000  0.40014000  0.56910000  1.0
  C  C46  1  0.75340000  0.90015000  0.06910000  1.0
  C  C47  1  0.25340000  0.59986000  0.43091000  1.0
  C  C48  1  0.55132000  0.98099000  0.70502000  1.0
  C  C49  1  0.05134000  0.51901000  0.79498000  1.0
  C  C50  1  0.44868000  0.01901000  0.29498000  1.0
  C  C51  1  0.94867000  0.48097000  0.20503000  1.0
  C  C52  1  0.12175000  0.94463000  0.80845000  1.0
  C  C53  1  0.62176000  0.55538000  0.69155000  1.0
  C  C54  1  0.87825000  0.05537000  0.19155000  1.0
  C  C55  1  0.37825000  0.44462000  0.30846000  1.0
  N  N56  1  0.40627000  0.26866000  0.04159000  1.0
  N  N57  1  0.90628000  0.23134000  0.45841000  1.0
  N  N58  1  0.59372000  0.73134000  0.95841000  1.0
  N  N59  1  0.09372000  0.76866000  0.54160000  1.0
  N  N60  1  0.71920000  0.31362000  0.95050000  1.0
  N  N61  1  0.21920000  0.18638000  0.54950000  1.0
  N  N62  1  0.28079000  0.68639000  0.04950000  1.0
  N  N63  1  0.78080000  0.81362000  0.45050000  1.0
  O  O64  1  0.56064000  0.84863000  0.72318000  1.0
  O  O65  1  0.06066000  0.65138000  0.77683000  1.0
  O  O66  1  0.43936000  0.15137000  0.27683000  1.0
  O  O67  1  0.93936000  0.34861000  0.22318000  1.0
  O  O68  1  0.58850000  0.03981000  0.62007000  1.0
  O  O69  1  0.08854000  0.46019000  0.87993000  1.0
  O  O70  1  0.41150000  0.96020000  0.37993000  1.0
  O  O71  1  0.91149000  0.53980000  0.12007000  1.0
  O  O72  1  0.12132000  0.92530000  0.71573000  1.0
  O  O73  1  0.62135000  0.57471000  0.78427000  1.0
  O  O74  1  0.87866000  0.07470000  0.28427000  1.0
  O  O75  1  0.37866000  0.42530000  0.21573000  1.0
  O  O76  1  0.97631000  0.89252000  0.87207000  1.0
  O  O77  1  0.47633000  0.60748000  0.62793000  1.0
  O  O78  1  0.02369000  0.10747000  0.12794000  1.0
  O  O79  1  0.52369000  0.39251000  0.37206000  1.0
