# generated using pymatgen
data_LiH2C3N3O2
_symmetry_space_group_name_H-M   'P 1'
_cell_length_a   3.42603000
_cell_length_b   9.15089000
_cell_length_c   14.12790000
_cell_angle_alpha   89.99960000
_cell_angle_beta   93.33890000
_cell_angle_gamma   89.99970000
_symmetry_Int_Tables_number   1
_chemical_formula_structural   LiH2C3N3O2
_chemical_formula_sum   'Li4 H8 C12 N12 O8'
_cell_volume   442.17508627
_cell_formula_units_Z   4
loop_
 _symmetry_equiv_pos_site_id
 _symmetry_equiv_pos_as_xyz
  1  'x, y, z'
loop_
 _atom_site_type_symbol
 _atom_site_label
 _atom_site_symmetry_multiplicity
 _atom_site_fract_x
 _atom_site_fract_y
 _atom_site_fract_z
 _atom_site_occupancy
  Li  Li0  1  0.89837000  0.85866000  0.28990000  1.0
  Li  Li1  1  0.60164000  0.35866000  0.21009000  1.0
  Li  Li2  1  0.10163000  0.14134000  0.71010000  1.0
  Li  Li3  1  0.39836000  0.64134000  0.78990000  1.0
  H  H4  1  0.38194000  0.88944000  0.41077000  1.0
  H  H5  1  0.11805000  0.38943000  0.08923000  1.0
  H  H6  1  0.61804000  0.11057000  0.58923000  1.0
  H  H7  1  0.88194000  0.61056000  0.91077000  1.0
  H  H8  1  0.45813000  0.03968000  0.35776000  1.0
  H  H9  1  0.04187000  0.53968000  0.14224000  1.0
  H  H10  1  0.54185000  0.96032000  0.64224000  1.0
  H  H11  1  0.95814000  0.46032000  0.85776000  1.0
  C  C12  1  0.84209000  0.42915000  0.41870000  1.0
  C  C13  1  0.65794000  0.92914000  0.08129000  1.0
  C  C14  1  0.15793000  0.57086000  0.58129000  1.0
  C  C15  1  0.34207000  0.07085000  0.91871000  1.0
  C  C16  1  0.87437000  0.35524000  0.50607000  1.0
  C  C17  1  0.62564000  0.85522000  0.99394000  1.0
  C  C18  1  0.12566000  0.64477000  0.49393000  1.0
  C  C19  1  0.37436000  0.14476000  0.00607000  1.0
  C  C20  1  0.95600000  0.58181000  0.40526000  1.0
  C  C21  1  0.54401000  0.08182000  0.09475000  1.0
  C  C22  1  0.04401000  0.41819000  0.59475000  1.0
  C  C23  1  0.45599000  0.91819000  0.90526000  1.0
  N  N24  1  0.67953000  0.33575000  0.35368000  1.0
  N  N25  1  0.82048000  0.83574000  0.14632000  1.0
  N  N26  1  0.32045000  0.66426000  0.64632000  1.0
  N  N27  1  0.17953000  0.16425000  0.85368000  1.0
  N  N28  1  0.61307000  0.21030000  0.39923000  1.0
  N  N29  1  0.88694000  0.71028000  0.10077000  1.0
  N  N30  1  0.38692000  0.78972000  0.60077000  1.0
  N  N31  1  0.11308000  0.28971000  0.89923000  1.0
  N  N32  1  0.72718000  0.21955000  0.49124000  1.0
  N  N33  1  0.77283000  0.71955000  0.00876000  1.0
  N  N34  1  0.27283000  0.78046000  0.50876000  1.0
  N  N35  1  0.22719000  0.28045000  0.99124000  1.0
  O  O36  1  0.90384000  0.64911000  0.32918000  1.0
  O  O37  1  0.59617000  0.14909000  0.17081000  1.0
  O  O38  1  0.09611000  0.35092000  0.67081000  1.0
  O  O39  1  0.40385000  0.85090000  0.82918000  1.0
  O  O40  1  0.41051000  0.93234000  0.34603000  1.0
  O  O41  1  0.08948000  0.43233000  0.15397000  1.0
  O  O42  1  0.58946000  0.06767000  0.65397000  1.0
  O  O43  1  0.91051000  0.56766000  0.84603000  1.0
