# generated using pymatgen
data_TbH20C30N3O10
_symmetry_space_group_name_H-M   'P 1'
_cell_length_a   9.83319000
_cell_length_b   11.99160000
_cell_length_c   25.25910000
_cell_angle_alpha   90.00010000
_cell_angle_beta   90.00010000
_cell_angle_gamma   86.95190000
_symmetry_Int_Tables_number   1
_chemical_formula_structural   TbH20C30N3O10
_chemical_formula_sum   'Tb4 H80 C120 N12 O40'
_cell_volume   2974.23021948
_cell_formula_units_Z   4
loop_
 _symmetry_equiv_pos_site_id
 _symmetry_equiv_pos_as_xyz
  1  'x, y, z'
loop_
 _atom_site_type_symbol
 _atom_site_label
 _atom_site_symmetry_multiplicity
 _atom_site_fract_x
 _atom_site_fract_y
 _atom_site_fract_z
 _atom_site_occupancy
  Tb  Tb0  1  0.39621000  0.45807000  0.07357000  1.0
  Tb  Tb1  1  0.10379000  0.54194000  0.57357000  1.0
  Tb  Tb2  1  0.60379000  0.54194000  0.92643000  1.0
  Tb  Tb3  1  0.89621000  0.45807000  0.42643000  1.0
  H  H4  1  0.67392000  0.77419000  0.98289000  1.0
  H  H5  1  0.82607000  0.22581000  0.48288000  1.0
  H  H6  1  0.32608000  0.22581000  0.01712000  1.0
  H  H7  1  0.17392000  0.77419000  0.51711000  1.0
  H  H8  1  0.74957000  0.37344000  0.13863000  1.0
  H  H9  1  0.75044000  0.62655000  0.63864000  1.0
  H  H10  1  0.25044000  0.62656000  0.86136000  1.0
  H  H11  1  0.24956000  0.37344000  0.36137000  1.0
  H  H12  1  0.38733000  0.61612000  0.22593000  1.0
  H  H13  1  0.11267000  0.38388000  0.72593000  1.0
  H  H14  1  0.61268000  0.38388000  0.77407000  1.0
  H  H15  1  0.88733000  0.61612000  0.27407000  1.0
  H  H16  1  0.41553000  0.86681000  0.10895000  1.0
  H  H17  1  0.08446000  0.13320000  0.60895000  1.0
  H  H18  1  0.58446000  0.13320000  0.89105000  1.0
  H  H19  1  0.91553000  0.86680000  0.39105000  1.0
  H  H20  1  0.67506000  0.19224000  0.06785000  1.0
  H  H21  1  0.82494000  0.80776000  0.56785000  1.0
  H  H22  1  0.32494000  0.80775000  0.93215000  1.0
  H  H23  1  0.17506000  0.19224000  0.43215000  1.0
  H  H24  1  0.85226000  0.22673000  0.00067000  1.0
  H  H25  1  0.64774000  0.77327000  0.50067000  1.0
  H  H26  1  0.14774000  0.77327000  0.99933000  1.0
  H  H27  1  0.35226000  0.22673000  0.49933000  1.0
  H  H28  1  0.92631000  0.07686000  0.93687000  1.0
  H  H29  1  0.57368000  0.92313000  0.43687000  1.0
  H  H30  1  0.07368000  0.92313000  0.06313000  1.0
  H  H31  1  0.42631000  0.07686000  0.56313000  1.0
  H  H32  1  0.82311000  0.89290000  0.94037000  1.0
  H  H33  1  0.67688000  0.10709000  0.44037000  1.0
  H  H34  1  0.17688000  0.10709000  0.05963000  1.0
  H  H35  1  0.32312000  0.89290000  0.55963000  1.0
  H  H36  1  0.00945000  0.41321000  0.00943000  1.0
  H  H37  1  0.49055000  0.58680000  0.50943000  1.0
  H  H38  1  0.99056000  0.58680000  0.99057000  1.0
  H  H39  1  0.50945000  0.41321000  0.49057000  1.0
  H  H40  1  0.27438000  0.19970000  0.13994000  1.0
  H  H41  1  0.22563000  0.80030000  0.63994000  1.0
  H  H42  1  0.72563000  0.80030000  0.86006000  1.0
  H  H43  1  0.77438000  0.19970000  0.36006000  1.0
  H  H44  1  0.21859000  0.12141000  0.22796000  1.0
  H  H45  1  0.28141000  0.87859000  0.72796000  1.0
  H  H46  1  0.78141000  0.87859000  0.77204000  1.0
  H  H47  1  0.71859000  0.12142000  0.27204000  1.0
  H  H48  1  0.98825000  0.16012000  0.26721000  1.0
  H  H49  1  0.51175000  0.83988000  0.76722000  1.0
  H  H50  1  0.01175000  0.83988000  0.73278000  1.0
  H  H51  1  0.48825000  0.16012000  0.23279000  1.0
  H  H52  1  0.71725000  0.42458000  0.28320000  1.0
  H  H53  1  0.78275000  0.57542000  0.78320000  1.0
  H  H54  1  0.28275000  0.57542000  0.71680000  1.0
  H  H55  1  0.21725000  0.42458000  0.21680000  1.0
  H  H56  1  0.57045000  0.65998000  0.42865000  1.0
  H  H57  1  0.92955000  0.34001000  0.92865000  1.0
  H  H58  1  0.42955000  0.34001000  0.57135000  1.0
  H  H59  1  0.07045000  0.65998000  0.07135000  1.0
  H  H60  1  0.81027000  0.27158000  0.21665000  1.0
  H  H61  1  0.68974000  0.72842000  0.71666000  1.0
  H  H62  1  0.18974000  0.72842000  0.78334000  1.0
  H  H63  1  0.31027000  0.27158000  0.28335000  1.0
  H  H64  1  0.37935000  0.80542000  0.44101000  1.0
  H  H65  1  0.12065000  0.19457000  0.94101000  1.0
  H  H66  1  0.62066000  0.19458000  0.55899000  1.0
  H  H67  1  0.87935000  0.80542000  0.05899000  1.0
  H  H68  1  0.22402000  0.85431000  0.36567000  1.0
  H  H69  1  0.27598000  0.14568000  0.86567000  1.0
  H  H70  1  0.77599000  0.14568000  0.63433000  1.0
  H  H71  1  0.72402000  0.85431000  0.13433000  1.0
  H  H72  1  0.25478000  0.75952000  0.27888000  1.0
  H  H73  1  0.24522000  0.24048000  0.77888000  1.0
  H  H74  1  0.74522000  0.24048000  0.72112000  1.0
  H  H75  1  0.75478000  0.75952000  0.22112000  1.0
  H  H76  1  0.48753000  0.20711000  0.11117000  1.0
  H  H77  1  0.01247000  0.79289000  0.61117000  1.0
  H  H78  1  0.51247000  0.79289000  0.88883000  1.0
  H  H79  1  0.98753000  0.20711000  0.38883000  1.0
  H  H80  1  0.54295000  0.31048000  0.14441000  1.0
  H  H81  1  0.95705000  0.68952000  0.64441000  1.0
  H  H82  1  0.45705000  0.68952000  0.85559000  1.0
  H  H83  1  0.04295000  0.31048000  0.35559000  1.0
  C  C84  1  0.49388000  0.69422000  0.04137000  1.0
  C  C85  1  0.00612000  0.30579000  0.54137000  1.0
  C  C86  1  0.50612000  0.30579000  0.95863000  1.0
  C  C87  1  0.99388000  0.69421000  0.45863000  1.0
  C  C88  1  0.54135000  0.81156000  0.04456000  1.0
  C  C89  1  0.95865000  0.18844000  0.54455000  1.0
  C  C90  1  0.45865000  0.18844000  0.95545000  1.0
  C  C91  1  0.04135000  0.81156000  0.45544000  1.0
  C  C92  1  0.49352000  0.88952000  0.08100000  1.0
  C  C93  1  0.00647000  0.11049000  0.58099000  1.0
  C  C94  1  0.50647000  0.11049000  0.91900000  1.0
  C  C95  1  0.99352000  0.88951000  0.41900000  1.0
  C  C96  1  0.54154000  0.00038000  0.08184000  1.0
  C  C97  1  0.95846000  0.99962000  0.58183000  1.0
  C  C98  1  0.45846000  0.99963000  0.91816000  1.0
  C  C99  1  0.04154000  0.00038000  0.41816000  1.0
  C  C100  1  0.64859000  0.02277000  0.04328000  1.0
  C  C101  1  0.85141000  0.97724000  0.54328000  1.0
  C  C102  1  0.35141000  0.97724000  0.95672000  1.0
  C  C103  1  0.14859000  0.02276000  0.45672000  1.0
  C  C104  1  0.70928000  0.12658000  0.04040000  1.0
  C  C105  1  0.79072000  0.87342000  0.54040000  1.0
  C  C106  1  0.29072000  0.87342000  0.95960000  1.0
  C  C107  1  0.20928000  0.12658000  0.45960000  1.0
  C  C108  1  0.80778000  0.14570000  0.00278000  1.0
  C  C109  1  0.69222000  0.85430000  0.50278000  1.0
  C  C110  1  0.19222000  0.85430000  0.99722000  1.0
  C  C111  1  0.30778000  0.14570000  0.49722000  1.0
  C  C112  1  0.84956000  0.06118000  0.96669000  1.0
  C  C113  1  0.65044000  0.93882000  0.46669000  1.0
  C  C114  1  0.15044000  0.93882000  0.03331000  1.0
  C  C115  1  0.34956000  0.06118000  0.53331000  1.0
  C  C116  1  0.79320000  0.95831000  0.96855000  1.0
  C  C117  1  0.70679000  0.04169000  0.46854000  1.0
  C  C118  1  0.20679000  0.04169000  0.03146000  1.0
  C  C119  1  0.29321000  0.95831000  0.53145000  1.0
  C  C120  1  0.69264000  0.93839000  0.00675000  1.0
  C  C121  1  0.80735000  0.06161000  0.50675000  1.0
  C  C122  1  0.30736000  0.06161000  0.99325000  1.0
  C  C123  1  0.19264000  0.93838000  0.49325000  1.0
  C  C124  1  0.74079000  0.44781000  0.04475000  1.0
  C  C125  1  0.75921000  0.55219000  0.54475000  1.0
  C  C126  1  0.25921000  0.55219000  0.95525000  1.0
  C  C127  1  0.24079000  0.44781000  0.45525000  1.0
  C  C128  1  0.86599000  0.39415000  0.07202000  1.0
  C  C129  1  0.63401000  0.60585000  0.57202000  1.0
  C  C130  1  0.13401000  0.60585000  0.92798000  1.0
  C  C131  1  0.36599000  0.39415000  0.42798000  1.0
  C  C132  1  0.99307000  0.38002000  0.04879000  1.0
  C  C133  1  0.50693000  0.61998000  0.54880000  1.0
  C  C134  1  0.00693000  0.61998000  0.95121000  1.0
  C  C135  1  0.49307000  0.38002000  0.45121000  1.0
  C  C136  1  0.10424000  0.32641000  0.07648000  1.0
  C  C137  1  0.39576000  0.67359000  0.57649000  1.0
  C  C138  1  0.89576000  0.67360000  0.92352000  1.0
  C  C139  1  0.60424000  0.32641000  0.42352000  1.0
  C  C140  1  0.07389000  0.27712000  0.12750000  1.0
  C  C141  1  0.42611000  0.72287000  0.62751000  1.0
  C  C142  1  0.92611000  0.72288000  0.87250000  1.0
  C  C143  1  0.57389000  0.27712000  0.37250000  1.0
  C  C144  1  0.17297000  0.21349000  0.15674000  1.0
  C  C145  1  0.32704000  0.78650000  0.65674000  1.0
  C  C146  1  0.82704000  0.78651000  0.84326000  1.0
  C  C147  1  0.67297000  0.21349000  0.34326000  1.0
  C  C148  1  0.14162000  0.17087000  0.20585000  1.0
  C  C149  1  0.35838000  0.82913000  0.70585000  1.0
  C  C150  1  0.85839000  0.82913000  0.79415000  1.0
  C  C151  1  0.64162000  0.17087000  0.29415000  1.0
  C  C152  1  0.01095000  0.19218000  0.22791000  1.0
  C  C153  1  0.48906000  0.80782000  0.72791000  1.0
  C  C154  1  0.98906000  0.80783000  0.77208000  1.0
  C  C155  1  0.51095000  0.19218000  0.27209000  1.0
  C  C156  1  0.94194000  0.29573000  0.14965000  1.0
  C  C157  1  0.55806000  0.70426000  0.64965000  1.0
  C  C158  1  0.05806000  0.70427000  0.85035000  1.0
  C  C159  1  0.44193000  0.29573000  0.35035000  1.0
  C  C160  1  0.54673000  0.46422000  0.19754000  1.0
  C  C161  1  0.95327000  0.53578000  0.69754000  1.0
  C  C162  1  0.45327000  0.53578000  0.80246000  1.0
  C  C163  1  0.04672000  0.46422000  0.30246000  1.0
  C  C164  1  0.54933000  0.52117000  0.25079000  1.0
  C  C165  1  0.95067000  0.47883000  0.75079000  1.0
  C  C166  1  0.45067000  0.47883000  0.74921000  1.0
  C  C167  1  0.04933000  0.52117000  0.24921000  1.0
  C  C168  1  0.64068000  0.49160000  0.29025000  1.0
  C  C169  1  0.85932000  0.50840000  0.79026000  1.0
  C  C170  1  0.35932000  0.50839000  0.70974000  1.0
  C  C171  1  0.14068000  0.49160000  0.20974000  1.0
  C  C172  1  0.62954000  0.54355000  0.34100000  1.0
  C  C173  1  0.87046000  0.45645000  0.84101000  1.0
  C  C174  1  0.37046000  0.45645000  0.65899000  1.0
  C  C175  1  0.12954000  0.54356000  0.15900000  1.0
  C  C176  1  0.52005000  0.62933000  0.34772000  1.0
  C  C177  1  0.97995000  0.37066000  0.84772000  1.0
  C  C178  1  0.47996000  0.37066000  0.65228000  1.0
  C  C179  1  0.02005000  0.62934000  0.15228000  1.0
  C  C180  1  0.50012000  0.68378000  0.39671000  1.0
  C  C181  1  0.99988000  0.31621000  0.89672000  1.0
  C  C182  1  0.49988000  0.31621000  0.60328000  1.0
  C  C183  1  0.00012000  0.68378000  0.10328000  1.0
  C  C184  1  0.91163000  0.25387000  0.20034000  1.0
  C  C185  1  0.58837000  0.74612000  0.70034000  1.0
  C  C186  1  0.08837000  0.74612000  0.79966000  1.0
  C  C187  1  0.41163000  0.25387000  0.29966000  1.0
  C  C188  1  0.39488000  0.76374000  0.40302000  1.0
  C  C189  1  0.10512000  0.23625000  0.90302000  1.0
  C  C190  1  0.60512000  0.23625000  0.59698000  1.0
  C  C191  1  0.89488000  0.76375000  0.09698000  1.0
  C  C192  1  0.30696000  0.79152000  0.36032000  1.0
  C  C193  1  0.19303000  0.20847000  0.86032000  1.0
  C  C194  1  0.69304000  0.20848000  0.63968000  1.0
  C  C195  1  0.80696000  0.79152000  0.13968000  1.0
  C  C196  1  0.32351000  0.73897000  0.31180000  1.0
  C  C197  1  0.17649000  0.26103000  0.81180000  1.0
  C  C198  1  0.67649000  0.26103000  0.68820000  1.0
  C  C199  1  0.82351000  0.73897000  0.18820000  1.0
  C  C200  1  0.43041000  0.65724000  0.30517000  1.0
  C  C201  1  0.06959000  0.34276000  0.80517000  1.0
  C  C202  1  0.56959000  0.34276000  0.69483000  1.0
  C  C203  1  0.93041000  0.65724000  0.19483000  1.0
  N  N204  1  0.63654000  0.83624000  0.00834000  1.0
  N  N205  1  0.86345000  0.16376000  0.50834000  1.0
  N  N206  1  0.36345000  0.16376000  0.99166000  1.0
  N  N207  1  0.13654000  0.83624000  0.49166000  1.0
  N  N208  1  0.84410000  0.35583000  0.12135000  1.0
  N  N209  1  0.65590000  0.64416000  0.62135000  1.0
  N  N210  1  0.15591000  0.64417000  0.87865000  1.0
  N  N211  1  0.34410000  0.35583000  0.37865000  1.0
  N  N212  1  0.44979000  0.60196000  0.25793000  1.0
  N  N213  1  0.05021000  0.39803000  0.75793000  1.0
  N  N214  1  0.55021000  0.39803000  0.74207000  1.0
  N  N215  1  0.94979000  0.60197000  0.24207000  1.0
  O  O216  1  0.42546000  0.65732000  0.07914000  1.0
  O  O217  1  0.07454000  0.34269000  0.57913000  1.0
  O  O218  1  0.57453000  0.34269000  0.92086000  1.0
  O  O219  1  0.92546000  0.65731000  0.42086000  1.0
  O  O220  1  0.52887000  0.63891000  0.00018000  1.0
  O  O221  1  0.97112000  0.36109000  0.50018000  1.0
  O  O222  1  0.47112000  0.36110000  0.99982000  1.0
  O  O223  1  0.02888000  0.63891000  0.49982000  1.0
  O  O224  1  0.49423000  0.07362000  0.11430000  1.0
  O  O225  1  0.00577000  0.92638000  0.61429000  1.0
  O  O226  1  0.50577000  0.92638000  0.88571000  1.0
  O  O227  1  0.99423000  0.07362000  0.38570000  1.0
  O  O228  1  0.45890000  0.50418000  0.16517000  1.0
  O  O229  1  0.04110000  0.49582000  0.66517000  1.0
  O  O230  1  0.54111000  0.49582000  0.83483000  1.0
  O  O231  1  0.95889000  0.50418000  0.33483000  1.0
  O  O232  1  0.70630000  0.51619000  0.37966000  1.0
  O  O233  1  0.79370000  0.48381000  0.87966000  1.0
  O  O234  1  0.29370000  0.48381000  0.62034000  1.0
  O  O235  1  0.20630000  0.51619000  0.12034000  1.0
  O  O236  1  0.62871000  0.38016000  0.19103000  1.0
  O  O237  1  0.87130000  0.61984000  0.69103000  1.0
  O  O238  1  0.37130000  0.61984000  0.80897000  1.0
  O  O239  1  0.12871000  0.38016000  0.30897000  1.0
  O  O240  1  0.47961000  0.29097000  0.11555000  1.0
  O  O241  1  0.02039000  0.70904000  0.61555000  1.0
  O  O242  1  0.52039000  0.70904000  0.88445000  1.0
  O  O243  1  0.97961000  0.29097000  0.38445000  1.0
  O  O244  1  0.22641000  0.32125000  0.05791000  1.0
  O  O245  1  0.27359000  0.67875000  0.55792000  1.0
  O  O246  1  0.77359000  0.67876000  0.94208000  1.0
  O  O247  1  0.72640000  0.32125000  0.44209000  1.0
  O  O248  1  0.63889000  0.46825000  0.07457000  1.0
  O  O249  1  0.86111000  0.53175000  0.57457000  1.0
  O  O250  1  0.36111000  0.53176000  0.92543000  1.0
  O  O251  1  0.13889000  0.46825000  0.42543000  1.0
  O  O252  1  0.74979000  0.46315000  0.99544000  1.0
  O  O253  1  0.75021000  0.53686000  0.49544000  1.0
  O  O254  1  0.25021000  0.53686000  0.00456000  1.0
  O  O255  1  0.24979000  0.46315000  0.50455000  1.0
