# generated using pymatgen
data_CuH7C8N2O
_symmetry_space_group_name_H-M   'P 1'
_cell_length_a   7.23780000
_cell_length_b   8.88959000
_cell_length_c   11.84940000
_cell_angle_alpha   90.00000000
_cell_angle_beta   90.97890000
_cell_angle_gamma   89.99960000
_symmetry_Int_Tables_number   1
_chemical_formula_structural   CuH7C8N2O
_chemical_formula_sum   'Cu4 H28 C32 N8 O4'
_cell_volume   762.29185885
_cell_formula_units_Z   4
loop_
 _symmetry_equiv_pos_site_id
 _symmetry_equiv_pos_as_xyz
  1  'x, y, z'
loop_
 _atom_site_type_symbol
 _atom_site_label
 _atom_site_symmetry_multiplicity
 _atom_site_fract_x
 _atom_site_fract_y
 _atom_site_fract_z
 _atom_site_occupancy
  Cu  Cu0  1  0.12459000  0.09149000  0.53771000  1.0
  Cu  Cu1  1  0.37542000  0.59149000  0.46229000  1.0
  Cu  Cu2  1  0.87543000  0.90851000  0.46229000  1.0
  Cu  Cu3  1  0.62459000  0.40851000  0.53771000  1.0
  H  H4  1  0.06447000  0.38997000  0.64467000  1.0
  H  H5  1  0.43552000  0.88997000  0.35533000  1.0
  H  H6  1  0.93553000  0.61003000  0.35533000  1.0
  H  H7  1  0.56449000  0.11002000  0.64467000  1.0
  H  H8  1  0.83052000  0.31331000  0.97315000  1.0
  H  H9  1  0.66948000  0.81330000  0.02686000  1.0
  H  H10  1  0.16948000  0.68670000  0.02685000  1.0
  H  H11  1  0.33051000  0.18670000  0.97314000  1.0
  H  H12  1  0.15281000  0.59298000  0.71323000  1.0
  H  H13  1  0.34719000  0.09299000  0.28677000  1.0
  H  H14  1  0.84719000  0.40701000  0.28677000  1.0
  H  H15  1  0.65281000  0.90701000  0.71323000  1.0
  H  H16  1  0.10651000  0.73175000  0.81834000  1.0
  H  H17  1  0.39349000  0.23174000  0.18165000  1.0
  H  H18  1  0.89350000  0.26825000  0.18165000  1.0
  H  H19  1  0.60651000  0.76825000  0.81835000  1.0
  H  H20  1  0.95032000  0.70262000  0.70212000  1.0
  H  H21  1  0.54968000  0.20262000  0.29788000  1.0
  H  H22  1  0.04968000  0.29739000  0.29788000  1.0
  H  H23  1  0.45032000  0.79738000  0.70212000  1.0
  H  H24  1  0.86207000  0.03749000  0.93745000  1.0
  H  H25  1  0.63793000  0.53748000  0.06255000  1.0
  H  H26  1  0.13793000  0.96251000  0.06255000  1.0
  H  H27  1  0.36206000  0.46252000  0.93745000  1.0
  H  H28  1  0.99644000  0.95310000  0.75313000  1.0
  H  H29  1  0.50355000  0.45310000  0.24687000  1.0
  H  H30  1  0.00356000  0.04690000  0.24687000  1.0
  H  H31  1  0.49645000  0.54690000  0.75313000  1.0
  C  C32  1  0.01939000  0.31672000  0.71267000  1.0
  C  C33  1  0.48060000  0.81672000  0.28733000  1.0
  C  C34  1  0.98061000  0.68328000  0.28733000  1.0
  C  C35  1  0.51940000  0.18328000  0.71267000  1.0
  C  C36  1  0.30237000  0.39067000  0.47297000  1.0
  C  C37  1  0.19764000  0.89066000  0.52705000  1.0
  C  C38  1  0.69764000  0.60933000  0.52703000  1.0
  C  C39  1  0.80237000  0.10932000  0.47297000  1.0
  C  C40  1  0.93418000  0.53931000  0.83303000  1.0
  C  C41  1  0.56582000  0.03929000  0.16697000  1.0
  C  C42  1  0.06582000  0.46070000  0.16696000  1.0
  C  C43  1  0.43418000  0.96070000  0.83303000  1.0
  C  C44  1  0.88922000  0.27228000  0.89504000  1.0
  C  C45  1  0.61077000  0.77227000  0.10496000  1.0
  C  C46  1  0.11077000  0.72773000  0.10496000  1.0
  C  C47  1  0.38922000  0.22772000  0.89503000  1.0
  C  C48  1  0.04446000  0.64615000  0.76259000  1.0
  C  C49  1  0.45554000  0.14614000  0.23740000  1.0
  C  C50  1  0.95554000  0.35385000  0.23741000  1.0
  C  C51  1  0.54446000  0.85385000  0.76260000  1.0
  C  C52  1  0.94876000  0.37425000  0.81306000  1.0
  C  C53  1  0.55123000  0.87424000  0.18694000  1.0
  C  C54  1  0.05124000  0.62575000  0.18694000  1.0
  C  C55  1  0.44876000  0.12575000  0.81306000  1.0
  C  C56  1  0.90666000  0.11893000  0.87490000  1.0
  C  C57  1  0.59333000  0.61893000  0.12511000  1.0
  C  C58  1  0.09334000  0.88107000  0.12511000  1.0
  C  C59  1  0.40666000  0.38107000  0.87489000  1.0
  C  C60  1  0.97995000  0.07194000  0.77288000  1.0
  C  C61  1  0.52005000  0.57193000  0.22713000  1.0
  C  C62  1  0.02006000  0.92806000  0.22712000  1.0
  C  C63  1  0.47995000  0.42806000  0.77287000  1.0
  N  N64  1  0.03398000  0.16867000  0.69243000  1.0
  N  N65  1  0.46602000  0.66867000  0.30757000  1.0
  N  N66  1  0.96602000  0.83133000  0.30757000  1.0
  N  N67  1  0.53399000  0.33133000  0.69243000  1.0
  N  N68  1  0.23078000  0.27149000  0.47920000  1.0
  N  N69  1  0.26922000  0.77150000  0.52081000  1.0
  N  N70  1  0.76923000  0.72851000  0.52080000  1.0
  N  N71  1  0.73078000  0.22851000  0.47920000  1.0
  O  O72  1  0.83142000  0.58727000  0.90731000  1.0
  O  O73  1  0.66858000  0.08726000  0.09270000  1.0
  O  O74  1  0.16858000  0.41274000  0.09269000  1.0
  O  O75  1  0.33141000  0.91274000  0.90730000  1.0
