# generated using pymatgen
data_NiH28C20O7
_symmetry_space_group_name_H-M   'P 1'
_cell_length_a   7.56785000
_cell_length_b   9.71201000
_cell_length_c   15.43460000
_cell_angle_alpha   105.09500000
_cell_angle_beta   90.39410000
_cell_angle_gamma   90.70290000
_symmetry_Int_Tables_number   1
_chemical_formula_structural   NiH28C20O7
_chemical_formula_sum   'Ni2 H56 C40 O14'
_cell_volume   1095.14313161
_cell_formula_units_Z   2
loop_
 _symmetry_equiv_pos_site_id
 _symmetry_equiv_pos_as_xyz
  1  'x, y, z'
loop_
 _atom_site_type_symbol
 _atom_site_label
 _atom_site_symmetry_multiplicity
 _atom_site_fract_x
 _atom_site_fract_y
 _atom_site_fract_z
 _atom_site_occupancy
  Ni  Ni0  1  0.50000000  0.50000000  0.50000000  1.0
  Ni  Ni1  1  0.00001000  0.50000000  0.50000000  1.0
  H  H2  1  0.70629000  0.42248000  0.61639000  1.0
  H  H3  1  0.29372000  0.57752000  0.38361000  1.0
  H  H4  1  0.50937000  0.42525000  0.65510000  1.0
  H  H5  1  0.49063000  0.57475000  0.34490000  1.0
  H  H6  1  0.25985000  0.32737000  0.45306000  1.0
  H  H7  1  0.74015000  0.67263000  0.54694000  1.0
  H  H8  1  0.23478000  0.39134000  0.56705000  1.0
  H  H9  1  0.76522000  0.60866000  0.43295000  1.0
  H  H10  1  0.98645000  0.25718000  0.36983000  1.0
  H  H11  1  0.01355000  0.74281000  0.63017000  1.0
  H  H12  1  0.79019000  0.29592000  0.40583000  1.0
  H  H13  1  0.20981000  0.70408000  0.59417000  1.0
  H  H14  1  0.82395000  0.82677000  0.25015000  1.0
  H  H15  1  0.17604000  0.17323000  0.74984000  1.0
  H  H16  1  0.63720000  0.04449000  0.05876000  1.0
  H  H17  1  0.36280000  0.95552000  0.94124000  1.0
  H  H18  1  0.68053000  0.87779000  0.39765000  1.0
  H  H19  1  0.31946000  0.12221000  0.60235000  1.0
  H  H20  1  0.55141000  0.03346000  0.43721000  1.0
  H  H21  1  0.44858000  0.96653000  0.56278000  1.0
  H  H22  1  0.78425000  0.04849000  0.43413000  1.0
  H  H23  1  0.21573000  0.95150000  0.56587000  1.0
  H  H24  1  0.98040000  0.88545000  0.06530000  1.0
  H  H25  1  0.01961000  0.11455000  0.93469000  1.0
  H  H26  1  0.78548000  0.80301000  0.01050000  1.0
  H  H27  1  0.21452000  0.19699000  0.98950000  1.0
  H  H28  1  0.89207000  0.73385000  0.09350000  1.0
  H  H29  1  0.10793000  0.26615000  0.90649000  1.0
  H  H30  1  0.43612000  0.23482000  0.10033000  1.0
  H  H31  1  0.56388000  0.76518000  0.89967000  1.0
  H  H32  1  0.48500000  0.35033000  0.20728000  1.0
  H  H33  1  0.51501000  0.64967000  0.79272000  1.0
  H  H34  1  0.29925000  0.23464000  0.19369000  1.0
  H  H35  1  0.70075000  0.76536000  0.80631000  1.0
  H  H36  1  0.65161000  0.12810000  0.80136000  1.0
  H  H37  1  0.34839000  0.87190000  0.19864000  1.0
  H  H38  1  0.83296000  0.53448000  0.96558000  1.0
  H  H39  1  0.16703000  0.46552000  0.03442000  1.0
  H  H40  1  0.77682000  0.03107000  0.65593000  1.0
  H  H41  1  0.22318000  0.96893000  0.34407000  1.0
  H  H42  1  0.95046000  0.12233000  0.61574000  1.0
  H  H43  1  0.04954000  0.87767000  0.38426000  1.0
  H  H44  1  0.72806000  0.16588000  0.60089000  1.0
  H  H45  1  0.27194000  0.83411000  0.39911000  1.0
  H  H46  1  0.51021000  0.23942000  0.94759000  1.0
  H  H47  1  0.48978000  0.76058000  0.05241000  1.0
  H  H48  1  0.59296000  0.40424000  0.01777000  1.0
  H  H49  1  0.40703000  0.59576000  0.98223000  1.0
  H  H50  1  0.71090000  0.24506000  0.00782000  1.0
  H  H51  1  0.28910000  0.75494000  0.99218000  1.0
  H  H52  1  0.17841000  0.58942000  0.83089000  1.0
  H  H53  1  0.82159000  0.41059000  0.16912000  1.0
  H  H54  1  0.02107000  0.68505000  0.90790000  1.0
  H  H55  1  0.97893000  0.31496000  0.09210000  1.0
  H  H56  1  0.99848000  0.67050000  0.79121000  1.0
  H  H57  1  0.00151000  0.32951000  0.20880000  1.0
  C  C58  1  0.47014000  0.22343000  0.35595000  1.0
  C  C59  1  0.52986000  0.77657000  0.64405000  1.0
  C  C60  1  0.55933000  0.11516000  0.28271000  1.0
  C  C61  1  0.44067000  0.88484000  0.71729000  1.0
  C  C62  1  0.65824000  0.00665000  0.30399000  1.0
  C  C63  1  0.34176000  0.99335000  0.69601000  1.0
  C  C64  1  0.74992000  0.91330000  0.23487000  1.0
  C  C65  1  0.25008000  0.08670000  0.76513000  1.0
  C  C66  1  0.74782000  0.92780000  0.14714000  1.0
  C  C67  1  0.25218000  0.07219000  0.85285000  1.0
  C  C68  1  0.64402000  0.03476000  0.12766000  1.0
  C  C69  1  0.35598000  0.96524000  0.87234000  1.0
  C  C70  1  0.54821000  0.12882000  0.19416000  1.0
  C  C71  1  0.45180000  0.87119000  0.80584000  1.0
  C  C72  1  0.66835000  0.99048000  0.39826000  1.0
  C  C73  1  0.33164000  0.00952000  0.60174000  1.0
  C  C74  1  0.85602000  0.83182000  0.07531000  1.0
  C  C75  1  0.14398000  0.16818000  0.92469000  1.0
  C  C76  1  0.43637000  0.24266000  0.17241000  1.0
  C  C77  1  0.56363000  0.75734000  0.82759000  1.0
  C  C78  1  0.02055000  0.40035000  0.66904000  1.0
  C  C79  1  0.97945000  0.59965000  0.33096000  1.0
  C  C80  1  0.92491000  0.37305000  0.74786000  1.0
  C  C81  1  0.07509000  0.62695000  0.25214000  1.0
  C  C82  1  0.82552000  0.24593000  0.73640000  1.0
  C  C83  1  0.17449000  0.75407000  0.26361000  1.0
  C  C84  1  0.72934000  0.22620000  0.80948000  1.0
  C  C85  1  0.27064000  0.77380000  0.19052000  1.0
  C  C86  1  0.73016000  0.32906000  0.89203000  1.0
  C  C87  1  0.26983000  0.67094000  0.10797000  1.0
  C  C88  1  0.83077000  0.45407000  0.90123000  1.0
  C  C89  1  0.16922000  0.54593000  0.09877000  1.0
  C  C90  1  0.92929000  0.47815000  0.83014000  1.0
  C  C91  1  0.07071000  0.52185000  0.16986000  1.0
  C  C92  1  0.82024000  0.13499000  0.64775000  1.0
  C  C93  1  0.17976000  0.86501000  0.35225000  1.0
  C  C94  1  0.62997000  0.30375000  0.97025000  1.0
  C  C95  1  0.37003000  0.69625000  0.02975000  1.0
  C  C96  1  0.03711000  0.61291000  0.84093000  1.0
  C  C97  1  0.96288000  0.38709000  0.15907000  1.0
  O  O98  1  0.57410000  0.32228000  0.40228000  1.0
  O  O99  1  0.42590000  0.67773000  0.59771000  1.0
  O  O100  1  0.30590000  0.21585000  0.36863000  1.0
  O  O101  1  0.69411000  0.78415000  0.63137000  1.0
  O  O102  1  0.57854000  0.39827000  0.60044000  1.0
  O  O103  1  0.42146000  0.60172000  0.39956000  1.0
  O  O104  1  0.24861000  0.41774000  0.50637000  1.0
  O  O105  1  0.75139000  0.58225000  0.49363000  1.0
  O  O106  1  0.92264000  0.44959000  0.61541000  1.0
  O  O107  1  0.07736000  0.55041000  0.38459000  1.0
  O  O108  1  0.18372000  0.37603000  0.65861000  1.0
  O  O109  1  0.81628000  0.62397000  0.34140000  1.0
  O  O110  1  0.91738000  0.29198000  0.42396000  1.0
  O  O111  1  0.08262000  0.70801000  0.57604000  1.0
