# generated using pymatgen
data_Zn5H30(C17O12)2
_symmetry_space_group_name_H-M   'P 1'
_cell_length_a   8.39635000
_cell_length_b   9.86378000
_cell_length_c   24.64190000
_cell_angle_alpha   90.35430000
_cell_angle_beta   90.00020000
_cell_angle_gamma   89.99980000
_symmetry_Int_Tables_number   1
_chemical_formula_structural   Zn5H30(C17O12)2
_chemical_formula_sum   'Zn10 H60 C68 O48'
_cell_volume   2040.79695907
_cell_formula_units_Z   2
loop_
 _symmetry_equiv_pos_site_id
 _symmetry_equiv_pos_as_xyz
  1  'x, y, z'
loop_
 _atom_site_type_symbol
 _atom_site_label
 _atom_site_symmetry_multiplicity
 _atom_site_fract_x
 _atom_site_fract_y
 _atom_site_fract_z
 _atom_site_occupancy
  Zn  Zn0  1  0.77249000  0.68313000  0.59746000  1.0
  Zn  Zn1  1  0.27249000  0.81687000  0.90254000  1.0
  Zn  Zn2  1  0.22751000  0.31688000  0.40254000  1.0
  Zn  Zn3  1  0.72751000  0.18313000  0.09746000  1.0
  Zn  Zn4  1  0.66666667  0.76219000  0.90893000  1.0
  Zn  Zn5  1  0.16664000  0.73780000  0.59107000  1.0
  Zn  Zn6  1  0.33333333  0.23780000  0.09107000  1.0
  Zn  Zn7  1  0.83336000  0.26220000  0.40893000  1.0
  Zn  Zn8  1  0.50000000  0.00000000  0.00000000  1.0
  Zn  Zn9  1  0.00000000  0.50000000  0.50000000  1.0
  H  H10  1  0.73187000  0.30604000  0.93626000  1.0
  H  H11  1  0.23187000  0.19395000  0.56374000  1.0
  H  H12  1  0.26813000  0.69396000  0.06374000  1.0
  H  H13  1  0.76813000  0.80605000  0.43626000  1.0
  H  H14  1  0.04858000  0.46905000  0.81652000  1.0
  H  H15  1  0.54858000  0.03095000  0.68348000  1.0
  H  H16  1  0.95142000  0.53095000  0.18348000  1.0
  H  H17  1  0.45142000  0.96905000  0.31653000  1.0
  H  H18  1  0.99212000  0.03574000  0.83120000  1.0
  H  H19  1  0.49212000  0.46425000  0.66880000  1.0
  H  H20  1  0.00788000  0.96425000  0.16880000  1.0
  H  H21  1  0.50788000  0.53575000  0.33120000  1.0
  H  H22  1  0.22833000  0.13821000  0.78314000  1.0
  H  H23  1  0.72833000  0.36179000  0.71685000  1.0
  H  H24  1  0.77166000  0.86179000  0.21685000  1.0
  H  H25  1  0.27167000  0.63821000  0.28315000  1.0
  H  H26  1  0.23476000  0.31443000  0.77028000  1.0
  H  H27  1  0.73477000  0.18556000  0.72972000  1.0
  H  H28  1  0.76523000  0.68556000  0.22972000  1.0
  H  H29  1  0.26524000  0.81444000  0.27028000  1.0
  H  H30  1  0.04505000  0.41536000  0.70140000  1.0
  H  H31  1  0.54505000  0.08464000  0.79860000  1.0
  H  H32  1  0.95495000  0.58464000  0.29860000  1.0
  H  H33  1  0.45494000  0.91536000  0.20140000  1.0
  H  H34  1  0.83512000  0.13845000  0.58634000  1.0
  H  H35  1  0.33512000  0.36155000  0.91366000  1.0
  H  H36  1  0.16488000  0.86155000  0.41366000  1.0
  H  H37  1  0.66487000  0.63845000  0.08634000  1.0
  H  H38  1  0.08224000  0.98362000  0.72526000  1.0
  H  H39  1  0.58224000  0.51638000  0.77474000  1.0
  H  H40  1  0.91776000  0.01638000  0.27474000  1.0
  H  H41  1  0.41776000  0.48362000  0.22526000  1.0
  H  H42  1  0.45913000  0.74997000  0.98422000  1.0
  H  H43  1  0.95913000  0.75003000  0.51578000  1.0
  H  H44  1  0.54087000  0.25003000  0.01578000  1.0
  H  H45  1  0.04087000  0.24997000  0.48422000  1.0
  H  H46  1  0.77324000  0.80619000  0.01903000  1.0
  H  H47  1  0.27324000  0.69381000  0.48097000  1.0
  H  H48  1  0.22675000  0.19381000  0.98097000  1.0
  H  H49  1  0.72676000  0.30619000  0.51903000  1.0
  H  H50  1  0.81600000  0.66455000  0.99019000  1.0
  H  H51  1  0.31600000  0.83545000  0.50981000  1.0
  H  H52  1  0.18400000  0.33545000  0.00981000  1.0
  H  H53  1  0.68400000  0.16455000  0.49019000  1.0
  H  H54  1  0.66152000  0.72483000  0.69816000  1.0
  H  H55  1  0.16151000  0.77517000  0.80184000  1.0
  H  H56  1  0.33849000  0.27517000  0.30183000  1.0
  H  H57  1  0.83849000  0.22483000  0.19817000  1.0
  H  H58  1  0.52157000  0.76352000  0.65790000  1.0
  H  H59  1  0.02157000  0.73648000  0.84210000  1.0
  H  H60  1  0.47843000  0.23648000  0.34210000  1.0
  H  H61  1  0.97844000  0.26352000  0.15790000  1.0
  H  H62  1  0.51092000  0.67847000  0.53129000  1.0
  H  H63  1  0.01092000  0.82153000  0.96871000  1.0
  H  H64  1  0.48908000  0.32153000  0.46871000  1.0
  H  H65  1  0.98908000  0.17847000  0.03129000  1.0
  H  H66  1  0.66666667  0.60343000  0.50746000  1.0
  H  H67  1  0.16664000  0.89657000  0.99254000  1.0
  H  H68  1  0.33333333  0.39657000  0.49254000  1.0
  H  H69  1  0.83336000  0.10343000  0.00746000  1.0
  C  C70  1  0.85541000  0.15866000  0.88637000  1.0
  C  C71  1  0.35541000  0.34134000  0.61363000  1.0
  C  C72  1  0.14459000  0.84134000  0.11363000  1.0
  C  C73  1  0.64459000  0.65866000  0.38637000  1.0
  C  C74  1  0.81862000  0.28983000  0.90410000  1.0
  C  C75  1  0.31862000  0.21017000  0.59590000  1.0
  C  C76  1  0.18138000  0.71017000  0.09590000  1.0
  C  C77  1  0.68138000  0.78983000  0.40410000  1.0
  C  C78  1  0.88525000  0.40185000  0.87808000  1.0
  C  C79  1  0.38526000  0.09814000  0.62192000  1.0
  C  C80  1  0.11475000  0.59815000  0.12192000  1.0
  C  C81  1  0.61475000  0.90185000  0.37808000  1.0
  C  C82  1  0.99595000  0.38110000  0.83620000  1.0
  C  C83  1  0.49595000  0.11889000  0.66380000  1.0
  C  C84  1  0.00405000  0.61890000  0.16380000  1.0
  C  C85  1  0.50405000  0.88111000  0.33620000  1.0
  C  C86  1  0.03777000  0.25011000  0.81936000  1.0
  C  C87  1  0.53777000  0.24988000  0.68064000  1.0
  C  C88  1  0.96223000  0.74989000  0.18064000  1.0
  C  C89  1  0.46222000  0.75012000  0.31936000  1.0
  C  C90  1  0.96424000  0.13912000  0.84405000  1.0
  C  C91  1  0.46424000  0.36088000  0.65594000  1.0
  C  C92  1  0.03576000  0.86088000  0.15594000  1.0
  C  C93  1  0.53577000  0.63912000  0.34406000  1.0
  C  C94  1  0.15498000  0.22679000  0.77357000  1.0
  C  C95  1  0.65498000  0.27321000  0.72643000  1.0
  C  C96  1  0.84501000  0.77321000  0.22643000  1.0
  C  C97  1  0.34502000  0.72679000  0.27357000  1.0
  C  C98  1  0.07252000  0.20248000  0.72010000  1.0
  C  C99  1  0.57252000  0.29752000  0.77989000  1.0
  C  C100  1  0.92748000  0.79752000  0.27989000  1.0
  C  C101  1  0.42748000  0.70249000  0.22011000  1.0
  C  C102  1  0.02083000  0.31122000  0.68875000  1.0
  C  C103  1  0.52083000  0.18878000  0.81125000  1.0
  C  C104  1  0.97916000  0.68879000  0.31125000  1.0
  C  C105  1  0.47916000  0.81122000  0.18875000  1.0
  C  C106  1  0.93654000  0.28913000  0.64046000  1.0
  C  C107  1  0.43654000  0.21087000  0.85954000  1.0
  C  C108  1  0.06346000  0.71088000  0.35954000  1.0
  C  C109  1  0.56346000  0.78913000  0.14046000  1.0
  C  C110  1  0.90246000  0.15722000  0.62335000  1.0
  C  C111  1  0.40246000  0.34278000  0.87664000  1.0
  C  C112  1  0.09754000  0.84278000  0.37664000  1.0
  C  C113  1  0.59754000  0.65722000  0.12336000  1.0
  C  C114  1  0.95465000  0.04755000  0.65424000  1.0
  C  C115  1  0.45466000  0.45245000  0.84576000  1.0
  C  C116  1  0.04534000  0.95245000  0.34576000  1.0
  C  C117  1  0.54534000  0.54756000  0.15424000  1.0
  C  C118  1  0.04099000  0.07052000  0.70200000  1.0
  C  C119  1  0.54099000  0.42948000  0.79800000  1.0
  C  C120  1  0.95901000  0.92948000  0.29800000  1.0
  C  C121  1  0.45901000  0.57053000  0.20200000  1.0
  C  C122  1  0.76959000  0.04091000  0.91033000  1.0
  C  C123  1  0.26959000  0.45909000  0.58966000  1.0
  C  C124  1  0.23041000  0.95909000  0.08967000  1.0
  C  C125  1  0.73041000  0.54091000  0.41033000  1.0
  C  C126  1  0.82622000  0.54039000  0.89200000  1.0
  C  C127  1  0.32622000  0.95961000  0.60800000  1.0
  C  C128  1  0.17378000  0.45961000  0.10800000  1.0
  C  C129  1  0.67378000  0.04039000  0.39200000  1.0
  C  C130  1  0.87904000  0.40739000  0.60880000  1.0
  C  C131  1  0.37904000  0.09261000  0.89121000  1.0
  C  C132  1  0.12096000  0.59261000  0.39121000  1.0
  C  C133  1  0.62096000  0.90739000  0.10879000  1.0
  C  C134  1  0.91984000  0.90648000  0.63607000  1.0
  C  C135  1  0.41984000  0.59352000  0.86393000  1.0
  C  C136  1  0.08016000  0.09352000  0.36393000  1.0
  C  C137  1  0.58016000  0.40648000  0.13607000  1.0
  O  O138  1  0.75476000  0.93491000  0.88110000  1.0
  O  O139  1  0.25476000  0.56508000  0.61890000  1.0
  O  O140  1  0.24524000  0.06509000  0.11890000  1.0
  O  O141  1  0.74524000  0.43492000  0.38110000  1.0
  O  O142  1  0.71267000  0.05544000  0.95830000  1.0
  O  O143  1  0.21267000  0.44456000  0.54170000  1.0
  O  O144  1  0.28733000  0.94457000  0.04170000  1.0
  O  O145  1  0.78733000  0.55544000  0.45830000  1.0
  O  O146  1  0.72079000  0.55323000  0.92964000  1.0
  O  O147  1  0.22079000  0.94676000  0.57036000  1.0
  O  O148  1  0.27921000  0.44677000  0.07036000  1.0
  O  O149  1  0.77922000  0.05323000  0.42964000  1.0
  O  O150  1  0.87082000  0.64380000  0.86519000  1.0
  O  O151  1  0.37081000  0.85619000  0.63482000  1.0
  O  O152  1  0.12918000  0.35620000  0.13482000  1.0
  O  O153  1  0.62918000  0.14381000  0.36519000  1.0
  O  O154  1  0.85856000  0.51785000  0.63465000  1.0
  O  O155  1  0.35855000  0.98215000  0.86535000  1.0
  O  O156  1  0.14144000  0.48216000  0.36535000  1.0
  O  O157  1  0.64144000  0.01784000  0.13465000  1.0
  O  O158  1  0.85552000  0.39250000  0.55761000  1.0
  O  O159  1  0.35552000  0.10750000  0.94239000  1.0
  O  O160  1  0.14447000  0.60751000  0.44239000  1.0
  O  O161  1  0.64447000  0.89249000  0.05761000  1.0
  O  O162  1  0.79908000  0.88784000  0.60516000  1.0
  O  O163  1  0.29908000  0.61216000  0.89484000  1.0
  O  O164  1  0.20092000  0.11216000  0.39483000  1.0
  O  O165  1  0.70092000  0.38784000  0.10517000  1.0
  O  O166  1  0.00950000  0.80971000  0.65221000  1.0
  O  O167  1  0.50951000  0.69029000  0.84779000  1.0
  O  O168  1  0.99050000  0.19029000  0.34779000  1.0
  O  O169  1  0.49050000  0.30971000  0.15221000  1.0
  O  O170  1  0.47779000  0.81937000  0.95697000  1.0
  O  O171  1  0.97779000  0.68063000  0.54303000  1.0
  O  O172  1  0.52221000  0.18063000  0.04303000  1.0
  O  O173  1  0.02221000  0.31937000  0.45697000  1.0
  O  O174  1  0.83509000  0.76238000  0.98904000  1.0
  O  O175  1  0.33509000  0.73762000  0.51096000  1.0
  O  O176  1  0.16491000  0.23762000  0.01096000  1.0
  O  O177  1  0.66491000  0.26238000  0.48904000  1.0
  O  O178  1  0.60615000  0.69469000  0.66559000  1.0
  O  O179  1  0.10615000  0.80531000  0.83441000  1.0
  O  O180  1  0.39385000  0.30532000  0.33441000  1.0
  O  O181  1  0.89385000  0.19469000  0.16559000  1.0
  O  O182  1  0.60986000  0.62881000  0.54173000  1.0
  O  O183  1  0.10986000  0.87120000  0.95827000  1.0
  O  O184  1  0.39014000  0.37120000  0.45827000  1.0
  O  O185  1  0.89014000  0.12880000  0.04173000  1.0
