# generated using pymatgen
data_AgH13C11S(NO2)2
_symmetry_space_group_name_H-M   'P 1'
_cell_length_a   7.98774000
_cell_length_b   8.49887000
_cell_length_c   9.84909000
_cell_angle_alpha   68.75670000
_cell_angle_beta   85.68980000
_cell_angle_gamma   85.56270000
_symmetry_Int_Tables_number   1
_chemical_formula_structural   AgH13C11S(NO2)2
_chemical_formula_sum   'Ag2 H26 C22 S2 N4 O8'
_cell_volume   620.52272395
_cell_formula_units_Z   2
loop_
 _symmetry_equiv_pos_site_id
 _symmetry_equiv_pos_as_xyz
  1  'x, y, z'
loop_
 _atom_site_type_symbol
 _atom_site_label
 _atom_site_symmetry_multiplicity
 _atom_site_fract_x
 _atom_site_fract_y
 _atom_site_fract_z
 _atom_site_occupancy
  Ag  Ag0  1  0.32327000  0.50183000  0.33312000  1.0
  Ag  Ag1  1  0.67674000  0.49816000  0.66688000  1.0
  H  H2  1  0.56020000  0.20853000  0.28951000  1.0
  H  H3  1  0.43980000  0.79147000  0.71049000  1.0
  H  H4  1  0.73677000  0.38188000  0.07580000  1.0
  H  H5  1  0.26322000  0.61812000  0.92420000  1.0
  H  H6  1  0.87205000  0.25646000  0.89968000  1.0
  H  H7  1  0.12794000  0.74355000  0.10031000  1.0
  H  H8  1  0.82190000  0.96032000  0.92734000  1.0
  H  H9  1  0.17810000  0.03968000  0.07266000  1.0
  H  H10  1  0.08500000  0.15300000  0.20690000  1.0
  H  H11  1  0.91500000  0.84700000  0.79310000  1.0
  H  H12  1  0.00303000  0.36564000  0.15766000  1.0
  H  H13  1  0.99697000  0.63436000  0.84234000  1.0
  H  H14  1  0.93265000  0.18490000  0.41848000  1.0
  H  H15  1  0.06735000  0.81510000  0.58152000  1.0
  H  H16  1  0.15248000  0.14036000  0.44674000  1.0
  H  H17  1  0.84752000  0.85964000  0.55326000  1.0
  H  H18  1  0.80759000  0.45475000  0.40771000  1.0
  H  H19  1  0.19242000  0.54525000  0.59229000  1.0
  H  H20  1  0.93541000  0.55514000  0.24832000  1.0
  H  H21  1  0.06459000  0.44486000  0.75168000  1.0
  H  H22  1  0.16455000  0.24324000  0.62943000  1.0
  H  H23  1  0.83545000  0.75676000  0.37057000  1.0
  H  H24  1  0.94113000  0.27292000  0.63139000  1.0
  H  H25  1  0.05888000  0.72708000  0.36861000  1.0
  H  H26  1  0.29540000  0.33210000  0.08623000  1.0
  H  H27  1  0.70461000  0.66790000  0.91377000  1.0
  C  C28  1  0.58947000  0.99294000  0.22096000  1.0
  C  C29  1  0.41053000  0.00706000  0.77904000  1.0
  C  C30  1  0.61738000  0.15607000  0.21033000  1.0
  C  C31  1  0.38262000  0.84393000  0.78967000  1.0
  C  C32  1  0.71915000  0.25071000  0.09117000  1.0
  C  C33  1  0.28085000  0.74930000  0.90883000  1.0
  C  C34  1  0.79337000  0.17995000  0.99165000  1.0
  C  C35  1  0.20662000  0.82005000  0.00835000  1.0
  C  C36  1  0.76623000  0.01377000  0.00641000  1.0
  C  C37  1  0.23377000  0.98623000  0.99359000  1.0
  C  C38  1  0.66095000  0.92024000  0.12203000  1.0
  C  C39  1  0.33905000  0.07976000  0.87797000  1.0
  C  C40  1  0.60684000  0.74406000  0.15802000  1.0
  C  C41  1  0.39316000  0.25594000  0.84198000  1.0
  C  C42  1  0.09605000  0.27235000  0.22462000  1.0
  C  C43  1  0.90396000  0.72765000  0.77538000  1.0
  C  C44  1  0.05846000  0.23622000  0.38577000  1.0
  C  C45  1  0.94154000  0.76378000  0.61423000  1.0
  C  C46  1  0.92958000  0.51336000  0.36772000  1.0
  C  C47  1  0.07042000  0.48664000  0.63228000  1.0
  C  C48  1  0.06005000  0.33551000  0.58678000  1.0
  C  C49  1  0.93995000  0.66449000  0.41322000  1.0
  S  S50  1  0.46263000  0.84257000  0.35136000  1.0
  S  S51  1  0.53736000  0.15743000  0.64864000  1.0
  N  N52  1  0.49871000  0.69551000  0.27803000  1.0
  N  N53  1  0.50129000  0.30449000  0.72197000  1.0
  N  N54  1  0.06923000  0.38699000  0.42599000  1.0
  N  N55  1  0.93077000  0.61301000  0.57401000  1.0
  O  O56  1  0.65539000  0.65068000  0.08810000  1.0
  O  O57  1  0.34462000  0.34932000  0.91191000  1.0
  O  O58  1  0.53409000  0.78635000  0.49425000  1.0
  O  O59  1  0.46591000  0.21365000  0.50575000  1.0
  O  O60  1  0.28620000  0.89875000  0.34715000  1.0
  O  O61  1  0.71380000  0.10125000  0.65285000  1.0
  O  O62  1  0.26146000  0.33073000  0.18592000  1.0
  O  O63  1  0.73854000  0.66926000  0.81408000  1.0
