# generated using pymatgen
data_CdH17C18N5O7
_symmetry_space_group_name_H-M   'P 1'
_cell_length_a   9.25666000
_cell_length_b   10.63140000
_cell_length_c   23.17190000
_cell_angle_alpha   89.99990000
_cell_angle_beta   91.66640000
_cell_angle_gamma   89.99970000
_symmetry_Int_Tables_number   1
_chemical_formula_structural   CdH17C18N5O7
_chemical_formula_sum   'Cd4 H68 C72 N20 O28'
_cell_volume   2279.41135846
_cell_formula_units_Z   4
loop_
 _symmetry_equiv_pos_site_id
 _symmetry_equiv_pos_as_xyz
  1  'x, y, z'
loop_
 _atom_site_type_symbol
 _atom_site_label
 _atom_site_symmetry_multiplicity
 _atom_site_fract_x
 _atom_site_fract_y
 _atom_site_fract_z
 _atom_site_occupancy
  Cd  Cd0  1  0.44928000  0.29226000  0.53635000  1.0
  Cd  Cd1  1  0.05073000  0.79227000  0.96366000  1.0
  Cd  Cd2  1  0.55072000  0.70773000  0.46365000  1.0
  Cd  Cd3  1  0.94928000  0.20774000  0.03634000  1.0
  H  H4  1  0.11504000  0.98110000  0.48428000  1.0
  H  H5  1  0.38496000  0.48110000  0.01571000  1.0
  H  H6  1  0.88496000  0.01890000  0.51571000  1.0
  H  H7  1  0.61504000  0.51890000  0.98429000  1.0
  H  H8  1  0.69903000  0.47075000  0.59202000  1.0
  H  H9  1  0.80098000  0.97075000  0.90798000  1.0
  H  H10  1  0.30097000  0.52925000  0.40798000  1.0
  H  H11  1  0.19903000  0.02925000  0.09202000  1.0
  H  H12  1  0.47881000  0.17263000  0.66455000  1.0
  H  H13  1  0.02120000  0.67263000  0.83545000  1.0
  H  H14  1  0.52119000  0.82737000  0.33545000  1.0
  H  H15  1  0.97881000  0.32737000  0.16455000  1.0
  H  H16  1  0.59864000  0.20749000  0.76048000  1.0
  H  H17  1  0.90136000  0.70749000  0.73952000  1.0
  H  H18  1  0.40136000  0.79251000  0.23952000  1.0
  H  H19  1  0.09864000  0.29251000  0.26048000  1.0
  H  H20  1  0.82696000  0.51823000  0.68453000  1.0
  H  H21  1  0.67305000  0.01823000  0.81547000  1.0
  H  H22  1  0.17304000  0.48177000  0.31547000  1.0
  H  H23  1  0.32695000  0.98177000  0.18453000  1.0
  H  H24  1  0.88941000  0.44413000  0.78746000  1.0
  H  H25  1  0.61059000  0.94413000  0.71254000  1.0
  H  H26  1  0.11059000  0.55587000  0.21254000  1.0
  H  H27  1  0.38941000  0.05587000  0.28746000  1.0
  H  H28  1  0.79300000  0.31714000  0.81765000  1.0
  H  H29  1  0.70701000  0.81714000  0.68235000  1.0
  H  H30  1  0.20700000  0.68286000  0.18235000  1.0
  H  H31  1  0.29299000  0.18286000  0.31765000  1.0
  H  H32  1  0.72758000  0.51786000  0.86342000  1.0
  H  H33  1  0.77242000  0.01786000  0.63657000  1.0
  H  H34  1  0.27242000  0.48214000  0.13657000  1.0
  H  H35  1  0.22757000  0.98215000  0.36343000  1.0
  H  H36  1  0.67968000  0.58476000  0.79567000  1.0
  H  H37  1  0.82032000  0.08476000  0.70433000  1.0
  H  H38  1  0.32032000  0.41524000  0.20433000  1.0
  H  H39  1  0.17968000  0.91525000  0.29567000  1.0
  H  H40  1  0.53071000  0.35405000  0.84728000  1.0
  H  H41  1  0.96929000  0.85405000  0.65273000  1.0
  H  H42  1  0.46929000  0.64594000  0.15272000  1.0
  H  H43  1  0.03069000  0.14595000  0.34727000  1.0
  H  H44  1  0.48011000  0.42792000  0.78197000  1.0
  H  H45  1  0.01989000  0.92792000  0.71803000  1.0
  H  H46  1  0.51989000  0.57208000  0.21803000  1.0
  H  H47  1  0.98010000  0.07208000  0.28196000  1.0
  H  H48  1  0.26244000  0.38012000  0.86234000  1.0
  H  H49  1  0.23756000  0.88012000  0.63766000  1.0
  H  H50  1  0.73755000  0.61987000  0.13766000  1.0
  H  H51  1  0.76243000  0.11988000  0.36233000  1.0
  H  H52  1  0.54946000  0.70092000  0.85915000  1.0
  H  H53  1  0.95054000  0.20092000  0.64085000  1.0
  H  H54  1  0.45054000  0.29908000  0.14085000  1.0
  H  H55  1  0.04945000  0.79908000  0.35915000  1.0
  H  H56  1  0.36186000  0.82273000  0.90894000  1.0
  H  H57  1  0.13814000  0.32272000  0.59106000  1.0
  H  H58  1  0.63814000  0.17727000  0.09106000  1.0
  H  H59  1  0.86186000  0.67728000  0.40894000  1.0
  H  H60  1  0.08878000  0.51423000  0.91493000  1.0
  H  H61  1  0.41122000  0.01423000  0.58508000  1.0
  H  H62  1  0.91121000  0.48577000  0.08508000  1.0
  H  H63  1  0.58878000  0.98577000  0.41492000  1.0
  H  H64  1  0.26576000  0.19922000  0.44514000  1.0
  H  H65  1  0.23425000  0.69922000  0.05485000  1.0
  H  H66  1  0.73425000  0.80078000  0.55485000  1.0
  H  H67  1  0.76575000  0.30078000  0.94515000  1.0
  H  H68  1  0.37155000  0.08891000  0.45600000  1.0
  H  H69  1  0.12845000  0.58891000  0.04400000  1.0
  H  H70  1  0.62846000  0.91109000  0.54400000  1.0
  H  H71  1  0.87154000  0.41109000  0.95600000  1.0
  C  C72  1  0.29349000  0.52939000  0.54508000  1.0
  C  C73  1  0.20652000  0.02939000  0.95492000  1.0
  C  C74  1  0.70652000  0.47062000  0.45492000  1.0
  C  C75  1  0.79349000  0.97061000  0.04508000  1.0
  C  C76  1  0.22877000  0.65543000  0.52726000  1.0
  C  C77  1  0.27123000  0.15543000  0.97275000  1.0
  C  C78  1  0.77123000  0.34457000  0.47275000  1.0
  C  C79  1  0.72878000  0.84457000  0.02726000  1.0
  C  C80  1  0.08987000  0.69520000  0.54145000  1.0
  C  C81  1  0.41013000  0.19519000  0.95855000  1.0
  C  C82  1  0.91013000  0.30480000  0.45855000  1.0
  C  C83  1  0.58987000  0.80480000  0.04145000  1.0
  C  C84  1  0.04240000  0.81962000  0.52527000  1.0
  C  C85  1  0.45760000  0.31962000  0.97473000  1.0
  C  C86  1  0.95760000  0.18038000  0.47473000  1.0
  C  C87  1  0.54240000  0.68038000  0.02527000  1.0
  C  C88  1  0.28124000  0.85014000  0.48486000  1.0
  C  C89  1  0.21876000  0.35014000  0.01514000  1.0
  C  C90  1  0.71876000  0.14986000  0.51514000  1.0
  C  C91  1  0.78124000  0.64986000  0.98486000  1.0
  C  C92  1  0.67922000  0.41432000  0.63037000  1.0
  C  C93  1  0.82079000  0.91432000  0.86963000  1.0
  C  C94  1  0.32078000  0.58568000  0.36963000  1.0
  C  C95  1  0.17922000  0.08568000  0.13037000  1.0
  C  C96  1  0.55710000  0.24830000  0.67070000  1.0
  C  C97  1  0.94291000  0.74830000  0.82930000  1.0
  C  C98  1  0.44290000  0.75170000  0.32930000  1.0
  C  C99  1  0.05710000  0.25170000  0.17070000  1.0
  C  C100  1  0.62435000  0.26815000  0.72423000  1.0
  C  C101  1  0.87566000  0.76815000  0.77577000  1.0
  C  C102  1  0.37566000  0.73185000  0.27577000  1.0
  C  C103  1  0.12434000  0.23185000  0.22423000  1.0
  C  C104  1  0.75044000  0.44032000  0.68279000  1.0
  C  C105  1  0.74957000  0.94032000  0.81721000  1.0
  C  C106  1  0.24956000  0.55968000  0.31721000  1.0
  C  C107  1  0.25043000  0.05968000  0.18279000  1.0
  C  C108  1  0.72202000  0.36804000  0.73167000  1.0
  C  C109  1  0.77798000  0.86804000  0.76832000  1.0
  C  C110  1  0.27798000  0.63196000  0.26832000  1.0
  C  C111  1  0.22202000  0.13196000  0.23168000  1.0
  C  C112  1  0.78146000  0.40191000  0.79065000  1.0
  C  C113  1  0.71855000  0.90190000  0.70935000  1.0
  C  C114  1  0.21854000  0.59809000  0.20935000  1.0
  C  C115  1  0.28145000  0.09810000  0.29065000  1.0
  C  C116  1  0.68077000  0.49632000  0.82036000  1.0
  C  C117  1  0.81923000  0.99632000  0.67964000  1.0
  C  C118  1  0.31923000  0.50367000  0.17964000  1.0
  C  C119  1  0.18076000  0.00368000  0.32036000  1.0
  C  C120  1  0.52741000  0.44609000  0.82541000  1.0
  C  C121  1  0.97259000  0.94609000  0.67459000  1.0
  C  C122  1  0.47259000  0.55391000  0.17459000  1.0
  C  C123  1  0.02740000  0.05392000  0.32540000  1.0
  C  C124  1  0.42270000  0.52841000  0.85613000  1.0
  C  C125  1  0.07730000  0.02841000  0.64387000  1.0
  C  C126  1  0.57729000  0.47158000  0.14387000  1.0
  C  C127  1  0.92270000  0.97159000  0.35613000  1.0
  C  C128  1  0.28920000  0.47806000  0.87192000  1.0
  C  C129  1  0.21080000  0.97806000  0.62808000  1.0
  C  C130  1  0.71079000  0.52194000  0.12808000  1.0
  C  C131  1  0.78919000  0.02194000  0.37191000  1.0
  C  C132  1  0.44868000  0.65475000  0.87002000  1.0
  C  C133  1  0.05132000  0.15475000  0.62998000  1.0
  C  C134  1  0.55132000  0.34524000  0.12998000  1.0
  C  C135  1  0.94868000  0.84525000  0.37001000  1.0
  C  C136  1  0.34444000  0.72381000  0.89848000  1.0
  C  C137  1  0.15556000  0.22381000  0.60152000  1.0
  C  C138  1  0.65556000  0.27619000  0.10152000  1.0
  C  C139  1  0.84444000  0.77619000  0.39847000  1.0
  C  C140  1  0.19177000  0.55182000  0.90108000  1.0
  C  C141  1  0.30823000  0.05181000  0.59892000  1.0
  C  C142  1  0.80823000  0.44818000  0.09892000  1.0
  C  C143  1  0.69177000  0.94819000  0.40108000  1.0
  N  N144  1  0.99572000  0.61328000  0.57187000  1.0
  N  N145  1  0.50428000  0.11328000  0.92813000  1.0
  N  N146  1  0.00428000  0.38672000  0.42813000  1.0
  N  N147  1  0.49572000  0.88672000  0.07188000  1.0
  N  N148  1  0.32119000  0.73073000  0.50053000  1.0
  N  N149  1  0.17882000  0.23073000  0.99947000  1.0
  N  N150  1  0.67882000  0.26927000  0.49947000  1.0
  N  N151  1  0.82119000  0.76927000  0.00053000  1.0
  N  N152  1  0.14344000  0.88870000  0.49595000  1.0
  N  N153  1  0.35655000  0.38870000  0.00405000  1.0
  N  N154  1  0.85656000  0.11130000  0.50405000  1.0
  N  N155  1  0.64344000  0.61130000  0.99595000  1.0
  N  N156  1  0.58243000  0.32033000  0.62446000  1.0
  N  N157  1  0.91758000  0.82033000  0.87554000  1.0
  N  N158  1  0.41758000  0.67967000  0.37555000  1.0
  N  N159  1  0.08242000  0.17967000  0.12445000  1.0
  N  N160  1  0.21850000  0.67326000  0.91435000  1.0
  N  N161  1  0.28150000  0.17325000  0.58565000  1.0
  N  N162  1  0.78150000  0.32674000  0.08565000  1.0
  N  N163  1  0.71850000  0.82675000  0.41435000  1.0
  O  O164  1  0.32425000  0.45804000  0.50231000  1.0
  O  O165  1  0.17576000  0.95804000  0.99769000  1.0
  O  O166  1  0.67576000  0.54196000  0.49769000  1.0
  O  O167  1  0.82425000  0.04196000  0.00231000  1.0
  O  O168  1  0.31922000  0.51063000  0.59732000  1.0
  O  O169  1  0.18078000  0.01063000  0.90269000  1.0
  O  O170  1  0.68078000  0.48937000  0.40269000  1.0
  O  O171  1  0.81922000  0.98936000  0.09732000  1.0
  O  O172  1  0.01082000  0.49751000  0.56640000  1.0
  O  O173  1  0.48919000  0.99752000  0.93360000  1.0
  O  O174  1  0.98919000  0.50248000  0.43360000  1.0
  O  O175  1  0.51081000  0.00249000  0.06640000  1.0
  O  O176  1  0.90283000  0.66153000  0.60329000  1.0
  O  O177  1  0.59718000  0.16154000  0.89672000  1.0
  O  O178  1  0.09717000  0.33846000  0.39671000  1.0
  O  O179  1  0.40282000  0.83846000  0.10329000  1.0
  O  O180  1  0.92138000  0.86811000  0.53390000  1.0
  O  O181  1  0.57862000  0.36811000  0.96610000  1.0
  O  O182  1  0.07862000  0.13189000  0.46610000  1.0
  O  O183  1  0.42138000  0.63189000  0.03390000  1.0
  O  O184  1  0.36910000  0.92158000  0.46072000  1.0
  O  O185  1  0.13090000  0.42158000  0.03927000  1.0
  O  O186  1  0.63090000  0.07842000  0.53927000  1.0
  O  O187  1  0.86910000  0.57842000  0.96072000  1.0
  O  O188  1  0.36975000  0.18132000  0.45008000  1.0
  O  O189  1  0.13025000  0.68132000  0.04992000  1.0
  O  O190  1  0.63025000  0.81868000  0.54992000  1.0
  O  O191  1  0.86975000  0.31868000  0.95008000  1.0
