# generated using pymatgen
data_Zn4H45C60N3O13
_symmetry_space_group_name_H-M   'P 1'
_cell_length_a   27.00530000
_cell_length_b   27.14870000
_cell_length_c   27.18570000
_cell_angle_alpha   60.78580000
_cell_angle_beta   60.60340000
_cell_angle_gamma   60.52480000
_symmetry_Int_Tables_number   1
_chemical_formula_structural   Zn4H45C60N3O13
_chemical_formula_sum   'Zn8 H90 C120 N6 O26'
_cell_volume   14296.52799827
_cell_formula_units_Z   2
loop_
 _symmetry_equiv_pos_site_id
 _symmetry_equiv_pos_as_xyz
  1  'x, y, z'
loop_
 _atom_site_type_symbol
 _atom_site_label
 _atom_site_symmetry_multiplicity
 _atom_site_fract_x
 _atom_site_fract_y
 _atom_site_fract_z
 _atom_site_occupancy
  Zn  Zn0  1  0.03313000  0.03954000  0.90245000  1.0
  Zn  Zn1  1  0.03449000  0.04146000  0.01892000  1.0
  Zn  Zn2  1  0.03648000  0.92362000  0.01780000  1.0
  Zn  Zn3  1  0.91733000  0.03877000  0.01982000  1.0
  Zn  Zn4  1  0.47651000  0.48228000  0.57610000  1.0
  Zn  Zn5  1  0.47443000  0.48208000  0.46170000  1.0
  Zn  Zn6  1  0.59440000  0.48109000  0.46103000  1.0
  Zn  Zn7  1  0.47797000  0.59839000  0.46059000  1.0
  H  H8  1  0.19876000  0.08249000  0.91429000  1.0
  H  H9  1  0.27699000  0.13235000  0.84453000  1.0
  H  H10  1  0.17418000  0.24434000  0.72440000  1.0
  H  H11  1  0.09942000  0.19036000  0.79128000  1.0
  H  H12  1  0.31558000  0.19854000  0.75608000  1.0
  H  H13  1  0.22400000  0.29251000  0.77041000  1.0
  H  H14  1  0.24195000  0.37975000  0.74479000  1.0
  H  H15  1  0.31192000  0.43909000  0.68030000  1.0
  H  H16  1  0.41247000  0.32842000  0.56851000  1.0
  H  H17  1  0.34962000  0.26553000  0.58631000  1.0
  H  H18  1  0.45301000  0.21105000  0.61422000  1.0
  H  H19  1  0.44578000  0.10403000  0.66364000  1.0
  H  H20  1  0.33055000  0.11640000  0.72507000  1.0
  H  H21  1  0.33903000  0.13381000  0.65061000  1.0
  H  H22  1  0.26929000  0.23018000  0.65872000  1.0
  H  H23  1  0.06961000  0.82362000  0.91435000  1.0
  H  H24  1  0.11814000  0.76409000  0.84582000  1.0
  H  H25  1  0.23673000  0.86802000  0.72562000  1.0
  H  H26  1  0.18406000  0.93124000  0.79107000  1.0
  H  H27  1  0.18622000  0.74410000  0.75844000  1.0
  H  H28  1  0.28092000  0.72696000  0.77323000  1.0
  H  H29  1  0.36886000  0.64852000  0.74773000  1.0
  H  H30  1  0.43040000  0.58477000  0.68198000  1.0
  H  H31  1  0.32130000  0.70401000  0.56879000  1.0
  H  H32  1  0.25560000  0.80930000  0.58801000  1.0
  H  H33  1  0.20179000  0.73117000  0.61724000  1.0
  H  H34  1  0.09362000  0.79546000  0.66617000  1.0
  H  H35  1  0.10509000  0.84014000  0.72599000  1.0
  H  H36  1  0.12373000  0.88617000  0.65099000  1.0
  H  H37  1  0.21998000  0.85323000  0.66036000  1.0
  H  H38  1  0.81589000  0.20817000  0.91816000  1.0
  H  H39  1  0.75842000  0.28761000  0.84835000  1.0
  H  H40  1  0.86154000  0.18488000  0.72828000  1.0
  H  H41  1  0.92269000  0.10869000  0.79521000  1.0
  H  H42  1  0.74064000  0.32700000  0.75955000  1.0
  H  H43  1  0.71896000  0.23742000  0.77501000  1.0
  H  H44  1  0.63919000  0.25561000  0.74883000  1.0
  H  H45  1  0.57630000  0.32397000  0.68240000  1.0
  H  H46  1  0.70129000  0.42087000  0.57015000  1.0
  H  H47  1  0.80734000  0.35881000  0.58965000  1.0
  H  H48  1  0.73336000  0.46194000  0.61760000  1.0
  H  H49  1  0.80024000  0.45406000  0.66659000  1.0
  H  H50  1  0.84048000  0.33958000  0.72755000  1.0
  H  H51  1  0.88731000  0.34754000  0.65277000  1.0
  H  H52  1  0.84932000  0.27859000  0.66258000  1.0
  H  H53  1  0.20321000  0.82449000  0.05544000  1.0
  H  H54  1  0.28118000  0.76584000  0.10593000  1.0
  H  H55  1  0.18056000  0.87428000  0.22042000  1.0
  H  H56  1  0.10599000  0.93624000  0.16609000  1.0
  H  H57  1  0.32032000  0.74846000  0.17323000  1.0
  H  H58  1  0.22825000  0.73124000  0.26598000  1.0
  H  H59  1  0.24478000  0.65203000  0.35285000  1.0
  H  H60  1  0.31373000  0.58714000  0.41332000  1.0
  H  H61  1  0.41733000  0.70587000  0.30732000  1.0
  H  H62  1  0.35724000  0.81252000  0.24474000  1.0
  H  H63  1  0.45842000  0.73591000  0.18918000  1.0
  H  H64  1  0.45159000  0.80208000  0.08251000  1.0
  H  H65  1  0.33600000  0.84662000  0.09407000  1.0
  H  H66  1  0.34710000  0.89167000  0.11468000  1.0
  H  H67  1  0.27587000  0.85702000  0.20939000  1.0
  H  H68  1  0.81956000  0.07223000  0.18878000  1.0
  H  H69  1  0.76091000  0.12091000  0.26793000  1.0
  H  H70  1  0.86225000  0.24216000  0.16594000  1.0
  H  H71  1  0.92452000  0.18966000  0.09006000  1.0
  H  H72  1  0.74197000  0.18871000  0.30768000  1.0
  H  H73  1  0.71837000  0.28187000  0.21902000  1.0
  H  H74  1  0.63719000  0.36745000  0.23788000  1.0
  H  H75  1  0.57378000  0.42876000  0.30600000  1.0
  H  H76  1  0.70023000  0.32702000  0.40125000  1.0
  H  H77  1  0.80623000  0.26495000  0.33975000  1.0
  H  H78  1  0.73314000  0.20758000  0.44257000  1.0
  H  H79  1  0.80165000  0.10109000  0.43453000  1.0
  H  H80  1  0.84218000  0.11255000  0.32024000  1.0
  H  H81  1  0.88800000  0.13512000  0.32825000  1.0
  H  H82  1  0.84889000  0.22930000  0.25956000  1.0
  H  H83  1  0.81992000  0.93114000  0.05627000  1.0
  H  H84  1  0.76239000  0.86034000  0.10668000  1.0
  H  H85  1  0.87191000  0.74343000  0.22030000  1.0
  H  H86  1  0.93262000  0.81156000  0.16615000  1.0
  H  H87  1  0.74557000  0.77233000  0.17448000  1.0
  H  H88  1  0.72902000  0.78971000  0.26702000  1.0
  H  H89  1  0.64962000  0.76541000  0.35427000  1.0
  H  H90  1  0.58422000  0.70143000  0.41438000  1.0
  H  H91  1  0.70436000  0.58595000  0.30757000  1.0
  H  H92  1  0.81228000  0.60287000  0.24527000  1.0
  H  H93  1  0.73628000  0.62866000  0.19059000  1.0
  H  H94  1  0.80157000  0.67589000  0.08348000  1.0
  H  H95  1  0.84347000  0.73903000  0.09399000  1.0
  H  H96  1  0.89086000  0.66437000  0.11350000  1.0
  H  H97  1  0.85606000  0.67566000  0.20843000  1.0
  C  C98  1  0.10042000  0.10093000  0.89657000  1.0
  C  C99  1  0.14490000  0.13322000  0.85656000  1.0
  C  C100  1  0.19432000  0.11743000  0.87217000  1.0
  C  C101  1  0.23754000  0.14558000  0.83330000  1.0
  C  C102  1  0.23110000  0.19093000  0.77964000  1.0
  C  C103  1  0.18027000  0.20799000  0.76541000  1.0
  C  C104  1  0.13810000  0.17858000  0.80285000  1.0
  C  C105  1  0.27850000  0.22061000  0.73741000  1.0
  C  C106  1  0.29013000  0.31812000  0.69473000  1.0
  C  C107  1  0.27997000  0.36816000  0.70637000  1.0
  C  C108  1  0.31844000  0.40150000  0.67045000  1.0
  C  C109  1  0.36654000  0.38723000  0.62037000  1.0
  C  C110  1  0.37537000  0.33854000  0.60798000  1.0
  C  C111  1  0.33904000  0.30260000  0.64518000  1.0
  C  C112  1  0.35122000  0.24883000  0.63183000  1.0
  C  C113  1  0.41183000  0.20053000  0.63341000  1.0
  C  C114  1  0.40789000  0.14563000  0.65896000  1.0
  C  C115  1  0.34431000  0.14729000  0.67957000  1.0
  C  C116  1  0.30621000  0.21356000  0.67543000  1.0
  C  C117  1  0.40789000  0.42275000  0.58173000  1.0
  C  C118  1  0.09220000  0.91856000  0.89590000  1.0
  C  C119  1  0.12357000  0.88124000  0.85644000  1.0
  C  C120  1  0.10561000  0.83357000  0.87241000  1.0
  C  C121  1  0.13307000  0.80033000  0.83421000  1.0
  C  C122  1  0.17996000  0.81271000  0.78089000  1.0
  C  C123  1  0.19916000  0.85915000  0.76632000  1.0
  C  C124  1  0.17044000  0.89405000  0.80300000  1.0
  C  C125  1  0.20934000  0.77690000  0.73941000  1.0
  C  C126  1  0.30788000  0.71068000  0.69695000  1.0
  C  C127  1  0.35806000  0.66016000  0.70874000  1.0
  C  C128  1  0.39266000  0.62490000  0.67213000  1.0
  C  C129  1  0.37953000  0.64080000  0.62123000  1.0
  C  C130  1  0.33059000  0.69188000  0.60882000  1.0
  C  C131  1  0.29337000  0.72623000  0.64673000  1.0
  C  C132  1  0.23906000  0.77952000  0.63366000  1.0
  C  C133  1  0.19080000  0.76431000  0.63585000  1.0
  C  C134  1  0.13536000  0.79731000  0.66113000  1.0
  C  C135  1  0.13671000  0.83968000  0.68079000  1.0
  C  C136  1  0.20318000  0.81652000  0.67710000  1.0
  C  C137  1  0.41663000  0.60327000  0.58188000  1.0
  C  C138  1  0.90987000  0.10854000  0.90004000  1.0
  C  C139  1  0.87302000  0.15412000  0.86046000  1.0
  C  C140  1  0.82610000  0.20395000  0.87603000  1.0
  C  C141  1  0.79402000  0.24793000  0.83709000  1.0
  C  C142  1  0.80684000  0.24187000  0.78340000  1.0
  C  C143  1  0.85239000  0.19066000  0.76928000  1.0
  C  C144  1  0.88609000  0.14771000  0.80675000  1.0
  C  C145  1  0.77231000  0.28968000  0.74115000  1.0
  C  C146  1  0.70437000  0.30194000  0.69839000  1.0
  C  C147  1  0.65228000  0.29248000  0.70989000  1.0
  C  C148  1  0.61747000  0.33002000  0.67293000  1.0
  C  C149  1  0.63521000  0.37654000  0.62213000  1.0
  C  C150  1  0.68775000  0.38491000  0.61012000  1.0
  C  C151  1  0.72196000  0.34937000  0.64819000  1.0
  C  C152  1  0.77747000  0.36076000  0.63513000  1.0
  C  C153  1  0.76544000  0.42088000  0.63666000  1.0
  C  C154  1  0.79976000  0.41660000  0.66197000  1.0
  C  C155  1  0.84008000  0.35322000  0.68231000  1.0
  C  C156  1  0.81385000  0.31587000  0.67890000  1.0
  C  C157  1  0.59818000  0.41626000  0.58233000  1.0
  C  C158  1  0.10532000  0.92056000  0.07557000  1.0
  C  C159  1  0.15031000  0.88407000  0.10748000  1.0
  C  C160  1  0.19916000  0.83555000  0.09106000  1.0
  C  C161  1  0.24227000  0.80282000  0.11960000  1.0
  C  C162  1  0.23640000  0.81661000  0.16596000  1.0
  C  C163  1  0.18625000  0.86408000  0.18343000  1.0
  C  C164  1  0.14418000  0.89835000  0.15374000  1.0
  C  C165  1  0.28362000  0.78118000  0.19624000  1.0
  C  C166  1  0.29438000  0.71417000  0.29355000  1.0
  C  C167  1  0.28322000  0.66336000  0.34251000  1.0
  C  C168  1  0.32113000  0.62740000  0.37647000  1.0
  C  C169  1  0.36983000  0.64270000  0.36385000  1.0
  C  C170  1  0.37976000  0.69413000  0.31617000  1.0
  C  C171  1  0.34386000  0.72939000  0.27974000  1.0
  C  C172  1  0.35732000  0.78335000  0.22709000  1.0
  C  C173  1  0.41761000  0.76916000  0.17876000  1.0
  C  C174  1  0.41385000  0.80313000  0.12409000  1.0
  C  C175  1  0.35071000  0.84531000  0.12612000  1.0
  C  C176  1  0.31225000  0.82093000  0.19168000  1.0
  C  C177  1  0.41055000  0.60440000  0.40007000  1.0
  C  C178  1  0.91290000  0.09636000  0.08972000  1.0
  C  C179  1  0.87584000  0.12769000  0.13509000  1.0
  C  C180  1  0.82913000  0.10892000  0.18467000  1.0
  C  C181  1  0.79636000  0.13645000  0.22849000  1.0
  C  C182  1  0.80826000  0.18411000  0.22263000  1.0
  C  C183  1  0.85368000  0.20407000  0.17169000  1.0
  C  C184  1  0.88807000  0.17542000  0.12886000  1.0
  C  C185  1  0.77291000  0.21342000  0.27053000  1.0
  C  C186  1  0.70328000  0.31027000  0.28334000  1.0
  C  C187  1  0.65057000  0.35823000  0.27430000  1.0
  C  C188  1  0.61543000  0.39267000  0.31172000  1.0
  C  C189  1  0.63342000  0.38159000  0.35770000  1.0
  C  C190  1  0.68651000  0.33475000  0.36570000  1.0
  C  C191  1  0.72103000  0.29779000  0.33036000  1.0
  C  C192  1  0.77691000  0.24609000  0.34164000  1.0
  C  C193  1  0.76542000  0.19743000  0.40158000  1.0
  C  C194  1  0.80060000  0.14283000  0.39721000  1.0
  C  C195  1  0.84097000  0.14531000  0.33394000  1.0
  C  C196  1  0.81389000  0.21063000  0.29673000  1.0
  C  C197  1  0.59626000  0.41887000  0.39733000  1.0
  C  C198  1  0.91560000  0.91624000  0.07634000  1.0
  C  C199  1  0.87979000  0.87528000  0.10805000  1.0
  C  C200  1  0.83140000  0.88950000  0.09171000  1.0
  C  C201  1  0.79933000  0.85003000  0.12018000  1.0
  C  C202  1  0.81378000  0.79704000  0.16627000  1.0
  C  C203  1  0.86123000  0.78398000  0.18354000  1.0
  C  C204  1  0.89477000  0.82211000  0.15399000  1.0
  C  C205  1  0.77889000  0.75451000  0.19674000  1.0
  C  C206  1  0.71223000  0.71355000  0.29436000  1.0
  C  C207  1  0.66107000  0.72633000  0.34363000  1.0
  C  C208  1  0.62486000  0.69068000  0.37742000  1.0
  C  C209  1  0.64040000  0.63973000  0.36441000  1.0
  C  C210  1  0.69238000  0.62613000  0.31662000  1.0
  C  C211  1  0.72782000  0.66300000  0.28025000  1.0
  C  C212  1  0.78248000  0.64827000  0.22749000  1.0
  C  C213  1  0.76882000  0.64811000  0.17970000  1.0
  C  C214  1  0.80235000  0.67254000  0.12475000  1.0
  C  C215  1  0.84366000  0.69389000  0.12587000  1.0
  C  C216  1  0.81948000  0.69174000  0.19146000  1.0
  C  C217  1  0.60156000  0.60159000  0.40027000  1.0
  N  N218  1  0.25217000  0.28414000  0.73129000  1.0
  N  N219  1  0.27302000  0.74568000  0.73393000  1.0
  N  N220  1  0.73895000  0.26453000  0.73567000  1.0
  N  N221  1  0.25686000  0.74977000  0.25905000  1.0
  N  N222  1  0.73835000  0.27576000  0.24588000  1.0
  N  N223  1  0.74785000  0.74994000  0.25976000  1.0
  O  O224  1  0.00551000  0.01104000  0.98965000  1.0
  O  O225  1  0.09524000  0.07741000  0.95193000  1.0
  O  O226  1  0.07150000  0.09904000  0.87216000  1.0
  O  O227  1  0.43782000  0.42143000  0.52812000  1.0
  O  O228  1  0.41071000  0.45213000  0.60505000  1.0
  O  O229  1  0.06834000  0.89343000  0.95145000  1.0
  O  O230  1  0.09129000  0.97286000  0.87091000  1.0
  O  O231  1  0.41608000  0.62772000  0.52808000  1.0
  O  O232  1  0.44647000  0.54889000  0.60495000  1.0
  O  O233  1  0.88543000  0.10369000  0.95542000  1.0
  O  O234  1  0.96328000  0.07804000  0.87519000  1.0
  O  O235  1  0.62342000  0.44593000  0.52902000  1.0
  O  O236  1  0.54337000  0.41778000  0.60451000  1.0
  O  O237  1  0.10050000  0.89496000  0.04990000  1.0
  O  O238  1  0.07541000  0.97431000  0.07625000  1.0
  O  O239  1  0.44214000  0.62814000  0.39907000  1.0
  O  O240  1  0.41109000  0.55027000  0.42961000  1.0
  O  O241  1  0.88845000  0.06943000  0.08505000  1.0
  O  O242  1  0.96639000  0.09861000  0.05937000  1.0
  O  O243  1  0.62193000  0.41943000  0.42604000  1.0
  O  O244  1  0.54109000  0.44772000  0.39967000  1.0
  O  O245  1  0.88984000  0.97097000  0.05004000  1.0
  O  O246  1  0.96930000  0.89334000  0.07781000  1.0
  O  O247  1  0.62580000  0.54731000  0.40059000  1.0
  O  O248  1  0.54644000  0.62616000  0.42814000  1.0
  O  O249  1  0.50652000  0.51112000  0.48903000  1.0
