# generated using pymatgen
data_AgH10C5S2N
_symmetry_space_group_name_H-M   'P 1'
_cell_length_a   9.46064000
_cell_length_b   10.18900000
_cell_length_c   14.24500000
_cell_angle_alpha   103.58400000
_cell_angle_beta   90.00000000
_cell_angle_gamma   117.66200000
_symmetry_Int_Tables_number   1
_chemical_formula_structural   AgH10C5S2N
_chemical_formula_sum   'Ag6 H60 C30 S12 N6'
_cell_volume   1172.65058652
_cell_formula_units_Z   6
loop_
 _symmetry_equiv_pos_site_id
 _symmetry_equiv_pos_as_xyz
  1  'x, y, z'
loop_
 _atom_site_type_symbol
 _atom_site_label
 _atom_site_symmetry_multiplicity
 _atom_site_fract_x
 _atom_site_fract_y
 _atom_site_fract_z
 _atom_site_occupancy
  Ag  Ag0  1  0.84879000  0.96528000  0.95199000  1.0
  Ag  Ag1  1  0.88362000  0.03494000  0.54812000  1.0
  Ag  Ag2  1  0.15121000  0.03472000  0.04801000  1.0
  Ag  Ag3  1  0.11638000  0.96506000  0.45188000  1.0
  Ag  Ag4  1  0.93058000  0.99986000  0.24995000  1.0
  Ag  Ag5  1  0.06943000  0.00014000  0.75005000  1.0
  H  H6  1  0.93337000  0.53637000  0.06204000  1.0
  H  H7  1  0.39682000  0.46347000  0.43803000  1.0
  H  H8  1  0.06663000  0.46363000  0.93796000  1.0
  H  H9  1  0.60317000  0.53653000  0.56197000  1.0
  H  H10  1  0.77657000  0.41124000  0.11663000  1.0
  H  H11  1  0.36515000  0.58857000  0.38340000  1.0
  H  H12  1  0.22343000  0.58876000  0.88337000  1.0
  H  H13  1  0.63485000  0.41143000  0.61660000  1.0
  H  H14  1  0.77530000  0.27449000  0.94512000  1.0
  H  H15  1  0.50059000  0.72531000  0.55494000  1.0
  H  H16  1  0.22470000  0.72551000  0.05488000  1.0
  H  H17  1  0.49941000  0.27469000  0.44506000  1.0
  H  H18  1  0.59591000  0.29135000  0.95522000  1.0
  H  H19  1  0.30438000  0.70853000  0.54478000  1.0
  H  H20  1  0.40409000  0.70865000  0.04478000  1.0
  H  H21  1  0.69561000  0.29147000  0.45522000  1.0
  H  H22  1  0.75736000  0.41741000  0.90236000  1.0
  H  H23  1  0.33963000  0.58242000  0.59766000  1.0
  H  H24  1  0.24264000  0.58258000  0.09763000  1.0
  H  H25  1  0.66037000  0.41758000  0.40234000  1.0
  H  H26  1  0.52553000  0.58453000  0.11175000  1.0
  H  H27  1  0.94086000  0.41541000  0.38840000  1.0
  H  H28  1  0.47447000  0.41548000  0.88824000  1.0
  H  H29  1  0.05914000  0.58458000  0.61161000  1.0
  H  H30  1  0.52008000  0.40473000  0.10004000  1.0
  H  H31  1  0.11529000  0.59512000  0.40003000  1.0
  H  H32  1  0.47993000  0.59528000  0.89996000  1.0
  H  H33  1  0.88471000  0.40487000  0.59997000  1.0
  H  H34  1  0.52085000  0.52137000  0.27375000  1.0
  H  H35  1  0.99921000  0.47847000  0.22637000  1.0
  H  H36  1  0.47915000  0.47864000  0.72625000  1.0
  H  H37  1  0.00080000  0.52153000  0.77363000  1.0
  H  H38  1  0.70728000  0.52193000  0.26103000  1.0
  H  H39  1  0.18500000  0.47778000  0.23899000  1.0
  H  H40  1  0.29272000  0.47807000  0.73897000  1.0
  H  H41  1  0.81499000  0.52222000  0.76101000  1.0
  H  H42  1  0.69804000  0.69447000  0.27187000  1.0
  H  H43  1  0.00317000  0.30530000  0.22822000  1.0
  H  H44  1  0.30196000  0.30553000  0.72813000  1.0
  H  H45  1  0.99683000  0.69470000  0.77178000  1.0
  H  H46  1  0.51822000  0.86456000  0.22781000  1.0
  H  H47  1  0.65361000  0.13492000  0.27203000  1.0
  H  H48  1  0.48178000  0.13545000  0.77219000  1.0
  H  H49  1  0.34639000  0.86508000  0.72797000  1.0
  H  H50  1  0.31224000  0.76840000  0.24617000  1.0
  H  H51  1  0.54405000  0.23143000  0.25399000  1.0
  H  H52  1  0.68776000  0.23159000  0.75383000  1.0
  H  H53  1  0.45594000  0.76856000  0.74601000  1.0
  H  H54  1  0.50552000  0.82089000  0.39237000  1.0
  H  H55  1  0.68429000  0.17897000  0.10757000  1.0
  H  H56  1  0.49449000  0.17912000  0.60763000  1.0
  H  H57  1  0.31570000  0.82103000  0.89242000  1.0
  H  H58  1  0.37849000  0.90659000  0.42137000  1.0
  H  H59  1  0.47153000  0.09341000  0.07871000  1.0
  H  H60  1  0.62152000  0.09341000  0.57863000  1.0
  H  H61  1  0.52846000  0.90659000  0.92129000  1.0
  H  H62  1  0.58305000  0.02000000  0.40622000  1.0
  H  H63  1  0.56268000  0.97987000  0.09364000  1.0
  H  H64  1  0.41695000  0.98000000  0.59378000  1.0
  H  H65  1  0.43731000  0.02013000  0.90636000  1.0
  C  C66  1  0.80967000  0.71332000  0.05753000  1.0
  C  C67  1  0.09618000  0.28641000  0.44240000  1.0
  C  C68  1  0.19034000  0.28668000  0.94247000  1.0
  C  C69  1  0.90382000  0.71359000  0.55760000  1.0
  C  C70  1  0.26325000  0.99995000  0.24999000  1.0
  C  C71  1  0.73675000  0.00005000  0.75001000  1.0
  C  C72  1  0.80230000  0.47026000  0.05848000  1.0
  C  C73  1  0.33185000  0.52955000  0.44156000  1.0
  C  C74  1  0.19770000  0.52974000  0.94152000  1.0
  C  C75  1  0.66815000  0.47045000  0.55844000  1.0
  C  C76  1  0.72749000  0.35605000  0.95934000  1.0
  C  C77  1  0.37120000  0.64379000  0.54070000  1.0
  C  C78  1  0.27251000  0.64394000  0.04066000  1.0
  C  C79  1  0.62879000  0.35621000  0.45930000  1.0
  C  C80  1  0.59340000  0.52967000  0.13067000  1.0
  C  C81  1  0.06356000  0.47017000  0.36942000  1.0
  C  C82  1  0.40661000  0.47033000  0.86933000  1.0
  C  C83  1  0.93644000  0.52983000  0.63058000  1.0
  C  C84  1  0.63233000  0.56949000  0.24059000  1.0
  C  C85  1  0.06254000  0.43030000  0.25948000  1.0
  C  C86  1  0.36767000  0.43052000  0.75941000  1.0
  C  C87  1  0.93746000  0.56970000  0.74052000  1.0
  C  C88  1  0.42610000  0.87519000  0.27122000  1.0
  C  C89  1  0.55085000  0.12454000  0.22878000  1.0
  C  C90  1  0.57389000  0.12481000  0.72878000  1.0
  C  C91  1  0.44914000  0.87546000  0.77121000  1.0
  C  C92  1  0.47594000  0.90767000  0.37910000  1.0
  C  C93  1  0.56796000  0.09219000  0.12085000  1.0
  C  C94  1  0.52406000  0.09233000  0.62090000  1.0
  C  C95  1  0.43203000  0.90781000  0.87914000  1.0
  S  S96  1  0.73869000  0.84567000  0.09514000  1.0
  S  S97  1  0.89287000  0.15406000  0.40472000  1.0
  S  S98  1  0.26132000  0.15433000  0.90486000  1.0
  S  S99  1  0.10713000  0.84594000  0.59528000  1.0
  S  S100  1  0.09497000  0.84860000  0.27522000  1.0
  S  S101  1  0.24641000  0.15129000  0.22469000  1.0
  S  S102  1  0.90503000  0.15139000  0.72478000  1.0
  S  S103  1  0.75358000  0.84870000  0.77531000  1.0
  S  S104  1  0.96266000  0.75034000  0.98642000  1.0
  S  S105  1  0.21215000  0.24938000  0.51352000  1.0
  S  S106  1  0.03735000  0.24967000  0.01358000  1.0
  S  S107  1  0.78786000  0.75063000  0.48648000  1.0
  N  N108  1  0.73894000  0.57955000  0.08161000  1.0
  N  N109  1  0.15922000  0.42023000  0.41842000  1.0
  N  N110  1  0.26106000  0.42045000  0.91839000  1.0
  N  N111  1  0.84078000  0.57977000  0.58158000  1.0
  N  N112  1  0.40480000  0.99991000  0.25001000  1.0
  N  N113  1  0.59520000  0.00009000  0.74999000  1.0
