# generated using pymatgen
data_CaH20C18(NO4)2
_symmetry_space_group_name_H-M   'P 1'
_cell_length_a   7.54705000
_cell_length_b   9.25266000
_cell_length_c   31.57100000
_cell_angle_alpha   89.99990000
_cell_angle_beta   89.99980000
_cell_angle_gamma   110.90900000
_symmetry_Int_Tables_number   1
_chemical_formula_structural   CaH20C18(NO4)2
_chemical_formula_sum   'Ca4 H80 C72 N8 O32'
_cell_volume   2059.43484160
_cell_formula_units_Z   4
loop_
 _symmetry_equiv_pos_site_id
 _symmetry_equiv_pos_as_xyz
  1  'x, y, z'
loop_
 _atom_site_type_symbol
 _atom_site_label
 _atom_site_symmetry_multiplicity
 _atom_site_fract_x
 _atom_site_fract_y
 _atom_site_fract_z
 _atom_site_occupancy
  Ca  Ca0  1  0.35251000  0.73744000  0.23127000  1.0
  Ca  Ca1  1  0.14749000  0.26256000  0.73127000  1.0
  Ca  Ca2  1  0.64749000  0.26256000  0.76873000  1.0
  Ca  Ca3  1  0.85251000  0.73744000  0.26873000  1.0
  H  H4  1  0.13113000  0.02655000  0.42647000  1.0
  H  H5  1  0.36887000  0.97345000  0.92647000  1.0
  H  H6  1  0.86887000  0.97345000  0.57353000  1.0
  H  H7  1  0.63113000  0.02655000  0.07353000  1.0
  H  H8  1  0.37535000  0.96399000  0.46720000  1.0
  H  H9  1  0.12466000  0.03601000  0.96720000  1.0
  H  H10  1  0.62466000  0.03601000  0.53280000  1.0
  H  H11  1  0.87534000  0.96399000  0.03280000  1.0
  H  H12  1  0.71322000  0.14195000  0.46471000  1.0
  H  H13  1  0.78678000  0.85806000  0.96471000  1.0
  H  H14  1  0.28678000  0.85805000  0.53529000  1.0
  H  H15  1  0.21322000  0.14194000  0.03529000  1.0
  H  H16  1  0.80308000  0.38380000  0.42182000  1.0
  H  H17  1  0.69692000  0.61621000  0.92182000  1.0
  H  H18  1  0.19692000  0.61620000  0.57818000  1.0
  H  H19  1  0.30308000  0.38379000  0.07817000  1.0
  H  H20  1  0.56077000  0.44334000  0.38023000  1.0
  H  H21  1  0.93923000  0.55666000  0.88023000  1.0
  H  H22  1  0.43923000  0.55666000  0.61977000  1.0
  H  H23  1  0.06077000  0.44334000  0.11977000  1.0
  H  H24  1  0.01498000  0.54333000  0.36114000  1.0
  H  H25  1  0.48503000  0.45667000  0.86114000  1.0
  H  H26  1  0.98502000  0.45666000  0.63886000  1.0
  H  H27  1  0.51497000  0.54333000  0.13886000  1.0
  H  H28  1  0.94453000  0.35859000  0.33656000  1.0
  H  H29  1  0.55547000  0.64141000  0.83655000  1.0
  H  H30  1  0.05547000  0.64141000  0.66344000  1.0
  H  H31  1  0.44453000  0.35859000  0.16345000  1.0
  H  H32  1  0.02694000  0.67784000  0.02442000  1.0
  H  H33  1  0.47306000  0.32216000  0.52442000  1.0
  H  H34  1  0.97305000  0.32216000  0.97558000  1.0
  H  H35  1  0.52695000  0.67785000  0.47558000  1.0
  H  H36  1  0.23794000  0.60977000  0.97396000  1.0
  H  H37  1  0.26206000  0.39023000  0.47396000  1.0
  H  H38  1  0.76205000  0.39022000  0.02604000  1.0
  H  H39  1  0.73794000  0.60977000  0.52604000  1.0
  H  H40  1  0.56291000  0.63116000  0.99657000  1.0
  H  H41  1  0.93710000  0.36884000  0.49657000  1.0
  H  H42  1  0.43709000  0.36883000  0.00343000  1.0
  H  H43  1  0.06291000  0.63117000  0.50343000  1.0
  H  H44  1  0.67257000  0.71346000  0.07020000  1.0
  H  H45  1  0.82743000  0.28655000  0.57020000  1.0
  H  H46  1  0.32743000  0.28654000  0.92980000  1.0
  H  H47  1  0.17258000  0.71346000  0.42980000  1.0
  H  H48  1  0.46492000  0.78792000  0.11977000  1.0
  H  H49  1  0.03507000  0.21208000  0.61977000  1.0
  H  H50  1  0.53507000  0.21208000  0.88023000  1.0
  H  H51  1  0.96493000  0.78793000  0.38024000  1.0
  H  H52  1  0.15478000  0.10948000  0.15422000  1.0
  H  H53  1  0.34522000  0.89053000  0.65422000  1.0
  H  H54  1  0.84522000  0.89052000  0.84578000  1.0
  H  H55  1  0.65478000  0.10948000  0.34578000  1.0
  H  H56  1  0.94043000  0.97112000  0.13515000  1.0
  H  H57  1  0.55956000  0.02888000  0.63515000  1.0
  H  H58  1  0.05957000  0.02888000  0.86485000  1.0
  H  H59  1  0.44043000  0.97112000  0.36485000  1.0
  H  H60  1  0.32691000  0.98513000  0.12134000  1.0
  H  H61  1  0.17309000  0.01487000  0.62134000  1.0
  H  H62  1  0.67309000  0.01487000  0.87866000  1.0
  H  H63  1  0.82691000  0.98514000  0.37866000  1.0
  H  H64  1  0.30507000  0.50801000  0.38395000  1.0
  H  H65  1  0.19493000  0.49199000  0.88395000  1.0
  H  H66  1  0.69493000  0.49199000  0.61605000  1.0
  H  H67  1  0.80507000  0.50801000  0.11605000  1.0
  H  H68  1  0.69963000  0.93966000  0.19384000  1.0
  H  H69  1  0.80037000  0.06034000  0.69384000  1.0
  H  H70  1  0.30037000  0.06034000  0.80616000  1.0
  H  H71  1  0.19963000  0.93966000  0.30616000  1.0
  H  H72  1  0.56270000  0.01221000  0.17046000  1.0
  H  H73  1  0.93730000  0.98779000  0.67046000  1.0
  H  H74  1  0.43731000  0.98779000  0.82954000  1.0
  H  H75  1  0.06270000  0.01221000  0.32954000  1.0
  H  H76  1  0.00470000  0.50956000  0.19729000  1.0
  H  H77  1  0.49530000  0.49044000  0.69729000  1.0
  H  H78  1  0.99530000  0.49045000  0.80271000  1.0
  H  H79  1  0.50470000  0.50955000  0.30271000  1.0
  H  H80  1  0.14579000  0.42272000  0.20543000  1.0
  H  H81  1  0.35422000  0.57728000  0.70543000  1.0
  H  H82  1  0.85422000  0.57728000  0.79457000  1.0
  H  H83  1  0.64578000  0.42272000  0.29457000  1.0
  C  C84  1  0.27836000  0.10469000  0.42574000  1.0
  C  C85  1  0.22164000  0.89531000  0.92574000  1.0
  C  C86  1  0.72164000  0.89531000  0.57426000  1.0
  C  C87  1  0.77835000  0.10469000  0.07426000  1.0
  C  C88  1  0.41583000  0.07024000  0.44869000  1.0
  C  C89  1  0.08418000  0.92976000  0.94869000  1.0
  C  C90  1  0.58417000  0.92976000  0.55131000  1.0
  C  C91  1  0.91582000  0.07024000  0.05130000  1.0
  C  C92  1  0.60495000  0.17034000  0.44738000  1.0
  C  C93  1  0.89505000  0.82966000  0.94738000  1.0
  C  C94  1  0.39505000  0.82966000  0.55262000  1.0
  C  C95  1  0.10495000  0.17034000  0.05262000  1.0
  C  C96  1  0.65568000  0.30552000  0.42322000  1.0
  C  C97  1  0.84432000  0.69448000  0.92322000  1.0
  C  C98  1  0.34432000  0.69448000  0.57678000  1.0
  C  C99  1  0.15568000  0.30552000  0.07678000  1.0
  C  C100  1  0.51819000  0.34087000  0.40030000  1.0
  C  C101  1  0.98182000  0.65913000  0.90030000  1.0
  C  C102  1  0.48181000  0.65913000  0.59970000  1.0
  C  C103  1  0.01819000  0.34087000  0.09969000  1.0
  C  C104  1  0.32836000  0.24022000  0.40143000  1.0
  C  C105  1  0.17164000  0.75978000  0.90143000  1.0
  C  C106  1  0.67164000  0.75978000  0.59857000  1.0
  C  C107  1  0.82837000  0.24022000  0.09857000  1.0
  C  C108  1  0.17718000  0.27013000  0.37641000  1.0
  C  C109  1  0.32283000  0.72987000  0.87641000  1.0
  C  C110  1  0.82282000  0.72987000  0.62359000  1.0
  C  C111  1  0.67718000  0.27013000  0.12359000  1.0
  C  C112  1  0.06707000  0.46293000  0.34420000  1.0
  C  C113  1  0.43293000  0.53707000  0.84420000  1.0
  C  C114  1  0.93293000  0.53706000  0.65580000  1.0
  C  C115  1  0.56707000  0.46293000  0.15580000  1.0
  C  C116  1  0.15547000  0.53922000  0.30252000  1.0
  C  C117  1  0.34453000  0.46078000  0.80252000  1.0
  C  C118  1  0.84453000  0.46077000  0.69748000  1.0
  C  C119  1  0.65547000  0.53922000  0.19748000  1.0
  C  C120  1  0.16909000  0.68651000  0.03400000  1.0
  C  C121  1  0.33091000  0.31349000  0.53400000  1.0
  C  C122  1  0.83091000  0.31349000  0.96600000  1.0
  C  C123  1  0.66909000  0.68651000  0.46600000  1.0
  C  C124  1  0.28771000  0.64827000  0.00586000  1.0
  C  C125  1  0.21230000  0.35173000  0.50586000  1.0
  C  C126  1  0.71229000  0.35172000  0.99414000  1.0
  C  C127  1  0.78771000  0.64828000  0.49414000  1.0
  C  C128  1  0.46992000  0.66052000  0.01860000  1.0
  C  C129  1  0.03008000  0.33949000  0.51860000  1.0
  C  C130  1  0.53008000  0.33948000  0.98140000  1.0
  C  C131  1  0.96992000  0.66052000  0.48140000  1.0
  C  C132  1  0.53225000  0.70759000  0.05974000  1.0
  C  C133  1  0.96775000  0.29242000  0.55974000  1.0
  C  C134  1  0.46774000  0.29241000  0.94026000  1.0
  C  C135  1  0.03226000  0.70759000  0.44026000  1.0
  C  C136  1  0.41509000  0.74909000  0.08777000  1.0
  C  C137  1  0.08491000  0.25091000  0.58777000  1.0
  C  C138  1  0.58492000  0.25091000  0.91223000  1.0
  C  C139  1  0.91509000  0.74909000  0.41223000  1.0
  C  C140  1  0.23395000  0.74046000  0.07472000  1.0
  C  C141  1  0.26604000  0.25954000  0.57472000  1.0
  C  C142  1  0.76604000  0.25954000  0.92528000  1.0
  C  C143  1  0.73396000  0.74046000  0.42528000  1.0
  C  C144  1  0.10561000  0.78831000  0.10289000  1.0
  C  C145  1  0.39438000  0.21169000  0.60289000  1.0
  C  C146  1  0.89439000  0.21169000  0.89711000  1.0
  C  C147  1  0.60561000  0.78831000  0.39711000  1.0
  C  C148  1  0.07561000  0.98493000  0.15072000  1.0
  C  C149  1  0.42439000  0.01507000  0.65072000  1.0
  C  C150  1  0.92439000  0.01507000  0.84928000  1.0
  C  C151  1  0.57561000  0.98493000  0.34928000  1.0
  C  C152  1  0.03092000  0.91482000  0.19494000  1.0
  C  C153  1  0.46908000  0.08518000  0.69494000  1.0
  C  C154  1  0.96909000  0.08518000  0.80506000  1.0
  C  C155  1  0.53091000  0.91482000  0.30506000  1.0
  N  N156  1  0.19489000  0.41829000  0.37065000  1.0
  N  N157  1  0.30512000  0.58171000  0.87065000  1.0
  N  N158  1  0.80511000  0.58171000  0.62935000  1.0
  N  N159  1  0.69488000  0.41829000  0.12935000  1.0
  N  N160  1  0.18569000  0.92123000  0.12438000  1.0
  N  N161  1  0.31430000  0.07877000  0.62438000  1.0
  N  N162  1  0.81431000  0.07876000  0.87562000  1.0
  N  N163  1  0.68570000  0.92124000  0.37562000  1.0
  O  O164  1  0.03786000  0.15997000  0.36172000  1.0
  O  O165  1  0.46214000  0.84003000  0.86172000  1.0
  O  O166  1  0.96214000  0.84003000  0.63828000  1.0
  O  O167  1  0.53786000  0.15997000  0.13828000  1.0
  O  O168  1  0.29853000  0.51725000  0.28695000  1.0
  O  O169  1  0.20147000  0.48275000  0.78695000  1.0
  O  O170  1  0.70147000  0.48275000  0.71305000  1.0
  O  O171  1  0.79852000  0.51725000  0.21305000  1.0
  O  O172  1  0.93103000  0.71132000  0.10488000  1.0
  O  O173  1  0.56897000  0.28869000  0.60488000  1.0
  O  O174  1  0.06897000  0.28869000  0.89512000  1.0
  O  O175  1  0.43103000  0.71131000  0.39512000  1.0
  O  O176  1  0.90272000  0.94389000  0.21566000  1.0
  O  O177  1  0.59728000  0.05611000  0.71566000  1.0
  O  O178  1  0.09728000  0.05611000  0.78434000  1.0
  O  O179  1  0.40272000  0.94389000  0.28434000  1.0
  O  O180  1  0.11782000  0.83137000  0.20962000  1.0
  O  O181  1  0.38218000  0.16863000  0.70962000  1.0
  O  O182  1  0.88218000  0.16863000  0.79038000  1.0
  O  O183  1  0.61782000  0.83136000  0.29038000  1.0
  O  O184  1  0.56593000  0.91775000  0.18446000  1.0
  O  O185  1  0.93407000  0.08224000  0.68446000  1.0
  O  O186  1  0.43407000  0.08225000  0.81554000  1.0
  O  O187  1  0.06593000  0.91775000  0.31554000  1.0
  O  O188  1  0.13835000  0.51530000  0.19217000  1.0
  O  O189  1  0.36165000  0.48470000  0.69217000  1.0
  O  O190  1  0.86165000  0.48470000  0.80783000  1.0
  O  O191  1  0.63835000  0.51530000  0.30783000  1.0
  O  O192  1  0.07692000  0.62317000  0.28434000  1.0
  O  O193  1  0.42308000  0.37682000  0.78434000  1.0
  O  O194  1  0.92308000  0.37682000  0.71566000  1.0
  O  O195  1  0.57692000  0.62318000  0.21566000  1.0
