# generated using pymatgen
data_MgH5C10SNO5
_symmetry_space_group_name_H-M   'P 1'
_cell_length_a   6.78907000
_cell_length_b   33.95250000
_cell_length_c   33.95990072
_cell_angle_alpha   119.51930978
_cell_angle_beta   93.82960599
_cell_angle_gamma   93.80520000
_symmetry_Int_Tables_number   1
_chemical_formula_structural   MgH5C10SNO5
_chemical_formula_sum   'Mg6 H30 C60 S6 N6 O30'
_cell_volume   6752.02573565
_cell_formula_units_Z   6
loop_
 _symmetry_equiv_pos_site_id
 _symmetry_equiv_pos_as_xyz
  1  'x, y, z'
loop_
 _atom_site_type_symbol
 _atom_site_label
 _atom_site_symmetry_multiplicity
 _atom_site_fract_x
 _atom_site_fract_y
 _atom_site_fract_z
 _atom_site_occupancy
  Mg  Mg0  1  0.91117000  0.36837000  0.69174000  1.0
  Mg  Mg1  1  0.59126000  0.69723000  0.36551000  1.0
  Mg  Mg2  1  0.21960000  0.30816000  0.67654000  1.0
  Mg  Mg3  1  0.22589000  0.63449000  0.33179000  1.0
  Mg  Mg4  1  0.54276000  0.32339000  0.63157000  1.0
  Mg  Mg5  1  0.89431000  0.66826000  0.30282000  1.0
  H  H6  1  0.61218000  0.56316000  0.54510000  1.0
  H  H7  1  0.35802000  0.52554000  0.56897000  1.0
  H  H8  1  0.22876000  0.36240000  0.54523000  1.0
  H  H9  1  0.56676000  0.40361000  0.59663000  1.0
  H  H10  1  0.68096000  0.41513000  0.53407000  1.0
  H  H11  1  0.31924000  0.40103000  0.43735000  1.0
  H  H12  1  0.57254000  0.43873000  0.41349000  1.0
  H  H13  1  0.96311000  0.58757000  0.41192000  1.0
  H  H14  1  0.27921000  0.63160000  0.43582000  1.0
  H  H15  1  0.43269000  0.59740000  0.47825000  1.0
  H  H16  1  0.06696000  0.45500000  0.01812000  1.0
  H  H17  1  0.78977000  0.43097000  0.95644000  1.0
  H  H18  1  0.68346000  0.45477000  0.81701000  1.0
  H  H19  1  0.97053000  0.40302000  0.80682000  1.0
  H  H20  1  0.14708000  0.46556000  0.88084000  1.0
  H  H21  1  0.88221000  0.56261000  0.96335000  1.0
  H  H22  1  0.15805000  0.58665000  0.02515000  1.0
  H  H23  1  0.55227000  0.58817000  0.17591000  1.0
  H  H24  1  0.84413000  0.56426000  0.19590000  1.0
  H  H25  1  0.95524000  0.52203000  0.11933000  1.0
  H  H26  1  0.04894000  0.98197000  0.43682000  1.0
  H  H27  1  0.83315000  0.04360000  0.47455000  1.0
  H  H28  1  0.86725000  0.18287000  0.63764000  1.0
  H  H29  1  0.16370000  0.19308000  0.59655000  1.0
  H  H30  1  0.26686000  0.11905000  0.58510000  1.0
  H  H31  1  0.91978000  0.03637000  0.59905000  1.0
  H  H32  1  0.13408000  0.97464000  0.56126000  1.0
  H  H33  1  0.37596000  0.82417000  0.41238000  1.0
  H  H34  1  0.64795000  0.80415000  0.36840000  1.0
  H  H35  1  0.83544000  0.88071000  0.40259000  1.0
  C  C36  1  0.60558000  0.50400000  0.47640000  1.0
  C  C37  1  0.54600000  0.52833000  0.52230000  1.0
  C  C38  1  0.40806000  0.50780000  0.53524000  1.0
  C  C39  1  0.31466000  0.46137000  0.50484000  1.0
  C  C40  1  0.96250000  0.38976000  0.53638000  1.0
  C  C41  1  0.08490000  0.37231000  0.55688000  1.0
  C  C42  1  0.02496000  0.36631000  0.59255000  1.0
  C  C43  1  0.83283000  0.37758000  0.60718000  1.0
  C  C44  1  0.71265000  0.39532000  0.58540000  1.0
  C  C45  1  0.77566000  0.40168000  0.55076000  1.0
  C  C46  1  0.16469000  0.34757000  0.61240000  1.0
  C  C47  1  0.38120000  0.43630000  0.45982000  1.0
  C  C48  1  0.51945000  0.45673000  0.44682000  1.0
  C  C49  1  0.71155000  0.59144000  0.44832000  1.0
  C  C50  1  0.81402000  0.59767000  0.41754000  1.0
  C  C51  1  0.73048000  0.61828000  0.39432000  1.0
  C  C52  1  0.53459000  0.63185000  0.40165000  1.0
  C  C53  1  0.42984000  0.62227000  0.43119000  1.0
  C  C54  1  0.51637000  0.60304000  0.45479000  1.0
  C  C55  1  0.85485000  0.62597000  0.36427000  1.0
  C  C56  1  0.12827000  0.52376000  0.02768000  1.0
  C  C57  1  0.02347000  0.47779000  0.00605000  1.0
  C  C58  1  0.87312000  0.46475000  0.97245000  1.0
  C  C59  1  0.80990000  0.49513000  0.95636000  1.0
  C  C60  1  0.42612000  0.46345000  0.85317000  1.0
  C  C61  1  0.52807000  0.44305000  0.81526000  1.0
  C  C62  1  0.43262000  0.40736000  0.77361000  1.0
  C  C63  1  0.22600000  0.39265000  0.77024000  1.0
  C  C64  1  0.12751000  0.41431000  0.80975000  1.0
  C  C65  1  0.22503000  0.44897000  0.85070000  1.0
  C  C66  1  0.55239000  0.38753000  0.73506000  1.0
  C  C67  1  0.92130000  0.54017000  0.97627000  1.0
  C  C68  1  0.07186000  0.55329000  0.00985000  1.0
  C  C69  1  0.26398000  0.55193000  0.14329000  1.0
  C  C70  1  0.39743000  0.58257000  0.18030000  1.0
  C  C71  1  0.33688000  0.60575000  0.22409000  1.0
  C  C72  1  0.13361000  0.59850000  0.23032000  1.0
  C  C73  1  0.99935000  0.56895000  0.19121000  1.0
  C  C74  1  0.06233000  0.54546000  0.14844000  1.0
  C  C75  1  0.49104000  0.63580000  0.26181000  1.0
  C  C76  1  0.10170000  0.97231000  0.49594000  1.0
  C  C77  1  0.01794000  0.99401000  0.47168000  1.0
  C  C78  1  0.90104000  0.02758000  0.49227000  1.0
  C  C79  1  0.85437000  0.04360000  0.53873000  1.0
  C  C80  1  0.57366000  0.14672000  0.61040000  1.0
  C  C81  1  0.71342000  0.18463000  0.62776000  1.0
  C  C82  1  0.65924000  0.22627000  0.63370000  1.0
  C  C83  1  0.45582000  0.22963000  0.62245000  1.0
  C  C84  1  0.31797000  0.19013000  0.60478000  1.0
  C  C85  1  0.37487000  0.14918000  0.59852000  1.0
  C  C86  1  0.81748000  0.26487000  0.65242000  1.0
  C  C87  1  0.94611000  0.02356000  0.56374000  1.0
  C  C88  1  0.06331000  0.99005000  0.54326000  1.0
  C  C89  1  0.12044000  0.85677000  0.40856000  1.0
  C  C90  1  0.21674000  0.81976000  0.40233000  1.0
  C  C91  1  0.11253000  0.77595000  0.38176000  1.0
  C  C92  1  0.90314000  0.76970000  0.36820000  1.0
  C  C93  1  0.80790000  0.80883000  0.37778000  1.0
  C  C94  1  0.91364000  0.85162000  0.39695000  1.0
  C  C95  1  0.22912000  0.73823000  0.37414000  1.0
  S  S96  1  0.83977000  0.57295000  0.48227000  1.0
  S  S97  1  0.04403000  0.39577000  0.49105000  1.0
  S  S98  1  0.35711000  0.51798000  0.09077000  1.0
  S  S99  1  0.55263000  0.50881000  0.90448000  1.0
  S  S100  1  0.26651000  0.90922000  0.42697000  1.0
  S  S101  1  0.64932000  0.09536000  0.60437000  1.0
  N  N102  1  0.72702000  0.51972000  0.45758000  1.0
  N  N103  1  0.17669000  0.44695000  0.52150000  1.0
  N  N104  1  0.26808000  0.54269000  0.06230000  1.0
  N  N105  1  0.65539000  0.47840000  0.92525000  1.0
  N  N106  1  0.20698000  0.93770000  0.48020000  1.0
  N  N107  1  0.73095000  0.07472000  0.55321000  1.0
  O  O108  1  0.32871000  0.33584000  0.59655000  1.0
  O  O109  1  0.11805000  0.34382000  0.64688000  1.0
  O  O110  1  0.76058000  0.37163000  0.63988000  1.0
  O  O111  1  0.01872000  0.60915000  0.35521000  1.0
  O  O112  1  0.79525000  0.65121000  0.34815000  1.0
  O  O113  1  0.44829000  0.65329000  0.38218000  1.0
  O  O114  1  0.04231000  0.56802000  0.47136000  1.0
  O  O115  1  0.80585000  0.60262000  0.52918000  1.0
  O  O116  1  0.87492000  0.40153000  0.46679000  1.0
  O  O117  1  0.16708000  0.35979000  0.46700000  1.0
  O  O118  1  0.73238000  0.40334000  0.73919000  1.0
  O  O119  1  0.47118000  0.35308000  0.69685000  1.0
  O  O120  1  0.12102000  0.35999000  0.73163000  1.0
  O  O121  1  0.66405000  0.64485000  0.25407000  1.0
  O  O122  1  0.44723000  0.65189000  0.30312000  1.0
  O  O123  1  0.06655000  0.61793000  0.27118000  1.0
  O  O124  1  0.57051000  0.52881000  0.09653000  1.0
  O  O125  1  0.27618000  0.47108000  0.07365000  1.0
  O  O126  1  0.40741000  0.53295000  0.93442000  1.0
  O  O127  1  0.69940000  0.53293000  0.89254000  1.0
  O  O128  1  0.99327000  0.26077000  0.66420000  1.0
  O  O129  1  0.77436000  0.30308000  0.65616000  1.0
  O  O130  1  0.38932000  0.26825000  0.62834000  1.0
  O  O131  1  0.40988000  0.74599000  0.39092000  1.0
  O  O132  1  0.14423000  0.69690000  0.34890000  1.0
  O  O133  1  0.79538000  0.72883000  0.34674000  1.0
  O  O134  1  0.47412000  0.90331000  0.43187000  1.0
  O  O135  1  0.20239000  0.92643000  0.39727000  1.0
  O  O136  1  0.47450000  0.06532000  0.59856000  1.0
  O  O137  1  0.80815000  0.10723000  0.64038000  1.0
