# generated using pymatgen
data_MnH8C10N3ClO2
_symmetry_space_group_name_H-M   'P 1'
_cell_length_a   7.88419000
_cell_length_b   8.48410000
_cell_length_c   8.99781000
_cell_angle_alpha   91.13440000
_cell_angle_beta   103.72800000
_cell_angle_gamma   109.63600000
_symmetry_Int_Tables_number   1
_chemical_formula_structural   MnH8C10N3ClO2
_chemical_formula_sum   'Mn2 H16 C20 N6 Cl2 O4'
_cell_volume   547.40277551
_cell_formula_units_Z   2
loop_
 _symmetry_equiv_pos_site_id
 _symmetry_equiv_pos_as_xyz
  1  'x, y, z'
loop_
 _atom_site_type_symbol
 _atom_site_label
 _atom_site_symmetry_multiplicity
 _atom_site_fract_x
 _atom_site_fract_y
 _atom_site_fract_z
 _atom_site_occupancy
  Mn  Mn0  1  0.44259000  0.30299000  0.38022000  1.0
  Mn  Mn1  1  0.55740000  0.69700000  0.61978000  1.0
  H  H2  1  0.94430000  0.08788000  0.20943000  1.0
  H  H3  1  0.05570000  0.91212000  0.79056000  1.0
  H  H4  1  0.72608000  0.15238000  0.94385000  1.0
  H  H5  1  0.27393000  0.84765000  0.05615000  1.0
  H  H6  1  0.46420000  0.24069000  0.80434000  1.0
  H  H7  1  0.53581000  0.75933000  0.19566000  1.0
  H  H8  1  0.20297000  0.33644000  0.68781000  1.0
  H  H9  1  0.79703000  0.66358000  0.31220000  1.0
  H  H10  1  0.02350000  0.41176000  0.85745000  1.0
  H  H11  1  0.97651000  0.58825000  0.14256000  1.0
  H  H12  1  0.13146000  0.40414000  0.14323000  1.0
  H  H13  1  0.86854000  0.59586000  0.85677000  1.0
  H  H14  1  0.82974000  0.25056000  0.54452000  1.0
  H  H15  1  0.17025000  0.74942000  0.45547000  1.0
  H  H16  1  0.98409000  0.16256000  0.49116000  1.0
  H  H17  1  0.01590000  0.83742000  0.50883000  1.0
  C  C18  1  0.82706000  0.13171000  0.19180000  1.0
  C  C19  1  0.17293000  0.86829000  0.80819000  1.0
  C  C20  1  0.71583000  0.16571000  0.06120000  1.0
  C  C21  1  0.28417000  0.83430000  0.93880000  1.0
  C  C22  1  0.58753000  0.21884000  0.11504000  1.0
  C  C23  1  0.41247000  0.78117000  0.88496000  1.0
  C  C24  1  0.43657000  0.27379000  0.03629000  1.0
  C  C25  1  0.56343000  0.72622000  0.96372000  1.0
  C  C26  1  0.38875000  0.27832000  0.87700000  1.0
  C  C27  1  0.61125000  0.72169000  0.12299000  1.0
  C  C28  1  0.23959000  0.32885000  0.81133000  1.0
  C  C29  1  0.76042000  0.67117000  0.18868000  1.0
  C  C30  1  0.14181000  0.37297000  0.90549000  1.0
  C  C31  1  0.85820000  0.62704000  0.09452000  1.0
  C  C32  1  0.19988000  0.36814000  0.06338000  1.0
  C  C33  1  0.80013000  0.63187000  0.93663000  1.0
  C  C34  1  0.83678000  0.14709000  0.47357000  1.0
  C  C35  1  0.16322000  0.85290000  0.52642000  1.0
  C  C36  1  0.73569000  0.98083000  0.52857000  1.0
  C  C37  1  0.26431000  0.01915000  0.47142000  1.0
  N  N38  1  0.76534000  0.16458000  0.31358000  1.0
  N  N39  1  0.23466000  0.83541000  0.68642000  1.0
  N  N40  1  0.61956000  0.21699000  0.26917000  1.0
  N  N41  1  0.38044000  0.78300000  0.73083000  1.0
  N  N42  1  0.34397000  0.32035000  0.12834000  1.0
  N  N43  1  0.65604000  0.67966000  0.87167000  1.0
  Cl  Cl44  1  0.73180000  0.52118000  0.55443000  1.0
  Cl  Cl45  1  0.26819000  0.47880000  0.44558000  1.0
  O  O46  1  0.58954000  0.87282000  0.44069000  1.0
  O  O47  1  0.41046000  0.12716000  0.55931000  1.0
  O  O48  1  0.80577000  0.95699000  0.66490000  1.0
  O  O49  1  0.19422000  0.04300000  0.33510000  1.0
