# generated using pymatgen
data_Zn3Si2H30(C16O5)2
_symmetry_space_group_name_H-M   'P 1'
_cell_length_a   6.24271000
_cell_length_b   12.22920000
_cell_length_c   14.10274333
_cell_angle_alpha   111.71083780
_cell_angle_beta   96.39379506
_cell_angle_gamma   103.65700000
_symmetry_Int_Tables_number   1
_chemical_formula_structural   Zn3Si2H30(C16O5)2
_chemical_formula_sum   'Zn3 Si2 H30 C32 O10'
_cell_volume   948.15919090
_cell_formula_units_Z   1
loop_
 _symmetry_equiv_pos_site_id
 _symmetry_equiv_pos_as_xyz
  1  'x, y, z'
loop_
 _atom_site_type_symbol
 _atom_site_label
 _atom_site_symmetry_multiplicity
 _atom_site_fract_x
 _atom_site_fract_y
 _atom_site_fract_z
 _atom_site_occupancy
  Zn  Zn0  1  0.49999000  0.50000000  0.00000000  1.0
  Zn  Zn1  1  0.93598000  0.43849000  0.88272000  1.0
  Zn  Zn2  1  0.06400000  0.56150000  0.11727000  1.0
  Si  Si3  1  0.24597000  0.75438000  0.51551000  1.0
  Si  Si4  1  0.75405000  0.24562000  0.48450000  1.0
  H  H5  1  0.26290000  0.64329000  0.99286000  1.0
  H  H6  1  0.73707000  0.35669000  0.00712000  1.0
  H  H7  1  0.54436000  0.96307000  0.70252000  1.0
  H  H8  1  0.45562000  0.03691000  0.29747000  1.0
  H  H9  1  0.52303000  0.16813000  0.81621000  1.0
  H  H10  1  0.47696000  0.83187000  0.18378000  1.0
  H  H11  1  0.84553000  0.07939000  0.64574000  1.0
  H  H12  1  0.15445000  0.92060000  0.35425000  1.0
  H  H13  1  0.86954000  0.87608000  0.52792000  1.0
  H  H14  1  0.13046000  0.12391000  0.47208000  1.0
  H  H15  1  0.62213000  0.63849000  0.52076000  1.0
  H  H16  1  0.37790000  0.36153000  0.47925000  1.0
  H  H17  1  0.78618000  0.56365000  0.64417000  1.0
  H  H18  1  0.21389000  0.43640000  0.35586000  1.0
  H  H19  1  0.32807000  0.67449000  0.83995000  1.0
  H  H20  1  0.67196000  0.32553000  0.16007000  1.0
  H  H21  1  0.15972000  0.74723000  0.71617000  1.0
  H  H22  1  0.84028000  0.25277000  0.28383000  1.0
  H  H23  1  0.86066000  0.67948000  0.40110000  1.0
  H  H24  1  0.13934000  0.32051000  0.59890000  1.0
  H  H25  1  0.88372000  0.58284000  0.46812000  1.0
  H  H26  1  0.11628000  0.41714000  0.53188000  1.0
  H  H27  1  0.01248000  0.57164000  0.36050000  1.0
  H  H28  1  0.98753000  0.42835000  0.63950000  1.0
  H  H29  1  0.32910000  0.78160000  0.35782000  1.0
  H  H30  1  0.67088000  0.21838000  0.64217000  1.0
  H  H31  1  0.51552000  0.71145000  0.39802000  1.0
  H  H32  1  0.48448000  0.28854000  0.60197000  1.0
  H  H33  1  0.56343000  0.87411000  0.46388000  1.0
  H  H34  1  0.43656000  0.12589000  0.53611000  1.0
  C  C35  1  0.20887000  0.90413000  0.60493000  1.0
  C  C36  1  0.79113000  0.09586000  0.39506000  1.0
  C  C37  1  0.39068000  0.98800000  0.68843000  1.0
  C  C38  1  0.60933000  0.01200000  0.31157000  1.0
  C  C39  1  0.37926000  0.10295000  0.75361000  1.0
  C  C40  1  0.62075000  0.89706000  0.24639000  1.0
  C  C41  1  0.18270000  0.13685000  0.73844000  1.0
  C  C42  1  0.81729000  0.86314000  0.26155000  1.0
  C  C43  1  0.99836000  0.05330000  0.65750000  1.0
  C  C44  1  0.00164000  0.94670000  0.34249000  1.0
  C  C45  1  0.01298000  0.93889000  0.59157000  1.0
  C  C46  1  0.98702000  0.06109000  0.40842000  1.0
  C  C47  1  0.17650000  0.26238000  0.80711000  1.0
  C  C48  1  0.82348000  0.73762000  0.19289000  1.0
  C  C49  1  0.37805000  0.69797000  0.60827000  1.0
  C  C50  1  0.62196000  0.30205000  0.39174000  1.0
  C  C51  1  0.55588000  0.64652000  0.59041000  1.0
  C  C52  1  0.44413000  0.35350000  0.40960000  1.0
  C  C53  1  0.64961000  0.60457000  0.65961000  1.0
  C  C54  1  0.35044000  0.39546000  0.34040000  1.0
  C  C55  1  0.56913000  0.61528000  0.75047000  1.0
  C  C56  1  0.43091000  0.38475000  0.24955000  1.0
  C  C57  1  0.39154000  0.66687000  0.76963000  1.0
  C  C58  1  0.60848000  0.33315000  0.23038000  1.0
  C  C59  1  0.29723000  0.70698000  0.69941000  1.0
  C  C60  1  0.70278000  0.29303000  0.30059000  1.0
  C  C61  1  0.66844000  0.57206000  0.82619000  1.0
  C  C62  1  0.33156000  0.42794000  0.17382000  1.0
  C  C63  1  0.97410000  0.63653000  0.42964000  1.0
  C  C64  1  0.02591000  0.36347000  0.57036000  1.0
  C  C65  1  0.43360000  0.78399000  0.42702000  1.0
  C  C66  1  0.56638000  0.21599000  0.57297000  1.0
  O  O67  1  0.20893000  0.56328000  0.99557000  1.0
  O  O68  1  0.79105000  0.43670000  0.00442000  1.0
  O  O69  1  0.36197000  0.34186000  0.86173000  1.0
  O  O70  1  0.63799000  0.65813000  0.13827000  1.0
  O  O71  1  0.98060000  0.28071000  0.80407000  1.0
  O  O72  1  0.01935000  0.71926000  0.19590000  1.0
  O  O73  1  0.80418000  0.50758000  0.79562000  1.0
  O  O74  1  0.19582000  0.49243000  0.20439000  1.0
  O  O75  1  0.61704000  0.60125000  0.91469000  1.0
  O  O76  1  0.38292000  0.39875000  0.08532000  1.0
