# generated using pymatgen
data_ZnPH4C4O3
_symmetry_space_group_name_H-M   'P 1'
_cell_length_a   5.14517000
_cell_length_b   10.58850000
_cell_length_c   10.87510000
_cell_angle_alpha   93.58910000
_cell_angle_beta   90.00000000
_cell_angle_gamma   90.00000000
_symmetry_Int_Tables_number   1
_chemical_formula_structural   ZnPH4C4O3
_chemical_formula_sum   'Zn4 P4 H16 C16 O12'
_cell_volume   591.30941138
_cell_formula_units_Z   4
loop_
 _symmetry_equiv_pos_site_id
 _symmetry_equiv_pos_as_xyz
  1  'x, y, z'
loop_
 _atom_site_type_symbol
 _atom_site_label
 _atom_site_symmetry_multiplicity
 _atom_site_fract_x
 _atom_site_fract_y
 _atom_site_fract_z
 _atom_site_occupancy
  Zn  Zn0  1  0.70605000  0.64616000  0.00124000  1.0
  Zn  Zn1  1  0.20605000  0.85384000  0.99876000  1.0
  Zn  Zn2  1  0.29395000  0.35384000  0.99876000  1.0
  Zn  Zn3  1  0.79395000  0.14616000  0.00124000  1.0
  P  P4  1  0.20907000  0.58817000  0.84428000  1.0
  P  P5  1  0.70907000  0.91183000  0.15572000  1.0
  P  P6  1  0.79093000  0.41184000  0.15572000  1.0
  P  P7  1  0.29093000  0.08816000  0.84428000  1.0
  H  H8  1  0.27235000  0.73895000  0.69513000  1.0
  H  H9  1  0.77235000  0.76105000  0.30487000  1.0
  H  H10  1  0.72764000  0.26105000  0.30487000  1.0
  H  H11  1  0.22764000  0.23895000  0.69513000  1.0
  H  H12  1  0.51099000  0.61715000  0.68495000  1.0
  H  H13  1  0.01099000  0.88285000  0.31505000  1.0
  H  H14  1  0.48901000  0.38285000  0.31505000  1.0
  H  H15  1  0.98901000  0.11715000  0.68495000  1.0
  H  H16  1  0.86937000  0.71761000  0.57291000  1.0
  H  H17  1  0.36937000  0.78239000  0.42709000  1.0
  H  H18  1  0.13063000  0.28239000  0.42709000  1.0
  H  H19  1  0.63063000  0.21761000  0.57291000  1.0
  H  H20  1  0.39014000  0.40157000  0.58735000  1.0
  H  H21  1  0.89014000  0.09843000  0.41265000  1.0
  H  H22  1  0.60987000  0.59843000  0.41265000  1.0
  H  H23  1  0.10986000  0.90157000  0.58735000  1.0
  C  C24  1  0.30125000  0.63601000  0.69349000  1.0
  C  C25  1  0.80125000  0.86399000  0.30651000  1.0
  C  C26  1  0.69875000  0.36399000  0.30651000  1.0
  C  C27  1  0.19875000  0.13601000  0.69349000  1.0
  C  C28  1  0.14854000  0.56745000  0.59206000  1.0
  C  C29  1  0.64854000  0.93255000  0.40794000  1.0
  C  C30  1  0.85146000  0.43255000  0.40794000  1.0
  C  C31  1  0.35146000  0.06745000  0.59206000  1.0
  C  C32  1  0.92848000  0.62210000  0.54111000  1.0
  C  C33  1  0.42848000  0.87790000  0.45889000  1.0
  C  C34  1  0.07152000  0.37790000  0.45889000  1.0
  C  C35  1  0.57152000  0.12210000  0.54111000  1.0
  C  C36  1  0.21773000  0.44447000  0.54934000  1.0
  C  C37  1  0.71773000  0.05553000  0.45066000  1.0
  C  C38  1  0.78227000  0.55553000  0.45066000  1.0
  C  C39  1  0.28227000  0.94447000  0.54934000  1.0
  O  O40  1  0.34738000  0.68280000  0.94214000  1.0
  O  O41  1  0.84738000  0.81720000  0.05786000  1.0
  O  O42  1  0.65262000  0.31720000  0.05786000  1.0
  O  O43  1  0.15262000  0.18280000  0.94214000  1.0
  O  O44  1  0.31615000  0.45455000  0.85783000  1.0
  O  O45  1  0.81615000  0.04545000  0.14216000  1.0
  O  O46  1  0.68386000  0.54545000  0.14217000  1.0
  O  O47  1  0.18385000  0.95455000  0.85784000  1.0
  O  O48  1  0.91407000  0.60142000  0.85749000  1.0
  O  O49  1  0.41407000  0.89858000  0.14251000  1.0
  O  O50  1  0.08593000  0.39858000  0.14251000  1.0
  O  O51  1  0.58593000  0.10142000  0.85749000  1.0
