# generated using pymatgen
data_H12PbC22(NO)4
_symmetry_space_group_name_H-M   'P 1'
_cell_length_a   6.73436000
_cell_length_b   8.21031000
_cell_length_c   17.75370000
_cell_angle_alpha   94.72380000
_cell_angle_beta   91.54150000
_cell_angle_gamma   103.87700000
_symmetry_Int_Tables_number   1
_chemical_formula_structural   H12PbC22(NO)4
_chemical_formula_sum   'H24 Pb2 C44 N8 O8'
_cell_volume   948.63056405
_cell_formula_units_Z   2
loop_
 _symmetry_equiv_pos_site_id
 _symmetry_equiv_pos_as_xyz
  1  'x, y, z'
loop_
 _atom_site_type_symbol
 _atom_site_label
 _atom_site_symmetry_multiplicity
 _atom_site_fract_x
 _atom_site_fract_y
 _atom_site_fract_z
 _atom_site_occupancy
  H  H0  1  0.68649000  0.69651000  0.35605000  1.0
  H  H1  1  0.31358000  0.30343000  0.64394000  1.0
  H  H2  1  0.81548000  0.87972000  0.25423000  1.0
  H  H3  1  0.18447000  0.12041000  0.74583000  1.0
  H  H4  1  0.57339000  0.87925000  0.14136000  1.0
  H  H5  1  0.42659000  0.12090000  0.85869000  1.0
  H  H6  1  0.60329000  0.39612000  0.14522000  1.0
  H  H7  1  0.39672000  0.60401000  0.85480000  1.0
  H  H8  1  0.51336000  0.21966000  0.25738000  1.0
  H  H9  1  0.48665000  0.78035000  0.74261000  1.0
  H  H10  1  0.78979000  0.22622000  0.35411000  1.0
  H  H11  1  0.21021000  0.77370000  0.64586000  1.0
  H  H12  1  0.59398000  0.62500000  0.95552000  1.0
  H  H13  1  0.40596000  0.37512000  0.04452000  1.0
  H  H14  1  0.32044000  0.95978000  0.94767000  1.0
  H  H15  1  0.67952000  0.04028000  0.05235000  1.0
  H  H16  1  0.06157000  0.96701000  0.84426000  1.0
  H  H17  1  0.93840000  0.03300000  0.15575000  1.0
  H  H18  1  0.70368000  0.80313000  0.84839000  1.0
  H  H19  1  0.29632000  0.19681000  0.15160000  1.0
  H  H20  1  0.04587000  0.99428000  0.58501000  1.0
  H  H21  1  0.95421000  0.00566000  0.41498000  1.0
  H  H22  1  0.48793000  0.04493000  0.58543000  1.0
  H  H23  1  0.51213000  0.95504000  0.41452000  1.0
  Pb  Pb24  1  0.23975000  0.48352000  0.42954000  1.0
  Pb  Pb25  1  0.76020000  0.51641000  0.57045000  1.0
  C  C26  1  0.58800000  0.69841000  0.30653000  1.0
  C  C27  1  0.41203000  0.30160000  0.69348000  1.0
  C  C28  1  0.65915000  0.80184000  0.24905000  1.0
  C  C29  1  0.34083000  0.19826000  0.75100000  1.0
  C  C30  1  0.52780000  0.80149000  0.18769000  1.0
  C  C31  1  0.47216000  0.19860000  0.81236000  1.0
  C  C32  1  0.32770000  0.69808000  0.18444000  1.0
  C  C33  1  0.67230000  0.30198000  0.81558000  1.0
  C  C34  1  0.26871000  0.59710000  0.24464000  1.0
  C  C35  1  0.73132000  0.40292000  0.75538000  1.0
  C  C36  1  0.06115000  0.48913000  0.24424000  1.0
  C  C37  1  0.93889000  0.51086000  0.75576000  1.0
  C  C38  1  0.91608000  0.49164000  0.18563000  1.0
  C  C39  1  0.08395000  0.50837000  0.81437000  1.0
  C  C40  1  0.71594000  0.39182000  0.18964000  1.0
  C  C41  1  0.28409000  0.60822000  0.81037000  1.0
  C  C42  1  0.66727000  0.29452000  0.24966000  1.0
  C  C43  1  0.33275000  0.70547000  0.75033000  1.0
  C  C44  1  0.82172000  0.29757000  0.30474000  1.0
  C  C45  1  0.17827000  0.70236000  0.69525000  1.0
  C  C46  1  0.97484000  0.59574000  0.12337000  1.0
  C  C47  1  0.02519000  0.40429000  0.87665000  1.0
  C  C48  1  0.18196000  0.69587000  0.12191000  1.0
  C  C49  1  0.81805000  0.30418000  0.87811000  1.0
  C  C50  1  0.10387000  0.78804000  0.00878000  1.0
  C  C51  1  0.89613000  0.21199000  0.99124000  1.0
  C  C52  1  0.89535000  0.69140000  0.01106000  1.0
  C  C53  1  0.10462000  0.30862000  0.98896000  1.0
  C  C54  1  0.75136000  0.69811000  0.95215000  1.0
  C  C55  1  0.24859000  0.30193000  0.04787000  1.0
  C  C56  1  0.16188000  0.88710000  0.94750000  1.0
  C  C57  1  0.83808000  0.11292000  0.05250000  1.0
  C  C58  1  0.01851000  0.89081000  0.89139000  1.0
  C  C59  1  0.98147000  0.10919000  0.10862000  1.0
  C  C60  1  0.81290000  0.79624000  0.89370000  1.0
  C  C61  1  0.18709000  0.20376000  0.10630000  1.0
  C  C62  1  0.56258000  0.80821000  0.54333000  1.0
  C  C63  1  0.43745000  0.19175000  0.45663000  1.0
  C  C64  1  0.95615000  0.21198000  0.54262000  1.0
  C  C65  1  0.04383000  0.78791000  0.45735000  1.0
  C  C66  1  0.00533000  0.04502000  0.53349000  1.0
  C  C67  1  0.99475000  0.95491000  0.46649000  1.0
  C  C68  1  0.50814000  0.97050000  0.53373000  1.0
  C  C69  1  0.49193000  0.02946000  0.46623000  1.0
  N  N70  1  0.01241000  0.39114000  0.30182000  1.0
  N  N71  1  0.98761000  0.60879000  0.69817000  1.0
  N  N72  1  0.39904000  0.59923000  0.30408000  1.0
  N  N73  1  0.60098000  0.40074000  0.69593000  1.0
  N  N74  1  0.24379000  0.78858000  0.06494000  1.0
  N  N75  1  0.75620000  0.21145000  0.93508000  1.0
  N  N76  1  0.83520000  0.59533000  0.06864000  1.0
  N  N77  1  0.16481000  0.40469000  0.93137000  1.0
  O  O78  1  0.56680000  0.70664000  0.48442000  1.0
  O  O79  1  0.43317000  0.29329000  0.51556000  1.0
  O  O80  1  0.60763000  0.77882000  0.61016000  1.0
  O  O81  1  0.39239000  0.22115000  0.38979000  1.0
  O  O82  1  0.92561000  0.28459000  0.48308000  1.0
  O  O83  1  0.07426000  0.71524000  0.51688000  1.0
  O  O84  1  0.94298000  0.27475000  0.60959000  1.0
  O  O85  1  0.05697000  0.72515000  0.39037000  1.0
