# generated using pymatgen
data_ZnH7C12(NO2)2
_symmetry_space_group_name_H-M   'P 1'
_cell_length_a   9.76093000
_cell_length_b   11.01970000
_cell_length_c   14.49220000
_cell_angle_alpha   88.87200000
_cell_angle_beta   89.50210000
_cell_angle_gamma   89.91030000
_symmetry_Int_Tables_number   1
_chemical_formula_structural   ZnH7C12(NO2)2
_chemical_formula_sum   'Zn2 H14 C24 N4 O8'
_cell_volume   1558.45511340
_cell_formula_units_Z   2
loop_
 _symmetry_equiv_pos_site_id
 _symmetry_equiv_pos_as_xyz
  1  'x, y, z'
loop_
 _atom_site_type_symbol
 _atom_site_label
 _atom_site_symmetry_multiplicity
 _atom_site_fract_x
 _atom_site_fract_y
 _atom_site_fract_z
 _atom_site_occupancy
  Zn  Zn0  1  0.63767000  0.49697000  0.50025000  1.0
  Zn  Zn1  1  0.35117000  0.49615000  0.49625000  1.0
  H  H2  1  0.29265000  0.88909000  0.43322000  1.0
  H  H3  1  0.87937000  0.55727000  0.28480000  1.0
  H  H4  1  0.86092000  0.78324000  0.38863000  1.0
  H  H5  1  0.74151000  0.71667000  0.32830000  1.0
  H  H6  1  0.68698000  0.88519000  0.70394000  1.0
  H  H7  1  0.73831000  0.76472000  0.64922000  1.0
  H  H8  1  0.13474000  0.57880000  0.28773000  1.0
  H  H9  1  0.11842000  0.71395000  0.35316000  1.0
  H  H10  1  0.29536000  0.11429000  0.43658000  1.0
  H  H11  1  0.82731000  0.10938000  0.53690000  1.0
  H  H12  1  0.74004000  0.09587000  0.64547000  1.0
  H  H13  1  0.82450000  0.88505000  0.52285000  1.0
  H  H14  1  0.12366000  0.40545000  0.62591000  1.0
  H  H15  1  0.86530000  0.40865000  0.62854000  1.0
  C  C16  1  0.49138000  0.73133000  0.49333000  1.0
  C  C17  1  0.74507000  0.91891000  0.57032000  1.0
  C  C18  1  0.06619000  0.54916000  0.43289000  1.0
  C  C19  1  0.49655000  0.50718000  0.31652000  1.0
  C  C20  1  0.06603000  0.44673000  0.56942000  1.0
  C  C21  1  0.92311000  0.44797000  0.57071000  1.0
  C  C22  1  0.92342000  0.54691000  0.43262000  1.0
  C  C23  1  0.91497000  0.61665000  0.33962000  1.0
  C  C24  1  0.07827000  0.62190000  0.34410000  1.0
  C  C25  1  0.49506000  0.26249000  0.49815000  1.0
  C  C26  1  0.49220000  0.50322000  0.67940000  1.0
  C  C27  1  0.48826000  0.51549000  0.77844000  1.0
  C  C28  1  0.49687000  0.52012000  0.21725000  1.0
  C  C29  1  0.49349000  0.52765000  0.13267000  1.0
  C  C30  1  0.49019000  0.53179000  0.04020000  1.0
  C  C31  1  0.48800000  0.53062000  0.95506000  1.0
  C  C32  1  0.48729000  0.52450000  0.86274000  1.0
  C  C33  1  0.60465000  0.93116000  0.52452000  1.0
  C  C34  1  0.49327000  0.86626000  0.49195000  1.0
  C  C35  1  0.38180000  0.93619000  0.45964000  1.0
  C  C36  1  0.38343000  0.06270000  0.46151000  1.0
  C  C37  1  0.49665000  0.12738000  0.49523000  1.0
  C  C38  1  0.60654000  0.05760000  0.52669000  1.0
  C  C39  1  0.74422000  0.06232000  0.57453000  1.0
  N  N40  1  0.14081000  0.49775000  0.49919000  1.0
  N  N41  1  0.84854000  0.49808000  0.50075000  1.0
  N  N42  1  0.84462000  0.73121000  0.33223000  1.0
  N  N43  1  0.75895000  0.85468000  0.65819000  1.0
  O  O44  1  0.60393000  0.67825000  0.51436000  1.0
  O  O45  1  0.37968000  0.67810000  0.47432000  1.0
  O  O46  1  0.60992000  0.52616000  0.35701000  1.0
  O  O47  1  0.38267000  0.47813000  0.35396000  1.0
  O  O48  1  0.61037000  0.31605000  0.48893000  1.0
  O  O49  1  0.37945000  0.31407000  0.50978000  1.0
  O  O50  1  0.60871000  0.47960000  0.64371000  1.0
  O  O51  1  0.37904000  0.51767000  0.63743000  1.0
