# generated using pymatgen
data_CdH11C15N4ClO2
_symmetry_space_group_name_H-M   'P 1'
_cell_length_a   6.33141000
_cell_length_b   11.97167547
_cell_length_c   22.81400000
_cell_angle_alpha   83.28345576
_cell_angle_beta   90.01900000
_cell_angle_gamma   74.65946448
_symmetry_Int_Tables_number   1
_chemical_formula_structural   CdH11C15N4ClO2
_chemical_formula_sum   'Cd4 H44 C60 N16 Cl4 O8'
_cell_volume   1655.30567024
_cell_formula_units_Z   4
loop_
 _symmetry_equiv_pos_site_id
 _symmetry_equiv_pos_as_xyz
  1  'x, y, z'
loop_
 _atom_site_type_symbol
 _atom_site_label
 _atom_site_symmetry_multiplicity
 _atom_site_fract_x
 _atom_site_fract_y
 _atom_site_fract_z
 _atom_site_occupancy
  Cd  Cd0  1  0.49307000  0.15682000  0.46657000  1.0
  Cd  Cd1  1  0.65029000  0.84332000  0.03342000  1.0
  Cd  Cd2  1  0.50690000  0.84317000  0.53342000  1.0
  Cd  Cd3  1  0.34972000  0.15668000  0.96658000  1.0
  H  H4  1  0.54256000  0.88002000  0.25409000  1.0
  H  H5  1  0.42326000  0.12004000  0.24591000  1.0
  H  H6  1  0.45738000  0.12000000  0.74591000  1.0
  H  H7  1  0.57684000  0.87992000  0.75409000  1.0
  H  H8  1  0.70765000  0.85880000  0.35730000  1.0
  H  H9  1  0.56737000  0.14117000  0.14274000  1.0
  H  H10  1  0.29230000  0.14121000  0.64270000  1.0
  H  H11  1  0.43270000  0.85881000  0.85726000  1.0
  H  H12  1  0.33755000  0.69046000  0.29346000  1.0
  H  H13  1  0.02813000  0.30991000  0.20673000  1.0
  H  H14  1  0.66241000  0.30956000  0.70654000  1.0
  H  H15  1  0.97191000  0.69009000  0.79327000  1.0
  H  H16  1  0.17637000  0.72123000  0.19076000  1.0
  H  H17  1  0.89730000  0.27933000  0.30937000  1.0
  H  H18  1  0.82357000  0.27881000  0.80924000  1.0
  H  H19  1  0.10275000  0.72066000  0.69063000  1.0
  H  H20  1  0.06323000  0.00879000  0.39154000  1.0
  H  H21  1  0.07272000  0.99130000  0.10857000  1.0
  H  H22  1  0.93674000  0.99123000  0.60845000  1.0
  H  H23  1  0.92732000  0.00870000  0.89143000  1.0
  H  H24  1  0.22930000  0.94873000  0.33414000  1.0
  H  H25  1  0.17890000  0.05137000  0.16596000  1.0
  H  H26  1  0.77066000  0.05127000  0.66586000  1.0
  H  H27  1  0.82115000  0.94862000  0.83404000  1.0
  H  H28  1  0.35264000  0.97692000  0.39894000  1.0
  H  H29  1  0.33018000  0.02321000  0.10113000  1.0
  H  H30  1  0.64734000  0.02309000  0.60105000  1.0
  H  H31  1  0.66985000  0.97679000  0.89886000  1.0
  H  H32  1  0.78913000  0.62484000  0.38122000  1.0
  H  H33  1  0.41441000  0.37542000  0.11888000  1.0
  H  H34  1  0.21084000  0.37517000  0.61878000  1.0
  H  H35  1  0.58562000  0.62457000  0.88112000  1.0
  H  H36  1  0.71004000  0.42984000  0.37837000  1.0
  H  H37  1  0.14076000  0.57053000  0.12185000  1.0
  H  H38  1  0.28994000  0.57017000  0.62163000  1.0
  H  H39  1  0.85927000  0.42945000  0.87815000  1.0
  H  H40  1  0.98826000  0.25008000  0.41862000  1.0
  H  H41  1  0.23926000  0.75012000  0.08157000  1.0
  H  H42  1  0.01175000  0.74993000  0.58138000  1.0
  H  H43  1  0.76074000  0.24987000  0.91844000  1.0
  H  H44  1  0.41599000  0.43735000  0.46511000  1.0
  H  H45  1  0.85368000  0.56261000  0.03485000  1.0
  H  H46  1  0.58400000  0.56266000  0.53488000  1.0
  H  H47  1  0.14633000  0.43739000  0.96515000  1.0
  C  C48  1  0.75177000  0.81445000  0.15524000  1.0
  C  C49  1  0.56604000  0.18580000  0.34475000  1.0
  C  C50  1  0.24818000  0.18556000  0.84476000  1.0
  C  C51  1  0.43402000  0.81418000  0.65525000  1.0
  C  C52  1  0.84864000  0.79945000  0.21686000  1.0
  C  C53  1  0.64821000  0.20086000  0.28318000  1.0
  C  C54  1  0.15131000  0.20057000  0.78314000  1.0
  C  C55  1  0.35183000  0.79914000  0.71682000  1.0
  C  C56  1  0.71636000  0.83868000  0.26358000  1.0
  C  C57  1  0.55558000  0.16144000  0.23644000  1.0
  C  C58  1  0.28359000  0.16133000  0.73643000  1.0
  C  C59  1  0.44448000  0.83854000  0.76356000  1.0
  C  C60  1  0.80597000  0.82586000  0.32063000  1.0
  C  C61  1  0.63263000  0.17417000  0.17942000  1.0
  C  C62  1  0.19396000  0.17416000  0.67937000  1.0
  C  C63  1  0.36743000  0.82581000  0.82058000  1.0
  C  C64  1  0.02873000  0.77029000  0.33054000  1.0
  C  C65  1  0.79963000  0.22988000  0.16956000  1.0
  C  C66  1  0.97122000  0.22972000  0.66946000  1.0
  C  C67  1  0.20042000  0.77012000  0.83044000  1.0
  C  C68  1  0.16332000  0.73161000  0.28450000  1.0
  C  C69  1  0.89512000  0.26873000  0.21564000  1.0
  C  C70  1  0.83663000  0.26841000  0.71550000  1.0
  C  C71  1  0.10492000  0.73127000  0.78436000  1.0
  C  C72  1  0.07319000  0.74763000  0.22754000  1.0
  C  C73  1  0.82084000  0.25275000  0.27257000  1.0
  C  C74  1  0.92676000  0.25240000  0.77247000  1.0
  C  C75  1  0.17920000  0.74724000  0.72744000  1.0
  C  C76  1  0.21822000  0.94686000  0.38223000  1.0
  C  C77  1  0.16578000  0.05327000  0.11787000  1.0
  C  C78  1  0.78173000  0.05315000  0.61777000  1.0
  C  C79  1  0.83425000  0.94673000  0.88212000  1.0
  C  C80  1  0.22729000  0.82871000  0.41084000  1.0
  C  C81  1  0.05645000  0.17137000  0.08925000  1.0
  C  C82  1  0.77267000  0.17130000  0.58916000  1.0
  C  C83  1  0.94357000  0.82862000  0.91076000  1.0
  C  C84  1  0.17581000  0.65300000  0.42844000  1.0
  C  C85  1  0.82902000  0.34702000  0.07159000  1.0
  C  C86  1  0.82413000  0.34702000  0.57157000  1.0
  C  C87  1  0.17099000  0.65298000  0.92841000  1.0
  C  C88  1  0.11092000  0.54634000  0.42299000  1.0
  C  C89  1  0.65767000  0.45375000  0.07704000  1.0
  C  C90  1  0.88906000  0.45366000  0.57702000  1.0
  C  C91  1  0.34235000  0.54625000  0.92296000  1.0
  C  C92  1  0.90944000  0.54404000  0.39810000  1.0
  C  C93  1  0.45395000  0.45617000  0.10201000  1.0
  C  C94  1  0.09052000  0.45597000  0.60190000  1.0
  C  C95  1  0.54607000  0.54382000  0.89800000  1.0
  C  C96  1  0.86480000  0.43676000  0.39643000  1.0
  C  C97  1  0.30227000  0.56347000  0.10373000  1.0
  C  C98  1  0.13519000  0.56324000  0.60357000  1.0
  C  C99  1  0.69775000  0.43652000  0.89627000  1.0
  C  C100  1  0.02022000  0.33493000  0.41945000  1.0
  C  C101  1  0.35598000  0.66526000  0.08067000  1.0
  C  C102  1  0.97978000  0.66508000  0.58054000  1.0
  C  C103  1  0.64405000  0.33473000  0.91934000  1.0
  C  C104  1  0.25766000  0.43982000  0.44522000  1.0
  C  C105  1  0.69793000  0.56018000  0.05479000  1.0
  C  C106  1  0.74233000  0.56019000  0.55477000  1.0
  C  C107  1  0.30208000  0.43982000  0.94521000  1.0
  N  N108  1  0.12771000  0.75327000  0.38855000  1.0
  N  N109  1  0.88163000  0.24688000  0.11157000  1.0
  N  N110  1  0.87224000  0.24675000  0.61146000  1.0
  N  N111  1  0.11840000  0.75312000  0.88843000  1.0
  N  N112  1  0.32992000  0.77594000  0.46141000  1.0
  N  N113  1  0.10578000  0.22396000  0.03857000  1.0
  N  N114  1  0.67004000  0.22407000  0.53858000  1.0
  N  N115  1  0.89421000  0.77604000  0.96142000  1.0
  N  N116  1  0.29807000  0.66659000  0.47270000  1.0
  N  N117  1  0.96435667  0.33333333  0.02724000  1.0
  N  N118  1  0.70187000  0.33343000  0.52730000  1.0
  N  N119  1  0.03558000  0.66671000  0.97275000  1.0
  N  N120  1  0.21305000  0.33685000  0.44345000  1.0
  N  N121  1  0.55052000  0.66323000  0.05661000  1.0
  N  N122  1  0.78696000  0.66316000  0.55654000  1.0
  N  N123  1  0.44950000  0.33676000  0.94340000  1.0
  Cl  Cl124  1  0.24037000  0.06041000  0.52828000  1.0
  Cl  Cl125  1  0.30082000  0.93939000  0.97172000  1.0
  Cl  Cl126  1  0.75962000  0.93957000  0.47171000  1.0
  Cl  Cl127  1  0.69922000  0.06061000  0.02828000  1.0
  O  O128  1  0.88832000  0.79065000  0.11379000  1.0
  O  O129  1  0.67828000  0.20977000  0.38628000  1.0
  O  O130  1  0.11166000  0.20936000  0.88622000  1.0
  O  O131  1  0.32176000  0.79022000  0.61372000  1.0
  O  O132  1  0.54676000  0.84917000  0.14691000  1.0
  O  O133  1  0.39601000  0.15084000  0.35298000  1.0
  O  O134  1  0.45319000  0.15082000  0.85309000  1.0
  O  O135  1  0.60406000  0.84913000  0.64702000  1.0
