# generated using pymatgen
data_ZnC9IN(O2F)2
_symmetry_space_group_name_H-M   'P 1'
_cell_length_a   10.65390000
_cell_length_b   10.89390000
_cell_length_c   11.87500000
_cell_angle_alpha   87.43760000
_cell_angle_beta   88.18370000
_cell_angle_gamma   87.73550000
_symmetry_Int_Tables_number   1
_chemical_formula_structural   ZnC9IN(O2F)2
_chemical_formula_sum   'Zn2 C18 I2 N2 O8 F4'
_cell_volume   1375.17063112
_cell_formula_units_Z   2
loop_
 _symmetry_equiv_pos_site_id
 _symmetry_equiv_pos_as_xyz
  1  'x, y, z'
loop_
 _atom_site_type_symbol
 _atom_site_label
 _atom_site_symmetry_multiplicity
 _atom_site_fract_x
 _atom_site_fract_y
 _atom_site_fract_z
 _atom_site_occupancy
  Zn  Zn0  1  0.37007000  0.50102000  0.50359000  1.0
  Zn  Zn1  1  0.62994000  0.49897000  0.49641000  1.0
  C  C2  1  0.49974000  0.50024000  0.28126000  1.0
  C  C3  1  0.56777000  0.95868000  0.41014000  1.0
  C  C4  1  0.45497000  0.05560000  0.40404000  1.0
  C  C5  1  0.54497000  0.94440000  0.59598000  1.0
  C  C6  1  0.51135000  0.12485000  0.50509000  1.0
  C  C7  1  0.48859000  0.87515000  0.49492000  1.0
  C  C8  1  0.49994000  0.49981000  0.15984000  1.0
  C  C9  1  0.50019000  0.50020000  0.84015000  1.0
  C  C10  1  0.50004000  0.49990000  0.05682000  1.0
  C  C11  1  0.50015000  0.50011000  0.94316000  1.0
  C  C12  1  0.50036000  0.49975000  0.71873000  1.0
  C  C13  1  0.48796000  0.73803000  0.49331000  1.0
  C  C14  1  0.51201000  0.26196000  0.50669000  1.0
  C  C15  1  0.93587000  0.50092000  0.49782000  1.0
  C  C16  1  0.06416000  0.49910000  0.50218000  1.0
  C  C17  1  0.37679000  0.97295000  0.49009000  1.0
  C  C18  1  0.62314000  0.02704000  0.50991000  1.0
  C  C19  1  0.43217000  0.04131000  0.58987000  1.0
  I  I20  1  0.38780000  0.14157000  0.25511000  1.0
  I  I21  1  0.61212000  0.85844000  0.74491000  1.0
  N  N22  1  0.82701000  0.50245000  0.49417000  1.0
  N  N23  1  0.17301000  0.49757000  0.50582000  1.0
  O  O24  1  0.39228000  0.50286000  0.33165000  1.0
  O  O25  1  0.60780000  0.49712000  0.66832000  1.0
  O  O26  1  0.39314000  0.50197000  0.67386000  1.0
  O  O27  1  0.60694000  0.49804000  0.32615000  1.0
  O  O28  1  0.38216000  0.68832000  0.49655000  1.0
  O  O29  1  0.61781000  0.31165000  0.50346000  1.0
  O  O30  1  0.40351000  0.31490000  0.50935000  1.0
  O  O31  1  0.59645000  0.68511000  0.49066000  1.0
  F  F32  1  0.25439000  0.94800000  0.47895000  1.0
  F  F33  1  0.74552000  0.05199000  0.52107000  1.0
  F  F34  1  0.36677000  0.08343000  0.68090000  1.0
  F  F35  1  0.63314000  0.91656000  0.31910000  1.0
