# generated using pymatgen
data_NiH18(C5O3)2
_symmetry_space_group_name_H-M   'P 1'
_cell_length_a   7.16706000
_cell_length_b   11.98550000
_cell_length_c   14.18240000
_cell_angle_alpha   90.00000000
_cell_angle_beta   90.00000000
_cell_angle_gamma   90.00000000
_symmetry_Int_Tables_number   1
_chemical_formula_structural   NiH18(C5O3)2
_chemical_formula_sum   'Ni4 H72 C40 O24'
_cell_volume   1218.27947231
_cell_formula_units_Z   4
loop_
 _symmetry_equiv_pos_site_id
 _symmetry_equiv_pos_as_xyz
  1  'x, y, z'
loop_
 _atom_site_type_symbol
 _atom_site_label
 _atom_site_symmetry_multiplicity
 _atom_site_fract_x
 _atom_site_fract_y
 _atom_site_fract_z
 _atom_site_occupancy
  Ni  Ni0  1  0.37992000  0.25271000  0.48575000  1.0
  Ni  Ni1  1  0.12008000  0.74729000  0.98575000  1.0
  Ni  Ni2  1  0.87992000  0.24728000  0.51425000  1.0
  Ni  Ni3  1  0.62008000  0.75272000  0.01425000  1.0
  H  H4  1  0.57848000  0.06971000  0.52044000  1.0
  H  H5  1  0.92151000  0.93029000  0.02044000  1.0
  H  H6  1  0.07847000  0.43029000  0.47956000  1.0
  H  H7  1  0.42152000  0.56971000  0.97956000  1.0
  H  H8  1  0.35849000  0.03766000  0.52929000  1.0
  H  H9  1  0.14151000  0.96235000  0.02929000  1.0
  H  H10  1  0.85849000  0.46234000  0.47071000  1.0
  H  H11  1  0.64150000  0.53765000  0.97071000  1.0
  H  H12  1  0.11007000  0.10913000  0.46239000  1.0
  H  H13  1  0.38993000  0.89087000  0.96238000  1.0
  H  H14  1  0.61006000  0.39086000  0.53761000  1.0
  H  H15  1  0.88993000  0.60914000  0.03761000  1.0
  H  H16  1  0.07466000  0.20468000  0.37749000  1.0
  H  H17  1  0.42535000  0.79532000  0.87748000  1.0
  H  H18  1  0.57466000  0.29533000  0.62251000  1.0
  H  H19  1  0.92534000  0.70467000  0.12252000  1.0
  H  H20  1  0.79175000  0.12475000  0.05111000  1.0
  H  H21  1  0.70824000  0.87526000  0.55111000  1.0
  H  H22  1  0.29175000  0.37525000  0.94889000  1.0
  H  H23  1  0.20824000  0.62475000  0.44888000  1.0
  H  H24  1  0.38644000  0.18666000  0.04266000  1.0
  H  H25  1  0.11356000  0.81335000  0.54267000  1.0
  H  H26  1  0.88644000  0.31335000  0.95733000  1.0
  H  H27  1  0.61356000  0.68664000  0.45733000  1.0
  H  H28  1  0.58247000  0.26271000  0.00343000  1.0
  H  H29  1  0.91753000  0.73729000  0.50343000  1.0
  H  H30  1  0.08246000  0.23729000  0.99658000  1.0
  H  H31  1  0.41754000  0.76270000  0.49657000  1.0
  H  H32  1  0.54865000  0.37104000  0.14175000  1.0
  H  H33  1  0.95135000  0.62896000  0.64175000  1.0
  H  H34  1  0.04865000  0.12895000  0.85826000  1.0
  H  H35  1  0.45135000  0.87104000  0.35826000  1.0
  H  H36  1  0.38998000  0.27489000  0.19096000  1.0
  H  H37  1  0.11002000  0.72511000  0.69096000  1.0
  H  H38  1  0.88998000  0.22510000  0.80904000  1.0
  H  H39  1  0.61003000  0.77490000  0.30904000  1.0
  H  H40  1  0.86696000  0.37453000  0.21035000  1.0
  H  H41  1  0.63303000  0.62548000  0.71035000  1.0
  H  H42  1  0.36697000  0.12547000  0.78965000  1.0
  H  H43  1  0.13304000  0.87453000  0.28965000  1.0
  H  H44  1  0.88908000  0.28347000  0.11337000  1.0
  H  H45  1  0.61092000  0.71654000  0.61337000  1.0
  H  H46  1  0.38909000  0.21654000  0.88663000  1.0
  H  H47  1  0.11092000  0.78346000  0.38663000  1.0
  H  H48  1  0.98692000  0.24642000  0.22409000  1.0
  H  H49  1  0.51308000  0.75359000  0.72409000  1.0
  H  H50  1  0.48692000  0.25359000  0.77591000  1.0
  H  H51  1  0.01309000  0.74641000  0.27591000  1.0
  H  H52  1  0.82887000  0.94962000  0.20247000  1.0
  H  H53  1  0.67113000  0.05038000  0.70248000  1.0
  H  H54  1  0.32886000  0.55038000  0.79753000  1.0
  H  H55  1  0.17113000  0.44962000  0.29752000  1.0
  H  H56  1  0.86526000  0.04346000  0.29752000  1.0
  H  H57  1  0.63473000  0.95654000  0.79753000  1.0
  H  H58  1  0.36527000  0.45654000  0.70248000  1.0
  H  H59  1  0.13473000  0.54346000  0.20247000  1.0
  H  H60  1  0.97302000  0.06847000  0.18632000  1.0
  H  H61  1  0.52698000  0.93154000  0.68632000  1.0
  H  H62  1  0.47302000  0.43153000  0.81368000  1.0
  H  H63  1  0.02698000  0.56846000  0.31368000  1.0
  H  H64  1  0.49062000  0.96146000  0.20838000  1.0
  H  H65  1  0.00938000  0.03854000  0.70839000  1.0
  H  H66  1  0.99062000  0.53854000  0.79161000  1.0
  H  H67  1  0.50938000  0.46146000  0.29161000  1.0
  H  H68  1  0.36970000  0.09093000  0.21344000  1.0
  H  H69  1  0.13029000  0.90906000  0.71344000  1.0
  H  H70  1  0.86970000  0.40906000  0.78656000  1.0
  H  H71  1  0.63030000  0.59094000  0.28655000  1.0
  H  H72  1  0.50618000  0.04673000  0.31040000  1.0
  H  H73  1  0.99382000  0.95327000  0.81040000  1.0
  H  H74  1  0.00618000  0.45327000  0.68960000  1.0
  H  H75  1  0.49382000  0.54673000  0.18959000  1.0
  C  C76  1  0.68067000  0.23227000  0.21680000  1.0
  C  C77  1  0.81934000  0.76774000  0.71680000  1.0
  C  C78  1  0.18066000  0.26773000  0.78320000  1.0
  C  C79  1  0.31934000  0.73227000  0.28320000  1.0
  C  C80  1  0.67283000  0.10380000  0.19056000  1.0
  C  C81  1  0.82717000  0.89621000  0.69056000  1.0
  C  C82  1  0.17283000  0.39620000  0.80944000  1.0
  C  C83  1  0.32717000  0.60379000  0.30943000  1.0
  C  C84  1  0.65143000  0.11129000  0.08063000  1.0
  C  C85  1  0.84856000  0.88871000  0.58064000  1.0
  C  C86  1  0.15143000  0.38871000  0.91937000  1.0
  C  C87  1  0.34856000  0.61129000  0.41936000  1.0
  C  C88  1  0.52707000  0.21384000  0.06265000  1.0
  C  C89  1  0.97293000  0.78616000  0.56265000  1.0
  C  C90  1  0.02707000  0.28616000  0.93735000  1.0
  C  C91  1  0.47293000  0.71383000  0.43735000  1.0
  C  C92  1  0.52461000  0.28210000  0.15480000  1.0
  C  C93  1  0.97539000  0.71790000  0.65480000  1.0
  C  C94  1  0.02461000  0.21790000  0.84520000  1.0
  C  C95  1  0.47539000  0.78210000  0.34520000  1.0
  C  C96  1  0.86735000  0.28629000  0.18975000  1.0
  C  C97  1  0.63265000  0.71371000  0.68975000  1.0
  C  C98  1  0.36735000  0.21371000  0.81025000  1.0
  C  C99  1  0.13265000  0.78629000  0.31025000  1.0
  C  C100  1  0.84547000  0.03800000  0.22080000  1.0
  C  C101  1  0.65453000  0.96200000  0.72080000  1.0
  C  C102  1  0.34547000  0.46199000  0.77920000  1.0
  C  C103  1  0.15453000  0.53800000  0.27920000  1.0
  C  C104  1  0.49917000  0.04799000  0.23315000  1.0
  C  C105  1  0.00083000  0.95201000  0.73316000  1.0
  C  C106  1  0.99917000  0.45201000  0.76684000  1.0
  C  C107  1  0.50083000  0.54799000  0.26684000  1.0
  C  C108  1  0.64834000  0.24647000  0.32342000  1.0
  C  C109  1  0.85168000  0.75352000  0.82342000  1.0
  C  C110  1  0.14833000  0.25352000  0.67659000  1.0
  C  C111  1  0.35169000  0.74648000  0.17658000  1.0
  C  C112  1  0.58229000  0.00319000  0.03757000  1.0
  C  C113  1  0.91771000  0.99682000  0.53757000  1.0
  C  C114  1  0.08230000  0.49681000  0.96242000  1.0
  C  C115  1  0.41769000  0.50318000  0.46242000  1.0
  O  O116  1  0.48163000  0.25794000  0.35245000  1.0
  O  O117  1  0.01839000  0.74206000  0.85245000  1.0
  O  O118  1  0.98161000  0.24205000  0.64756000  1.0
  O  O119  1  0.51840000  0.75795000  0.14755000  1.0
  O  O120  1  0.45011000  0.08097000  0.49382000  1.0
  O  O121  1  0.04989000  0.91902000  0.99383000  1.0
  O  O122  1  0.95010000  0.41903000  0.50617000  1.0
  O  O123  1  0.54989000  0.58097000  0.00618000  1.0
  O  O124  1  0.79448000  0.24343000  0.37468000  1.0
  O  O125  1  0.70552000  0.75655000  0.87468000  1.0
  O  O126  1  0.29447000  0.25655000  0.62532000  1.0
  O  O127  1  0.20554000  0.74344000  0.12532000  1.0
  O  O128  1  0.12233000  0.19476000  0.44170000  1.0
  O  O129  1  0.37768000  0.80524000  0.94171000  1.0
  O  O130  1  0.62233000  0.30524000  0.55829000  1.0
  O  O131  1  0.87767000  0.69476000  0.05829000  1.0
  O  O132  1  0.41593000  0.99603000  0.00645000  1.0
  O  O133  1  0.08406000  0.00397000  0.50645000  1.0
  O  O134  1  0.91593000  0.50398000  0.99355000  1.0
  O  O135  1  0.58405000  0.49602000  0.49355000  1.0
  O  O136  1  0.69767000  0.92135000  0.03518000  1.0
  O  O137  1  0.80233000  0.07865000  0.53518000  1.0
  O  O138  1  0.19767000  0.57865000  0.96482000  1.0
  O  O139  1  0.30232000  0.42135000  0.46481000  1.0
