# generated using pymatgen
data_CdH22C24(N3O4)2
_symmetry_space_group_name_H-M   'P 1'
_cell_length_a   6.84885000
_cell_length_b   13.05361528
_cell_length_c   15.74856782
_cell_angle_alpha   67.95163046
_cell_angle_beta   77.66342117
_cell_angle_gamma   74.86662279
_symmetry_Int_Tables_number   1
_chemical_formula_structural   CdH22C24(N3O4)2
_chemical_formula_sum   'Cd2 H44 C48 N12 O16'
_cell_volume   1249.16526666
_cell_formula_units_Z   2
loop_
 _symmetry_equiv_pos_site_id
 _symmetry_equiv_pos_as_xyz
  1  'x, y, z'
loop_
 _atom_site_type_symbol
 _atom_site_label
 _atom_site_symmetry_multiplicity
 _atom_site_fract_x
 _atom_site_fract_y
 _atom_site_fract_z
 _atom_site_occupancy
  Cd  Cd0  1  0.69628000  0.25064000  0.75056000  1.0
  Cd  Cd1  1  0.30371000  0.74936000  0.24944000  1.0
  H  H2  1  0.91425000  0.66203000  0.63059000  1.0
  H  H3  1  0.20545000  0.83847000  0.86842000  1.0
  H  H4  1  0.08575000  0.33798000  0.36939000  1.0
  H  H5  1  0.79456000  0.16153000  0.13156000  1.0
  H  H6  1  0.16133000  0.31927000  0.66369000  1.0
  H  H7  1  0.14438000  0.18083000  0.83649000  1.0
  H  H8  1  0.83870000  0.68072000  0.33632000  1.0
  H  H9  1  0.85561000  0.81916000  0.16353000  1.0
  H  H10  1  0.60868000  0.53751000  0.71572000  1.0
  H  H11  1  0.85837000  0.96329000  0.78446000  1.0
  H  H12  1  0.39134000  0.46249000  0.28426000  1.0
  H  H13  1  0.14162000  0.03672000  0.21553000  1.0
  H  H14  1  0.70805000  0.39882000  0.98278000  1.0
  H  H15  1  0.08838000  0.10061000  0.51769000  1.0
  H  H16  1  0.29195000  0.60118000  0.01722000  1.0
  H  H17  1  0.91159000  0.89938000  0.48232000  1.0
  H  H18  1  0.00610000  0.36685000  0.86699000  1.0
  H  H19  1  0.23978000  0.13301000  0.63360000  1.0
  H  H20  1  0.99391000  0.63315000  0.13301000  1.0
  H  H21  1  0.76020000  0.86698000  0.36641000  1.0
  H  H22  1  0.11698000  0.33912000  0.17801000  1.0
  H  H23  1  0.63048000  0.16055000  0.32285000  1.0
  H  H24  1  0.88305000  0.66088000  0.82199000  1.0
  H  H25  1  0.36951000  0.83945000  0.67716000  1.0
  H  H26  1  0.41474000  0.30630000  0.06142000  1.0
  H  H27  1  0.77984000  0.19382000  0.43955000  1.0
  H  H28  1  0.58526000  0.69371000  0.93858000  1.0
  H  H29  1  0.22013000  0.80618000  0.56046000  1.0
  H  H30  1  0.29624000  0.52296000  0.46297000  1.0
  H  H31  1  0.28246000  0.97724000  0.03631000  1.0
  H  H32  1  0.70380000  0.47703000  0.53703000  1.0
  H  H33  1  0.71754000  0.02276000  0.96369000  1.0
  H  H34  1  0.41062000  0.39306000  0.53979000  1.0
  H  H35  1  0.34404000  0.10706000  0.95983000  1.0
  H  H36  1  0.58939000  0.60695000  0.46020000  1.0
  H  H37  1  0.65596000  0.89293000  0.04017000  1.0
  H  H38  1  0.27429000  0.61815000  0.57553000  1.0
  H  H39  1  0.46825000  0.88208000  0.92387000  1.0
  H  H40  1  0.72572000  0.38185000  0.42447000  1.0
  H  H41  1  0.53173000  0.11792000  0.07614000  1.0
  H  H42  1  0.38715000  0.48911000  0.65561000  1.0
  H  H43  1  0.53124000  0.01138000  0.84412000  1.0
  H  H44  1  0.61286000  0.51089000  0.34438000  1.0
  H  H45  1  0.46876000  0.98861000  0.15588000  1.0
  C  C46  1  0.91653000  0.57287000  0.65092000  1.0
  C  C47  1  0.13896000  0.92762000  0.84846000  1.0
  C  C48  1  0.08349000  0.42713000  0.34906000  1.0
  C  C49  1  0.86103000  0.07239000  0.15154000  1.0
  C  C50  1  0.40889000  0.30938000  0.88888000  1.0
  C  C51  1  0.60662000  0.19126000  0.61177000  1.0
  C  C52  1  0.59112000  0.69062000  0.11112000  1.0
  C  C53  1  0.39336000  0.80874000  0.38824000  1.0
  C  C54  1  0.04873000  0.39461000  0.66532000  1.0
  C  C55  1  0.10809000  0.10565000  0.83469000  1.0
  C  C56  1  0.95128000  0.60539000  0.33469000  1.0
  C  C57  1  0.89190000  0.89435000  0.16531000  1.0
  C  C58  1  0.76724000  0.51029000  0.69151000  1.0
  C  C59  1  0.96655000  0.99037000  0.80850000  1.0
  C  C60  1  0.23277000  0.48971000  0.30848000  1.0
  C  C61  1  0.03344000  0.00964000  0.19150000  1.0
  C  C62  1  0.89874000  0.36917000  0.08644000  1.0
  C  C63  1  0.35195000  0.13025000  0.41427000  1.0
  C  C64  1  0.10127000  0.63083000  0.91356000  1.0
  C  C65  1  0.64804000  0.86975000  0.58573000  1.0
  C  C66  1  0.22873000  0.33297000  0.95765000  1.0
  C  C67  1  0.51812000  0.16697000  0.54316000  1.0
  C  C68  1  0.77128000  0.66703000  0.04235000  1.0
  C  C69  1  0.48185000  0.83303000  0.45685000  1.0
  C  C70  1  0.86271000  0.37824000  0.99962000  1.0
  C  C71  1  0.23894000  0.12141000  0.50097000  1.0
  C  C72  1  0.13730000  0.62176000  0.00038000  1.0
  C  C73  1  0.76105000  0.87858000  0.49903000  1.0
  C  C74  1  0.02963000  0.36003000  0.93528000  1.0
  C  C75  1  0.32397000  0.13987000  0.56534000  1.0
  C  C76  1  0.97038000  0.63997000  0.06472000  1.0
  C  C77  1  0.67602000  0.86013000  0.43465000  1.0
  C  C78  1  0.09531000  0.34339000  0.11029000  1.0
  C  C79  1  0.54608000  0.15634000  0.39050000  1.0
  C  C80  1  0.90471000  0.65661000  0.88971000  1.0
  C  C81  1  0.45392000  0.84366000  0.60950000  1.0
  C  C82  1  0.25990000  0.32524000  0.04522000  1.0
  C  C83  1  0.62803000  0.17473000  0.45564000  1.0
  C  C84  1  0.74011000  0.67476000  0.95478000  1.0
  C  C85  1  0.37196000  0.82527000  0.54436000  1.0
  C  C86  1  0.39501000  0.48493000  0.51804000  1.0
  C  C87  1  0.39824000  0.01518000  0.98162000  1.0
  C  C88  1  0.60501000  0.51508000  0.48196000  1.0
  C  C89  1  0.60177000  0.98481000  0.01838000  1.0
  C  C90  1  0.29468000  0.52616000  0.59840000  1.0
  C  C91  1  0.41927000  0.97407000  0.90112000  1.0
  C  C92  1  0.70532000  0.47385000  0.40160000  1.0
  C  C93  1  0.58071000  0.02594000  0.09888000  1.0
  N  N94  1  0.85181000  0.39902000  0.69959000  1.0
  N  N95  1  0.94854000  0.10148000  0.80078000  1.0
  N  N96  1  0.14819000  0.60099000  0.30041000  1.0
  N  N97  1  0.05146000  0.89852000  0.19922000  1.0
  N  N98  1  0.09285000  0.49865000  0.63495000  1.0
  N  N99  1  0.22625000  0.00162000  0.86443000  1.0
  N  N100  1  0.90717000  0.50134000  0.36505000  1.0
  N  N101  1  0.77373000  0.99838000  0.13558000  1.0
  N  N102  1  0.72435000  0.38714000  0.15532000  1.0
  N  N103  1  0.26352000  0.11246000  0.34519000  1.0
  N  N104  1  0.27566000  0.61286000  0.84468000  1.0
  N  N105  1  0.73648000  0.88754000  0.65481000  1.0
  O  O106  1  0.75849000  0.37309000  0.23384000  1.0
  O  O107  1  0.36218000  0.12547000  0.26699000  1.0
  O  O108  1  0.24152000  0.62691000  0.76616000  1.0
  O  O109  1  0.63783000  0.87453000  0.73301000  1.0
  O  O110  1  0.55010000  0.41502000  0.13220000  1.0
  O  O111  1  0.09310000  0.08606000  0.36769000  1.0
  O  O112  1  0.44991000  0.58498000  0.86780000  1.0
  O  O113  1  0.90688000  0.91395000  0.63231000  1.0
  O  O114  1  0.37218000  0.32772000  0.80718000  1.0
  O  O115  1  0.50604000  0.17445000  0.69307000  1.0
  O  O116  1  0.62785000  0.67227000  0.19281000  1.0
  O  O117  1  0.49394000  0.82554000  0.30695000  1.0
  O  O118  1  0.58430000  0.26964000  0.91455000  1.0
  O  O119  1  0.76833000  0.23030000  0.58631000  1.0
  O  O120  1  0.41573000  0.73035000  0.08544000  1.0
  O  O121  1  0.23163000  0.76971000  0.41370000  1.0
