# generated using pymatgen
data_Zn4H12C27O14
_symmetry_space_group_name_H-M   'P 1'
_cell_length_a   16.10720000
_cell_length_b   16.13880000
_cell_length_c   16.14200000
_cell_angle_alpha   83.88360000
_cell_angle_beta   89.83890000
_cell_angle_gamma   83.96440000
_symmetry_Int_Tables_number   1
_chemical_formula_structural   Zn4H12C27O14
_chemical_formula_sum   'Zn4 H12 C27 O14'
_cell_volume   4148.96342277
_cell_formula_units_Z   1
loop_
 _symmetry_equiv_pos_site_id
 _symmetry_equiv_pos_as_xyz
  1  'x, y, z'
loop_
 _atom_site_type_symbol
 _atom_site_label
 _atom_site_symmetry_multiplicity
 _atom_site_fract_x
 _atom_site_fract_y
 _atom_site_fract_z
 _atom_site_occupancy
  Zn  Zn0  1  0.42842000  0.43047000  0.57077000  1.0
  Zn  Zn1  1  0.57759000  0.42851000  0.43692000  1.0
  Zn  Zn2  1  0.56296000  0.56416000  0.57103000  1.0
  Zn  Zn3  1  0.42819000  0.57876000  0.42237000  1.0
  H  H4  1  0.98789000  0.56457000  0.42847000  1.0
  H  H5  1  0.83212000  0.33447000  0.73856000  1.0
  H  H6  1  0.85857000  0.38466000  0.82589000  1.0
  H  H7  1  0.92222000  0.29491000  0.79941000  1.0
  H  H8  1  0.43517000  0.43483000  0.00784000  1.0
  H  H9  1  0.56417000  0.56456000  0.99193000  1.0
  H  H10  1  0.43478000  0.01543000  0.42776000  1.0
  H  H11  1  0.56438000  0.98475000  0.57173000  1.0
  H  H12  1  0.01868000  0.31140000  0.66758000  1.0
  H  H13  1  0.92349000  0.34045000  0.61041000  1.0
  H  H14  1  0.98828000  0.42883000  0.75322000  1.0
  H  H15  1  0.89780000  0.46682000  0.69306000  1.0
  C  C16  1  0.51235000  0.51130000  0.27581000  1.0
  C  C17  1  0.48545000  0.48444000  0.81389000  1.0
  C  C18  1  0.51655000  0.18449000  0.51764000  1.0
  C  C19  1  0.49005000  0.48864000  0.72474000  1.0
  C  C20  1  0.52227000  0.02087000  0.52491000  1.0
  C  C21  1  0.47702000  0.97953000  0.47454000  1.0
  C  C22  1  0.48196000  0.89187000  0.47968000  1.0
  C  C23  1  0.51857000  0.10841000  0.52052000  1.0
  C  C24  1  0.48502000  0.81574000  0.48264000  1.0
  C  C25  1  0.51240000  0.27458000  0.51271000  1.0
  C  C26  1  0.48963000  0.72603000  0.48757000  1.0
  C  C27  1  0.10972000  0.51908000  0.47896000  1.0
  C  C28  1  0.72476000  0.48689000  0.51267000  1.0
  C  C29  1  0.27457000  0.51201000  0.48692000  1.0
  C  C30  1  0.81486000  0.48087000  0.51834000  1.0
  C  C31  1  0.97896000  0.47130000  0.52959000  1.0
  C  C32  1  0.02312000  0.52158000  0.47555000  1.0
  C  C33  1  0.97288000  0.36433000  0.64539000  1.0
  C  C34  1  0.93681000  0.40941000  0.71762000  1.0
  C  C35  1  0.88465000  0.35267000  0.77348000  1.0
  C  C36  1  0.89072000  0.47597000  0.52349000  1.0
  C  C37  1  0.18584000  0.51641000  0.48189000  1.0
  C  C38  1  0.51635000  0.51583000  0.18620000  1.0
  C  C39  1  0.52227000  0.52234000  0.02327000  1.0
  C  C40  1  0.47720000  0.47698000  0.97676000  1.0
  C  C41  1  0.48216000  0.48169000  0.88967000  1.0
  C  C42  1  0.51854000  0.51841000  0.11038000  1.0
  O  O43  1  0.50073000  0.49991000  0.50004000  1.0
  O  O44  1  0.69521000  0.44142000  0.46252000  1.0
  O  O45  1  0.31037000  0.56293000  0.43558000  1.0
  O  O46  1  0.68507000  0.53675000  0.55852000  1.0
  O  O47  1  0.31050000  0.45732000  0.54252000  1.0
  O  O48  1  0.02030000  0.41678000  0.58861000  1.0
  O  O49  1  0.45797000  0.31027000  0.55818000  1.0
  O  O50  1  0.44378000  0.69568000  0.43647000  1.0
  O  O51  1  0.56372000  0.45562000  0.31566000  1.0
  O  O52  1  0.53974000  0.53826000  0.68970000  1.0
  O  O53  1  0.45803000  0.56293000  0.30551000  1.0
  O  O54  1  0.44428000  0.44251000  0.68941000  1.0
  O  O55  1  0.56375000  0.30882000  0.46307000  1.0
  O  O56  1  0.53947000  0.68548000  0.54286000  1.0
