# generated using pymatgen
data_CdH56C84(BrN6)2
_symmetry_space_group_name_H-M   'P 1'
_cell_length_a   9.31692000
_cell_length_b   14.50200000
_cell_length_c   16.04930000
_cell_angle_alpha   82.03230000
_cell_angle_beta   81.52210000
_cell_angle_gamma   74.42050000
_symmetry_Int_Tables_number   1
_chemical_formula_structural   CdH56C84(BrN6)2
_chemical_formula_sum   'Cd1 H56 C84 Br2 N12'
_cell_volume   2054.79841924
_cell_formula_units_Z   1
loop_
 _symmetry_equiv_pos_site_id
 _symmetry_equiv_pos_as_xyz
  1  'x, y, z'
loop_
 _atom_site_type_symbol
 _atom_site_label
 _atom_site_symmetry_multiplicity
 _atom_site_fract_x
 _atom_site_fract_y
 _atom_site_fract_z
 _atom_site_occupancy
  Cd  Cd0  1  0.50000000  0.00000000  0.50000000  1.0
  H  H1  1  0.04365000  0.53327000  0.13519000  1.0
  H  H2  1  0.95635000  0.46673000  0.86481000  1.0
  H  H3  1  0.05313000  0.37769000  0.15144000  1.0
  H  H4  1  0.94687000  0.62231000  0.84856000  1.0
  H  H5  1  0.19257000  0.78889000  0.07104000  1.0
  H  H6  1  0.80744000  0.21111000  0.92896000  1.0
  H  H7  1  0.00145000  0.80781000  0.21458000  1.0
  H  H8  1  0.99856000  0.19219000  0.78542000  1.0
  H  H9  1  0.66854000  0.58834000  0.40258000  1.0
  H  H10  1  0.33145000  0.41166000  0.59742000  1.0
  H  H11  1  0.67695000  0.40066000  0.41686000  1.0
  H  H12  1  0.32306000  0.59934000  0.58315000  1.0
  H  H13  1  0.02980000  0.09726000  0.26086000  1.0
  H  H14  1  0.97020000  0.90274000  0.73914000  1.0
  H  H15  1  0.21356000  0.08101000  0.11574000  1.0
  H  H16  1  0.78644000  0.91899000  0.88426000  1.0
  H  H17  1  0.34990000  0.33566000  0.85908000  1.0
  H  H18  1  0.65010000  0.66434000  0.14092000  1.0
  H  H19  1  0.34309000  0.52301000  0.84589000  1.0
  H  H20  1  0.65691000  0.47699000  0.15411000  1.0
  H  H21  1  0.90047000  0.65522000  0.43576000  1.0
  H  H22  1  0.09952000  0.34478000  0.56424000  1.0
  H  H23  1  0.76582000  0.79735000  0.51540000  1.0
  H  H24  1  0.23418000  0.20265000  0.48460000  1.0
  H  H25  1  0.56076000  0.94291000  0.30675000  1.0
  H  H26  1  0.43925000  0.05710000  0.69325000  1.0
  H  H27  1  0.69290000  0.81047000  0.21665000  1.0
  H  H28  1  0.30710000  0.18953000  0.78335000  1.0
  H  H29  1  0.00115000  0.13465000  0.40331000  1.0
  H  H30  1  0.99885000  0.86536000  0.59669000  1.0
  H  H31  1  0.84014000  0.03028000  0.48410000  1.0
  H  H32  1  0.15986000  0.96972000  0.51590000  1.0
  H  H33  1  0.45940000  0.20217000  0.38634000  1.0
  H  H34  1  0.54060000  0.79783000  0.61366000  1.0
  H  H35  1  0.60007000  0.31653000  0.30525000  1.0
  H  H36  1  0.39993000  0.68347000  0.69475000  1.0
  H  H37  1  0.52768000  0.22127000  0.96708000  1.0
  H  H38  1  0.47231000  0.77873000  0.03293000  1.0
  H  H39  1  0.66786000  0.08659000  0.88294000  1.0
  H  H40  1  0.33213000  0.91340000  0.11707000  1.0
  H  H41  1  0.53621000  0.97093000  0.84694000  1.0
  H  H42  1  0.46378000  0.02907000  0.15306000  1.0
  H  H43  1  0.26366000  0.99314000  0.89404000  1.0
  H  H44  1  0.73632000  0.00687000  0.10595000  1.0
  H  H45  1  0.12215000  0.13154000  0.97253000  1.0
  H  H46  1  0.87784000  0.86846000  0.02747000  1.0
  H  H47  1  0.51838000  0.56821000  0.93905000  1.0
  H  H48  1  0.48162000  0.43179000  0.06095000  1.0
  H  H49  1  0.64680000  0.67036000  0.83586000  1.0
  H  H50  1  0.35320000  0.32964000  0.16415000  1.0
  H  H51  1  0.50542000  0.83299000  0.77804000  1.0
  H  H52  1  0.49458000  0.16701000  0.22196000  1.0
  H  H53  1  0.23024000  0.88884000  0.82367000  1.0
  H  H54  1  0.76977000  0.11117000  0.17633000  1.0
  H  H55  1  0.10252000  0.78678000  0.92859000  1.0
  H  H56  1  0.89748000  0.21322000  0.07141000  1.0
  C  C57  1  0.14260000  0.64562000  0.07650000  1.0
  C  C58  1  0.85740000  0.35437000  0.92350000  1.0
  C  C59  1  0.13207000  0.73762000  0.10371000  1.0
  C  C60  1  0.86794000  0.26238000  0.89629000  1.0
  C  C61  1  0.03459000  0.74725000  0.17702000  1.0
  C  C62  1  0.96542000  0.25275000  0.82298000  1.0
  C  C63  1  0.98417000  0.66082000  0.19777000  1.0
  C  C64  1  0.01583000  0.33918000  0.80223000  1.0
  C  C65  1  0.88447000  0.63978000  0.26808000  1.0
  C  C66  1  0.11553000  0.36022000  0.73192000  1.0
  C  C67  1  0.85179000  0.54990000  0.29332000  1.0
  C  C68  1  0.14821000  0.45011000  0.70668000  1.0
  C  C69  1  0.73988000  0.53416000  0.36387000  1.0
  C  C70  1  0.26012000  0.46584000  0.63613000  1.0
  C  C71  1  0.74320000  0.43911000  0.37062000  1.0
  C  C72  1  0.25680000  0.56090000  0.62938000  1.0
  C  C73  1  0.85588000  0.39766000  0.30340000  1.0
  C  C74  1  0.14412000  0.60234000  0.69661000  1.0
  C  C75  1  0.89764000  0.29865000  0.29238000  1.0
  C  C76  1  0.10236000  0.70135000  0.70763000  1.0
  C  C77  1  0.00480000  0.25563000  0.22849000  1.0
  C  C78  1  0.99520000  0.74437000  0.77151000  1.0
  C  C79  1  0.05802000  0.15530000  0.21705000  1.0
  C  C80  1  0.94198000  0.84470000  0.78295000  1.0
  C  C81  1  0.15235000  0.14680000  0.14274000  1.0
  C  C82  1  0.84765000  0.85320000  0.85726000  1.0
  C  C83  1  0.15771000  0.24164000  0.10488000  1.0
  C  C84  1  0.84229000  0.75836000  0.89512000  1.0
  C  C85  1  0.23297000  0.26649000  0.02586000  1.0
  C  C86  1  0.76703000  0.73351000  0.97414000  1.0
  C  C87  1  0.24056000  0.36090000  0.99291000  1.0
  C  C88  1  0.75943000  0.63910000  0.00709000  1.0
  C  C89  1  0.30871000  0.38445000  0.90768000  1.0
  C  C90  1  0.69129000  0.61555000  0.09232000  1.0
  C  C91  1  0.30572000  0.47943000  0.90100000  1.0
  C  C92  1  0.69428000  0.52057000  0.09900000  1.0
  C  C93  1  0.23640000  0.51330000  0.98246000  1.0
  C  C94  1  0.76360000  0.48670000  0.01754000  1.0
  C  C95  1  0.22357000  0.60735000  0.00253000  1.0
  C  C96  1  0.77643000  0.39264000  0.99747000  1.0
  C  C97  1  0.80730000  0.72083000  0.31910000  1.0
  C  C98  1  0.19270000  0.27917000  0.68090000  1.0
  C  C99  1  0.82650000  0.71781000  0.40461000  1.0
  C  C100  1  0.17350000  0.28219000  0.59539000  1.0
  C  C101  1  0.75151000  0.79599000  0.44922000  1.0
  C  C102  1  0.24849000  0.20401000  0.55078000  1.0
  C  C103  1  0.63955000  0.87843000  0.33220000  1.0
  C  C104  1  0.36046000  0.12157000  0.66780000  1.0
  C  C105  1  0.71203000  0.80402000  0.28279000  1.0
  C  C106  1  0.28797000  0.19598000  0.71721000  1.0
  C  C107  1  0.81297000  0.23530000  0.34736000  1.0
  C  C108  1  0.18703000  0.76470000  0.65264000  1.0
  C  C109  1  0.88070000  0.15329000  0.39871000  1.0
  C  C110  1  0.11930000  0.84672000  0.60129000  1.0
  C  C111  1  0.79258000  0.09449000  0.44297000  1.0
  C  C112  1  0.20742000  0.90551000  0.55703000  1.0
  C  C113  1  0.57861000  0.19186000  0.39069000  1.0
  C  C114  1  0.42139000  0.80814000  0.60930000  1.0
  C  C115  1  0.65761000  0.25484000  0.34530000  1.0
  C  C116  1  0.34240000  0.74517000  0.65470000  1.0
  C  C117  1  0.31532000  0.18578000  0.97552000  1.0
  C  C118  1  0.68468000  0.81422000  0.02448000  1.0
  C  C119  1  0.46975000  0.17208000  0.94934000  1.0
  C  C120  1  0.53025000  0.82791000  0.05066000  1.0
  C  C121  1  0.54816000  0.09574000  0.90295000  1.0
  C  C122  1  0.45183000  0.90426000  0.09705000  1.0
  C  C123  1  0.47490000  0.03083000  0.88287000  1.0
  C  C124  1  0.52509000  0.96917000  0.11713000  1.0
  C  C125  1  0.32176000  0.04349000  0.90917000  1.0
  C  C126  1  0.67824000  0.95651000  0.09083000  1.0
  C  C127  1  0.24253000  0.12045000  0.95440000  1.0
  C  C128  1  0.75747000  0.87955000  0.04560000  1.0
  C  C129  1  0.30112000  0.67035000  0.94190000  1.0
  C  C130  1  0.69888000  0.32965000  0.05810000  1.0
  C  C131  1  0.45477000  0.63863000  0.91403000  1.0
  C  C132  1  0.54522000  0.36137000  0.08597000  1.0
  C  C133  1  0.52747000  0.69689000  0.85588000  1.0
  C  C134  1  0.47254000  0.30312000  0.14412000  1.0
  C  C135  1  0.44841000  0.78809000  0.82431000  1.0
  C  C136  1  0.55159000  0.21191000  0.17569000  1.0
  C  C137  1  0.29518000  0.81983000  0.85085000  1.0
  C  C138  1  0.70483000  0.18017000  0.14915000  1.0
  C  C139  1  0.22257000  0.76217000  0.90956000  1.0
  C  C140  1  0.77743000  0.23783000  0.09044000  1.0
  Br  Br141  1  0.68761000  0.93480000  0.62671000  1.0
  Br  Br142  1  0.31239000  0.06519000  0.37328000  1.0
  N  N143  1  0.05404000  0.60137000  0.13627000  1.0
  N  N144  1  0.94596000  0.39863000  0.86373000  1.0
  N  N145  1  0.91904000  0.46645000  0.25690000  1.0
  N  N146  1  0.08097000  0.53355000  0.74310000  1.0
  N  N147  1  0.07049000  0.30460000  0.16033000  1.0
  N  N148  1  0.92951000  0.69540000  0.83967000  1.0
  N  N149  1  0.19283000  0.44088000  0.03631000  1.0
  N  N150  1  0.80717000  0.55912000  0.96369000  1.0
  N  N151  1  0.65847000  0.87489000  0.41416000  1.0
  N  N152  1  0.34153000  0.12512000  0.58584000  1.0
  N  N153  1  0.64453000  0.11236000  0.43830000  1.0
  N  N154  1  0.35547000  0.88764000  0.56170000  1.0
