# generated using pymatgen
data_Zr3H10C25N5O26
_symmetry_space_group_name_H-M   'P 1'
_cell_length_a   14.77410000
_cell_length_b   14.77750000
_cell_length_c   14.77607410
_cell_angle_alpha   60.26887551
_cell_angle_beta   89.43686562
_cell_angle_gamma   119.74090000
_symmetry_Int_Tables_number   1
_chemical_formula_structural   Zr3H10C25N5O26
_chemical_formula_sum   'Zr6 H20 C50 N10 O52'
_cell_volume   2288.00234293
_cell_formula_units_Z   2
loop_
 _symmetry_equiv_pos_site_id
 _symmetry_equiv_pos_as_xyz
  1  'x, y, z'
loop_
 _atom_site_type_symbol
 _atom_site_label
 _atom_site_symmetry_multiplicity
 _atom_site_fract_x
 _atom_site_fract_y
 _atom_site_fract_z
 _atom_site_occupancy
  Zr  Zr0  1  0.87744000  0.49733000  0.62049000  1.0
  Zr  Zr1  1  0.11655000  0.49515000  0.38078000  1.0
  Zr  Zr2  1  0.87663000  0.25790000  0.62102000  1.0
  Zr  Zr3  1  0.11787000  0.73526000  0.37978000  1.0
  Zr  Zr4  1  0.87807000  0.49673000  0.38115000  1.0
  Zr  Zr5  1  0.11679000  0.49688000  0.61924000  1.0
  H  H6  1  0.71417000  0.30942000  0.59740000  1.0
  H  H7  1  0.09380000  0.68411000  0.21785000  1.0
  H  H8  1  0.09043000  0.30733000  0.59463000  1.0
  H  H9  1  0.09165000  0.68662000  0.59270000  1.0
  H  H10  1  0.58477000  0.49150000  0.35869000  1.0
  H  H11  1  0.42468000  0.53223000  0.62306000  1.0
  H  H12  1  0.12792000  0.47085000  0.92379000  1.0
  H  H13  1  0.87231000  0.52821000  0.07414000  1.0
  H  H14  1  0.13248000  0.05238000  0.09583000  1.0
  H  H15  1  0.85586000  0.94207000  0.91200000  1.0
  H  H16  1  0.40868000  0.05195000  0.35863000  1.0
  H  H17  1  0.59266000  0.94173000  0.63504000  1.0
  H  H18  1  0.41969000  0.76793000  0.08506000  1.0
  H  H19  1  0.58791000  0.93931000  0.91703000  1.0
  H  H20  1  0.63759000  0.28473000  0.98328000  1.0
  H  H21  1  0.55434000  0.29354000  0.89780000  1.0
  H  H22  1  0.38220000  0.11893000  0.06764000  1.0
  H  H23  1  0.46637000  0.11127000  0.15275000  1.0
  H  H24  1  0.85206000  0.76653000  0.64009000  1.0
  H  H25  1  0.13817000  0.22829000  0.35307000  1.0
  C  C26  1  0.70071000  0.51042000  0.49412000  1.0
  C  C27  1  0.99501000  0.48942000  0.20069000  1.0
  C  C28  1  0.30354000  0.50271000  0.49482000  1.0
  C  C29  1  0.99830000  0.49900000  0.80280000  1.0
  C  C30  1  0.69981000  0.19507000  0.80956000  1.0
  C  C31  1  0.99561000  0.80158000  0.49499000  1.0
  C  C32  1  0.30530000  0.79595000  0.20333000  1.0
  C  C33  1  0.99265000  0.19202000  0.49831000  1.0
  C  C34  1  0.69650000  0.19418000  0.49708000  1.0
  C  C35  1  0.99422000  0.19438000  0.80779000  1.0
  C  C36  1  0.30480000  0.79974000  0.49663000  1.0
  C  C37  1  0.99488000  0.79987000  0.19906000  1.0
  C  C38  1  0.40730000  0.50818000  0.49058000  1.0
  C  C39  1  0.60281000  0.51695000  0.49045000  1.0
  C  C40  1  0.45494000  0.49876000  0.41577000  1.0
  C  C41  1  0.55676000  0.53014000  0.56283000  1.0
  C  C42  1  0.55047000  0.50209000  0.41553000  1.0
  C  C43  1  0.46004000  0.52396000  0.56484000  1.0
  C  C44  1  0.99943000  0.49483000  0.09697000  1.0
  C  C45  1  0.00216000  0.50596000  0.90045000  1.0
  C  C46  1  0.07349000  0.48374000  0.05059000  1.0
  C  C47  1  0.93399000  0.52662000  0.94242000  1.0
  C  C48  1  0.07334000  0.48547000  0.95579000  1.0
  C  C49  1  0.92871000  0.51632000  0.04102000  1.0
  C  C50  1  0.99559000  0.09462000  0.90883000  1.0
  C  C51  1  0.99307000  0.89986000  0.09871000  1.0
  C  C52  1  0.07365000  0.12315000  0.96140000  1.0
  C  C53  1  0.91586000  0.87142000  0.04531000  1.0
  C  C54  1  0.07251000  0.02844000  0.05491000  1.0
  C  C55  1  0.91604000  0.96600000  0.95273000  1.0
  C  C56  1  0.59580000  0.09432000  0.49543000  1.0
  C  C57  1  0.40543000  0.89951000  0.49842000  1.0
  C  C58  1  0.54231000  0.12282000  0.41832000  1.0
  C  C59  1  0.45781000  0.87097000  0.57665000  1.0
  C  C60  1  0.44958000  0.02815000  0.41868000  1.0
  C  C61  1  0.55174000  0.96571000  0.57508000  1.0
  C  C62  1  0.60303000  0.09440000  0.91303000  1.0
  C  C63  1  0.40874000  0.89693000  0.10682000  1.0
  C  C64  1  0.55556000  0.12215000  0.96876000  1.0
  C  C65  1  0.45774000  0.86762000  0.05254000  1.0
  C  C66  1  0.46060000  0.02554000  0.06327000  1.0
  C  C67  1  0.55217000  0.96387000  0.95833000  1.0
  C  C68  1  0.56341000  0.22772000  0.96985000  1.0
  C  C69  1  0.45582000  0.11866000  0.07640000  1.0
  C  C70  1  0.99226000  0.09043000  0.49882000  1.0
  C  C71  1  0.99685000  0.90386000  0.49401000  1.0
  C  C72  1  0.91294000  0.95963000  0.57925000  1.0
  C  C73  1  0.07726000  0.03478000  0.41442000  1.0
  C  C74  1  0.91429000  0.86752000  0.57736000  1.0
  C  C75  1  0.07554000  0.12709000  0.41574000  1.0
  N  N76  1  0.40482000  0.48115000  0.33435000  1.0
  N  N77  1  0.60994000  0.55591000  0.63930000  1.0
  N  N78  1  0.15641000  0.46905000  0.09960000  1.0
  N  N79  1  0.87131000  0.57174000  0.87926000  1.0
  N  N80  1  0.16304000  0.25616000  0.92015000  1.0
  N  N81  1  0.83031000  0.73868000  0.08290000  1.0
  N  N82  1  0.58008000  0.25556000  0.33256000  1.0
  N  N83  1  0.41574000  0.73798000  0.66691000  1.0
  N  N84  1  0.82330000  0.91156000  0.67199000  1.0
  N  N85  1  0.16971000  0.08243000  0.32470000  1.0
  O  O86  1  0.73644000  0.50545000  0.57346000  1.0
  O  O87  1  0.06987000  0.48659000  0.24143000  1.0
  O  O88  1  0.26270000  0.49946000  0.42019000  1.0
  O  O89  1  0.91904000  0.49412000  0.76706000  1.0
  O  O90  1  0.73852000  0.15908000  0.76638000  1.0
  O  O91  1  0.07255000  0.83801000  0.41832000  1.0
  O  O92  1  0.26357000  0.83305000  0.24219000  1.0
  O  O93  1  0.91577000  0.15537000  0.57517000  1.0
  O  O94  1  0.73634000  0.31008000  0.42063000  1.0
  O  O95  1  0.07043000  0.31043000  0.76802000  1.0
  O  O96  1  0.26585000  0.68384000  0.57203000  1.0
  O  O97  1  0.91868000  0.68410000  0.23841000  1.0
  O  O98  1  0.91822000  0.15522000  0.76914000  1.0
  O  O99  1  0.26586000  0.83881000  0.42089000  1.0
  O  O100  1  0.07295000  0.83865000  0.23587000  1.0
  O  O101  1  0.73308000  0.15518000  0.57523000  1.0
  O  O102  1  0.73765000  0.31150000  0.76822000  1.0
  O  O103  1  0.07056000  0.30709000  0.42200000  1.0
  O  O104  1  0.26270000  0.67958000  0.24072000  1.0
  O  O105  1  0.91903000  0.68650000  0.57274000  1.0
  O  O106  1  0.07427000  0.49691000  0.76429000  1.0
  O  O107  1  0.73806000  0.50613000  0.41933000  1.0
  O  O108  1  0.91818000  0.49062000  0.23871000  1.0
  O  O109  1  0.26385000  0.50068000  0.57330000  1.0
  O  O110  1  0.06526000  0.63236000  0.56670000  1.0
  O  O111  1  0.06365000  0.36079000  0.56848000  1.0
  O  O112  1  0.06438000  0.62989000  0.29816000  1.0
  O  O113  1  0.79452000  0.36304000  0.56806000  1.0
  O  O114  1  0.94677000  0.39673000  0.45161000  1.0
  O  O115  1  0.94797000  0.59599000  0.45061000  1.0
  O  O116  1  0.14594000  0.59466000  0.45075000  1.0
  O  O117  1  0.94774000  0.39857000  0.64910000  1.0
  O  O118  1  0.33224000  0.37025000  0.36741000  1.0
  O  O119  1  0.44330000  0.57788000  0.23970000  1.0
  O  O120  1  0.56749000  0.46700000  0.73833000  1.0
  O  O121  1  0.68926000  0.66721000  0.59748000  1.0
  O  O122  1  0.24870000  0.56824000  0.06347000  1.0
  O  O123  1  0.12753000  0.35898000  0.16826000  1.0
  O  O124  1  0.92840000  0.68027000  0.79184000  1.0
  O  O125  1  0.76953000  0.50288000  0.92037000  1.0
  O  O126  1  0.25178000  0.30590000  0.85393000  1.0
  O  O127  1  0.14267000  0.30316000  0.95974000  1.0
  O  O128  1  0.85794000  0.69541000  0.04396000  1.0
  O  O129  1  0.73793000  0.68543000  0.14503000  1.0
  O  O130  1  0.54433000  0.30092000  0.36068000  1.0
  O  O131  1  0.63938000  0.30674000  0.23939000  1.0
  O  O132  1  0.34686000  0.68799000  0.75394000  1.0
  O  O133  1  0.45734000  0.69124000  0.64907000  1.0
  O  O134  1  0.84407000  0.89466000  0.75754000  1.0
  O  O135  1  0.73409000  0.88731000  0.65771000  1.0
  O  O136  1  0.25528000  0.09913000  0.34531000  1.0
  O  O137  1  0.15513000  0.10631000  0.23566000  1.0
