# generated using pymatgen
data_SmH16C16N10ClO6
_symmetry_space_group_name_H-M   'P 1'
_cell_length_a   8.72457000
_cell_length_b   11.09680000
_cell_length_c   13.00280000
_cell_angle_alpha   115.22100000
_cell_angle_beta   105.61200000
_cell_angle_gamma   90.01750000
_symmetry_Int_Tables_number   1
_chemical_formula_structural   SmH16C16N10ClO6
_chemical_formula_sum   'Sm2 H32 C32 N20 Cl2 O12'
_cell_volume   1087.24788061
_cell_formula_units_Z   2
loop_
 _symmetry_equiv_pos_site_id
 _symmetry_equiv_pos_as_xyz
  1  'x, y, z'
loop_
 _atom_site_type_symbol
 _atom_site_label
 _atom_site_symmetry_multiplicity
 _atom_site_fract_x
 _atom_site_fract_y
 _atom_site_fract_z
 _atom_site_occupancy
  Sm  Sm0  1  0.74992000  0.55414000  0.00001000  1.0
  Sm  Sm1  1  0.25008000  0.44586000  0.99999000  1.0
  H  H2  1  0.02806000  0.46639000  0.69362000  1.0
  H  H3  1  0.47195000  0.77288000  0.30631000  1.0
  H  H4  1  0.97194000  0.53361000  0.30638000  1.0
  H  H5  1  0.52805000  0.22712000  0.69369000  1.0
  H  H6  1  0.97185000  0.29485000  0.65342000  1.0
  H  H7  1  0.52835000  0.64170000  0.34669000  1.0
  H  H8  1  0.02815000  0.70515000  0.34658000  1.0
  H  H9  1  0.47165000  0.35830000  0.65331000  1.0
  H  H10  1  0.38278000  0.37030000  0.26217000  1.0
  H  H11  1  0.11743000  0.10834000  0.73793000  1.0
  H  H12  1  0.61722000  0.62970000  0.73783000  1.0
  H  H13  1  0.88257000  0.89167000  0.26207000  1.0
  H  H14  1  0.09977000  0.99953000  0.07278000  1.0
  H  H15  1  0.40030000  0.92667000  0.92722000  1.0
  H  H16  1  0.90023000  0.00047000  0.92722000  1.0
  H  H17  1  0.59970000  0.07333000  0.07278000  1.0
  H  H18  1  0.49580000  0.06320000  0.38114000  1.0
  H  H19  1  0.00424000  0.68233000  0.61881000  1.0
  H  H20  1  0.50420000  0.93680000  0.61886000  1.0
  H  H21  1  0.99576000  0.31767000  0.38119000  1.0
  H  H22  1  0.01816000  0.72123000  0.00280000  1.0
  H  H23  1  0.48180000  0.71842000  0.99714000  1.0
  H  H24  1  0.98184000  0.27877000  0.99719000  1.0
  H  H25  1  0.51820000  0.28158000  0.00286000  1.0
  H  H26  1  0.85484000  0.76358000  0.93711000  1.0
  H  H27  1  0.64512000  0.82641000  0.06280000  1.0
  H  H28  1  0.14517000  0.23642000  0.06289000  1.0
  H  H29  1  0.35488000  0.17359000  0.93721000  1.0
  H  H30  1  0.25753000  0.91237000  0.21049000  1.0
  H  H31  1  0.24249000  0.70191000  0.78941000  1.0
  H  H32  1  0.74247000  0.08763000  0.78951000  1.0
  H  H33  1  0.75751000  0.29809000  0.21059000  1.0
  C  C34  1  0.28977000  0.01470000  0.22610000  1.0
  C  C35  1  0.21029000  0.78868000  0.77385000  1.0
  C  C36  1  0.71023000  0.98530000  0.77389000  1.0
  C  C37  1  0.78971000  0.21132000  0.22615000  1.0
  C  C38  1  0.87609000  0.43471000  0.78809000  1.0
  C  C39  1  0.62412000  0.64694000  0.21198000  1.0
  C  C40  1  0.12391000  0.56529000  0.21191000  1.0
  C  C41  1  0.37588000  0.35306000  0.78802000  1.0
  C  C42  1  0.92875000  0.39301000  0.67631000  1.0
  C  C43  1  0.57139000  0.71697000  0.32370000  1.0
  C  C44  1  0.07125000  0.60699000  0.32369000  1.0
  C  C45  1  0.42861000  0.28303000  0.67630000  1.0
  C  C46  1  0.59517000  0.31701000  0.43075000  1.0
  C  C47  1  0.90486000  0.88667000  0.56928000  1.0
  C  C48  1  0.40483000  0.68299000  0.56925000  1.0
  C  C49  1  0.09514000  0.11333000  0.43072000  1.0
  C  C50  1  0.45605000  0.22877000  0.33523000  1.0
  C  C51  1  0.04398000  0.89383000  0.66482000  1.0
  C  C52  1  0.54395000  0.77123000  0.66477000  1.0
  C  C53  1  0.95602000  0.10617000  0.33518000  1.0
  C  C54  1  0.35940000  0.26968000  0.25408000  1.0
  C  C55  1  0.14070000  0.01577000  0.74598000  1.0
  C  C56  1  0.64059000  0.73032000  0.74592000  1.0
  C  C57  1  0.85930000  0.98423000  0.25402000  1.0
  C  C58  1  0.20105000  0.06321000  0.14878000  1.0
  C  C59  1  0.29903000  0.91442000  0.85122000  1.0
  C  C60  1  0.79895000  0.93679000  0.85122000  1.0
  C  C61  1  0.70097000  0.08558000  0.14878000  1.0
  C  C62  1  0.42005000  0.09797000  0.32025000  1.0
  C  C63  1  0.08001000  0.77794000  0.67972000  1.0
  C  C64  1  0.57996000  0.90202000  0.67975000  1.0
  C  C65  1  0.91999000  0.22206000  0.32028000  1.0
  N  N66  1  0.68483000  0.28233000  0.51289000  1.0
  N  N67  1  0.81528000  0.76986000  0.48719000  1.0
  N  N68  1  0.31517000  0.71767000  0.48711000  1.0
  N  N69  1  0.18472000  0.23014000  0.51281000  1.0
  N  N70  1  0.80100000  0.38518000  0.57517000  1.0
  N  N71  1  0.69907000  0.81033000  0.42483000  1.0
  N  N72  1  0.19900000  0.61482000  0.42482000  1.0
  N  N73  1  0.30093000  0.18967000  0.57517000  1.0
  N  N74  1  0.78687000  0.48079000  0.53725000  1.0
  N  N75  1  0.71308000  0.94381000  0.46268000  1.0
  N  N76  1  0.21314000  0.51921000  0.46276000  1.0
  N  N77  1  0.28692000  0.05619000  0.53732000  1.0
  N  N78  1  0.65638000  0.43854000  0.44521000  1.0
  N  N79  1  0.84355000  0.99364000  0.55473000  1.0
  N  N80  1  0.34362000  0.56146000  0.55479000  1.0
  N  N81  1  0.15645000  0.00636000  0.44527000  1.0
  N  N82  1  0.23502000  0.18816000  0.16251000  1.0
  N  N83  1  0.26509000  0.02568000  0.83753000  1.0
  N  N84  1  0.76498000  0.81184000  0.83749000  1.0
  N  N85  1  0.73491000  0.97432000  0.16247000  1.0
  Cl  Cl86  1  0.75003000  0.30568000  0.00007000  1.0
  Cl  Cl87  1  0.24997000  0.69432000  0.99993000  1.0
  O  O88  1  0.97484000  0.43399000  0.87980000  1.0
  O  O89  1  0.52540000  0.55451000  0.12028000  1.0
  O  O90  1  0.02516000  0.56601000  0.12020000  1.0
  O  O91  1  0.47460000  0.44549000  0.87972000  1.0
  O  O92  1  0.73819000  0.47001000  0.78776000  1.0
  O  O93  1  0.76207000  0.68249000  0.21234000  1.0
  O  O94  1  0.26181000  0.52999000  0.21224000  1.0
  O  O95  1  0.23792000  0.31751000  0.78766000  1.0
  O  O96  1  0.90477000  0.73087000  0.00095000  1.0
  O  O97  1  0.59519000  0.72992000  0.99897000  1.0
  O  O98  1  0.09523000  0.26913000  0.99905000  1.0
  O  O99  1  0.40481000  0.27008000  0.00103000  1.0
