# generated using pymatgen
data_Zn2H12C16N2O7
_symmetry_space_group_name_H-M   'P 1'
_cell_length_a   8.63666000
_cell_length_b   13.64470000
_cell_length_c   18.34360000
_cell_angle_alpha   88.44040000
_cell_angle_beta   85.18040000
_cell_angle_gamma   71.54000000
_symmetry_Int_Tables_number   1
_chemical_formula_structural   Zn2H12C16N2O7
_chemical_formula_sum   'Zn8 H48 C64 N8 O28'
_cell_volume   2043.21420136
_cell_formula_units_Z   4
loop_
 _symmetry_equiv_pos_site_id
 _symmetry_equiv_pos_as_xyz
  1  'x, y, z'
loop_
 _atom_site_type_symbol
 _atom_site_label
 _atom_site_symmetry_multiplicity
 _atom_site_fract_x
 _atom_site_fract_y
 _atom_site_fract_z
 _atom_site_occupancy
  Zn  Zn0  1  0.38207000  0.94729000  0.96908000  1.0
  Zn  Zn1  1  0.18546000  0.17142000  0.00842000  1.0
  Zn  Zn2  1  0.17069000  0.94742000  0.53089000  1.0
  Zn  Zn3  1  0.14310000  0.17151000  0.49159000  1.0
  Zn  Zn4  1  0.61793000  0.05271000  0.03092000  1.0
  Zn  Zn5  1  0.81455000  0.82858000  0.99158000  1.0
  Zn  Zn6  1  0.82931000  0.05258000  0.46911000  1.0
  Zn  Zn7  1  0.85690000  0.82849000  0.50841000  1.0
  H  H8  1  0.67834000  0.86719000  0.74508000  1.0
  H  H9  1  0.48879000  0.16089000  0.66527000  1.0
  H  H10  1  0.34568000  0.11794000  0.72032000  1.0
  H  H11  1  0.27349000  0.49343000  0.11645000  1.0
  H  H12  1  0.23093000  0.32088000  0.12055000  1.0
  H  H13  1  0.15360000  0.33322000  0.90078000  1.0
  H  H14  1  0.20588000  0.50237000  0.88498000  1.0
  H  H15  1  0.38290000  0.60696000  0.09743000  1.0
  H  H16  1  0.42871000  0.77754000  0.08079000  1.0
  H  H17  1  0.24087000  0.82121000  0.87840000  1.0
  H  H18  1  0.17477000  0.65706000  0.88723000  1.0
  H  H19  1  0.97632000  0.09888000  0.58274000  1.0
  H  H20  1  0.95448000  0.86729000  0.75490000  1.0
  H  H21  1  0.85066000  0.16079000  0.83461000  1.0
  H  H22  1  0.03674000  0.11795000  0.77957000  1.0
  H  H23  1  0.73267000  0.49364000  0.38362000  1.0
  H  H24  1  0.94793000  0.32114000  0.37949000  1.0
  H  H25  1  0.01337000  0.33312000  0.59923000  1.0
  H  H26  1  0.79180000  0.50223000  0.61505000  1.0
  H  H27  1  0.50944000  0.60708000  0.40274000  1.0
  H  H28  1  0.29310000  0.77768000  0.41936000  1.0
  H  H29  1  0.43792000  0.82110000  0.62160000  1.0
  H  H30  1  0.66813000  0.65691000  0.61281000  1.0
  H  H31  1  0.42488000  0.09887000  0.91719000  1.0
  H  H32  1  0.32167000  0.13281000  0.25492000  1.0
  H  H33  1  0.51121000  0.83911000  0.33473000  1.0
  H  H34  1  0.65431000  0.88206000  0.27968000  1.0
  H  H35  1  0.72651000  0.50657000  0.88355000  1.0
  H  H36  1  0.76907000  0.67912000  0.87945000  1.0
  H  H37  1  0.84640000  0.66678000  0.09922000  1.0
  H  H38  1  0.79411000  0.49762000  0.11502000  1.0
  H  H39  1  0.61710000  0.39304000  0.90257000  1.0
  H  H40  1  0.57129000  0.22246000  0.91921000  1.0
  H  H41  1  0.75913000  0.17879000  0.12160000  1.0
  H  H42  1  0.82523000  0.34294000  0.11277000  1.0
  H  H43  1  0.02367000  0.90112000  0.41726000  1.0
  H  H44  1  0.04552000  0.13271000  0.24510000  1.0
  H  H45  1  0.14934000  0.83921000  0.16539000  1.0
  H  H46  1  0.96327000  0.88205000  0.22042000  1.0
  H  H47  1  0.26733000  0.50636000  0.61638000  1.0
  H  H48  1  0.05206000  0.67887000  0.62051000  1.0
  H  H49  1  0.98663000  0.66688000  0.40077000  1.0
  H  H50  1  0.20820000  0.49777000  0.38495000  1.0
  H  H51  1  0.49055000  0.39291000  0.59726000  1.0
  H  H52  1  0.70690000  0.22232000  0.58064000  1.0
  H  H53  1  0.56208000  0.17890000  0.37840000  1.0
  H  H54  1  0.33187000  0.34309000  0.38719000  1.0
  H  H55  1  0.57512000  0.90113000  0.08281000  1.0
  C  C56  1  0.50506000  0.98100000  0.81908000  1.0
  C  C57  1  0.58658000  0.94352000  0.74565000  1.0
  C  C58  1  0.56093000  0.99601000  0.68229000  1.0
  C  C59  1  0.67291000  0.95619000  0.61535000  1.0
  C  C60  1  0.43337000  0.09867000  0.67184000  1.0
  C  C61  1  0.34016000  0.09643000  0.60546000  1.0
  C  C62  1  0.24930000  0.46111000  0.06664000  1.0
  C  C63  1  0.22301000  0.36572000  0.07000000  1.0
  C  C64  1  0.18128000  0.37241000  0.94672000  1.0
  C  C65  1  0.20922000  0.46692000  0.93896000  1.0
  C  C66  1  0.24432000  0.51441000  0.99973000  1.0
  C  C67  1  0.27683000  0.61446000  0.99277000  1.0
  C  C68  1  0.34840000  0.65103000  0.04769000  1.0
  C  C69  1  0.37656000  0.74546000  0.03879000  1.0
  C  C70  1  0.27166000  0.77013000  0.92536000  1.0
  C  C71  1  0.23716000  0.67716000  0.93085000  1.0
  C  C72  1  0.01420000  0.98106000  0.68089000  1.0
  C  C73  1  0.97006000  0.94357000  0.75430000  1.0
  C  C74  1  0.94344000  0.99598000  0.81763000  1.0
  C  C75  1  0.87118000  0.95616000  0.88459000  1.0
  C  C76  1  0.96835000  0.09861000  0.82805000  1.0
  C  C77  1  0.06375000  0.09630000  0.89448000  1.0
  C  C78  1  0.78924000  0.46125000  0.43343000  1.0
  C  C79  1  0.91101000  0.36588000  0.43006000  1.0
  C  C80  1  0.94637000  0.37237000  0.55330000  1.0
  C  C81  1  0.82385000  0.46686000  0.56109000  1.0
  C  C82  1  0.74099000  0.51440000  0.50035000  1.0
  C  C83  1  0.60828000  0.61439000  0.50735000  1.0
  C  C84  1  0.49993000  0.65108000  0.45247000  1.0
  C  C85  1  0.37737000  0.74549000  0.46137000  1.0
  C  C86  1  0.45795000  0.77002000  0.57471000  1.0
  C  C87  1  0.58544000  0.67703000  0.56924000  1.0
  C  C88  1  0.49494000  0.01900000  0.18092000  1.0
  C  C89  1  0.41342000  0.05648000  0.25435000  1.0
  C  C90  1  0.43907000  0.00400000  0.31771000  1.0
  C  C91  1  0.32709000  0.04381000  0.38465000  1.0
  C  C92  1  0.56663000  0.90133000  0.32816000  1.0
  C  C93  1  0.65984000  0.90357000  0.39454000  1.0
  C  C94  1  0.75070000  0.53888000  0.93336000  1.0
  C  C95  1  0.77698000  0.63428000  0.93001000  1.0
  C  C96  1  0.81872000  0.62759000  0.05327000  1.0
  C  C97  1  0.79078000  0.53308000  0.06104000  1.0
  C  C98  1  0.75568000  0.48559000  0.00027000  1.0
  C  C99  1  0.72317000  0.38553000  0.00723000  1.0
  C  C100  1  0.65160000  0.34897000  0.95231000  1.0
  C  C101  1  0.62344000  0.25454000  0.96121000  1.0
  C  C102  1  0.72834000  0.22987000  0.07464000  1.0
  C  C103  1  0.76284000  0.32284000  0.06915000  1.0
  C  C104  1  0.98580000  0.01894000  0.31911000  1.0
  C  C105  1  0.02994000  0.05642000  0.24570000  1.0
  C  C106  1  0.05657000  0.00401000  0.18237000  1.0
  C  C107  1  0.12882000  0.04384000  0.11541000  1.0
  C  C108  1  0.03165000  0.90139000  0.17195000  1.0
  C  C109  1  0.93625000  0.90370000  0.10552000  1.0
  C  C110  1  0.21076000  0.53875000  0.56657000  1.0
  C  C111  1  0.08899000  0.63412000  0.56995000  1.0
  C  C112  1  0.05363000  0.62763000  0.44671000  1.0
  C  C113  1  0.17615000  0.53314000  0.43892000  1.0
  C  C114  1  0.25901000  0.48560000  0.49965000  1.0
  C  C115  1  0.39172000  0.38561000  0.49265000  1.0
  C  C116  1  0.50007000  0.34892000  0.54753000  1.0
  C  C117  1  0.62264000  0.25451000  0.53864000  1.0
  C  C118  1  0.54205000  0.22998000  0.42529000  1.0
  C  C119  1  0.41456000  0.32297000  0.43076000  1.0
  N  N120  1  0.18855000  0.32218000  0.01114000  1.0
  N  N121  1  0.34057000  0.80333000  0.97836000  1.0
  N  N122  1  0.98923000  0.32226000  0.48889000  1.0
  N  N123  1  0.35564000  0.80328000  0.52177000  1.0
  N  N124  1  0.81145000  0.67782000  0.98886000  1.0
  N  N125  1  0.65943000  0.19666000  0.02164000  1.0
  N  N126  1  0.01077000  0.67774000  0.51111000  1.0
  N  N127  1  0.64436000  0.19672000  0.47823000  1.0
  O  O128  1  0.44800000  0.07742000  0.83120000  1.0
  O  O129  1  0.50462000  0.90937000  0.86623000  1.0
  O  O130  1  0.73586000  0.85746000  0.60505000  1.0
  O  O131  1  0.70163000  0.02388000  0.57327000  1.0
  O  O132  1  0.33675000  0.01010000  0.58439000  1.0
  O  O133  1  0.26800000  0.18411000  0.57562000  1.0
  O  O134  1  0.40874000  0.09607000  0.97264000  1.0
  O  O135  1  0.97494000  0.07750000  0.66873000  1.0
  O  O136  1  0.08635000  0.90947000  0.63379000  1.0
  O  O137  1  0.90691000  0.85742000  0.89494000  1.0
  O  O138  1  0.77481000  0.02380000  0.92664000  1.0
  O  O139  1  0.15377000  0.00992000  0.91544000  1.0
  O  O140  1  0.04794000  0.18391000  0.92438000  1.0
  O  O141  1  0.99516000  0.09609000  0.52728000  1.0
  O  O142  1  0.55200000  0.92258000  0.16880000  1.0
  O  O143  1  0.49539000  0.09063000  0.13377000  1.0
  O  O144  1  0.26414000  0.14254000  0.39495000  1.0
  O  O145  1  0.29837000  0.97613000  0.42673000  1.0
  O  O146  1  0.66325000  0.98990000  0.41561000  1.0
  O  O147  1  0.73200000  0.81589000  0.42438000  1.0
  O  O148  1  0.59126000  0.90393000  0.02736000  1.0
  O  O149  1  0.02507000  0.92250000  0.33127000  1.0
  O  O150  1  0.91365000  0.09053000  0.36621000  1.0
  O  O151  1  0.09309000  0.14258000  0.10507000  1.0
  O  O152  1  0.22519000  0.97620000  0.07336000  1.0
  O  O153  1  0.84624000  0.99008000  0.08455000  1.0
  O  O154  1  0.95207000  0.81609000  0.07562000  1.0
  O  O155  1  0.00484000  0.90391000  0.47272000  1.0
