# generated using pymatgen
data_NdH12C9NO10
_symmetry_space_group_name_H-M   'P 1'
_cell_length_a   7.27214000
_cell_length_b   11.70330000
_cell_length_c   18.70400000
_cell_angle_alpha   99.63300000
_cell_angle_beta   89.99950000
_cell_angle_gamma   90.00000000
_symmetry_Int_Tables_number   1
_chemical_formula_structural   NdH12C9NO10
_chemical_formula_sum   'Nd4 H48 C36 N4 O40'
_cell_volume   1569.41518654
_cell_formula_units_Z   4
loop_
 _symmetry_equiv_pos_site_id
 _symmetry_equiv_pos_as_xyz
  1  'x, y, z'
loop_
 _atom_site_type_symbol
 _atom_site_label
 _atom_site_symmetry_multiplicity
 _atom_site_fract_x
 _atom_site_fract_y
 _atom_site_fract_z
 _atom_site_occupancy
  Nd  Nd0  1  0.26786000  0.69293000  0.63190000  1.0
  Nd  Nd1  1  0.76784000  0.80706000  0.86810000  1.0
  Nd  Nd2  1  0.73216000  0.30707000  0.36811000  1.0
  Nd  Nd3  1  0.23214000  0.19294000  0.13190000  1.0
  H  H4  1  0.00092000  0.86955000  0.72044000  1.0
  H  H5  1  0.50093000  0.63044000  0.77955000  1.0
  H  H6  1  0.99908000  0.13045000  0.27956000  1.0
  H  H7  1  0.49907000  0.36956000  0.22045000  1.0
  H  H8  1  0.16016000  0.93072000  0.68029000  1.0
  H  H9  1  0.66016000  0.56927000  0.81970000  1.0
  H  H10  1  0.83984000  0.06928000  0.31971000  1.0
  H  H11  1  0.33983000  0.43073000  0.18029000  1.0
  H  H12  1  0.83895000  0.58539000  0.63582000  1.0
  H  H13  1  0.33895000  0.91461000  0.86418000  1.0
  H  H14  1  0.16106000  0.41461000  0.36418000  1.0
  H  H15  1  0.66105000  0.08540000  0.13582000  1.0
  H  H16  1  0.92580000  0.64765000  0.71005000  1.0
  H  H17  1  0.42580000  0.85235000  0.78995000  1.0
  H  H18  1  0.07420000  0.35236000  0.28995000  1.0
  H  H19  1  0.57420000  0.14766000  0.21005000  1.0
  H  H20  1  0.28204000  0.45010000  0.67713000  1.0
  H  H21  1  0.78204000  0.04990000  0.82287000  1.0
  H  H22  1  0.71796000  0.54991000  0.32287000  1.0
  H  H23  1  0.21796000  0.95010000  0.17714000  1.0
  H  H24  1  0.28294000  0.42225000  0.59047000  1.0
  H  H25  1  0.78293000  0.07776000  0.90953000  1.0
  H  H26  1  0.71706000  0.57776000  0.40954000  1.0
  H  H27  1  0.21706000  0.92225000  0.09047000  1.0
  H  H28  1  0.18478000  0.50841000  0.50177000  1.0
  H  H29  1  0.68475000  0.99159000  0.99823000  1.0
  H  H30  1  0.81524000  0.49160000  0.49823000  1.0
  H  H31  1  0.31522000  0.00841000  0.00177000  1.0
  H  H32  1  0.04425000  0.61455000  0.49732000  1.0
  H  H33  1  0.54421000  0.88544000  0.00267000  1.0
  H  H34  1  0.95578000  0.38545000  0.50268000  1.0
  H  H35  1  0.45576000  0.11455000  0.99733000  1.0
  H  H36  1  0.25639000  0.16772000  0.55987000  1.0
  H  H37  1  0.75637000  0.33227000  0.94013000  1.0
  H  H38  1  0.74362000  0.83228000  0.44013000  1.0
  H  H39  1  0.24360000  0.66772000  0.05986000  1.0
  H  H40  1  0.18664000  0.78730000  0.34515000  1.0
  H  H41  1  0.68663000  0.71271000  0.15485000  1.0
  H  H42  1  0.81336000  0.21271000  0.65485000  1.0
  H  H43  1  0.31337000  0.28729000  0.84515000  1.0
  H  H44  1  0.07907000  0.78528000  0.43139000  1.0
  H  H45  1  0.57906000  0.71472000  0.06861000  1.0
  H  H46  1  0.92094000  0.21473000  0.56861000  1.0
  H  H47  1  0.42094000  0.28528000  0.93139000  1.0
  H  H48  1  0.31539000  0.75881000  0.42225000  1.0
  H  H49  1  0.81538000  0.74119000  0.07775000  1.0
  H  H50  1  0.68461000  0.24119000  0.57775000  1.0
  H  H51  1  0.18462000  0.25881000  0.92225000  1.0
  C  C52  1  0.23862000  0.93691000  0.42330000  1.0
  C  C53  1  0.73861000  0.56309000  0.07670000  1.0
  C  C54  1  0.76138000  0.06309000  0.57670000  1.0
  C  C55  1  0.26138000  0.43691000  0.92330000  1.0
  C  C56  1  0.24273000  0.99916000  0.49519000  1.0
  C  C57  1  0.74271000  0.50083000  0.00481000  1.0
  C  C58  1  0.75728000  0.00083000  0.50481000  1.0
  C  C59  1  0.25728000  0.49916000  0.99519000  1.0
  C  C60  1  0.26170000  0.11932000  0.50482000  1.0
  C  C61  1  0.76168000  0.38067000  0.99518000  1.0
  C  C62  1  0.73831000  0.88067000  0.49518000  1.0
  C  C63  1  0.23829000  0.61932000  0.00482000  1.0
  C  C64  1  0.29205000  0.17621000  0.44604000  1.0
  C  C65  1  0.79202000  0.32379000  0.05397000  1.0
  C  C66  1  0.70797000  0.82380000  0.55397000  1.0
  C  C67  1  0.20795000  0.67620000  0.94603000  1.0
  C  C68  1  0.29642000  0.10622000  0.37713000  1.0
  C  C69  1  0.79640000  0.39379000  0.12287000  1.0
  C  C70  1  0.70359000  0.89379000  0.62287000  1.0
  C  C71  1  0.20359000  0.60620000  0.87712000  1.0
  C  C72  1  0.20297000  0.80958000  0.40403000  1.0
  C  C73  1  0.70295000  0.69042000  0.09597000  1.0
  C  C74  1  0.79705000  0.19042000  0.59597000  1.0
  C  C75  1  0.29705000  0.30958000  0.90403000  1.0
  C  C76  1  0.22751000  0.94526000  0.56276000  1.0
  C  C77  1  0.72750000  0.55473000  0.93723000  1.0
  C  C78  1  0.77249000  0.05474000  0.43724000  1.0
  C  C79  1  0.27249000  0.44526000  0.06276000  1.0
  C  C80  1  0.31201000  0.30519000  0.45882000  1.0
  C  C81  1  0.81199000  0.19481000  0.04119000  1.0
  C  C82  1  0.68801000  0.69481000  0.54118000  1.0
  C  C83  1  0.18798000  0.80519000  0.95881000  1.0
  C  C84  1  0.34180000  0.14869000  0.30726000  1.0
  C  C85  1  0.84178000  0.35132000  0.19275000  1.0
  C  C86  1  0.65821000  0.85132000  0.69275000  1.0
  C  C87  1  0.15821000  0.64868000  0.80725000  1.0
  N  N88  1  0.26369000  0.99212000  0.36635000  1.0
  N  N89  1  0.76368000  0.50788000  0.13365000  1.0
  N  N90  1  0.73632000  0.00788000  0.63365000  1.0
  N  N91  1  0.23632000  0.49212000  0.86635000  1.0
  O  O92  1  0.24610000  0.83452000  0.55566000  1.0
  O  O93  1  0.74608000  0.66547000  0.94433000  1.0
  O  O94  1  0.75391000  0.16548000  0.44434000  1.0
  O  O95  1  0.25391000  0.33452000  0.05566000  1.0
  O  O96  1  0.20048000  0.01185000  0.62216000  1.0
  O  O97  1  0.70048000  0.48814000  0.87784000  1.0
  O  O98  1  0.79952000  0.98815000  0.37784000  1.0
  O  O99  1  0.29952000  0.51185000  0.12215000  1.0
  O  O100  1  0.20255000  0.36298000  0.50565000  1.0
  O  O101  1  0.70253000  0.13701000  0.99435000  1.0
  O  O102  1  0.79747000  0.63701000  0.49435000  1.0
  O  O103  1  0.29745000  0.86298000  0.00565000  1.0
  O  O104  1  0.43045000  0.35341000  0.42416000  1.0
  O  O105  1  0.93044000  0.14659000  0.07584000  1.0
  O  O106  1  0.56957000  0.64660000  0.57584000  1.0
  O  O107  1  0.06955000  0.85340000  0.92416000  1.0
  O  O108  1  0.50356000  0.18594000  0.29991000  1.0
  O  O109  1  0.00355000  0.31407000  0.20009000  1.0
  O  O110  1  0.49645000  0.81407000  0.70009000  1.0
  O  O111  1  0.99645000  0.68593000  0.79991000  1.0
  O  O112  1  0.22380000  0.13722000  0.25661000  1.0
  O  O113  1  0.72380000  0.36279000  0.24339000  1.0
  O  O114  1  0.77621000  0.86279000  0.74339000  1.0
  O  O115  1  0.27621000  0.63721000  0.75661000  1.0
  O  O116  1  0.13372000  0.86453000  0.70818000  1.0
  O  O117  1  0.63372000  0.63546000  0.79181000  1.0
  O  O118  1  0.86629000  0.13547000  0.29182000  1.0
  O  O119  1  0.36628000  0.36454000  0.20818000  1.0
  O  O120  1  0.94457000  0.63021000  0.65654000  1.0
  O  O121  1  0.44456000  0.86978000  0.84345000  1.0
  O  O122  1  0.05544000  0.36979000  0.34345000  1.0
  O  O123  1  0.55544000  0.13022000  0.15655000  1.0
  O  O124  1  0.32115000  0.47863000  0.63360000  1.0
  O  O125  1  0.82112000  0.02137000  0.86640000  1.0
  O  O126  1  0.67886000  0.52137000  0.36641000  1.0
  O  O127  1  0.17886000  0.97863000  0.13360000  1.0
  O  O128  1  0.17004000  0.59445000  0.51082000  1.0
  O  O129  1  0.67002000  0.90554000  0.98917000  1.0
  O  O130  1  0.82998000  0.40555000  0.48918000  1.0
  O  O131  1  0.32996000  0.09445000  0.01082000  1.0
