# generated using pymatgen
data_ZnH24PtC24(NO3)4
_symmetry_space_group_name_H-M   'P 1'
_cell_length_a   7.77766000
_cell_length_b   9.10496000
_cell_length_c   9.63749000
_cell_angle_alpha   85.09930000
_cell_angle_beta   80.45220000
_cell_angle_gamma   80.63360000
_symmetry_Int_Tables_number   1
_chemical_formula_structural   ZnH24PtC24(NO3)4
_chemical_formula_sum   'Zn1 H24 Pt1 C24 N4 O12'
_cell_volume   662.85599685
_cell_formula_units_Z   1
loop_
 _symmetry_equiv_pos_site_id
 _symmetry_equiv_pos_as_xyz
  1  'x, y, z'
loop_
 _atom_site_type_symbol
 _atom_site_label
 _atom_site_symmetry_multiplicity
 _atom_site_fract_x
 _atom_site_fract_y
 _atom_site_fract_z
 _atom_site_occupancy
  Zn  Zn0  1  0.50000000  0.50000000  0.50000000  1.0
  H  H1  1  0.94372000  0.26065000  0.79211000  1.0
  H  H2  1  0.05628000  0.73935000  0.20788000  1.0
  H  H3  1  0.07270000  0.32246000  0.53947000  1.0
  H  H4  1  0.92730000  0.67755000  0.46052000  1.0
  H  H5  1  0.25807000  0.11925000  0.39891000  1.0
  H  H6  1  0.74192000  0.88075000  0.60109000  1.0
  H  H7  1  0.19262000  0.81973000  0.76841000  1.0
  H  H8  1  0.80739000  0.18026000  0.23157000  1.0
  H  H9  1  0.57048000  0.69724000  0.31282000  1.0
  H  H10  1  0.42951000  0.30275000  0.68718000  1.0
  H  H11  1  0.68462000  0.54716000  0.23714000  1.0
  H  H12  1  0.31538000  0.45283000  0.76287000  1.0
  H  H13  1  0.71346000  0.47038000  0.71828000  1.0
  H  H14  1  0.28654000  0.52962000  0.28173000  1.0
  H  H15  1  0.80336000  0.42508000  0.56511000  1.0
  H  H16  1  0.19663000  0.57491000  0.43490000  1.0
  H  H17  1  0.06678000  0.31762000  0.96292000  1.0
  H  H18  1  0.93322000  0.68237000  0.03709000  1.0
  H  H19  1  0.51982000  0.32931000  0.16421000  1.0
  H  H20  1  0.48017000  0.67069000  0.83580000  1.0
  H  H21  1  0.53564000  0.05123000  0.21362000  1.0
  H  H22  1  0.46436000  0.94878000  0.78639000  1.0
  H  H23  1  0.31677000  0.92110000  0.13616000  1.0
  H  H24  1  0.68324000  0.07889000  0.86385000  1.0
  Pt  Pt25  1  0.00000000  0.00000000  0.00000000  1.0
  C  C26  1  0.16749000  0.92937000  0.71395000  1.0
  C  C27  1  0.83252000  0.07063000  0.28604000  1.0
  C  C28  1  0.23601000  0.95409000  0.57235000  1.0
  C  C29  1  0.76399000  0.04592000  0.42763000  1.0
  C  C30  1  0.20112000  0.09698000  0.50824000  1.0
  C  C31  1  0.79888000  0.90302000  0.49176000  1.0
  C  C32  1  0.09592000  0.20926000  0.58626000  1.0
  C  C33  1  0.90408000  0.79075000  0.41373000  1.0
  C  C34  1  0.03024000  0.17787000  0.72682000  1.0
  C  C35  1  0.96976000  0.82213000  0.27318000  1.0
  C  C36  1  0.35099000  0.82698000  0.49502000  1.0
  C  C37  1  0.64901000  0.17303000  0.50496000  1.0
  C  C38  1  0.43635000  0.11558000  0.15663000  1.0
  C  C39  1  0.56365000  0.88441000  0.84337000  1.0
  C  C40  1  0.17481000  0.26275000  0.01612000  1.0
  C  C41  1  0.82518000  0.73725000  0.98389000  1.0
  C  C42  1  0.31412000  0.04061000  0.11427000  1.0
  C  C43  1  0.68588000  0.95940000  0.88573000  1.0
  C  C44  1  0.42550000  0.26918000  0.13007000  1.0
  C  C45  1  0.57450000  0.73082000  0.86994000  1.0
  C  C46  1  0.29268000  0.34431000  0.05703000  1.0
  C  C47  1  0.70732000  0.65569000  0.94298000  1.0
  C  C48  1  0.27005000  0.51106000  0.02313000  1.0
  C  C49  1  0.72996000  0.48894000  0.97687000  1.0
  N  N50  1  0.18449000  0.11406000  0.04548000  1.0
  N  N51  1  0.81550000  0.88594000  0.95452000  1.0
  N  N52  1  0.07001000  0.04055000  0.78982000  1.0
  N  N53  1  0.93000000  0.95946000  0.21017000  1.0
  O  O54  1  0.42079000  0.85249000  0.36949000  1.0
  O  O55  1  0.57922000  0.14752000  0.63050000  1.0
  O  O56  1  0.36598000  0.70257000  0.56784000  1.0
  O  O57  1  0.63403000  0.29744000  0.43214000  1.0
  O  O58  1  0.64752000  0.60016000  0.32672000  1.0
  O  O59  1  0.35247000  0.39984000  0.67329000  1.0
  O  O60  1  0.72637000  0.50573000  0.61463000  1.0
  O  O61  1  0.27362000  0.49426000  0.38538000  1.0
  O  O62  1  0.23405000  0.55744000  0.90198000  1.0
  O  O63  1  0.76596000  0.44256000  0.09803000  1.0
  O  O64  1  0.28704000  0.59293000  0.11918000  1.0
  O  O65  1  0.71296000  0.40707000  0.88083000  1.0
