# generated using pymatgen
data_MgH4C8O7
_symmetry_space_group_name_H-M   'P 1'
_cell_length_a   8.89524055
_cell_length_b   8.89537000
_cell_length_c   10.92080000
_cell_angle_alpha   89.99960000
_cell_angle_beta   89.99980000
_cell_angle_gamma   119.99944422
_symmetry_Int_Tables_number   1
_chemical_formula_structural   MgH4C8O7
_chemical_formula_sum   'Mg3 H12 C24 O21'
_cell_volume   748.35769987
_cell_formula_units_Z   3
loop_
 _symmetry_equiv_pos_site_id
 _symmetry_equiv_pos_as_xyz
  1  'x, y, z'
loop_
 _atom_site_type_symbol
 _atom_site_label
 _atom_site_symmetry_multiplicity
 _atom_site_fract_x
 _atom_site_fract_y
 _atom_site_fract_z
 _atom_site_occupancy
  Mg  Mg0  1  0.00001000  0.97816000  0.83333000  1.0
  Mg  Mg1  1  0.02185000  0.02184000  0.16667000  1.0
  Mg  Mg2  1  0.97817000  1.00000000  0.50000000  1.0
  H  H3  1  0.24963000  0.89152000  0.72238000  1.0
  H  H4  1  0.75037000  0.64192000  0.94430000  1.0
  H  H5  1  0.10845000  0.35808000  0.05570000  1.0
  H  H6  1  0.64189000  0.75038000  0.38906000  1.0
  H  H7  1  0.35810000  0.10847000  0.27762000  1.0
  H  H8  1  0.89150000  0.24962000  0.61094000  1.0
  H  H9  1  0.51753000  0.91552000  0.81169000  1.0
  H  H10  1  0.48249000  0.39800000  0.85499000  1.0
  H  H11  1  0.08448000  0.60199000  0.14501000  1.0
  H  H12  1  0.39801000  0.48247000  0.47836000  1.0
  H  H13  1  0.60201000  0.08448000  0.18831000  1.0
  H  H14  1  0.91553000  0.51752000  0.52164000  1.0
  C  C15  1  0.25945000  0.00000000  0.00000000  1.0
  C  C16  1  0.74057000  0.74056000  0.66666667  1.0
  C  C17  1  0.00000000  0.25943000  0.33333333  1.0
  C  C18  1  0.47281000  0.95257000  0.89306000  1.0
  C  C19  1  0.52721000  0.47976000  0.77361000  1.0
  C  C20  1  0.04744000  0.52023000  0.22639000  1.0
  C  C21  1  0.47979000  0.52720000  0.55974000  1.0
  C  C22  1  0.52024000  0.04744000  0.10694000  1.0
  C  C23  1  0.95258000  0.47280000  0.44026000  1.0
  C  C24  1  0.74088000  0.00001000  0.00000000  1.0
  C  C25  1  0.25915000  0.25914000  0.66666667  1.0
  C  C26  1  0.00001000  0.74086000  0.33333333  1.0
  C  C27  1  0.31515000  0.94874000  0.89552000  1.0
  C  C28  1  0.68487000  0.63359000  0.77116000  1.0
  C  C29  1  0.05127000  0.36640000  0.22884000  1.0
  C  C30  1  0.63361000  0.68486000  0.56219000  1.0
  C  C31  1  0.36641000  0.05127000  0.10448000  1.0
  C  C32  1  0.94873000  0.31513000  0.43781000  1.0
  C  C33  1  0.57408000  0.00000000  0.00000000  1.0
  C  C34  1  0.42594000  0.42591000  0.66666667  1.0
  C  C35  1  0.00001000  0.57408000  0.33333333  1.0
  C  C36  1  0.99993000  0.43323000  0.83332000  1.0
  C  C37  1  0.56669000  0.56677000  0.16669000  1.0
  C  C38  1  0.43328000  0.00001000  0.49999000  1.0
  O  O39  1  0.19570000  0.89319000  0.80005000  1.0
  O  O40  1  0.80432000  0.69750000  0.86663000  1.0
  O  O41  1  0.10681000  0.30250000  0.13337000  1.0
  O  O42  1  0.69751000  0.80431000  0.46672000  1.0
  O  O43  1  0.30251000  0.10681000  0.19995000  1.0
  O  O44  1  0.89319000  0.19569000  0.53328000  1.0
  O  O45  1  0.82745000  0.04039000  0.90017000  1.0
  O  O46  1  0.17257000  0.21296000  0.76650000  1.0
  O  O47  1  0.95961000  0.78705000  0.23350000  1.0
  O  O48  1  0.21296000  0.17256000  0.56683000  1.0
  O  O49  1  0.78706000  0.95961000  0.09983000  1.0
  O  O50  1  0.04041000  0.82745000  0.43316000  1.0
  O  O51  1  0.10998000  1.00000000  0.00000000  1.0
  O  O52  1  0.89004000  0.89003000  0.66666667  1.0
  O  O53  1  1.00000000  0.10997000  0.33333333  1.0
  O  O54  1  0.09048000  0.48160000  0.91981000  1.0
  O  O55  1  0.90937000  0.39104000  0.74684000  1.0
  O  O56  1  0.51832000  0.60896000  0.25317000  1.0
  O  O57  1  0.39110000  0.90946000  0.58648000  1.0
  O  O58  1  0.60887000  0.51839000  0.08020000  1.0
  O  O59  1  0.48164000  0.09055000  0.41351000  1.0
