# generated using pymatgen
data_CuH18C24(NO3)2
_symmetry_space_group_name_H-M   'P 1'
_cell_length_a   10.20820000
_cell_length_b   10.53890000
_cell_length_c   11.10817062
_cell_angle_alpha   93.16529165
_cell_angle_beta   117.34773674
_cell_angle_gamma   90.04390000
_symmetry_Int_Tables_number   1
_chemical_formula_structural   CuH18C24(NO3)2
_chemical_formula_sum   'Cu2 H36 C48 N4 O12'
_cell_volume   1059.40763936
_cell_formula_units_Z   2
loop_
 _symmetry_equiv_pos_site_id
 _symmetry_equiv_pos_as_xyz
  1  'x, y, z'
loop_
 _atom_site_type_symbol
 _atom_site_label
 _atom_site_symmetry_multiplicity
 _atom_site_fract_x
 _atom_site_fract_y
 _atom_site_fract_z
 _atom_site_occupancy
  Cu  Cu0  1  0.00000000  0.50000000  0.00000000  1.0
  Cu  Cu1  1  0.00000000  0.00000000  0.00000000  1.0
  H  H2  1  0.87040000  0.82797000  0.30742000  1.0
  H  H3  1  0.56342000  0.67195000  0.69285000  1.0
  H  H4  1  0.12961000  0.17203000  0.69259000  1.0
  H  H5  1  0.43657000  0.32805000  0.30714000  1.0
  H  H6  1  0.86509000  0.32817000  0.52281000  1.0
  H  H7  1  0.34242000  0.17168000  0.47730000  1.0
  H  H8  1  0.13491000  0.67183000  0.47719000  1.0
  H  H9  1  0.65756000  0.82831000  0.52270000  1.0
  H  H10  1  0.53491000  0.52115000  0.42735000  1.0
  H  H11  1  0.10853000  0.97894000  0.57283000  1.0
  H  H12  1  0.46510000  0.47886000  0.57266000  1.0
  H  H13  1  0.89146000  0.02105000  0.42716000  1.0
  H  H14  1  0.87083000  0.33451000  0.74711000  1.0
  H  H15  1  0.12389000  0.16535000  0.25313000  1.0
  H  H16  1  0.12918000  0.66549000  0.25289000  1.0
  H  H17  1  0.87610000  0.83465000  0.74687000  1.0
  H  H18  1  0.13399000  0.67553000  0.65527000  1.0
  H  H19  1  0.47872000  0.82476000  0.34452000  1.0
  H  H20  1  0.86600000  0.32447000  0.34472000  1.0
  H  H21  1  0.52128000  0.17524000  0.65548000  1.0
  H  H22  1  0.65589000  0.76014000  0.11556000  1.0
  H  H23  1  0.54024000  0.73942000  0.88477000  1.0
  H  H24  1  0.34411000  0.23986000  0.88445000  1.0
  H  H25  1  0.45977000  0.26057000  0.11522000  1.0
  H  H26  1  0.76933000  0.64601000  0.51719000  1.0
  H  H27  1  0.25301000  0.85389000  0.48320000  1.0
  H  H28  1  0.23069000  0.35399000  0.48282000  1.0
  H  H29  1  0.74699000  0.14610000  0.51680000  1.0
  H  H30  1  0.12939000  0.66657000  0.87389000  1.0
  H  H31  1  0.25544000  0.83359000  0.12596000  1.0
  H  H32  1  0.87060000  0.33343000  0.12610000  1.0
  H  H33  1  0.74456000  0.16641000  0.87404000  1.0
  H  H34  1  0.41595000  0.63945000  0.02652000  1.0
  H  H35  1  0.38938000  0.86014000  0.97359000  1.0
  H  H36  1  0.58405000  0.36055000  0.97349000  1.0
  H  H37  1  0.61064000  0.13985000  0.02642000  1.0
  C  C38  1  0.00049000  0.50062000  0.56681000  1.0
  C  C39  1  0.43371000  0.99940000  0.43317000  1.0
  C  C40  1  0.99950000  0.49938000  0.43318000  1.0
  C  C41  1  0.56628000  0.00060000  0.56683000  1.0
  C  C42  1  0.92556000  0.40552000  0.59659000  1.0
  C  C43  1  0.32908000  0.09440000  0.40346000  1.0
  C  C44  1  0.07444000  0.59448000  0.40341000  1.0
  C  C45  1  0.67091000  0.90559000  0.59654000  1.0
  C  C46  1  0.56025000  0.57362000  0.35867000  1.0
  C  C47  1  0.20235000  0.92638000  0.64154000  1.0
  C  C48  1  0.43975000  0.42638000  0.64134000  1.0
  C  C49  1  0.79766000  0.07362000  0.35846000  1.0
  C  C50  1  0.92803000  0.40794000  0.72241000  1.0
  C  C51  1  0.20574000  0.09200000  0.27764000  1.0
  C  C52  1  0.07198000  0.59205000  0.27759000  1.0
  C  C53  1  0.79425000  0.90800000  0.72236000  1.0
  C  C54  1  0.45831000  0.57292000  0.22073000  1.0
  C  C55  1  0.23799000  0.92693000  0.77942000  1.0
  C  C56  1  0.54170000  0.42709000  0.77929000  1.0
  C  C57  1  0.76202000  0.07306000  0.22058000  1.0
  C  C58  1  0.07468000  0.59663000  0.66941000  1.0
  C  C59  1  0.40523000  0.90351000  0.33046000  1.0
  C  C60  1  0.92531000  0.40336000  0.33058000  1.0
  C  C61  1  0.59475000  0.09650000  0.66953000  1.0
  C  C62  1  0.31187000  0.50680000  0.16911000  1.0
  C  C63  1  0.14320000  0.99314000  0.83098000  1.0
  C  C64  1  0.68814000  0.49321000  0.83090000  1.0
  C  C65  1  0.85681000  0.00685000  0.16902000  1.0
  C  C66  1  0.72721000  0.71302000  0.32306000  1.0
  C  C67  1  0.40451000  0.78669000  0.67728000  1.0
  C  C68  1  0.27279000  0.28699000  0.67695000  1.0
  C  C69  1  0.59549000  0.21331000  0.32272000  1.0
  C  C70  1  0.69195000  0.64363000  0.40955000  1.0
  C  C71  1  0.28307000  0.85623000  0.59079000  1.0
  C  C72  1  0.30806000  0.35638000  0.59046000  1.0
  C  C73  1  0.71692000  0.14376000  0.40920000  1.0
  C  C74  1  0.07238000  0.59319000  0.79319000  1.0
  C  C75  1  0.27916000  0.90694000  0.20668000  1.0
  C  C76  1  0.92762000  0.40681000  0.20681000  1.0
  C  C77  1  0.72083000  0.09307000  0.79331000  1.0
  C  C78  1  0.49414000  0.64101000  0.13413000  1.0
  C  C79  1  0.36008000  0.85862000  0.86600000  1.0
  C  C80  1  0.50586000  0.35899000  0.86588000  1.0
  C  C81  1  0.63992000  0.14138000  0.13400000  1.0
  C  C82  1  0.62751000  0.70865000  0.18328000  1.0
  C  C83  1  0.44431000  0.79094000  0.81699000  1.0
  C  C84  1  0.37249000  0.29136000  0.81673000  1.0
  C  C85  1  0.55570000  0.20906000  0.18301000  1.0
  N  N86  1  0.00086000  0.49999000  0.82014000  1.0
  N  N87  1  0.18073000  0.00005000  0.17981000  1.0
  N  N88  1  0.99915000  0.50000000  0.17986000  1.0
  N  N89  1  0.81926000  0.99995000  0.82018000  1.0
  O  O90  1  0.85487000  0.78116000  0.37857000  1.0
  O  O91  1  0.47661000  0.71862000  0.62178000  1.0
  O  O92  1  0.14514000  0.21884000  0.62143000  1.0
  O  O93  1  0.52339000  0.28137000  0.37822000  1.0
  O  O94  1  0.29734000  0.40075000  0.21008000  1.0
  O  O95  1  0.08808000  0.09928000  0.79011000  1.0
  O  O96  1  0.70267000  0.59926000  0.78993000  1.0
  O  O97  1  0.91193000  0.90072000  0.20989000  1.0
  O  O98  1  0.20290000  0.56879000  0.08229000  1.0
  O  O99  1  0.12063000  0.93115000  0.91765000  1.0
  O  O100  1  0.79710000  0.43121000  0.91771000  1.0
  O  O101  1  0.87937000  0.06885000  0.08234000  1.0
