# generated using pymatgen
data_CoPH5C4(NO2)2
_symmetry_space_group_name_H-M   'P 1'
_cell_length_a   5.24142000
_cell_length_b   6.97192809
_cell_length_c   10.27390000
_cell_angle_alpha   74.70927406
_cell_angle_beta   89.98320000
_cell_angle_gamma   67.92371123
_symmetry_Int_Tables_number   1
_chemical_formula_structural   CoPH5C4(NO2)2
_chemical_formula_sum   'Co2 P2 H10 C8 N4 O8'
_cell_volume   333.53844441
_cell_formula_units_Z   2
loop_
 _symmetry_equiv_pos_site_id
 _symmetry_equiv_pos_as_xyz
  1  'x, y, z'
loop_
 _atom_site_type_symbol
 _atom_site_label
 _atom_site_symmetry_multiplicity
 _atom_site_fract_x
 _atom_site_fract_y
 _atom_site_fract_z
 _atom_site_occupancy
  Co  Co0  1  0.02046000  0.32035000  0.10266000  1.0
  Co  Co1  1  0.65892000  0.32051000  0.60265000  1.0
  P  P2  1  0.51134000  0.28020000  0.92701000  1.0
  P  P3  1  0.20844000  0.28028000  0.42701000  1.0
  H  H4  1  0.84511000  0.18701000  0.33429000  1.0
  H  H5  1  0.96780000  0.18693000  0.83418000  1.0
  H  H6  1  0.60639000  0.18428000  0.24530000  1.0
  H  H7  1  0.20918000  0.18423000  0.74516000  1.0
  H  H8  1  0.91514000  0.80475000  0.96988000  1.0
  H  H9  1  0.28058000  0.80488000  0.46957000  1.0
  H  H10  1  0.49720000  0.48930000  0.22962000  1.0
  H  H11  1  0.01344000  0.48952000  0.72944000  1.0
  H  H12  1  0.13610000  0.84196000  0.23477000  1.0
  H  H13  1  0.02174000  0.84212000  0.73460000  1.0
  C  C14  1  0.53171000  0.01400000  0.02764000  1.0
  C  C15  1  0.45424000  0.01413000  0.52761000  1.0
  C  C16  1  0.73836000  0.81538000  0.02785000  1.0
  C  C17  1  0.44645000  0.81549000  0.52769000  1.0
  C  C18  1  0.51262000  0.63810000  0.17277000  1.0
  C  C19  1  0.84922000  0.63825000  0.67256000  1.0
  C  C20  1  0.30962000  0.83344000  0.17504000  1.0
  C  C21  1  0.85671000  0.83360000  0.67492000  1.0
  N  N22  1  0.31831000  0.02109000  0.10265000  1.0
  N  N23  1  0.66043000  0.02127000  0.60262000  1.0
  N  N24  1  0.72928000  0.62648000  0.10024000  1.0
  N  N25  1  0.64433000  0.62656000  0.60005000  1.0
  O  O26  1  0.26911000  0.43885000  0.97672000  1.0
  O  O27  1  0.29208000  0.43898000  0.47665000  1.0
  O  O28  1  0.45925000  0.28474000  0.77826000  1.0
  O  O29  1  0.25589000  0.28461000  0.27827000  1.0
  O  O30  1  0.79489000  0.29119000  0.95031000  1.0
  O  O31  1  0.91391000  0.29140000  0.45042000  1.0
  O  O32  1  0.80971000  0.14592000  0.25154000  1.0
  O  O33  1  0.04421000  0.14588000  0.75139000  1.0
