# generated using pymatgen
data_ZnH10C15N8O
_symmetry_space_group_name_H-M   'P 1'
_cell_length_a   9.00033000
_cell_length_b   12.49560000
_cell_length_c   13.83580000
_cell_angle_alpha   107.93000000
_cell_angle_beta   90.00000000
_cell_angle_gamma   90.00000000
_symmetry_Int_Tables_number   1
_chemical_formula_structural   ZnH10C15N8O
_chemical_formula_sum   'Zn4 H40 C60 N32 O4'
_cell_volume   1480.46515469
_cell_formula_units_Z   4
loop_
 _symmetry_equiv_pos_site_id
 _symmetry_equiv_pos_as_xyz
  1  'x, y, z'
loop_
 _atom_site_type_symbol
 _atom_site_label
 _atom_site_symmetry_multiplicity
 _atom_site_fract_x
 _atom_site_fract_y
 _atom_site_fract_z
 _atom_site_occupancy
  Zn  Zn0  1  0.56343000  0.43636000  0.88330000  1.0
  Zn  Zn1  1  0.06343000  0.56364000  0.61670000  1.0
  Zn  Zn2  1  0.43657000  0.56364000  0.11670000  1.0
  Zn  Zn3  1  0.93657000  0.43636000  0.38330000  1.0
  H  H4  1  0.75867000  0.75386000  0.09387000  1.0
  H  H5  1  0.25867000  0.24613000  0.40613000  1.0
  H  H6  1  0.24133000  0.24614000  0.90613000  1.0
  H  H7  1  0.74133000  0.75386000  0.59387000  1.0
  H  H8  1  0.76759000  0.94380000  0.07021000  1.0
  H  H9  1  0.26760000  0.05620000  0.42979000  1.0
  H  H10  1  0.23240000  0.05620000  0.92979000  1.0
  H  H11  1  0.73241000  0.94380000  0.57021000  1.0
  H  H12  1  0.61724000  0.98236000  0.93268000  1.0
  H  H13  1  0.11724000  0.01764000  0.56732000  1.0
  H  H14  1  0.38276000  0.01764000  0.06732000  1.0
  H  H15  1  0.88276000  0.98236000  0.43268000  1.0
  H  H16  1  0.45835000  0.83049000  0.82225000  1.0
  H  H17  1  0.95835000  0.16950000  0.67775000  1.0
  H  H18  1  0.54165000  0.16951000  0.17775000  1.0
  H  H19  1  0.04165000  0.83049000  0.32225000  1.0
  H  H20  1  0.35191000  0.26742000  0.71713000  1.0
  H  H21  1  0.85191000  0.73258000  0.78287000  1.0
  H  H22  1  0.64809000  0.73259000  0.28287000  1.0
  H  H23  1  0.14808000  0.26741000  0.21713000  1.0
  H  H24  1  0.33220000  0.05275000  0.64511000  1.0
  H  H25  1  0.83220000  0.94725000  0.85489000  1.0
  H  H26  1  0.66780000  0.94725000  0.35489000  1.0
  H  H27  1  0.16779000  0.05274000  0.14511000  1.0
  H  H28  1  0.52178000  0.93945000  0.70274000  1.0
  H  H29  1  0.02178000  0.06055000  0.79726000  1.0
  H  H30  1  0.47822000  0.06055000  0.29726000  1.0
  H  H31  1  0.97822000  0.93945000  0.20274000  1.0
  H  H32  1  0.02364000  0.18730000  0.03440000  1.0
  H  H33  1  0.52364000  0.81270000  0.46560000  1.0
  H  H34  1  0.97636000  0.81270000  0.96560000  1.0
  H  H35  1  0.47636000  0.18730000  0.53440000  1.0
  H  H36  1  0.02959000  0.39851000  0.10566000  1.0
  H  H37  1  0.52959000  0.60149000  0.39434000  1.0
  H  H38  1  0.97041000  0.60149000  0.89434000  1.0
  H  H39  1  0.47041000  0.39851000  0.60566000  1.0
  H  H40  1  0.82302000  0.50562000  0.04528000  1.0
  H  H41  1  0.32302000  0.49438000  0.45472000  1.0
  H  H42  1  0.17698000  0.49438000  0.95472000  1.0
  H  H43  1  0.67698000  0.50562000  0.54528000  1.0
  C  C44  1  0.60252000  0.68470000  0.97365000  1.0
  C  C45  1  0.10252000  0.31530000  0.52635000  1.0
  C  C46  1  0.39748000  0.31531000  0.02635000  1.0
  C  C47  1  0.89748000  0.68469000  0.47365000  1.0
  C  C48  1  0.69345000  0.77223000  0.03440000  1.0
  C  C49  1  0.19345000  0.22777000  0.46560000  1.0
  C  C50  1  0.30655000  0.22777000  0.96560000  1.0
  C  C51  1  0.80655000  0.77223000  0.53440000  1.0
  C  C52  1  0.69837000  0.87770000  0.02065000  1.0
  C  C53  1  0.19837000  0.12230000  0.47935000  1.0
  C  C54  1  0.30163000  0.12230000  0.97935000  1.0
  C  C55  1  0.80163000  0.87770000  0.52065000  1.0
  C  C56  1  0.61426000  0.89999000  0.94388000  1.0
  C  C57  1  0.11426000  0.10001000  0.55612000  1.0
  C  C58  1  0.38574000  0.10001000  0.05612000  1.0
  C  C59  1  0.88574000  0.89999000  0.44388000  1.0
  C  C60  1  0.52605000  0.81515000  0.88204000  1.0
  C  C61  1  0.02605000  0.18485000  0.61796000  1.0
  C  C62  1  0.47395000  0.18485000  0.11796000  1.0
  C  C63  1  0.97395000  0.81515000  0.38204000  1.0
  C  C64  1  0.51760000  0.70792000  0.89511000  1.0
  C  C65  1  0.01760000  0.29208000  0.60489000  1.0
  C  C66  1  0.48240000  0.29208000  0.10489000  1.0
  C  C67  1  0.98240000  0.70792000  0.39511000  1.0
  C  C68  1  0.41723000  0.62598000  0.82900000  1.0
  C  C69  1  0.91723000  0.37402000  0.67100000  1.0
  C  C70  1  0.58277000  0.37402000  0.17100000  1.0
  C  C71  1  0.08277000  0.62598000  0.32900000  1.0
  C  C72  1  0.42900000  0.21055000  0.73810000  1.0
  C  C73  1  0.92900000  0.78945000  0.76190000  1.0
  C  C74  1  0.57100000  0.78945000  0.26190000  1.0
  C  C75  1  0.07100000  0.21055000  0.23810000  1.0
  C  C76  1  0.41889000  0.09394000  0.69823000  1.0
  C  C77  1  0.91889000  0.90606000  0.80177000  1.0
  C  C78  1  0.58111000  0.90606000  0.30177000  1.0
  C  C79  1  0.08111000  0.09394000  0.19823000  1.0
  C  C80  1  0.52368000  0.03121000  0.73149000  1.0
  C  C81  1  0.02368000  0.96879000  0.76851000  1.0
  C  C82  1  0.47632000  0.96879000  0.26851000  1.0
  C  C83  1  0.97632000  0.03121000  0.23149000  1.0
  C  C84  1  0.62902000  0.19083000  0.83501000  1.0
  C  C85  1  0.12902000  0.80917000  0.66499000  1.0
  C  C86  1  0.37098000  0.80917000  0.16499000  1.0
  C  C87  1  0.87098000  0.19083000  0.33501000  1.0
  C  C88  1  0.74147000  0.24681000  0.91352000  1.0
  C  C89  1  0.24147000  0.75319000  0.58648000  1.0
  C  C90  1  0.25853000  0.75319000  0.08648000  1.0
  C  C91  1  0.75853000  0.24681000  0.41352000  1.0
  C  C92  1  0.94164000  0.23877000  0.01116000  1.0
  C  C93  1  0.44164000  0.76123000  0.48884000  1.0
  C  C94  1  0.05836000  0.76123000  0.98884000  1.0
  C  C95  1  0.55836000  0.23877000  0.51116000  1.0
  C  C96  1  0.94508000  0.35589000  0.05102000  1.0
  C  C97  1  0.44508000  0.64411000  0.44898000  1.0
  C  C98  1  0.05492000  0.64411000  0.94898000  1.0
  C  C99  1  0.55492000  0.35589000  0.55102000  1.0
  C  C100  1  0.83471000  0.41433000  0.01805000  1.0
  C  C101  1  0.33471000  0.58567000  0.48195000  1.0
  C  C102  1  0.16529000  0.58567000  0.98195000  1.0
  C  C103  1  0.66529000  0.41433000  0.51806000  1.0
  N  N104  1  0.41069000  0.51415000  0.81713000  1.0
  N  N105  1  0.91069000  0.48585000  0.68287000  1.0
  N  N106  1  0.58931000  0.48585000  0.18287000  1.0
  N  N107  1  0.08931000  0.51415000  0.31713000  1.0
  N  N108  1  0.30119000  0.47102000  0.75023000  1.0
  N  N109  1  0.80119000  0.52898000  0.74977000  1.0
  N  N110  1  0.69881000  0.52898000  0.24977000  1.0
  N  N111  1  0.19881000  0.47102000  0.25023000  1.0
  N  N112  1  0.24412000  0.55520000  0.72340000  1.0
  N  N113  1  0.74412000  0.44480000  0.77660000  1.0
  N  N114  1  0.75588000  0.44480000  0.27660000  1.0
  N  N115  1  0.25588000  0.55520000  0.22340000  1.0
  N  N116  1  0.31307000  0.65238000  0.77017000  1.0
  N  N117  1  0.81307000  0.34762000  0.72983000  1.0
  N  N118  1  0.68693000  0.34762000  0.22983000  1.0
  N  N119  1  0.18694000  0.65238000  0.27017000  1.0
  N  N120  1  0.73324000  0.35933000  0.94993000  1.0
  N  N121  1  0.23324000  0.64067000  0.55007000  1.0
  N  N122  1  0.26676000  0.64067000  0.05007000  1.0
  N  N123  1  0.76676000  0.35933000  0.44993000  1.0
  N  N124  1  0.53436000  0.25890000  0.80609000  1.0
  N  N125  1  0.03436000  0.74110000  0.69391000  1.0
  N  N126  1  0.46564000  0.74110000  0.19391000  1.0
  N  N127  1  0.96563000  0.25890000  0.30609000  1.0
  N  N128  1  0.62906000  0.07863000  0.79961000  1.0
  N  N129  1  0.12907000  0.92137000  0.70039000  1.0
  N  N130  1  0.37093000  0.92137000  0.20038000  1.0
  N  N131  1  0.87093000  0.07863000  0.29962000  1.0
  N  N132  1  0.84151000  0.18328000  0.94223000  1.0
  N  N133  1  0.34151000  0.81672000  0.55777000  1.0
  N  N134  1  0.15849000  0.81672000  0.05777000  1.0
  N  N135  1  0.65849000  0.18328000  0.44223000  1.0
  O  O136  1  0.59649000  0.58753000  0.99431000  1.0
  O  O137  1  0.09649000  0.41247000  0.50569000  1.0
  O  O138  1  0.40351000  0.41247000  0.00569000  1.0
  O  O139  1  0.90351000  0.58753000  0.49431000  1.0
