# generated using pymatgen
data_Zn2H10C39(I3O14)2
_symmetry_space_group_name_H-M   'P 1'
_cell_length_a   12.08870000
_cell_length_b   12.23530000
_cell_length_c   23.32770000
_cell_angle_alpha   88.03260000
_cell_angle_beta   86.94180000
_cell_angle_gamma   90.34930000
_symmetry_Int_Tables_number   1
_chemical_formula_structural   Zn2H10C39(I3O14)2
_chemical_formula_sum   'Zn4 H20 C78 I12 O56'
_cell_volume   3443.32027453
_cell_formula_units_Z   2
loop_
 _symmetry_equiv_pos_site_id
 _symmetry_equiv_pos_as_xyz
  1  'x, y, z'
loop_
 _atom_site_type_symbol
 _atom_site_label
 _atom_site_symmetry_multiplicity
 _atom_site_fract_x
 _atom_site_fract_y
 _atom_site_fract_z
 _atom_site_occupancy
  Zn  Zn0  1  0.10764000  0.51255000  0.48964000  1.0
  Zn  Zn1  1  0.88074000  0.49432000  0.50876000  1.0
  Zn  Zn2  1  0.50842000  0.10447000  0.98940000  1.0
  Zn  Zn3  1  0.50595000  0.88311000  0.00917000  1.0
  H  H4  1  0.17174000  0.33338000  0.74183000  1.0
  H  H5  1  0.32543000  0.19503000  0.43344000  1.0
  H  H6  1  0.41131000  0.31610000  0.84019000  1.0
  H  H7  1  0.54265000  0.76994000  0.15567000  1.0
  H  H8  1  0.48784000  0.81203000  0.83406000  1.0
  H  H9  1  0.53469000  0.11160000  0.17492000  1.0
  H  H10  1  0.87466000  0.94441000  0.02821000  1.0
  H  H11  1  0.12849000  0.96878000  0.97754000  1.0
  H  H12  1  0.66834000  0.36141000  0.66999000  1.0
  H  H13  1  0.25242000  0.61749000  0.35211000  1.0
  H  H14  1  0.20369000  0.48634000  0.64717000  1.0
  H  H15  1  0.72647000  0.73259000  0.27399000  1.0
  H  H16  1  0.79875000  0.51080000  0.35384000  1.0
  H  H17  1  0.84518000  0.65936000  0.72143000  1.0
  H  H18  1  0.32129000  0.18785000  0.30957000  1.0
  H  H19  1  0.08801000  0.21561000  0.87363000  1.0
  H  H20  1  0.86447000  0.79402000  0.13637000  1.0
  H  H21  1  0.36511000  0.83415000  0.73642000  1.0
  H  H22  1  0.66696000  0.20041000  0.26064000  1.0
  H  H23  1  0.75365000  0.79866000  0.52853000  1.0
  C  C24  1  0.92962000  0.63538000  0.42014000  1.0
  C  C25  1  0.88060000  0.12990000  0.16993000  1.0
  C  C26  1  0.24557000  0.89848000  0.85843000  1.0
  C  C27  1  0.79212000  0.14685000  0.13261000  1.0
  C  C28  1  0.92979000  0.18342000  0.72077000  1.0
  C  C29  1  0.02243000  0.80838000  0.28735000  1.0
  C  C30  1  0.91670000  0.26939000  0.68018000  1.0
  C  C31  1  0.01525000  0.72458000  0.33013000  1.0
  C  C32  1  0.11191000  0.81064000  0.69864000  1.0
  C  C33  1  0.92081000  0.20578000  0.29853000  1.0
  C  C34  1  0.11083000  0.73056000  0.65667000  1.0
  C  C35  1  0.97355000  0.37099000  0.58675000  1.0
  C  C36  1  0.93378000  0.28575000  0.33973000  1.0
  C  C37  1  0.02364000  0.98683000  0.74761000  1.0
  C  C38  1  0.97732000  0.01830000  0.25290000  1.0
  C  C39  1  0.03705000  0.65388000  0.56711000  1.0
  C  C40  1  0.02948000  0.36144000  0.42308000  1.0
  C  C41  1  0.01407000  0.10167000  0.71198000  1.0
  C  C42  1  0.95804000  0.90701000  0.29247000  1.0
  C  C43  1  0.99648000  0.29156000  0.63510000  1.0
  C  C44  1  0.92595000  0.71903000  0.37146000  1.0
  C  C45  1  0.03038000  0.89563000  0.70057000  1.0
  C  C46  1  0.74414000  0.87978000  0.82842000  1.0
  C  C47  1  0.98994000  0.11141000  0.29685000  1.0
  C  C48  1  0.03586000  0.73606000  0.61321000  1.0
  C  C49  1  0.02020000  0.27955000  0.37730000  1.0
  C  C50  1  0.12852000  0.98797000  0.78625000  1.0
  C  C51  1  0.87855000  0.03982000  0.21123000  1.0
  C  C52  1  0.29814000  0.99849000  0.86896000  1.0
  C  C53  1  0.72112000  0.05842000  0.12266000  1.0
  C  C54  1  0.92323000  0.96217000  0.79374000  1.0
  C  C55  1  0.08262000  0.01508000  0.20803000  1.0
  C  C56  1  0.74917000  0.92914000  0.88111000  1.0
  C  C57  1  0.27506000  0.05642000  0.17266000  1.0
  C  C58  1  0.26346000  0.99405000  0.12417000  1.0
  C  C59  1  0.65505000  0.92968000  0.92579000  1.0
  C  C60  1  0.35664000  0.98059000  0.07996000  1.0
  C  C61  1  0.37193000  0.01441000  0.91796000  1.0
  C  C62  1  0.64692000  0.05167000  0.07300000  1.0
  C  C63  1  0.09257000  0.12664000  0.66484000  1.0
  C  C64  1  0.87792000  0.90400000  0.34069000  1.0
  C  C65  1  0.09284000  0.22863000  0.63378000  1.0
  C  C66  1  0.84991000  0.80408000  0.37127000  1.0
  C  C67  1  0.95427000  0.89750000  0.65523000  1.0
  C  C68  1  0.92732000  0.00820000  0.84958000  1.0
  C  C69  1  0.06861000  0.10179000  0.34043000  1.0
  C  C70  1  0.95837000  0.81988000  0.61211000  1.0
  C  C71  1  0.08782000  0.18779000  0.37714000  1.0
  C  C72  1  0.19779000  0.08198000  0.78992000  1.0
  C  C73  1  0.78982000  0.96395000  0.20798000  1.0
  C  C74  1  0.27102000  0.08980000  0.83482000  1.0
  C  C75  1  0.72435000  0.96558000  0.15981000  1.0
  C  C76  1  0.83291000  0.88899000  0.78633000  1.0
  C  C77  1  0.18630000  0.07003000  0.21352000  1.0
  C  C78  1  0.21268000  0.18511000  0.75173000  1.0
  C  C79  1  0.07128000  0.96126000  0.15516000  1.0
  C  C80  1  0.74183000  0.88216000  0.25283000  1.0
  C  C81  1  0.81172000  0.80510000  0.74108000  1.0
  C  C82  1  0.21673000  0.15948000  0.25391000  1.0
  C  C83  1  0.01733000  0.07644000  0.87457000  1.0
  C  C84  1  0.96908000  0.91126000  0.13166000  1.0
  C  C85  1  0.21694000  0.79043000  0.73108000  1.0
  C  C86  1  0.81691000  0.23412000  0.26671000  1.0
  C  C87  1  0.89158000  0.82830000  0.55880000  1.0
  C  C88  1  0.17217000  0.17897000  0.42246000  1.0
  C  C89  1  0.30406000  0.20404000  0.85096000  1.0
  C  C90  1  0.84525000  0.98574000  0.89293000  1.0
  C  C91  1  0.67125000  0.85790000  0.14579000  1.0
  C  C92  1  0.64505000  0.80578000  0.82293000  1.0
  C  C93  1  0.37927000  0.12462000  0.17411000  1.0
  C  C94  1  0.85709000  0.01990000  0.95408000  1.0
  C  C95  1  0.14022000  0.90768000  0.05539000  1.0
  C  C96  1  0.81991000  0.34804000  0.68445000  1.0
  C  C97  1  0.10425000  0.63726000  0.33273000  1.0
  C  C98  1  0.19721000  0.64160000  0.65192000  1.0
  C  C99  1  0.83972000  0.36406000  0.35166000  1.0
  C  C100  1  0.15887000  0.95475000  0.11339000  1.0
  C  C101  1  0.15091000  0.89762000  0.82500000  1.0
  I  I102  1  0.24337000  0.29121000  0.59323000  1.0
  I  I103  1  0.77005000  0.30033000  0.09228000  1.0
  I  I104  1  0.21060000  0.02069000  0.62569000  1.0
  I  I105  1  0.80375000  0.03459000  0.38695000  1.0
  I  I106  1  0.69252000  0.78064000  0.41537000  1.0
  I  I107  1  0.82812000  0.01347000  0.63832000  1.0
  I  I108  1  0.16159000  0.96166000  0.36457000  1.0
  I  I109  1  0.04336000  0.76241000  0.84667000  1.0
  I  I110  1  0.01241000  0.24282000  0.15597000  1.0
  I  I111  1  0.79698000  0.18784000  0.78451000  1.0
  I  I112  1  0.15434000  0.76865000  0.22706000  1.0
  I  I113  1  0.30779000  0.74755000  0.88983000  1.0
  O  O114  1  0.02621000  0.61463000  0.43521000  1.0
  O  O115  1  0.38819000  0.88242000  0.07038000  1.0
  O  O116  1  0.39611000  0.93233000  0.94880000  1.0
  O  O117  1  0.61495000  0.13862000  0.04715000  1.0
  O  O118  1  0.40442000  0.11249000  0.92696000  1.0
  O  O119  1  0.61968000  0.95502000  0.06053000  1.0
  O  O120  1  0.61684000  0.84050000  0.94974000  1.0
  O  O121  1  0.39464000  0.06724000  0.05517000  1.0
  O  O122  1  0.29560000  0.19579000  0.71981000  1.0
  O  O123  1  0.14387000  0.26885000  0.76439000  1.0
  O  O124  1  0.66642000  0.90920000  0.28601000  1.0
  O  O125  1  0.87230000  0.38859000  0.57495000  1.0
  O  O126  1  0.77303000  0.77689000  0.24621000  1.0
  O  O127  1  0.73156000  0.81036000  0.71154000  1.0
  O  O128  1  0.87699000  0.71626000  0.74460000  1.0
  O  O129  1  0.17809000  0.25082000  0.25532000  1.0
  O  O130  1  0.30552000  0.12854000  0.28368000  1.0
  O  O131  1  0.07153000  0.03814000  0.91343000  1.0
  O  O132  1  0.02351000  0.18024000  0.85625000  1.0
  O  O133  1  0.93025000  0.95749000  0.08951000  1.0
  O  O134  1  0.93578000  0.81544000  0.15403000  1.0
  O  O135  1  0.23344000  0.70249000  0.75541000  1.0
  O  O136  1  0.94333000  0.61492000  0.55649000  1.0
  O  O137  1  0.29789000  0.86654000  0.72139000  1.0
  O  O138  1  0.80667000  0.32274000  0.24190000  1.0
  O  O139  1  0.73093000  0.16360000  0.27657000  1.0
  O  O140  1  0.93530000  0.85905000  0.51258000  1.0
  O  O141  1  0.78608000  0.79285000  0.56654000  1.0
  O  O142  1  0.14894000  0.15816000  0.47300000  1.0
  O  O143  1  0.27724000  0.20320000  0.40106000  1.0
  O  O144  1  0.23831000  0.26069000  0.87851000  1.0
  O  O145  1  0.40219000  0.24068000  0.82809000  1.0
  O  O146  1  0.72655000  0.78453000  0.12379000  1.0
  O  O147  1  0.12563000  0.40015000  0.43262000  1.0
  O  O148  1  0.56588000  0.84362000  0.16559000  1.0
  O  O149  1  0.64913000  0.70654000  0.82191000  1.0
  O  O150  1  0.55005000  0.86427000  0.82494000  1.0
  O  O151  1  0.38119000  0.22402000  0.16935000  1.0
  O  O152  1  0.47035000  0.06202000  0.17869000  1.0
  O  O153  1  0.86235000  0.11383000  0.96962000  1.0
  O  O154  1  0.85750000  0.92880000  0.98765000  1.0
  O  O155  1  0.11478000  0.81319000  0.04738000  1.0
  O  O156  1  0.15620000  0.98815000  0.01505000  1.0
  O  O157  1  0.82883000  0.44106000  0.70098000  1.0
  O  O158  1  0.13065000  0.62979000  0.54235000  1.0
  O  O159  1  0.72540000  0.30520000  0.66566000  1.0
  O  O160  1  0.09465000  0.54402000  0.31740000  1.0
  O  O161  1  0.19816000  0.67647000  0.35556000  1.0
  O  O162  1  0.29439000  0.65785000  0.63766000  1.0
  O  O163  1  0.14988000  0.54132000  0.66116000  1.0
  O  O164  1  0.75008000  0.33088000  0.37236000  1.0
  O  O165  1  0.86304000  0.46974000  0.33887000  1.0
  O  O166  1  0.93947000  0.38455000  0.44992000  1.0
  O  O167  1  0.84051000  0.59358000  0.44434000  1.0
  O  O168  1  0.05561000  0.41245000  0.55800000  1.0
  O  O169  1  0.62233000  0.02524000  0.93730000  1.0
