# generated using pymatgen
data_ZnH22C26NO6
_symmetry_space_group_name_H-M   'P 1'
_cell_length_a   13.87370000
_cell_length_b   15.37560000
_cell_length_c   19.69540000
_cell_angle_alpha   89.53770000
_cell_angle_beta   90.04170000
_cell_angle_gamma   89.98910000
_symmetry_Int_Tables_number   1
_chemical_formula_structural   ZnH22C26NO6
_chemical_formula_sum   'Zn2 H44 C52 N2 O12'
_cell_volume   4201.21508660
_cell_formula_units_Z   2
loop_
 _symmetry_equiv_pos_site_id
 _symmetry_equiv_pos_as_xyz
  1  'x, y, z'
loop_
 _atom_site_type_symbol
 _atom_site_label
 _atom_site_symmetry_multiplicity
 _atom_site_fract_x
 _atom_site_fract_y
 _atom_site_fract_z
 _atom_site_occupancy
  Zn  Zn0  1  0.59517000  0.50054000  0.50012000  1.0
  Zn  Zn1  1  0.40096000  0.49968000  0.50008000  1.0
  H  H2  1  0.34610000  0.48855000  0.28238000  1.0
  H  H3  1  0.38800000  0.40290000  0.93788000  1.0
  H  H4  1  0.61491000  0.59379000  0.93693000  1.0
  H  H5  1  0.38821000  0.40241000  0.06317000  1.0
  H  H6  1  0.64667000  0.05897000  0.52193000  1.0
  H  H7  1  0.34761000  0.93929000  0.52746000  1.0
  H  H8  1  0.64607000  0.94015000  0.46755000  1.0
  H  H9  1  0.34769000  0.06228000  0.46309000  1.0
  H  H10  1  0.06827000  0.49482000  0.60985000  1.0
  H  H11  1  0.92780000  0.55080000  0.39713000  1.0
  H  H12  1  0.06814000  0.50508000  0.39000000  1.0
  H  H13  1  0.65419000  0.50022000  0.71678000  1.0
  H  H14  1  0.92812000  0.44873000  0.60267000  1.0
  H  H15  1  0.24842000  0.49336000  0.60453000  1.0
  H  H16  1  0.74765000  0.54666000  0.40161000  1.0
  H  H17  1  0.24833000  0.50663000  0.39545000  1.0
  H  H18  1  0.74796000  0.45322000  0.59841000  1.0
  H  H19  1  0.74976000  0.15271000  0.45688000  1.0
  H  H20  1  0.77203000  0.13781000  0.54562000  1.0
  H  H21  1  0.90321000  0.22652000  0.48804000  1.0
  H  H22  1  0.81499000  0.30651000  0.46599000  1.0
  H  H23  1  0.84351000  0.28601000  0.55284000  1.0
  H  H24  1  0.34547000  0.49646000  0.71796000  1.0
  H  H25  1  0.27597000  0.72225000  0.44894000  1.0
  H  H26  1  0.24328000  0.83292000  0.46528000  1.0
  H  H27  1  0.14390000  0.78435000  0.56527000  1.0
  H  H28  1  0.10472000  0.73077000  0.49010000  1.0
  H  H29  1  0.17796000  0.67463000  0.55055000  1.0
  H  H30  1  0.74642000  0.84770000  0.53787000  1.0
  H  H31  1  0.77352000  0.86057000  0.44964000  1.0
  H  H32  1  0.90087000  0.77269000  0.51256000  1.0
  H  H33  1  0.81108000  0.69317000  0.53223000  1.0
  H  H34  1  0.84543000  0.71252000  0.44631000  1.0
  H  H35  1  0.65365000  0.51233000  0.28339000  1.0
  H  H36  1  0.27802000  0.27459000  0.54953000  1.0
  H  H37  1  0.24588000  0.16455000  0.53030000  1.0
  H  H38  1  0.14249000  0.21741000  0.43345000  1.0
  H  H39  1  0.10523000  0.26598000  0.51113000  1.0
  H  H40  1  0.17536000  0.32657000  0.45156000  1.0
  H  H41  1  0.34592000  0.48892000  0.15588000  1.0
  H  H42  1  0.65604000  0.50220000  0.84336000  1.0
  H  H43  1  0.34564000  0.49584000  0.84449000  1.0
  H  H44  1  0.65576000  0.50819000  0.15695000  1.0
  H  H45  1  0.61459000  0.59387000  0.06222000  1.0
  C  C46  1  0.49705000  0.33164000  0.49631000  1.0
  C  C47  1  0.49673000  0.95214000  0.49588000  1.0
  C  C48  1  0.10412000  0.49604000  0.56072000  1.0
  C  C49  1  0.89192000  0.52701000  0.44277000  1.0
  C  C50  1  0.10406000  0.50386000  0.43916000  1.0
  C  C51  1  0.89209000  0.47259000  0.55708000  1.0
  C  C52  1  0.20418000  0.49578000  0.55873000  1.0
  C  C53  1  0.79186000  0.52596000  0.44461000  1.0
  C  C54  1  0.20413000  0.50414000  0.44121000  1.0
  C  C55  1  0.79203000  0.47384000  0.55535000  1.0
  C  C56  1  0.05131000  0.49991000  0.49992000  1.0
  C  C57  1  0.49700000  0.66866000  0.50168000  1.0
  C  C58  1  0.94481000  0.49983000  0.49992000  1.0
  C  C59  1  0.49905000  0.49659000  0.63355000  1.0
  C  C60  1  0.49892000  0.50317000  0.36666000  1.0
  C  C61  1  0.41345000  0.49334000  0.25419000  1.0
  C  C62  1  0.58702000  0.49975000  0.74543000  1.0
  C  C63  1  0.41311000  0.49658000  0.74608000  1.0
  C  C64  1  0.58668000  0.50732000  0.25476000  1.0
  C  C65  1  0.41392000  0.49253000  0.18361000  1.0
  C  C66  1  0.58760000  0.50122000  0.81603000  1.0
  C  C67  1  0.41363000  0.49611000  0.81668000  1.0
  C  C68  1  0.58353000  0.18536000  0.50667000  1.0
  C  C69  1  0.58734000  0.50570000  0.18417000  1.0
  C  C70  1  0.50089000  0.49872000  0.14719000  1.0
  C  C71  1  0.50091000  0.49865000  0.85301000  1.0
  C  C72  1  0.49973000  0.50126000  0.29062000  1.0
  C  C73  1  0.49976000  0.49761000  0.70961000  1.0
  C  C74  1  0.56584000  0.55064000  0.03512000  1.0
  C  C75  1  0.43687000  0.44597000  0.96505000  1.0
  C  C76  1  0.56596000  0.55066000  0.96449000  1.0
  C  C77  1  0.43697000  0.44575000  0.03566000  1.0
  C  C78  1  0.50132000  0.49847000  0.92792000  1.0
  C  C79  1  0.41395000  0.81480000  0.51478000  1.0
  C  C80  1  0.50130000  0.49825000  0.07228000  1.0
  C  C81  1  0.58183000  0.09450000  0.50780000  1.0
  C  C82  1  0.41329000  0.90558000  0.51263000  1.0
  C  C83  1  0.58125000  0.90527000  0.48267000  1.0
  C  C84  1  0.41359000  0.09540000  0.47833000  1.0
  C  C85  1  0.75607000  0.18676000  0.50582000  1.0
  C  C86  1  0.83413000  0.25564000  0.50305000  1.0
  C  C87  1  0.25463000  0.76829000  0.48888000  1.0
  C  C88  1  0.16500000  0.73782000  0.52593000  1.0
  C  C89  1  0.75520000  0.81258000  0.48961000  1.0
  C  C90  1  0.58298000  0.81448000  0.48604000  1.0
  C  C91  1  0.83277000  0.74353000  0.49547000  1.0
  C  C92  1  0.25565000  0.23043000  0.50855000  1.0
  C  C93  1  0.16431000  0.26185000  0.47407000  1.0
  C  C94  1  0.41410000  0.18619000  0.47881000  1.0
  C  C95  1  0.49818000  0.23399000  0.49407000  1.0
  C  C96  1  0.49794000  0.76637000  0.50054000  1.0
  C  C97  1  0.49702000  0.04822000  0.49402000  1.0
  N  N98  1  0.25315000  0.49994000  0.49999000  1.0
  N  N99  1  0.74297000  0.50002000  0.50002000  1.0
  O  O100  1  0.57262000  0.37205000  0.47748000  1.0
  O  O101  1  0.33174000  0.77341000  0.53769000  1.0
  O  O102  1  0.66611000  0.76949000  0.47389000  1.0
  O  O103  1  0.33108000  0.22846000  0.45833000  1.0
  O  O104  1  0.42015000  0.63114000  0.48179000  1.0
  O  O105  1  0.57267000  0.62934000  0.52178000  1.0
  O  O106  1  0.42028000  0.36804000  0.51751000  1.0
  O  O107  1  0.57764000  0.47687000  0.60388000  1.0
  O  O108  1  0.42001000  0.48323000  0.39616000  1.0
  O  O109  1  0.57702000  0.52453000  0.39636000  1.0
  O  O110  1  0.41979000  0.51556000  0.60409000  1.0
  O  O111  1  0.66656000  0.23001000  0.51971000  1.0
