# generated using pymatgen
data_ZnH8C20Br5NO4
_symmetry_space_group_name_H-M   'P 1'
_cell_length_a   13.15410000
_cell_length_b   16.60080000
_cell_length_c   17.61220000
_cell_angle_alpha   97.52240000
_cell_angle_beta   92.14560000
_cell_angle_gamma   95.22040000
_symmetry_Int_Tables_number   1
_chemical_formula_structural   ZnH8C20Br5NO4
_chemical_formula_sum   'Zn2 H16 C40 Br10 N2 O8'
_cell_volume   3792.28985626
_cell_formula_units_Z   2
loop_
 _symmetry_equiv_pos_site_id
 _symmetry_equiv_pos_as_xyz
  1  'x, y, z'
loop_
 _atom_site_type_symbol
 _atom_site_label
 _atom_site_symmetry_multiplicity
 _atom_site_fract_x
 _atom_site_fract_y
 _atom_site_fract_z
 _atom_site_occupancy
  Zn  Zn0  1  0.50654000  0.41384000  0.49987000  1.0
  Zn  Zn1  1  0.50926000  0.59068000  0.50513000  1.0
  H  H2  1  0.39097000  0.70500000  0.44671000  1.0
  H  H3  1  0.38104000  0.85421000  0.44527000  1.0
  H  H4  1  0.34990000  0.11432000  0.39887000  1.0
  H  H5  1  0.60973000  0.13114000  0.56057000  1.0
  H  H6  1  0.57116000  0.01265000  0.56529000  1.0
  H  H7  1  0.41307000  0.98675000  0.42849000  1.0
  H  H8  1  0.43799000  0.60199000  0.26172000  1.0
  H  H9  1  0.42439000  0.58496000  0.11948000  1.0
  H  H10  1  0.50113000  0.65292000  0.90218000  1.0
  H  H11  1  0.44512000  0.39052000  0.86892000  1.0
  H  H12  1  0.49153000  0.40192000  0.99174000  1.0
  H  H13  1  0.48991000  0.58882000  0.01085000  1.0
  H  H14  1  0.83354000  0.38561000  0.50388000  1.0
  H  H15  1  0.81717000  0.63634000  0.47325000  1.0
  H  H16  1  0.17854000  0.60373000  0.48417000  1.0
  H  H17  1  0.19570000  0.35595000  0.52410000  1.0
  C  C18  1  0.50227000  0.50448000  0.35454000  1.0
  C  C19  1  0.31171000  0.49291000  0.50334000  1.0
  C  C20  1  0.50217000  0.51882000  0.64947000  1.0
  C  C21  1  0.70133000  0.49827000  0.49111000  1.0
  C  C22  1  0.44809000  0.75037000  0.47775000  1.0
  C  C23  1  0.44367000  0.83317000  0.47718000  1.0
  C  C24  1  0.51871000  0.88965000  0.51861000  1.0
  C  C25  1  0.59610000  0.85699000  0.55957000  1.0
  C  C26  1  0.59548000  0.77181000  0.55710000  1.0
  C  C27  1  0.51914000  0.97758000  0.52088000  1.0
  C  C28  1  0.46613000  0.01885000  0.47413000  1.0
  C  C29  1  0.41034000  0.14814000  0.43725000  1.0
  C  C30  1  0.47665000  0.10791000  0.48012000  1.0
  C  C31  1  0.55301000  0.15700000  0.52708000  1.0
  C  C32  1  0.55845000  0.24130000  0.53045000  1.0
  C  C33  1  0.42181000  0.23315000  0.44403000  1.0
  C  C34  1  0.50560000  0.49062000  0.26836000  1.0
  C  C35  1  0.46559000  0.54923000  0.22823000  1.0
  C  C36  1  0.45956000  0.53999000  0.14897000  1.0
  C  C37  1  0.49553000  0.47225000  0.10504000  1.0
  C  C38  1  0.53770000  0.41379000  0.14542000  1.0
  C  C39  1  0.54310000  0.42255000  0.22603000  1.0
  C  C40  1  0.48929000  0.46361000  0.02149000  1.0
  C  C41  1  0.48492000  0.52666000  0.98043000  1.0
  C  C42  1  0.49191000  0.59467000  0.86496000  1.0
  C  C43  1  0.47966000  0.52178000  0.89724000  1.0
  C  C44  1  0.46189000  0.44833000  0.84690000  1.0
  C  C45  1  0.46346000  0.44875000  0.76817000  1.0
  C  C46  1  0.48471000  0.52099000  0.73401000  1.0
  C  C47  1  0.49347000  0.59414000  0.78591000  1.0
  C  C48  1  0.87261000  0.44488000  0.49773000  1.0
  C  C49  1  0.86408000  0.58682000  0.48004000  1.0
  C  C50  1  0.96881000  0.59797000  0.48025000  1.0
  C  C51  1  0.03188000  0.53433000  0.49057000  1.0
  C  C52  1  0.13970000  0.54487000  0.49187000  1.0
  C  C53  1  0.14855000  0.40444000  0.51419000  1.0
  C  C54  1  0.04368000  0.39267000  0.51228000  1.0
  C  C55  1  0.98052000  0.45573000  0.50013000  1.0
  C  C56  1  0.81547000  0.50913000  0.48875000  1.0
  C  C57  1  0.19715000  0.48138000  0.50308000  1.0
  Br  Br58  1  0.69879000  0.72780000  0.61045000  1.0
  Br  Br59  1  0.70225000  0.92661000  0.61649000  1.0
  Br  Br60  1  0.66386000  0.30066000  0.59584000  1.0
  Br  Br61  1  0.33009000  0.28184000  0.38343000  1.0
  Br  Br62  1  0.60807000  0.34538000  0.27660000  1.0
  Br  Br63  1  0.59089000  0.32295000  0.08810000  1.0
  Br  Br64  1  0.42421000  0.34475000  0.70900000  1.0
  Br  Br65  1  0.50875000  0.70088000  0.75596000  1.0
  Br  Br66  1  0.98236000  0.28742000  0.52734000  1.0
  Br  Br67  1  0.02997000  0.70391000  0.46700000  1.0
  N  N68  1  0.52273000  0.71999000  0.51704000  1.0
  N  N69  1  0.49384000  0.28090000  0.49017000  1.0
  O  O70  1  0.48432000  0.44232000  0.38851000  1.0
  O  O71  1  0.51426000  0.57860000  0.38594000  1.0
  O  O72  1  0.35271000  0.56082000  0.48779000  1.0
  O  O73  1  0.35840000  0.43263000  0.51917000  1.0
  O  O74  1  0.48328000  0.58092000  0.61818000  1.0
  O  O75  1  0.53721000  0.45538000  0.61617000  1.0
  O  O76  1  0.65819000  0.42573000  0.48081000  1.0
  O  O77  1  0.65710000  0.56333000  0.50460000  1.0
