# generated using pymatgen
data_AlH5C12(ClO2)3
_symmetry_space_group_name_H-M   'P 1'
_cell_length_a   6.84974000
_cell_length_b   16.30950000
_cell_length_c   20.12470000
_cell_angle_alpha   109.39200000
_cell_angle_beta   90.00000000
_cell_angle_gamma   89.99970000
_symmetry_Int_Tables_number   1
_chemical_formula_structural   AlH5C12(ClO2)3
_chemical_formula_sum   'Al4 H20 C48 Cl12 O24'
_cell_volume   2120.70237855
_cell_formula_units_Z   4
loop_
 _symmetry_equiv_pos_site_id
 _symmetry_equiv_pos_as_xyz
  1  'x, y, z'
loop_
 _atom_site_type_symbol
 _atom_site_label
 _atom_site_symmetry_multiplicity
 _atom_site_fract_x
 _atom_site_fract_y
 _atom_site_fract_z
 _atom_site_occupancy
  Al  Al0  1  0.00652000  0.50468000  0.50646000  1.0
  Al  Al1  1  0.99348000  0.00468000  0.00646000  1.0
  Al  Al2  1  0.50742000  0.50572000  0.50392000  1.0
  Al  Al3  1  0.49258000  0.00572000  0.00392000  1.0
  H  H4  1  0.03502000  0.67697000  0.24507000  1.0
  H  H5  1  0.96497000  0.17697000  0.74507000  1.0
  H  H6  1  0.46650000  0.66666667  0.39321000  1.0
  H  H7  1  0.53348000  0.16667000  0.89321000  1.0
  H  H8  1  0.92752000  0.95581000  0.20462000  1.0
  H  H9  1  0.07247000  0.45581000  0.70462000  1.0
  H  H10  1  0.03167000  0.65595000  0.71360000  1.0
  H  H11  1  0.96833000  0.15595000  0.21361000  1.0
  H  H12  1  0.27276000  0.72138000  0.67126000  1.0
  H  H13  1  0.72724000  0.22137000  0.17125000  1.0
  H  H14  1  0.29523000  0.81587000  0.82950000  1.0
  H  H15  1  0.70478000  0.31586000  0.32950000  1.0
  H  H16  1  0.30375000  0.74065000  0.33073000  1.0
  H  H17  1  0.69625000  0.24065000  0.83074000  1.0
  H  H18  1  0.13054000  0.70101000  0.82396000  1.0
  H  H19  1  0.86946000  0.20100000  0.32396000  1.0
  H  H20  1  0.25182000  0.60434000  0.49161000  1.0
  H  H21  1  0.74818000  0.10434000  0.99161000  1.0
  H  H22  1  0.75390000  0.39537000  0.50148000  1.0
  H  H23  1  0.24610000  0.89537000  0.00147000  1.0
  C  C24  1  0.25436000  0.38417000  0.39784000  1.0
  C  C25  1  0.74564000  0.88417000  0.89783000  1.0
  C  C26  1  0.26067000  0.42181000  0.58293000  1.0
  C  C27  1  0.73933000  0.92181000  0.08293000  1.0
  C  C28  1  0.75659000  0.62288000  0.61449000  1.0
  C  C29  1  0.24341000  0.12288000  0.11449000  1.0
  C  C30  1  0.76010000  0.58361000  0.42316000  1.0
  C  C31  1  0.23990000  0.08361000  0.92316000  1.0
  C  C32  1  0.91027000  0.67610000  0.27856000  1.0
  C  C33  1  0.08973000  0.17610000  0.77857000  1.0
  C  C34  1  0.92376000  0.63013000  0.32582000  1.0
  C  C35  1  0.07624000  0.13013000  0.82582000  1.0
  C  C36  1  0.76285000  0.62765000  0.36876000  1.0
  C  C37  1  0.23714000  0.12766000  0.86876000  1.0
  C  C38  1  0.59130000  0.67013000  0.36079000  1.0
  C  C39  1  0.40870000  0.17014000  0.86079000  1.0
  C  C40  1  0.57662000  0.71535000  0.31325000  1.0
  C  C41  1  0.42338000  0.21535000  0.81325000  1.0
  C  C42  1  0.73981000  0.71990000  0.27219000  1.0
  C  C43  1  0.26019000  0.21990000  0.77219000  1.0
  C  C44  1  0.83962000  0.84937000  0.23898000  1.0
  C  C45  1  0.16037000  0.34937000  0.73898000  1.0
  C  C46  1  0.84280000  0.89616000  0.19240000  1.0
  C  C47  1  0.15718000  0.39616000  0.69240000  1.0
  C  C48  1  0.73559000  0.86724000  0.12997000  1.0
  C  C49  1  0.26441000  0.36725000  0.62997000  1.0
  C  C50  1  0.62853000  0.78963000  0.11308000  1.0
  C  C51  1  0.37147000  0.28963000  0.61308000  1.0
  C  C52  1  0.63110000  0.74157000  0.15960000  1.0
  C  C53  1  0.36890000  0.24157000  0.65960000  1.0
  C  C54  1  0.73531000  0.77098000  0.22353000  1.0
  C  C55  1  0.26468000  0.27098000  0.72353000  1.0
  C  C56  1  0.59258000  0.80306000  0.78060000  1.0
  C  C57  1  0.40742000  0.30306000  0.28060000  1.0
  C  C58  1  0.74946000  0.81630000  0.82714000  1.0
  C  C59  1  0.25055000  0.31630000  0.32714000  1.0
  C  C60  1  0.90321000  0.75540000  0.80255000  1.0
  C  C61  1  0.09679000  0.25539000  0.30255000  1.0
  C  C62  1  0.90805000  0.69907000  0.73200000  1.0
  C  C63  1  0.09195000  0.19907000  0.23200000  1.0
  C  C64  1  0.75197000  0.68929000  0.68603000  1.0
  C  C65  1  0.24804000  0.18929000  0.18603000  1.0
  C  C66  1  0.58896000  0.73964000  0.71430000  1.0
  C  C67  1  0.41104000  0.23963000  0.21429000  1.0
  C  C68  1  0.37285000  0.73005000  0.71541000  1.0
  C  C69  1  0.62716000  0.23006000  0.21540000  1.0
  C  C70  1  0.37376000  0.81528000  0.78217000  1.0
  C  C71  1  0.62625000  0.31527000  0.28217000  1.0
  Cl  Cl72  1  0.34118000  0.63162000  0.74268000  1.0
  Cl  Cl73  1  0.65882000  0.13161000  0.24268000  1.0
  Cl  Cl74  1  0.28769000  0.90722000  0.76067000  1.0
  Cl  Cl75  1  0.71232000  0.40722000  0.26067000  1.0
  Cl  Cl76  1  0.14135000  0.57541000  0.32526000  1.0
  Cl  Cl77  1  0.85865000  0.07541000  0.82525000  1.0
  Cl  Cl78  1  0.96680000  0.89041000  0.31744000  1.0
  Cl  Cl79  1  0.03319000  0.39041000  0.81744000  1.0
  Cl  Cl80  1  0.50533000  0.75001000  0.03428000  1.0
  Cl  Cl81  1  0.49468000  0.25002000  0.53429000  1.0
  Cl  Cl82  1  0.51025000  0.64375000  0.13770000  1.0
  Cl  Cl83  1  0.48976000  0.14376000  0.63771000  1.0
  O  O84  1  0.42432000  0.44384000  0.56486000  1.0
  O  O85  1  0.57568000  0.94384000  0.06485000  1.0
  O  O86  1  0.09007000  0.41096000  0.42607000  1.0
  O  O87  1  0.90994000  0.91096000  0.92607000  1.0
  O  O88  1  0.92268000  0.56930000  0.44777000  1.0
  O  O89  1  0.07732000  0.06930000  0.94777000  1.0
  O  O90  1  0.09249000  0.44199000  0.56667000  1.0
  O  O91  1  0.90752000  0.94199000  0.06667000  1.0
  O  O92  1  0.92441000  0.59544000  0.58973000  1.0
  O  O93  1  0.07560000  0.09544000  0.08973000  1.0
  O  O94  1  0.42301000  0.41084000  0.42284000  1.0
  O  O95  1  0.57699000  0.91085000  0.92284000  1.0
  O  O96  1  0.25650000  0.55772000  0.51152000  1.0
  O  O97  1  0.74350000  0.05772000  0.01152000  1.0
  O  O98  1  0.59178000  0.60061000  0.58467000  1.0
  O  O99  1  0.40821000  0.10061000  0.08467000  1.0
  O  O100  1  0.59187000  0.56622000  0.44234000  1.0
  O  O101  1  0.40812000  0.06623000  0.94234000  1.0
  O  O102  1  0.75618000  0.45352000  0.49851000  1.0
  O  O103  1  0.24382000  0.95352000  0.99851000  1.0
  O  O104  1  0.40997000  0.75699000  0.30533000  1.0
  O  O105  1  0.59001000  0.25699000  0.80533000  1.0
  O  O106  1  0.03957000  0.74807000  0.84909000  1.0
  O  O107  1  0.96045000  0.24806000  0.34909000  1.0
