# generated using pymatgen
data_Na2H8C4N8O3
_symmetry_space_group_name_H-M   'P 1'
_cell_length_a   7.72640000
_cell_length_b   8.89120000
_cell_length_c   8.89124000
_cell_angle_alpha   100.95400000
_cell_angle_beta   111.77000000
_cell_angle_gamma   111.76900000
_symmetry_Int_Tables_number   1
_chemical_formula_structural   Na2H8C4N8O3
_chemical_formula_sum   'Na4 H16 C8 N16 O6'
_cell_volume   487.31224025
_cell_formula_units_Z   2
loop_
 _symmetry_equiv_pos_site_id
 _symmetry_equiv_pos_as_xyz
  1  'x, y, z'
loop_
 _atom_site_type_symbol
 _atom_site_label
 _atom_site_symmetry_multiplicity
 _atom_site_fract_x
 _atom_site_fract_y
 _atom_site_fract_z
 _atom_site_occupancy
  Na  Na0  1  0.60092000  0.87716000  0.71984000  1.0
  Na  Na1  1  0.89908000  0.28016000  0.12284000  1.0
  Na  Na2  1  0.39908000  0.12284000  0.28016000  1.0
  Na  Na3  1  0.10092000  0.71984000  0.87716000  1.0
  H  H4  1  0.63769000  0.91009000  0.05865000  1.0
  H  H5  1  0.86231000  0.94135000  0.08990000  1.0
  H  H6  1  0.36231000  0.08990000  0.94134000  1.0
  H  H7  1  0.13769000  0.05865000  0.91010000  1.0
  H  H8  1  0.16244000  0.66666667  0.55152000  1.0
  H  H9  1  0.33756000  0.44848000  0.33333333  1.0
  H  H10  1  0.83756000  0.33333333  0.44848000  1.0
  H  H11  1  0.66244000  0.55152000  0.66666667  1.0
  H  H12  1  0.18706000  0.54799000  0.65602000  1.0
  H  H13  1  0.31294000  0.34398000  0.45201000  1.0
  H  H14  1  0.81294000  0.45201000  0.34397000  1.0
  H  H15  1  0.68706000  0.65602000  0.54799000  1.0
  H  H16  1  0.51706000  0.60209000  0.87935000  1.0
  H  H17  1  0.98295000  0.12066000  0.39791000  1.0
  H  H18  1  0.48294000  0.39790000  0.12065000  1.0
  H  H19  1  0.01705000  0.87935000  0.60209000  1.0
  C  C20  1  0.50773000  0.35281000  0.81878000  1.0
  C  C21  1  0.99227000  0.18123000  0.64720000  1.0
  C  C22  1  0.49227000  0.64719000  0.18122000  1.0
  C  C23  1  0.00774000  0.81878000  0.35281000  1.0
  C  C24  1  0.50661000  0.49587000  0.92602000  1.0
  C  C25  1  0.99339000  0.07398000  0.50413000  1.0
  C  C26  1  0.49339000  0.50412000  0.07398000  1.0
  C  C27  1  0.00661000  0.92603000  0.49587000  1.0
  N  N28  1  0.51514000  0.21249000  0.85185000  1.0
  N  N29  1  0.98486000  0.14815000  0.78751000  1.0
  N  N30  1  0.48486000  0.78751000  0.14815000  1.0
  N  N31  1  0.01514000  0.85186000  0.21249000  1.0
  N  N32  1  0.50917000  0.11561000  0.71141000  1.0
  N  N33  1  0.99083000  0.28859000  0.88439000  1.0
  N  N34  1  0.49083000  0.88439000  0.28859000  1.0
  N  N35  1  0.00917000  0.71141000  0.11561000  1.0
  N  N36  1  0.49900000  0.34270000  0.66226000  1.0
  N  N37  1  0.00100000  0.33774000  0.65730000  1.0
  N  N38  1  0.50100000  0.65730000  0.33774000  1.0
  N  N39  1  0.99900000  0.66226000  0.34270000  1.0
  N  N40  1  0.50060000  0.19336000  0.59892000  1.0
  N  N41  1  0.99940000  0.40108000  0.80664000  1.0
  N  N42  1  0.49940000  0.80664000  0.40108000  1.0
  N  N43  1  0.00060000  0.59892000  0.19336000  1.0
  O  O44  1  0.75000000  0.97135000  0.02864000  1.0
  O  O45  1  0.25000000  0.02865000  0.97135000  1.0
  O  O46  1  0.25157000  0.67218000  0.66940000  1.0
  O  O47  1  0.24844000  0.33060000  0.32782000  1.0
  O  O48  1  0.74843000  0.32782000  0.33060000  1.0
  O  O49  1  0.75157000  0.66940000  0.67218000  1.0
