# generated using pymatgen
data_ZnSiH16C20(N4F3)2
_symmetry_space_group_name_H-M   'P 1'
_cell_length_a   7.79631000
_cell_length_b   13.36520000
_cell_length_c   13.36520000
_cell_angle_alpha   89.67990000
_cell_angle_beta   85.79860000
_cell_angle_gamma   85.79850000
_symmetry_Int_Tables_number   1
_chemical_formula_structural   ZnSiH16C20(N4F3)2
_chemical_formula_sum   'Zn1 Si1 H16 C20 N8 F6'
_cell_volume   1385.16862256
_cell_formula_units_Z   1
loop_
 _symmetry_equiv_pos_site_id
 _symmetry_equiv_pos_as_xyz
  1  'x, y, z'
loop_
 _atom_site_type_symbol
 _atom_site_label
 _atom_site_symmetry_multiplicity
 _atom_site_fract_x
 _atom_site_fract_y
 _atom_site_fract_z
 _atom_site_occupancy
  Zn  Zn0  1  0.50000000  0.50000000  0.50000000  1.0
  Si  Si1  1  0.00000000  0.50000000  0.50000000  1.0
  H  H2  1  0.25475000  0.50006000  0.33154000  1.0
  H  H3  1  0.26452000  0.50000000  0.14396000  1.0
  H  H4  1  0.81820000  0.50002000  0.14039000  1.0
  H  H5  1  0.78830000  0.50006000  0.32895000  1.0
  H  H6  1  0.18180000  0.49998000  0.85961000  1.0
  H  H7  1  0.73548000  0.50000000  0.85604000  1.0
  H  H8  1  0.74525000  0.49994000  0.66846000  1.0
  H  H9  1  0.21170000  0.49994000  0.67105000  1.0
  H  H10  1  0.25475000  0.33154000  0.50006000  1.0
  H  H11  1  0.26451000  0.14396000  0.50000000  1.0
  H  H12  1  0.81820000  0.14039000  0.50003000  1.0
  H  H13  1  0.78830000  0.32895000  0.50006000  1.0
  H  H14  1  0.18180000  0.85961000  0.49998000  1.0
  H  H15  1  0.73548000  0.85604000  0.50000000  1.0
  H  H16  1  0.74525000  0.66846000  0.49994000  1.0
  H  H17  1  0.21170000  0.67105000  0.49994000  1.0
  C  C18  1  0.37703000  0.50003000  0.28666000  1.0
  C  C19  1  0.38239000  0.49998000  0.18275000  1.0
  C  C20  1  0.54323000  0.49997000  0.12845000  1.0
  C  C21  1  0.69186000  0.50002000  0.18105000  1.0
  C  C22  1  0.67554000  0.50004000  0.28548000  1.0
  C  C23  1  0.30814000  0.49998000  0.81895000  1.0
  C  C24  1  0.45677000  0.50003000  0.87155000  1.0
  C  C25  1  0.61762000  0.50002000  0.81725000  1.0
  C  C26  1  0.62297000  0.49997000  0.71334000  1.0
  C  C27  1  0.32446000  0.49996000  0.71452000  1.0
  C  C28  1  0.37703000  0.28666000  0.50003000  1.0
  C  C29  1  0.38238000  0.18275000  0.49998000  1.0
  C  C30  1  0.54323000  0.12844000  0.49997000  1.0
  C  C31  1  0.69186000  0.18105000  0.50002000  1.0
  C  C32  1  0.67554000  0.28548000  0.50004000  1.0
  C  C33  1  0.30814000  0.81895000  0.49998000  1.0
  C  C34  1  0.45676000  0.87156000  0.50003000  1.0
  C  C35  1  0.61762000  0.81725000  0.50002000  1.0
  C  C36  1  0.62297000  0.71334000  0.49996000  1.0
  C  C37  1  0.32446000  0.71452000  0.49996000  1.0
  N  N38  1  0.52080000  0.50003000  0.33746000  1.0
  N  N39  1  0.56887000  0.49996000  0.02219000  1.0
  N  N40  1  0.43113000  0.50004000  0.97781000  1.0
  N  N41  1  0.47920000  0.49997000  0.66254000  1.0
  N  N42  1  0.52079000  0.33746000  0.50003000  1.0
  N  N43  1  0.56886000  0.02219000  0.49996000  1.0
  N  N44  1  0.43113000  0.97781000  0.50004000  1.0
  N  N45  1  0.47920000  0.66254000  0.49997000  1.0
  F  F46  1  0.22628000  0.50066000  0.50066000  1.0
  F  F47  1  0.77372000  0.49933000  0.49934000  1.0
  F  F48  1  0.00000000  0.59018000  0.40981000  1.0
  F  F49  1  0.00000000  0.40982000  0.59019000  1.0
  F  F50  1  0.02400000  0.40983000  0.40984000  1.0
  F  F51  1  0.97600000  0.59016000  0.59016000  1.0
