# generated using pymatgen
data_Al2H9C16S2NO12
_symmetry_space_group_name_H-M   'P 1'
_cell_length_a   6.70964000
_cell_length_b   11.09511708
_cell_length_c   12.70264739
_cell_angle_alpha   75.50996601
_cell_angle_beta   74.97023085
_cell_angle_gamma   73.56585126
_symmetry_Int_Tables_number   1
_chemical_formula_structural   Al2H9C16S2NO12
_chemical_formula_sum   'Al2 H9 C16 S2 N1 O12'
_cell_volume   859.86647061
_cell_formula_units_Z   1
loop_
 _symmetry_equiv_pos_site_id
 _symmetry_equiv_pos_as_xyz
  1  'x, y, z'
loop_
 _atom_site_type_symbol
 _atom_site_label
 _atom_site_symmetry_multiplicity
 _atom_site_fract_x
 _atom_site_fract_y
 _atom_site_fract_z
 _atom_site_occupancy
  Al  Al0  1  0.50078000  0.50031000  0.49896000  1.0
  Al  Al1  1  0.00274000  0.50265000  0.49599000  1.0
  H  H2  1  0.23525000  0.39316000  0.62546000  1.0
  H  H3  1  0.73170000  0.64414000  0.39350000  1.0
  H  H4  1  0.38589000  0.89291000  0.47907000  1.0
  H  H5  1  0.61982000  0.11035000  0.52185000  1.0
  H  H6  1  0.25699000  0.55874000  0.83904000  1.0
  H  H7  1  0.23941000  0.22607000  0.46883000  1.0
  H  H8  1  0.76818000  0.77687000  0.53347000  1.0
  H  H9  1  0.93657000  0.42960000  0.11534000  1.0
  H  H10  1  0.77450000  0.44644000  0.24410000  1.0
  C  C11  1  0.65590000  0.48687000  0.69578000  1.0
  C  C12  1  0.86650000  0.27335000  0.49604000  1.0
  C  C13  1  0.34798000  0.51803000  0.29929000  1.0
  C  C14  1  0.13894000  0.73040000  0.50144000  1.0
  C  C15  1  0.93841000  0.13437000  0.49754000  1.0
  C  C16  1  0.06742000  0.86887000  0.50274000  1.0
  C  C17  1  0.15813000  0.07178000  0.48438000  1.0
  C  C18  1  0.84755000  0.93142000  0.51700000  1.0
  C  C19  1  0.21828000  0.94012000  0.48743000  1.0
  C  C20  1  0.78739000  0.06306000  0.51355000  1.0
  C  C21  1  0.61432000  0.47820000  0.12146000  1.0
  C  C22  1  0.39745000  0.53121000  0.87514000  1.0
  C  C23  1  0.40672000  0.51634000  0.18227000  1.0
  C  C24  1  0.59997000  0.49373000  0.81406000  1.0
  C  C25  1  0.40237000  0.52813000  0.98608000  1.0
  C  C26  1  0.60819000  0.48654000  0.00827000  1.0
  S  S27  1  0.21173000  0.56099000  0.10233000  1.0
  S  S28  1  0.79666000  0.45437000  0.89136000  1.0
  N  N29  1  0.79098000  0.43425000  0.16526000  1.0
  O  O30  1  0.50154000  0.50026000  0.64934000  1.0
  O  O31  1  0.01339000  0.33493000  0.47874000  1.0
  O  O32  1  0.15027000  0.53926000  0.34585000  1.0
  O  O33  1  0.33573000  0.67684000  0.48561000  1.0
  O  O34  1  0.50063000  0.49784000  0.35040000  1.0
  O  O35  1  0.99105000  0.67033000  0.51533000  1.0
  O  O36  1  0.85265000  0.46802000  0.64922000  1.0
  O  O37  1  0.66963000  0.32625000  0.51230000  1.0
  O  O38  1  0.25583000  0.43663000  0.54845000  1.0
  O  O39  1  0.74478000  0.56595000  0.44885000  1.0
  O  O40  1  0.31314000  0.13445000  0.46858000  1.0
  O  O41  1  0.69243000  0.86820000  0.53421000  1.0
