# generated using pymatgen
data_CoH8C6(N2O)4
_symmetry_space_group_name_H-M   'P 1'
_cell_length_a   5.42152000
_cell_length_b   7.76032528
_cell_length_c   7.76810000
_cell_angle_alpha   60.09080816
_cell_angle_beta   78.73900000
_cell_angle_gamma   71.61269895
_symmetry_Int_Tables_number   1
_chemical_formula_structural   CoH8C6(N2O)4
_chemical_formula_sum   'Co1 H8 C6 N8 O4'
_cell_volume   268.54732875
_cell_formula_units_Z   1
loop_
 _symmetry_equiv_pos_site_id
 _symmetry_equiv_pos_as_xyz
  1  'x, y, z'
loop_
 _atom_site_type_symbol
 _atom_site_label
 _atom_site_symmetry_multiplicity
 _atom_site_fract_x
 _atom_site_fract_y
 _atom_site_fract_z
 _atom_site_occupancy
  Co  Co0  1  0.00000000  0.00000000  0.00000000  1.0
  H  H1  1  0.57478000  0.70235000  0.57321000  1.0
  H  H2  1  0.42521000  0.29766000  0.42678000  1.0
  H  H3  1  0.79033000  0.80595000  0.79212000  1.0
  H  H4  1  0.20968000  0.19404000  0.20789000  1.0
  H  H5  1  0.16633000  0.68422000  0.41857000  1.0
  H  H6  1  0.83368000  0.31578000  0.58142000  1.0
  H  H7  1  0.15928000  0.47397000  0.64220000  1.0
  H  H8  1  0.84072000  0.52602000  0.35781000  1.0
  C  C9  1  0.48760000  0.10707000  0.90887000  1.0
  C  C10  1  0.51241000  0.89293000  0.09113000  1.0
  C  C11  1  0.39965000  0.74737000  0.65279000  1.0
  C  C12  1  0.60037000  0.25261000  0.34721000  1.0
  C  C13  1  0.99629000  0.80146000  0.76614000  1.0
  C  C14  1  0.00367000  0.19853000  0.23387000  1.0
  N  N15  1  0.12925000  0.87166000  0.83291000  1.0
  N  N16  1  0.87075000  0.12834000  0.16710000  1.0
  N  N17  1  0.38385000  0.83845000  0.76123000  1.0
  N  N18  1  0.61615000  0.16156000  0.23877000  1.0
  N  N19  1  0.16087000  0.72235000  0.65204000  1.0
  N  N20  1  0.83914000  0.27765000  0.34794000  1.0
  N  N21  1  0.08467000  0.63113000  0.56108000  1.0
  N  N22  1  0.91533000  0.36886000  0.43893000  1.0
  O  O23  1  0.26666000  0.20755000  0.83833000  1.0
  O  O24  1  0.73333000  0.79246000  0.16166000  1.0
  O  O25  1  0.30378000  0.83166000  0.15874000  1.0
  O  O26  1  0.69620000  0.16834000  0.84127000  1.0
