# generated using pymatgen
data_Cd2H14C6NCl5O
_symmetry_space_group_name_H-M   'P 1'
_cell_length_a   6.69497000
_cell_length_b   9.60751000
_cell_length_c   11.38340000
_cell_angle_alpha   103.94630000
_cell_angle_beta   90.25430000
_cell_angle_gamma   90.63820000
_symmetry_Int_Tables_number   1
_chemical_formula_structural   Cd2H14C6NCl5O
_chemical_formula_sum   'Cd4 H28 C12 N2 Cl10 O2'
_cell_volume   710.55588225
_cell_formula_units_Z   2
loop_
 _symmetry_equiv_pos_site_id
 _symmetry_equiv_pos_as_xyz
  1  'x, y, z'
loop_
 _atom_site_type_symbol
 _atom_site_label
 _atom_site_symmetry_multiplicity
 _atom_site_fract_x
 _atom_site_fract_y
 _atom_site_fract_z
 _atom_site_occupancy
  Cd  Cd0  1  0.25674000  0.23311000  0.24065000  1.0
  Cd  Cd1  1  0.74326000  0.76688000  0.75934000  1.0
  Cd  Cd2  1  0.75441000  0.07580000  0.08221000  1.0
  Cd  Cd3  1  0.24559000  0.92420000  0.91779000  1.0
  H  H4  1  0.29508000  0.48699000  0.11380000  1.0
  H  H5  1  0.70493000  0.51301000  0.88620000  1.0
  H  H6  1  0.18391000  0.64118000  0.08515000  1.0
  H  H7  1  0.81610000  0.35882000  0.91485000  1.0
  H  H8  1  0.34866000  0.61578000  0.33319000  1.0
  H  H9  1  0.65134000  0.38423000  0.66682000  1.0
  H  H10  1  0.45723000  0.71364000  0.23384000  1.0
  H  H11  1  0.54277000  0.28637000  0.76616000  1.0
  H  H12  1  0.91721000  0.85290000  0.40390000  1.0
  H  H13  1  0.08279000  0.14709000  0.59610000  1.0
  H  H14  1  0.03175000  0.69857000  0.43383000  1.0
  H  H15  1  0.96825000  0.30143000  0.56617000  1.0
  H  H16  1  0.83510000  0.72528000  0.19422000  1.0
  H  H17  1  0.16489000  0.27472000  0.80578000  1.0
  H  H18  1  0.74460000  0.62435000  0.29522000  1.0
  H  H19  1  0.25540000  0.37565000  0.70478000  1.0
  H  H20  1  0.21784000  0.99858000  0.44872000  1.0
  H  H21  1  0.78215000  0.00142000  0.55128000  1.0
  H  H22  1  0.44686000  0.93088000  0.38015000  1.0
  H  H23  1  0.55312000  0.06913000  0.61984000  1.0
  H  H24  1  0.33711000  0.84934000  0.49154000  1.0
  H  H25  1  0.66288000  0.15067000  0.50846000  1.0
  H  H26  1  0.89517000  0.39423000  0.27735000  1.0
  H  H27  1  0.10483000  0.60577000  0.72264000  1.0
  H  H28  1  0.16407000  0.85682000  0.25462000  1.0
  H  H29  1  0.83592000  0.14318000  0.74537000  1.0
  H  H30  1  0.91759000  0.47774000  0.10764000  1.0
  H  H31  1  0.08242000  0.52226000  0.89236000  1.0
  C  C32  1  0.99975000  0.53333000  0.18964000  1.0
  C  C33  1  0.00025000  0.46667000  0.81037000  1.0
  C  C34  1  0.20413000  0.58030000  0.15475000  1.0
  C  C35  1  0.79587000  0.41970000  0.84525000  1.0
  C  C36  1  0.31695000  0.67243000  0.26215000  1.0
  C  C37  1  0.68305000  0.32757000  0.73786000  1.0
  C  C38  1  0.99814000  0.75497000  0.36318000  1.0
  C  C39  1  0.00187000  0.24503000  0.63682000  1.0
  C  C40  1  0.88062000  0.66171000  0.25822000  1.0
  C  C41  1  0.11938000  0.33829000  0.74178000  1.0
  C  C42  1  0.30697000  0.90206000  0.41824000  1.0
  C  C43  1  0.69303000  0.09795000  0.58176000  1.0
  N  N44  1  0.19451000  0.80093000  0.31999000  1.0
  N  N45  1  0.80549000  0.19907000  0.68001000  1.0
  Cl  Cl46  1  0.41182000  0.96272000  0.13963000  1.0
  Cl  Cl47  1  0.58818000  0.03728000  0.86037000  1.0
  Cl  Cl48  1  0.58418000  0.32264000  0.14771000  1.0
  Cl  Cl49  1  0.41582000  0.67736000  0.85229000  1.0
  Cl  Cl50  1  0.09207000  0.18381000  0.01096000  1.0
  Cl  Cl51  1  0.90793000  0.81619000  0.98904000  1.0
  Cl  Cl52  1  0.37422000  0.30381000  0.45054000  1.0
  Cl  Cl53  1  0.62578000  0.69619000  0.54946000  1.0
  Cl  Cl54  1  0.93164000  0.08837000  0.28597000  1.0
  Cl  Cl55  1  0.06836000  0.91163000  0.71403000  1.0
  O  O56  1  0.02770000  0.43387000  0.26620000  1.0
  O  O57  1  0.97231000  0.56613000  0.73380000  1.0
