# generated using pymatgen
data_HgH8C7(IN2)2
_symmetry_space_group_name_H-M   'P 1'
_cell_length_a   8.16927000
_cell_length_b   8.94592847
_cell_length_c   9.44840000
_cell_angle_alpha   89.99753651
_cell_angle_beta   89.99830000
_cell_angle_gamma   63.70304056
_symmetry_Int_Tables_number   1
_chemical_formula_structural   HgH8C7(IN2)2
_chemical_formula_sum   'Hg2 H16 C14 I4 N8'
_cell_volume   619.04476024
_cell_formula_units_Z   2
loop_
 _symmetry_equiv_pos_site_id
 _symmetry_equiv_pos_as_xyz
  1  'x, y, z'
loop_
 _atom_site_type_symbol
 _atom_site_label
 _atom_site_symmetry_multiplicity
 _atom_site_fract_x
 _atom_site_fract_y
 _atom_site_fract_z
 _atom_site_occupancy
  Hg  Hg0  1  0.01351000  0.11417000  0.25001000  1.0
  Hg  Hg1  1  0.98648000  0.88585000  0.74999000  1.0
  H  H2  1  0.56158000  0.11041000  0.75000000  1.0
  H  H3  1  0.43844000  0.88958000  0.25000000  1.0
  H  H4  1  0.48385000  0.95149000  0.75000000  1.0
  H  H5  1  0.51615000  0.04851000  0.24999000  1.0
  H  H6  1  0.27201000  0.95881000  0.55459000  1.0
  H  H7  1  0.72800000  0.04120000  0.05460000  1.0
  H  H8  1  0.72798000  0.04121000  0.44540000  1.0
  H  H9  1  0.27199000  0.95880000  0.94539000  1.0
  H  H10  1  0.13972000  0.43123000  0.37335000  1.0
  H  H11  1  0.86029000  0.56874000  0.87329000  1.0
  H  H12  1  0.86028000  0.56880000  0.62667000  1.0
  H  H13  1  0.13972000  0.43124000  0.12673000  1.0
  H  H14  1  0.34674000  0.39542000  0.61378000  1.0
  H  H15  1  0.65325000  0.60458000  0.11375000  1.0
  H  H16  1  0.65327000  0.60459000  0.38623000  1.0
  H  H17  1  0.34676000  0.39539000  0.88627000  1.0
  C  C18  1  0.44108000  0.08607000  0.75000000  1.0
  C  C19  1  0.55892000  0.91393000  0.25000000  1.0
  C  C20  1  0.26029000  0.08298000  0.53597000  1.0
  C  C21  1  0.73972000  0.91702000  0.03597000  1.0
  C  C22  1  0.73971000  0.91703000  0.46401000  1.0
  C  C23  1  0.26028000  0.08297000  0.96402000  1.0
  C  C24  1  0.19714000  0.32698000  0.44603000  1.0
  C  C25  1  0.80286000  0.67298000  0.94602000  1.0
  C  C26  1  0.80285000  0.67304000  0.55397000  1.0
  C  C27  1  0.19716000  0.32699000  0.05398000  1.0
  C  C28  1  0.29853000  0.31197000  0.56562000  1.0
  C  C29  1  0.70147000  0.68804000  0.06561000  1.0
  C  C30  1  0.70148000  0.68803000  0.43439000  1.0
  C  C31  1  0.29855000  0.31195000  0.93439000  1.0
  I  I32  1  0.64842000  0.31991000  0.25001000  1.0
  I  I33  1  0.35157000  0.68006000  0.74998000  1.0
  I  I34  1  0.17545000  0.76945000  0.25000000  1.0
  I  I35  1  0.82451000  0.23057000  0.75002000  1.0
  N  N36  1  0.17569000  0.18313000  0.42843000  1.0
  N  N37  1  0.82432000  0.81686000  0.92843000  1.0
  N  N38  1  0.82429000  0.81690000  0.57157000  1.0
  N  N39  1  0.17571000  0.18313000  0.07157000  1.0
  N  N40  1  0.33728000  0.15675000  0.62164000  1.0
  N  N41  1  0.66272000  0.84325000  0.12164000  1.0
  N  N42  1  0.66271000  0.84325000  0.37836000  1.0
  N  N43  1  0.33730000  0.15673000  0.87836000  1.0
