# generated using pymatgen
data_CdPH24C17(NO)9
_symmetry_space_group_name_H-M   'P 1'
_cell_length_a   8.34225000
_cell_length_b   14.10040000
_cell_length_c   14.83530000
_cell_angle_alpha   62.35490000
_cell_angle_beta   79.31190000
_cell_angle_gamma   78.69880000
_symmetry_Int_Tables_number   1
_chemical_formula_structural   CdPH24C17(NO)9
_chemical_formula_sum   'Cd2 P2 H48 C34 N18 O18'
_cell_volume   1506.86718831
_cell_formula_units_Z   2
loop_
 _symmetry_equiv_pos_site_id
 _symmetry_equiv_pos_as_xyz
  1  'x, y, z'
loop_
 _atom_site_type_symbol
 _atom_site_label
 _atom_site_symmetry_multiplicity
 _atom_site_fract_x
 _atom_site_fract_y
 _atom_site_fract_z
 _atom_site_occupancy
  Cd  Cd0  1  0.24773000  0.52996000  0.76444000  1.0
  Cd  Cd1  1  0.75227000  0.47004000  0.23556000  1.0
  P  P2  1  0.18717000  0.02627000  0.26091000  1.0
  P  P3  1  0.81283000  0.97373000  0.73909000  1.0
  H  H4  1  0.71894000  0.10205000  0.29464000  1.0
  H  H5  1  0.28106000  0.89795000  0.70535000  1.0
  H  H6  1  0.61884000  0.98377000  0.36667000  1.0
  H  H7  1  0.38116000  0.01623000  0.63333000  1.0
  H  H8  1  0.54745000  0.08588000  0.24932000  1.0
  H  H9  1  0.45256000  0.91412000  0.75068000  1.0
  H  H10  1  0.75726000  0.95115000  0.11380000  1.0
  H  H11  1  0.24275000  0.04884000  0.88620000  1.0
  H  H12  1  0.56616000  0.96157000  0.18957000  1.0
  H  H13  1  0.43384000  0.03843000  0.81043000  1.0
  H  H14  1  0.71813000  0.84748000  0.23942000  1.0
  H  H15  1  0.28188000  0.15252000  0.76058000  1.0
  H  H16  1  0.49890000  0.92477000  0.07346000  1.0
  H  H17  1  0.50111000  0.07523000  0.92654000  1.0
  H  H18  1  0.48373000  0.82605000  0.03329000  1.0
  H  H19  1  0.51627000  0.17395000  0.96670000  1.0
  H  H20  1  0.49142000  0.78785000  0.16548000  1.0
  H  H21  1  0.50857000  0.21215000  0.83451000  1.0
  H  H22  1  0.19450000  0.73166000  0.11599000  1.0
  H  H23  1  0.80550000  0.26834000  0.88401000  1.0
  H  H24  1  0.22874000  0.83542000  0.98942000  1.0
  H  H25  1  0.77125000  0.16459000  0.01058000  1.0
  H  H26  1  0.04860000  0.85100000  0.07125000  1.0
  H  H27  1  0.95140000  0.14901000  0.92874000  1.0
  H  H28  1  0.11905000  0.95399000  0.55640000  1.0
  H  H29  1  0.88095000  0.04602000  0.44360000  1.0
  H  H30  1  0.10161000  0.77314000  0.70400000  1.0
  H  H31  1  0.89839000  0.22686000  0.29601000  1.0
  H  H32  1  0.32211000  0.61796000  0.52393000  1.0
  H  H33  1  0.67790000  0.38204000  0.47608000  1.0
  H  H34  1  0.34595000  0.79178000  0.36841000  1.0
  H  H35  1  0.65405000  0.20821000  0.63160000  1.0
  H  H36  1  0.08660000  0.31253000  0.89482000  1.0
  H  H37  1  0.91341000  0.68747000  0.10517000  1.0
  H  H38  1  0.06950000  0.16306000  0.07108000  1.0
  H  H39  1  0.93049000  0.83694000  0.92892000  1.0
  H  H40  1  0.44589000  0.29197000  0.13305000  1.0
  H  H41  1  0.55410000  0.70803000  0.86695000  1.0
  H  H42  1  0.44649000  0.43564000  0.95354000  1.0
  H  H43  1  0.55351000  0.56436000  0.04646000  1.0
  H  H44  1  0.87770000  0.51129000  0.89553000  1.0
  H  H45  1  0.12230000  0.48871000  0.10447000  1.0
  H  H46  1  0.72906000  0.47983000  0.84318000  1.0
  H  H47  1  0.27094000  0.52018000  0.15682000  1.0
  H  H48  1  0.79545000  0.61129000  0.78024000  1.0
  H  H49  1  0.20455000  0.38871000  0.21976000  1.0
  H  H50  1  0.93080000  0.48894000  0.71021000  1.0
  H  H51  1  0.06920000  0.51106000  0.28979000  1.0
  C  C52  1  0.93351000  0.98736000  0.22477000  1.0
  C  C53  1  0.06649000  0.01264000  0.77523000  1.0
  C  C54  1  0.18660000  0.92506000  0.16017000  1.0
  C  C55  1  0.81340000  0.07494000  0.83983000  1.0
  C  C56  1  0.65750000  0.04386000  0.28873000  1.0
  C  C57  1  0.34251000  0.95614000  0.71127000  1.0
  C  C58  1  0.69854000  0.93536000  0.19108000  1.0
  C  C59  1  0.30146000  0.06464000  0.80892000  1.0
  C  C60  1  0.44492000  0.85169000  0.09414000  1.0
  C  C61  1  0.55508000  0.14831000  0.90586000  1.0
  C  C62  1  0.17912000  0.81970000  0.06819000  1.0
  C  C63  1  0.82088000  0.18030000  0.93181000  1.0
  C  C64  1  0.23414000  0.88633000  0.45098000  1.0
  C  C65  1  0.76586000  0.11367000  0.54903000  1.0
  C  C66  1  0.16402000  0.88160000  0.54572000  1.0
  C  C67  1  0.83598000  0.11840000  0.45429000  1.0
  C  C68  1  0.15534000  0.78062000  0.62851000  1.0
  C  C69  1  0.84467000  0.21938000  0.37149000  1.0
  C  C70  1  0.27764000  0.69395000  0.52828000  1.0
  C  C71  1  0.72237000  0.30605000  0.47172000  1.0
  C  C72  1  0.29106000  0.79146000  0.44098000  1.0
  C  C73  1  0.70895000  0.20854000  0.55903000  1.0
  C  C74  1  0.16557000  0.30381000  0.94973000  1.0
  C  C75  1  0.83442000  0.69619000  0.05027000  1.0
  C  C76  1  0.15717000  0.22005000  0.04825000  1.0
  C  C77  1  0.84282000  0.77995000  0.95175000  1.0
  C  C78  1  0.25627000  0.21683000  0.11603000  1.0
  C  C79  1  0.74372000  0.78317000  0.88397000  1.0
  C  C80  1  0.36435000  0.29346000  0.08279000  1.0
  C  C81  1  0.63565000  0.70654000  0.91721000  1.0
  C  C82  1  0.36494000  0.37361000  0.98282000  1.0
  C  C83  1  0.63506000  0.62639000  0.01719000  1.0
  C  C84  1  0.83356000  0.52463000  0.82506000  1.0
  C  C85  1  0.16644000  0.47537000  0.17494000  1.0
  N  N86  1  0.28374000  0.96204000  0.19893000  1.0
  N  N87  1  0.71626000  0.03797000  0.80107000  1.0
  N  N88  1  0.99241000  0.03380000  0.27319000  1.0
  N  N89  1  0.00759000  0.96619000  0.72682000  1.0
  N  N90  1  0.02121000  0.93586000  0.17097000  1.0
  N  N91  1  0.97878000  0.06414000  0.82902000  1.0
  N  N92  1  0.26640000  0.87264000  0.10462000  1.0
  N  N93  1  0.73360000  0.12736000  0.89538000  1.0
  N  N94  1  0.76800000  0.99378000  0.23066000  1.0
  N  N95  1  0.23200000  0.00622000  0.76934000  1.0
  N  N96  1  0.21222000  0.68814000  0.62057000  1.0
  N  N97  1  0.78778000  0.31186000  0.37944000  1.0
  N  N98  1  0.26571000  0.38009000  0.91744000  1.0
  N  N99  1  0.73429000  0.61991000  0.08256000  1.0
  N  N100  1  0.51800000  0.42595000  0.67983000  1.0
  N  N101  1  0.48199000  0.57405000  0.32017000  1.0
  N  N102  1  0.23553000  0.64891000  0.88314000  1.0
  N  N103  1  0.76447000  0.35109000  0.11686000  1.0
  O  O104  1  0.25189000  0.98719000  0.37055000  1.0
  O  O105  1  0.74812000  0.01281000  0.62945000  1.0
  O  O106  1  0.25289000  0.14250000  0.21741000  1.0
  O  O107  1  0.74711000  0.85751000  0.78259000  1.0
  O  O108  1  0.10305000  0.62367000  0.87234000  1.0
  O  O109  1  0.89696000  0.37633000  0.12766000  1.0
  O  O110  1  0.37053000  0.62645000  0.83449000  1.0
  O  O111  1  0.62947000  0.37355000  0.16551000  1.0
  O  O112  1  0.23443000  0.69347000  0.93864000  1.0
  O  O113  1  0.76556000  0.30653000  0.06136000  1.0
  O  O114  1  0.36755000  0.42301000  0.67228000  1.0
  O  O115  1  0.63245000  0.57700000  0.32771000  1.0
  O  O116  1  0.54403000  0.48639000  0.71754000  1.0
  O  O117  1  0.45596000  0.51361000  0.28246000  1.0
  O  O118  1  0.63357000  0.37138000  0.65213000  1.0
  O  O119  1  0.36641000  0.62861000  0.34787000  1.0
  O  O120  1  0.96991000  0.48563000  0.76963000  1.0
  O  O121  1  0.03010000  0.51438000  0.23037000  1.0
