# generated using pymatgen
data_ZnH19C20NO8
_symmetry_space_group_name_H-M   'P 1'
_cell_length_a   9.50096000
_cell_length_b   10.77410000
_cell_length_c   16.13760000
_cell_angle_alpha   87.71270000
_cell_angle_beta   88.78230000
_cell_angle_gamma   87.67950000
_symmetry_Int_Tables_number   1
_chemical_formula_structural   ZnH19C20NO8
_chemical_formula_sum   'Zn2 H38 C40 N2 O16'
_cell_volume   1648.92535394
_cell_formula_units_Z   2
loop_
 _symmetry_equiv_pos_site_id
 _symmetry_equiv_pos_as_xyz
  1  'x, y, z'
loop_
 _atom_site_type_symbol
 _atom_site_label
 _atom_site_symmetry_multiplicity
 _atom_site_fract_x
 _atom_site_fract_y
 _atom_site_fract_z
 _atom_site_occupancy
  Zn  Zn0  1  0.64656000  0.50021000  0.49470000  1.0
  Zn  Zn1  1  0.35347000  0.49980000  0.50529000  1.0
  H  H2  1  0.31125000  0.37678000  0.94780000  1.0
  H  H3  1  0.68874000  0.62321000  0.05220000  1.0
  H  H4  1  0.75656000  0.03384000  0.49304000  1.0
  H  H5  1  0.24345000  0.96616000  0.50695000  1.0
  H  H6  1  0.90178000  0.37393000  0.39542000  1.0
  H  H7  1  0.09824000  0.62606000  0.60458000  1.0
  H  H8  1  0.87764000  0.44778000  0.62994000  1.0
  H  H9  1  0.12239000  0.55221000  0.37005000  1.0
  H  H10  1  0.54100000  0.18309000  0.02388000  1.0
  H  H11  1  0.59524000  0.24075000  0.11993000  1.0
  H  H12  1  0.41344000  0.22858000  0.10040000  1.0
  H  H13  1  0.45901000  0.81691000  0.97611000  1.0
  H  H14  1  0.58656000  0.77141000  0.89959000  1.0
  H  H15  1  0.40477000  0.75924000  0.88007000  1.0
  H  H16  1  0.12519000  0.54924000  0.95516000  1.0
  H  H17  1  0.18144000  0.70608000  0.94453000  1.0
  H  H18  1  0.04997000  0.66577000  0.02111000  1.0
  H  H19  1  0.81857000  0.29392000  0.05547000  1.0
  H  H20  1  0.87480000  0.45076000  0.04483000  1.0
  H  H21  1  0.95003000  0.33424000  0.97888000  1.0
  H  H22  1  0.78090000  0.00217000  0.33692000  1.0
  H  H23  1  0.62611000  0.05170000  0.28114000  1.0
  H  H24  1  0.72342000  0.91157000  0.25407000  1.0
  H  H25  1  0.37392000  0.94829000  0.71885000  1.0
  H  H26  1  0.21912000  0.99781000  0.66307000  1.0
  H  H27  1  0.27659000  0.08841000  0.74593000  1.0
  H  H28  1  0.65360000  0.01856000  0.70805000  1.0
  H  H29  1  0.80150000  0.96919000  0.64462000  1.0
  H  H30  1  0.74554000  0.87236000  0.73114000  1.0
  H  H31  1  0.19853000  0.03080000  0.35537000  1.0
  H  H32  1  0.34643000  0.98144000  0.29195000  1.0
  H  H33  1  0.25448000  0.12762000  0.26884000  1.0
  H  H34  1  0.93285000  0.16565000  0.49185000  1.0
  H  H35  1  0.91026000  0.20136000  0.59847000  1.0
  H  H36  1  0.04562000  0.08920000  0.56834000  1.0
  H  H37  1  0.08977000  0.79865000  0.40154000  1.0
  H  H38  1  0.06713000  0.83437000  0.50816000  1.0
  H  H39  1  0.95436000  0.91079000  0.43166000  1.0
  C  C40  1  0.54139000  0.25972000  0.50118000  1.0
  C  C41  1  0.45864000  0.74028000  0.49881000  1.0
  C  C42  1  0.55605000  0.95162000  0.42965000  1.0
  C  C43  1  0.44395000  0.04838000  0.57034000  1.0
  C  C44  1  0.47330000  0.87724000  0.49939000  1.0
  C  C45  1  0.52671000  0.12276000  0.50059000  1.0
  C  C46  1  0.56287000  0.93996000  0.56576000  1.0
  C  C47  1  0.43714000  0.06005000  0.43423000  1.0
  C  C48  1  0.03670000  0.38251000  0.51980000  1.0
  C  C49  1  0.96331000  0.61747000  0.48020000  1.0
  C  C50  1  0.95295000  0.42815000  0.44102000  1.0
  C  C51  1  0.04708000  0.57184000  0.55898000  1.0
  C  C52  1  0.93975000  0.46949000  0.57390000  1.0
  C  C53  1  0.06028000  0.53049000  0.42610000  1.0
  C  C54  1  0.50581000  0.49670000  0.66251000  1.0
  C  C55  1  0.49425000  0.50334000  0.33749000  1.0
  C  C56  1  0.50931000  0.38056000  0.03351000  1.0
  C  C57  1  0.49069000  0.61944000  0.96648000  1.0
  C  C58  1  0.39411000  0.43213000  0.97201000  1.0
  C  C59  1  0.60588000  0.56787000  0.02798000  1.0
  C  C60  1  0.51112000  0.49620000  0.75196000  1.0
  C  C61  1  0.48891000  0.50382000  0.24804000  1.0
  C  C62  1  0.62601000  0.44645000  0.97742000  1.0
  C  C63  1  0.37399000  0.55355000  0.02258000  1.0
  C  C64  1  0.50925000  0.49610000  0.91499000  1.0
  C  C65  1  0.49076000  0.50390000  0.08501000  1.0
  C  C66  1  0.51375000  0.49511000  0.82747000  1.0
  C  C67  1  0.48627000  0.50489000  0.17254000  1.0
  C  C68  1  0.64387000  0.01739000  0.49608000  1.0
  C  C69  1  0.35614000  0.98261000  0.50391000  1.0
  C  C70  1  0.51557000  0.25139000  0.07143000  1.0
  C  C71  1  0.48443000  0.74860000  0.92856000  1.0
  C  C72  1  0.14660000  0.63299000  0.98915000  1.0
  C  C73  1  0.85340000  0.36701000  0.01084000  1.0
  C  C74  1  0.68807000  0.96984000  0.30523000  1.0
  C  C75  1  0.31194000  0.03015000  0.69476000  1.0
  C  C76  1  0.70948000  0.93737000  0.68131000  1.0
  C  C77  1  0.29053000  0.06262000  0.31868000  1.0
  C  C78  1  0.98856000  0.17600000  0.55014000  1.0
  C  C79  1  0.01144000  0.82399000  0.44986000  1.0
  N  N80  1  0.85940000  0.51351000  0.49535000  1.0
  N  N81  1  0.14062000  0.48647000  0.50465000  1.0
  O  O82  1  0.66347000  0.30448000  0.49784000  1.0
  O  O83  1  0.33652000  0.69554000  0.50215000  1.0
  O  O84  1  0.42436000  0.32093000  0.50478000  1.0
  O  O85  1  0.57564000  0.67907000  0.49522000  1.0
  O  O86  1  0.62324000  0.48544000  0.62348000  1.0
  O  O87  1  0.37679000  0.51458000  0.37652000  1.0
  O  O88  1  0.38375000  0.50823000  0.63120000  1.0
  O  O89  1  0.61630000  0.49180000  0.36879000  1.0
  O  O90  1  0.24867000  0.60592000  0.05215000  1.0
  O  O91  1  0.75133000  0.39408000  0.94784000  1.0
  O  O92  1  0.60550000  0.89275000  0.35982000  1.0
  O  O93  1  0.39450000  0.10724000  0.64018000  1.0
  O  O94  1  0.61894000  0.86964000  0.63137000  1.0
  O  O95  1  0.38107000  0.13036000  0.36861000  1.0
  O  O96  1  0.09363000  0.26812000  0.53961000  1.0
  O  O97  1  0.90637000  0.73186000  0.46038000  1.0
