# generated using pymatgen
data_KZnFePH27C25S(BrO)3
_symmetry_space_group_name_H-M   'P 1'
_cell_length_a   8.77913000
_cell_length_b   9.28380000
_cell_length_c   18.24630000
_cell_angle_alpha   88.44080000
_cell_angle_beta   80.25300000
_cell_angle_gamma   85.66850000
_symmetry_Int_Tables_number   1
_chemical_formula_structural   KZnFePH27C25S(BrO)3
_chemical_formula_sum   'K2 Zn2 Fe2 P2 H54 C50 S2 Br6 O6'
_cell_volume   1461.33001439
_cell_formula_units_Z   2
loop_
 _symmetry_equiv_pos_site_id
 _symmetry_equiv_pos_as_xyz
  1  'x, y, z'
loop_
 _atom_site_type_symbol
 _atom_site_label
 _atom_site_symmetry_multiplicity
 _atom_site_fract_x
 _atom_site_fract_y
 _atom_site_fract_z
 _atom_site_occupancy
  K  K0  1  0.22852000  0.41471000  0.96206000  1.0
  K  K1  1  0.77148000  0.58527000  0.03793000  1.0
  Zn  Zn2  1  0.19309000  0.32564000  0.75645000  1.0
  Zn  Zn3  1  0.80691000  0.67436000  0.24355000  1.0
  Fe  Fe4  1  0.64115000  0.02528000  0.72465000  1.0
  Fe  Fe5  1  0.35885000  0.97473000  0.27534000  1.0
  P  P6  1  0.32339000  0.19050000  0.65095000  1.0
  P  P7  1  0.67661000  0.80950000  0.34905000  1.0
  H  H8  1  0.89417000  0.98595000  0.79813000  1.0
  H  H9  1  0.10583000  0.01405000  0.20187000  1.0
  H  H10  1  0.77028000  0.74798000  0.75538000  1.0
  H  H11  1  0.22972000  0.25202000  0.24462000  1.0
  H  H12  1  0.45909000  0.79599000  0.78186000  1.0
  H  H13  1  0.54091000  0.20401000  0.21814000  1.0
  H  H14  1  0.38908000  0.06416000  0.84143000  1.0
  H  H15  1  0.61092000  0.93584000  0.15857000  1.0
  H  H16  1  0.62291000  0.32235000  0.69410000  1.0
  H  H17  1  0.37708000  0.67765000  0.30590000  1.0
  H  H18  1  0.89922000  0.16825000  0.65857000  1.0
  H  H19  1  0.10078000  0.83174000  0.34143000  1.0
  H  H20  1  0.84745000  0.91222000  0.60289000  1.0
  H  H21  1  0.15254000  0.08778000  0.39711000  1.0
  H  H22  1  0.53923000  0.90859000  0.60227000  1.0
  H  H23  1  0.46076000  0.09142000  0.39773000  1.0
  H  H24  1  0.58560000  0.30310000  0.84179000  1.0
  H  H25  1  0.41439000  0.69690000  0.15822000  1.0
  H  H26  1  0.78573000  0.25002000  0.84344000  1.0
  H  H27  1  0.21427000  0.74998000  0.15656000  1.0
  H  H28  1  0.57490000  0.25096000  0.52691000  1.0
  H  H29  1  0.42510000  0.74903000  0.47309000  1.0
  H  H30  1  0.57411000  0.36402000  0.40257000  1.0
  H  H31  1  0.42590000  0.63596000  0.59743000  1.0
  H  H32  1  0.32469000  0.45844000  0.36511000  1.0
  H  H33  1  0.67532000  0.54155000  0.63489000  1.0
  H  H34  1  0.07950000  0.44943000  0.45450000  1.0
  H  H35  1  0.92050000  0.55057000  0.54550000  1.0
  H  H36  1  0.07931000  0.34116000  0.58100000  1.0
  H  H37  1  0.92070000  0.65884000  0.41900000  1.0
  H  H38  1  0.23319000  0.05408000  0.52092000  1.0
  H  H39  1  0.76681000  0.94592000  0.47908000  1.0
  H  H40  1  0.12786000  0.81950000  0.50576000  1.0
  H  H41  1  0.87214000  0.18049000  0.49424000  1.0
  H  H42  1  0.07395000  0.65112000  0.61589000  1.0
  H  H43  1  0.92605000  0.34888000  0.38411000  1.0
  H  H44  1  0.12219000  0.72138000  0.73807000  1.0
  H  H45  1  0.87781000  0.27861000  0.26193000  1.0
  H  H46  1  0.22230000  0.96111000  0.75465000  1.0
  H  H47  1  0.77771000  0.03889000  0.24535000  1.0
  H  H48  1  0.84928000  0.07704000  0.96733000  1.0
  H  H49  1  0.15073000  0.92297000  0.03267000  1.0
  H  H50  1  0.67668000  0.97635000  0.97857000  1.0
  H  H51  1  0.32332000  0.02364000  0.02143000  1.0
  H  H52  1  0.71112000  0.08487000  0.05317000  1.0
  H  H53  1  0.28888000  0.91513000  0.94683000  1.0
  H  H54  1  0.96444000  0.54146000  0.86009000  1.0
  H  H55  1  0.03556000  0.45854000  0.13991000  1.0
  H  H56  1  0.93237000  0.79499000  0.88276000  1.0
  H  H57  1  0.06764000  0.20501000  0.11724000  1.0
  H  H58  1  0.13247000  0.73057000  0.85824000  1.0
  H  H59  1  0.86753000  0.26944000  0.14176000  1.0
  H  H60  1  0.04878000  0.75549000  0.95344000  1.0
  H  H61  1  0.95122000  0.24452000  0.04656000  1.0
  C  C62  1  0.64697000  0.07237000  0.83163000  1.0
  C  C63  1  0.35302000  0.92763000  0.16837000  1.0
  C  C64  1  0.77182000  0.96824000  0.80366000  1.0
  C  C65  1  0.22818000  0.03177000  0.19634000  1.0
  C  C66  1  0.70609000  0.84380000  0.78074000  1.0
  C  C67  1  0.29391000  0.15621000  0.21925000  1.0
  C  C68  1  0.54091000  0.86988000  0.79461000  1.0
  C  C69  1  0.45909000  0.13012000  0.20538000  1.0
  C  C70  1  0.50412000  0.01055000  0.82611000  1.0
  C  C71  1  0.49588000  0.98945000  0.17389000  1.0
  C  C72  1  0.52337000  0.13160000  0.65041000  1.0
  C  C73  1  0.47663000  0.86839000  0.34959000  1.0
  C  C74  1  0.64251000  0.21678000  0.66859000  1.0
  C  C75  1  0.35748000  0.78322000  0.33141000  1.0
  C  C76  1  0.78822000  0.13538000  0.64895000  1.0
  C  C77  1  0.21177000  0.86462000  0.35105000  1.0
  C  C78  1  0.76038000  0.99965000  0.61974000  1.0
  C  C79  1  0.23961000  0.00035000  0.38026000  1.0
  C  C80  1  0.59765000  0.99678000  0.62027000  1.0
  C  C81  1  0.40235000  0.00322000  0.37974000  1.0
  C  C82  1  0.66666667  0.21782000  0.85960000  1.0
  C  C83  1  0.33333333  0.78218000  0.14040000  1.0
  C  C84  1  0.32716000  0.28626000  0.56195000  1.0
  C  C85  1  0.67285000  0.71374000  0.43805000  1.0
  C  C86  1  0.46604000  0.29503000  0.51161000  1.0
  C  C87  1  0.53397000  0.70497000  0.48839000  1.0
  C  C88  1  0.46549000  0.35838000  0.44135000  1.0
  C  C89  1  0.53451000  0.64161000  0.55865000  1.0
  C  C90  1  0.32611000  0.41225000  0.42056000  1.0
  C  C91  1  0.67389000  0.58775000  0.57944000  1.0
  C  C92  1  0.18781000  0.40664000  0.47102000  1.0
  C  C93  1  0.81219000  0.59336000  0.52898000  1.0
  C  C94  1  0.18767000  0.34524000  0.54173000  1.0
  C  C95  1  0.81234000  0.65476000  0.45827000  1.0
  C  C96  1  0.23547000  0.02291000  0.63856000  1.0
  C  C97  1  0.76452000  0.97709000  0.36144000  1.0
  C  C98  1  0.20748000  0.98252000  0.56888000  1.0
  C  C99  1  0.79252000  0.01748000  0.43112000  1.0
  C  C100  1  0.14857000  0.84954000  0.56045000  1.0
  C  C101  1  0.85143000  0.15046000  0.43955000  1.0
  C  C102  1  0.11864000  0.75588000  0.62146000  1.0
  C  C103  1  0.88136000  0.24411000  0.37854000  1.0
  C  C104  1  0.14545000  0.79609000  0.69113000  1.0
  C  C105  1  0.85455000  0.20391000  0.30887000  1.0
  C  C106  1  0.20284000  0.92930000  0.70008000  1.0
  C  C107  1  0.79716000  0.07070000  0.29992000  1.0
  C  C108  1  0.72684000  0.07444000  0.99260000  1.0
  C  C109  1  0.27316000  0.92556000  0.00740000  1.0
  C  C110  1  0.02593000  0.72228000  0.89928000  1.0
  C  C111  1  0.97407000  0.27773000  0.10072000  1.0
  S  S112  1  0.62460000  0.22731000  0.95951000  1.0
  S  S113  1  0.37540000  0.77268000  0.04050000  1.0
  Br  Br114  1  0.95081000  0.45421000  0.73734000  1.0
  Br  Br115  1  0.04919000  0.54579000  0.26266000  1.0
  Br  Br116  1  0.37472000  0.49134000  0.78514000  1.0
  Br  Br117  1  0.62528000  0.50867000  0.21484000  1.0
  Br  Br118  1  0.10471000  0.16937000  0.86486000  1.0
  Br  Br119  1  0.89528000  0.83063000  0.13514000  1.0
  O  O120  1  0.45865000  0.21412000  0.98355000  1.0
  O  O121  1  0.54136000  0.78589000  0.01645000  1.0
  O  O122  1  0.68760000  0.35732000  0.98138000  1.0
  O  O123  1  0.31241000  0.64269000  0.01862000  1.0
  O  O124  1  0.98299000  0.57569000  0.90831000  1.0
  O  O125  1  0.01700000  0.42432000  0.09169000  1.0
