# generated using pymatgen
data_Cd3H52C62N8(O6F)2
_symmetry_space_group_name_H-M   'P 1'
_cell_length_a   8.42551000
_cell_length_b   12.09340000
_cell_length_c   15.05360000
_cell_angle_alpha   67.58010000
_cell_angle_beta   79.73040000
_cell_angle_gamma   81.74330000
_symmetry_Int_Tables_number   1
_chemical_formula_structural   Cd3H52C62N8(O6F)2
_chemical_formula_sum   'Cd3 H52 C62 N8 O12 F2'
_cell_volume   1390.37430152
_cell_formula_units_Z   1
loop_
 _symmetry_equiv_pos_site_id
 _symmetry_equiv_pos_as_xyz
  1  'x, y, z'
loop_
 _atom_site_type_symbol
 _atom_site_label
 _atom_site_symmetry_multiplicity
 _atom_site_fract_x
 _atom_site_fract_y
 _atom_site_fract_z
 _atom_site_occupancy
  Cd  Cd0  1  0.04030000  0.48010000  0.27185000  1.0
  Cd  Cd1  1  0.95970000  0.51990000  0.72815000  1.0
  Cd  Cd2  1  0.00000000  0.50000000  0.50000000  1.0
  H  H3  1  0.76599000  0.81065000  0.34773000  1.0
  H  H4  1  0.23401000  0.18936000  0.65228000  1.0
  H  H5  1  0.99897000  0.08911000  0.58867000  1.0
  H  H6  1  0.00103000  0.91089000  0.41133000  1.0
  H  H7  1  0.19304000  0.06941000  0.40222000  1.0
  H  H8  1  0.80696000  0.93059000  0.59777000  1.0
  H  H9  1  0.27419000  0.04889000  0.50842000  1.0
  H  H10  1  0.72581000  0.95111000  0.49158000  1.0
  H  H11  1  0.76256000  0.14944000  0.49913000  1.0
  H  H12  1  0.23744000  0.85056000  0.50087000  1.0
  H  H13  1  0.88325000  0.12894000  0.39684000  1.0
  H  H14  1  0.11675000  0.87106000  0.60316000  1.0
  H  H15  1  0.32211000  0.52478000  0.09511000  1.0
  H  H16  1  0.67789000  0.47522000  0.90489000  1.0
  H  H17  1  0.41741000  0.46617000  0.94768000  1.0
  H  H18  1  0.58259000  0.53383000  0.05232000  1.0
  H  H19  1  0.24486000  0.34236000  0.91039000  1.0
  H  H20  1  0.75515000  0.65763000  0.08962000  1.0
  H  H21  1  0.65421000  0.40538000  0.35978000  1.0
  H  H22  1  0.34579000  0.59462000  0.64022000  1.0
  H  H23  1  0.45318000  0.28361000  0.33947000  1.0
  H  H24  1  0.54682000  0.71639000  0.66053000  1.0
  H  H25  1  0.53117000  0.18966000  0.21334000  1.0
  H  H26  1  0.46883000  0.81033000  0.78666000  1.0
  H  H27  1  0.62118000  0.97927000  0.03374000  1.0
  H  H28  1  0.37883000  0.02073000  0.96626000  1.0
  H  H29  1  0.56427000  0.85771000  0.94149000  1.0
  H  H30  1  0.43574000  0.14229000  0.05851000  1.0
  H  H31  1  0.96579000  0.99960000  0.72484000  1.0
  H  H32  1  0.03421000  0.00040000  0.27516000  1.0
  H  H33  1  0.01045000  0.13088000  0.80961000  1.0
  H  H34  1  0.98955000  0.86911000  0.19038000  1.0
  H  H35  1  0.28243000  0.77042000  0.31898000  1.0
  H  H36  1  0.71757000  0.22958000  0.68102000  1.0
  H  H37  1  0.34783000  0.60538000  0.46450000  1.0
  H  H38  1  0.65217000  0.39462000  0.53550000  1.0
  H  H39  1  0.51322000  0.54878000  0.40061000  1.0
  H  H40  1  0.48678000  0.45122000  0.59939000  1.0
  H  H41  1  0.61829000  0.65271000  0.48560000  1.0
  H  H42  1  0.38171000  0.34729000  0.51440000  1.0
  H  H43  1  0.49113000  0.78463000  0.43528000  1.0
  H  H44  1  0.50887000  0.21537000  0.56472000  1.0
  H  H45  1  0.69553000  0.87012000  0.18013000  1.0
  H  H46  1  0.30447000  0.12988000  0.81987000  1.0
  H  H47  1  0.53148000  0.90725000  0.25702000  1.0
  H  H48  1  0.46852000  0.09275000  0.74298000  1.0
  H  H49  1  0.43884000  0.80689000  0.15780000  1.0
  H  H50  1  0.56116000  0.19311000  0.84220000  1.0
  H  H51  1  0.57512000  0.68162000  0.20450000  1.0
  H  H52  1  0.42487000  0.31838000  0.79551000  1.0
  H  H53  1  0.04550000  0.22919000  0.89097000  1.0
  H  H54  1  0.95451000  0.77081000  0.10903000  1.0
  C  C55  1  0.68833000  0.75532000  0.33271000  1.0
  C  C56  1  0.31167000  0.24468000  0.66729000  1.0
  C  C57  1  0.80486000  0.65543000  0.31324000  1.0
  C  C58  1  0.19514000  0.34457000  0.68676000  1.0
  C  C59  1  0.04548000  0.24829000  0.46632000  1.0
  C  C60  1  0.95452000  0.75171000  0.53368000  1.0
  C  C61  1  0.02043000  0.11473000  0.50944000  1.0
  C  C62  1  0.97957000  0.88527000  0.49056000  1.0
  C  C63  1  0.16632000  0.03727000  0.48180000  1.0
  C  C64  1  0.83368000  0.96273000  0.51820000  1.0
  C  C65  1  0.86688000  0.09523000  0.47679000  1.0
  C  C66  1  0.13312000  0.90477000  0.52321000  1.0
  C  C67  1  0.25371000  0.46952000  0.07534000  1.0
  C  C68  1  0.74629000  0.53048000  0.92467000  1.0
  C  C69  1  0.30488000  0.43685000  0.99412000  1.0
  C  C70  1  0.69512000  0.56315000  0.00588000  1.0
  C  C71  1  0.20939000  0.36821000  0.97349000  1.0
  C  C72  1  0.79061000  0.63179000  0.02651000  1.0
  C  C73  1  0.06319000  0.33278000  0.03424000  1.0
  C  C74  1  0.93681000  0.66723000  0.96576000  1.0
  C  C75  1  0.01890000  0.36978000  0.11525000  1.0
  C  C76  1  0.98109000  0.63022000  0.88475000  1.0
  C  C77  1  0.86618000  0.33881000  0.17863000  1.0
  C  C78  1  0.13382000  0.66119000  0.82137000  1.0
  C  C79  1  0.68096000  0.36483000  0.30468000  1.0
  C  C80  1  0.31904000  0.63517000  0.69532000  1.0
  C  C81  1  0.57048000  0.29536000  0.29399000  1.0
  C  C82  1  0.42952000  0.70464000  0.70601000  1.0
  C  C83  1  0.61303000  0.24399000  0.22420000  1.0
  C  C84  1  0.38697000  0.75601000  0.77581000  1.0
  C  C85  1  0.76311000  0.26494000  0.16413000  1.0
  C  C86  1  0.23688000  0.73506000  0.83587000  1.0
  C  C87  1  0.81533000  0.22182000  0.08639000  1.0
  C  C88  1  0.18467000  0.77818000  0.91361000  1.0
  C  C89  1  0.95703000  0.25961000  0.02263000  1.0
  C  C90  1  0.04297000  0.74039000  0.97737000  1.0
  C  C91  1  0.83985000  0.13806000  0.98091000  1.0
  C  C92  1  0.16015000  0.86194000  0.01909000  1.0
  C  C93  1  0.81703000  0.06410000  0.92801000  1.0
  C  C94  1  0.18297000  0.93590000  0.07198000  1.0
  C  C95  1  0.69414000  0.98481000  0.96516000  1.0
  C  C96  1  0.30586000  0.01519000  0.03484000  1.0
  C  C97  1  0.66381000  0.91560000  0.91536000  1.0
  C  C98  1  0.33619000  0.08440000  0.08464000  1.0
  C  C99  1  0.76295000  0.92419000  0.82911000  1.0
  C  C100  1  0.23705000  0.07581000  0.17089000  1.0
  C  C101  1  0.88952000  0.99804000  0.79164000  1.0
  C  C102  1  0.11049000  0.00196000  0.20835000  1.0
  C  C103  1  0.91508000  0.06955000  0.84076000  1.0
  C  C104  1  0.08493000  0.93045000  0.15924000  1.0
  C  C105  1  0.27315000  0.61655000  0.28754000  1.0
  C  C106  1  0.72684000  0.38345000  0.71246000  1.0
  C  C107  1  0.37131000  0.69818000  0.30857000  1.0
  C  C108  1  0.62869000  0.30182000  0.69143000  1.0
  C  C109  1  0.44515000  0.63238000  0.40339000  1.0
  C  C110  1  0.55485000  0.36762000  0.59661000  1.0
  C  C111  1  0.55995000  0.70696000  0.42104000  1.0
  C  C112  1  0.44005000  0.29304000  0.57896000  1.0
  C  C113  1  0.60529000  0.83110000  0.24316000  1.0
  C  C114  1  0.39471000  0.16890000  0.75684000  1.0
  C  C115  1  0.49861000  0.75455000  0.22190000  1.0
  C  C116  1  0.50138000  0.24545000  0.77810000  1.0
  N  N117  1  0.11580000  0.43661000  0.13330000  1.0
  N  N118  1  0.88420000  0.56339000  0.86670000  1.0
  N  N119  1  0.82341000  0.38553000  0.24898000  1.0
  N  N120  1  0.17659000  0.61447000  0.75102000  1.0
  N  N121  1  0.74393000  0.14593000  0.05991000  1.0
  N  N122  1  0.25607000  0.85407000  0.94009000  1.0
  N  N123  1  0.96947000  0.20614000  0.95602000  1.0
  N  N124  1  0.03054000  0.79386000  0.04398000  1.0
  O  O125  1  0.82322000  0.55312000  0.38128000  1.0
  O  O126  1  0.17678000  0.44688000  0.61871000  1.0
  O  O127  1  0.88275000  0.67524000  0.22846000  1.0
  O  O128  1  0.11726000  0.32476000  0.77154000  1.0
  O  O129  1  0.00037000  0.30595000  0.52346000  1.0
  O  O130  1  0.99962000  0.69405000  0.47655000  1.0
  O  O131  1  0.10321000  0.29113000  0.37739000  1.0
  O  O132  1  0.89678000  0.70887000  0.62261000  1.0
  O  O133  1  0.18902000  0.54069000  0.35990000  1.0
  O  O134  1  0.81098000  0.45931000  0.64011000  1.0
  O  O135  1  0.27343000  0.62275000  0.20202000  1.0
  O  O136  1  0.72657000  0.37725000  0.79798000  1.0
  F  F137  1  0.73676000  0.85552000  0.77968000  1.0
  F  F138  1  0.26324000  0.14448000  0.22032000  1.0
