# generated using pymatgen
data_BaP2H6C2O7
_symmetry_space_group_name_H-M   'P 1'
_cell_length_a   10.82120000
_cell_length_b   10.83030000
_cell_length_c   13.08890000
_cell_angle_alpha   93.37390000
_cell_angle_beta   113.33300000
_cell_angle_gamma   115.08900000
_symmetry_Int_Tables_number   1
_chemical_formula_structural   BaP2H6C2O7
_chemical_formula_sum   'Ba6 P12 H36 C12 O42'
_cell_volume   1227.27433544
_cell_formula_units_Z   6
loop_
 _symmetry_equiv_pos_site_id
 _symmetry_equiv_pos_as_xyz
  1  'x, y, z'
loop_
 _atom_site_type_symbol
 _atom_site_label
 _atom_site_symmetry_multiplicity
 _atom_site_fract_x
 _atom_site_fract_y
 _atom_site_fract_z
 _atom_site_occupancy
  Ba  Ba0  1  0.39595000  0.78114000  0.85898000  1.0
  Ba  Ba1  1  0.60405000  0.21886000  0.14102000  1.0
  Ba  Ba2  1  0.15920000  0.81576000  0.02789000  1.0
  Ba  Ba3  1  0.84080000  0.18424000  0.97211000  1.0
  Ba  Ba4  1  0.25552000  0.33063000  0.92493000  1.0
  Ba  Ba5  1  0.74448000  0.66937000  0.07507000  1.0
  P  P6  1  0.00991000  0.47456000  0.82480000  1.0
  P  P7  1  0.99009000  0.52544000  0.17520000  1.0
  P  P8  1  0.13103000  0.94575000  0.75395000  1.0
  P  P9  1  0.86897000  0.05425000  0.24605000  1.0
  P  P10  1  0.53136000  0.54051000  0.75435000  1.0
  P  P11  1  0.46864000  0.45949000  0.24565000  1.0
  P  P12  1  0.77290000  0.84879000  0.85904000  1.0
  P  P13  1  0.22710000  0.15121000  0.14096000  1.0
  P  P14  1  0.47249000  0.15872000  0.84251000  1.0
  P  P15  1  0.52751000  0.84128000  0.15749000  1.0
  P  P16  1  0.98869000  0.30954000  0.61913000  1.0
  P  P17  1  0.01131000  0.69046000  0.38087000  1.0
  H  H18  1  0.81099000  0.52105000  0.81338000  1.0
  H  H19  1  0.18901000  0.47895000  0.18662000  1.0
  H  H20  1  0.99758000  0.78710000  0.58275000  1.0
  H  H21  1  0.00242000  0.21290000  0.41725000  1.0
  H  H22  1  0.28075000  0.40573000  0.66129000  1.0
  H  H23  1  0.71925000  0.59427000  0.33871000  1.0
  H  H24  1  0.95391000  0.00159000  0.80932000  1.0
  H  H25  1  0.04609000  0.99841000  0.19068000  1.0
  H  H26  1  0.60112000  0.33107000  0.78003000  1.0
  H  H27  1  0.39887000  0.66893000  0.21997000  1.0
  H  H28  1  0.86415000  0.18890000  0.70164000  1.0
  H  H29  1  0.13585000  0.81110000  0.29836000  1.0
  H  H30  1  0.06219000  0.61447000  0.59994000  1.0
  H  H31  1  0.93781000  0.38553000  0.40006000  1.0
  H  H32  1  0.23058000  0.85405000  0.60700000  1.0
  H  H33  1  0.76942000  0.14596000  0.39300000  1.0
  H  H34  1  0.42461000  0.71570000  0.60743000  1.0
  H  H35  1  0.57539000  0.28430000  0.39257000  1.0
  H  H36  1  0.68845000  0.81034000  0.60440000  1.0
  H  H37  1  0.31155000  0.18966000  0.39560000  1.0
  H  H38  1  0.55712000  0.62367000  0.54753000  1.0
  H  H39  1  0.44288000  0.37633000  0.45247000  1.0
  H  H40  1  0.75206000  0.68908000  0.65203000  1.0
  H  H41  1  0.24794000  0.31092000  0.34797000  1.0
  H  H42  1  0.80879000  0.54028000  0.62462000  1.0
  H  H43  1  0.19121000  0.45972000  0.37538000  1.0
  H  H44  1  0.72305000  0.35274000  0.59666000  1.0
  H  H45  1  0.27695000  0.64726000  0.40334000  1.0
  H  H46  1  0.79724000  0.44098000  0.50546000  1.0
  H  H47  1  0.20276000  0.55902000  0.49454000  1.0
  H  H48  1  0.14489000  0.01818000  0.53839000  1.0
  H  H49  1  0.85511000  0.98182000  0.46162000  1.0
  H  H50  1  0.34038000  0.15298000  0.59705000  1.0
  H  H51  1  0.65962000  0.84702000  0.40295000  1.0
  H  H52  1  0.21310000  0.17522000  0.64142000  1.0
  H  H53  1  0.78690000  0.82478000  0.35858000  1.0
  C  C54  1  0.60996000  0.71379000  0.72187000  1.0
  C  C55  1  0.39003000  0.28620000  0.27813000  1.0
  C  C56  1  0.97283000  0.46220000  0.67137000  1.0
  C  C57  1  0.02717000  0.53780000  0.32863000  1.0
  C  C58  1  0.28934000  0.03089000  0.71424000  1.0
  C  C59  1  0.71066000  0.96911000  0.28576000  1.0
  C  C60  1  0.65397000  0.70834000  0.62565000  1.0
  C  C61  1  0.34603000  0.29166000  0.37435000  1.0
  C  C62  1  0.81560000  0.44778000  0.59491000  1.0
  C  C63  1  0.18440000  0.55222000  0.40509000  1.0
  C  C64  1  0.24475000  0.09886000  0.61705000  1.0
  C  C65  1  0.75525000  0.90114000  0.38295000  1.0
  O  O66  1  0.92626000  0.55118000  0.85377000  1.0
  O  O67  1  0.07374000  0.44882000  0.14623000  1.0
  O  O68  1  0.94883000  0.32224000  0.83514000  1.0
  O  O69  1  0.05117000  0.67776000  0.16486000  1.0
  O  O70  1  0.18091000  0.56998000  0.90573000  1.0
  O  O71  1  0.81909000  0.43002000  0.09427000  1.0
  O  O72  1  0.17447000  0.86015000  0.83521000  1.0
  O  O73  1  0.82553000  0.13985000  0.16479000  1.0
  O  O74  1  0.98254000  0.84652000  0.63344000  1.0
  O  O75  1  0.01746000  0.15348000  0.36656000  1.0
  O  O76  1  0.09308000  0.05222000  0.79773000  1.0
  O  O77  1  0.90692000  0.94778000  0.20227000  1.0
  O  O78  1  0.50448000  0.56287000  0.85854000  1.0
  O  O79  1  0.49551000  0.43713000  0.14146000  1.0
  O  O80  1  0.63732000  0.47749000  0.76450000  1.0
  O  O81  1  0.36268000  0.52251000  0.23550000  1.0
  O  O82  1  0.37061000  0.44691000  0.64213000  1.0
  O  O83  1  0.62939000  0.55309000  0.35787000  1.0
  O  O84  1  0.70422000  0.89255000  0.92625000  1.0
  O  O85  1  0.29578000  0.10745000  0.07375000  1.0
  O  O86  1  0.87347000  0.78617000  0.92198000  1.0
  O  O87  1  0.12653000  0.21383000  0.07802000  1.0
  O  O88  1  0.85909000  0.98516000  0.82348000  1.0
  O  O89  1  0.14091000  0.01484000  0.17651000  1.0
  O  O90  1  0.53651000  0.07624000  0.91761000  1.0
  O  O91  1  0.46349000  0.92377000  0.08239000  1.0
  O  O92  1  0.59273000  0.23622000  0.79554000  1.0
  O  O93  1  0.40728000  0.76378000  0.20446000  1.0
  O  O94  1  0.45036000  0.26319000  0.90543000  1.0
  O  O95  1  0.54964000  0.73681000  0.09457000  1.0
  O  O96  1  0.85669000  0.17109000  0.62343000  1.0
  O  O97  1  0.14331000  0.82891000  0.37657000  1.0
  O  O98  1  0.15020000  0.33668000  0.69833000  1.0
  O  O99  1  0.84980000  0.66332000  0.30167000  1.0
  O  O100  1  0.94836000  0.29063000  0.49132000  1.0
  O  O101  1  0.05164000  0.70937000  0.50868000  1.0
  O  O102  1  0.09781000  0.58454000  0.67216000  1.0
  O  O103  1  0.90219000  0.41546000  0.32784000  1.0
  O  O104  1  0.32008000  0.92098000  0.68149000  1.0
  O  O105  1  0.67992000  0.07902000  0.31852000  1.0
  O  O106  1  0.49227000  0.75677000  0.69048000  1.0
  O  O107  1  0.50773000  0.24323000  0.30952000  1.0
