# generated using pymatgen
data_CaB2H28C24(N8O)2
_symmetry_space_group_name_H-M   'P 1'
_cell_length_a   9.37154000
_cell_length_b   9.73534000
_cell_length_c   10.31790000
_cell_angle_alpha   93.28860000
_cell_angle_beta   108.33100000
_cell_angle_gamma   118.35800000
_symmetry_Int_Tables_number   1
_chemical_formula_structural   CaB2H28C24(N8O)2
_chemical_formula_sum   'Ca1 B2 H28 C24 N16 O2'
_cell_volume   761.88763203
_cell_formula_units_Z   1
loop_
 _symmetry_equiv_pos_site_id
 _symmetry_equiv_pos_as_xyz
  1  'x, y, z'
loop_
 _atom_site_type_symbol
 _atom_site_label
 _atom_site_symmetry_multiplicity
 _atom_site_fract_x
 _atom_site_fract_y
 _atom_site_fract_z
 _atom_site_occupancy
  Ca  Ca0  1  0.50000000  0.50000000  0.50000000  1.0
  B  B1  1  0.23239000  0.87331000  0.15020000  1.0
  B  B2  1  0.76761000  0.12669000  0.84980000  1.0
  H  H3  1  0.90297000  0.68640000  0.60564000  1.0
  H  H4  1  0.09703000  0.31360000  0.39437000  1.0
  H  H5  1  0.82836000  0.67993000  0.44051000  1.0
  H  H6  1  0.17165000  0.32007000  0.55949000  1.0
  H  H7  1  0.22439000  0.59719000  0.01834000  1.0
  H  H8  1  0.77561000  0.40280000  0.98166000  1.0
  H  H9  1  0.20562000  0.10183000  0.31551000  1.0
  H  H10  1  0.79437000  0.89817000  0.68449000  1.0
  H  H11  1  0.59136000  0.43017000  0.18537000  1.0
  H  H12  1  0.40864000  0.56983000  0.81463000  1.0
  H  H13  1  0.09470000  0.53196000  0.72667000  1.0
  H  H14  1  0.90530000  0.46805000  0.27333000  1.0
  H  H15  1  0.19733000  0.59924000  0.26627000  1.0
  H  H16  1  0.80268000  0.40076000  0.73373000  1.0
  H  H17  1  0.16824000  0.82144000  0.40629000  1.0
  H  H18  1  0.83177000  0.17856000  0.59371000  1.0
  H  H19  1  0.75017000  0.88327000  0.42690000  1.0
  H  H20  1  0.24983000  0.11673000  0.57309000  1.0
  H  H21  1  0.11120000  0.94974000  0.88455000  1.0
  H  H22  1  0.88880000  0.05026000  0.11546000  1.0
  H  H23  1  0.65682000  0.68536000  0.13362000  1.0
  H  H24  1  0.34318000  0.31464000  0.86638000  1.0
  H  H25  1  0.47983000  0.12072000  0.05428000  1.0
  H  H26  1  0.52017000  0.87928000  0.94572000  1.0
  H  H27  1  0.61448000  0.05365000  0.28411000  1.0
  H  H28  1  0.38552000  0.94635000  0.71589000  1.0
  H  H29  1  0.86605000  0.75280000  0.97923000  1.0
  H  H30  1  0.13395000  0.24721000  0.02077000  1.0
  C  C31  1  0.18040000  0.65941000  0.94721000  1.0
  C  C32  1  0.81960000  0.34059000  0.05279000  1.0
  C  C33  1  0.29483000  0.15078000  0.26189000  1.0
  C  C34  1  0.70517000  0.84922000  0.73810000  1.0
  C  C35  1  0.49294000  0.31583000  0.19265000  1.0
  C  C36  1  0.50706000  0.68417000  0.80735000  1.0
  C  C37  1  0.11463000  0.62785000  0.80250000  1.0
  C  C38  1  0.88537000  0.37215000  0.19750000  1.0
  C  C39  1  0.33037000  0.69920000  0.29275000  1.0
  C  C40  1  0.66963000  0.30080000  0.70725000  1.0
  C  C41  1  0.05553000  0.79178000  0.31197000  1.0
  C  C42  1  0.94447000  0.20822000  0.68803000  1.0
  C  C43  1  0.61409000  0.84939000  0.37362000  1.0
  C  C44  1  0.38591000  0.15061000  0.62638000  1.0
  C  C45  1  0.12236000  0.84367000  0.87879000  1.0
  C  C46  1  0.87764000  0.15633000  0.12122000  1.0
  C  C47  1  0.79443000  0.72197000  0.16808000  1.0
  C  C48  1  0.20557000  0.27803000  0.83192000  1.0
  C  C49  1  0.43916000  0.16263000  0.12733000  1.0
  C  C50  1  0.56084000  0.83737000  0.87267000  1.0
  C  C51  1  0.54817000  0.93497000  0.30247000  1.0
  C  C52  1  0.45183000  0.06503000  0.69753000  1.0
  C  C53  1  0.89743000  0.75686000  0.09037000  1.0
  C  C54  1  0.10258000  0.24314000  0.90964000  1.0
  N  N55  1  0.47643000  0.70136000  0.36741000  1.0
  N  N56  1  0.52358000  0.29864000  0.63258000  1.0
  N  N57  1  0.89465000  0.74356000  0.30682000  1.0
  N  N58  1  0.10535000  0.25645000  0.69318000  1.0
  N  N59  1  0.36615000  0.83868000  0.25114000  1.0
  N  N60  1  0.63385000  0.16132000  0.74885000  1.0
  N  N61  1  0.40154000  0.30737000  0.27718000  1.0
  N  N62  1  0.59846000  0.69262000  0.72282000  1.0
  N  N63  1  0.07817000  0.74383000  0.76044000  1.0
  N  N64  1  0.92183000  0.25617000  0.23956000  1.0
  N  N65  1  0.31203000  0.05709000  0.17191000  1.0
  N  N66  1  0.68797000  0.94291000  0.82809000  1.0
  N  N67  1  0.18624000  0.79844000  0.99589000  1.0
  N  N68  1  0.81376000  0.20156000  0.00411000  1.0
  N  N69  1  0.06449000  0.80101000  0.18288000  1.0
  N  N70  1  0.93551000  0.19899000  0.81712000  1.0
  O  O71  1  0.79096000  0.64158000  0.51959000  1.0
  O  O72  1  0.20905000  0.35842000  0.48041000  1.0
