# generated using pymatgen
data_DyH5C6N2O7
_symmetry_space_group_name_H-M   'P 1'
_cell_length_a   9.67994000
_cell_length_b   9.67993000
_cell_length_c   9.67992000
_cell_angle_alpha   79.37200000
_cell_angle_beta   79.37180000
_cell_angle_gamma   79.37180000
_symmetry_Int_Tables_number   1
_chemical_formula_structural   DyH5C6N2O7
_chemical_formula_sum   'Dy3 H15 C18 N6 O21'
_cell_volume   865.47904018
_cell_formula_units_Z   3
loop_
 _symmetry_equiv_pos_site_id
 _symmetry_equiv_pos_as_xyz
  1  'x, y, z'
loop_
 _atom_site_type_symbol
 _atom_site_label
 _atom_site_symmetry_multiplicity
 _atom_site_fract_x
 _atom_site_fract_y
 _atom_site_fract_z
 _atom_site_occupancy
  Dy  Dy0  1  0.99093000  0.50000000  0.00907000  1.0
  Dy  Dy1  1  0.50000000  0.00907000  0.99093000  1.0
  Dy  Dy2  1  0.00907000  0.99093000  0.50000000  1.0
  H  H3  1  0.41174000  0.58826000  1.00000000  1.0
  H  H4  1  0.58826000  0.00000000  0.41173000  1.0
  H  H5  1  0.00000000  0.41173000  0.58826000  1.0
  H  H6  1  0.14568000  0.23495000  0.92486000  1.0
  H  H7  1  0.23495000  0.92486000  0.14567000  1.0
  H  H8  1  0.92486000  0.14568000  0.23495000  1.0
  H  H9  1  0.85432000  0.07513000  0.76504000  1.0
  H  H10  1  0.76504000  0.85432000  0.07513000  1.0
  H  H11  1  0.07513000  0.76504000  0.85432000  1.0
  H  H12  1  0.97644000  0.23318000  0.93698000  1.0
  H  H13  1  0.23318000  0.93698000  0.97644000  1.0
  H  H14  1  0.93699000  0.97644000  0.23318000  1.0
  H  H15  1  0.02356000  0.06301000  0.76681000  1.0
  H  H16  1  0.76682000  0.02356000  0.06301000  1.0
  H  H17  1  0.06301000  0.76681000  0.02356000  1.0
  C  C18  1  0.33395000  0.33026000  0.99850000  1.0
  C  C19  1  0.33026000  0.99850000  0.33395000  1.0
  C  C20  1  0.99850000  0.33395000  0.33026000  1.0
  C  C21  1  0.66605000  0.00150000  0.66973000  1.0
  C  C22  1  0.66973000  0.66604000  0.00150000  1.0
  C  C23  1  0.00150000  0.66973000  0.66604000  1.0
  C  C24  1  0.48057000  0.36121000  0.00107000  1.0
  C  C25  1  0.36121000  0.00107000  0.48057000  1.0
  C  C26  1  0.00107000  0.48057000  0.36121000  1.0
  C  C27  1  0.51943000  0.99892000  0.63878000  1.0
  C  C28  1  0.63878000  0.51942000  0.99892000  1.0
  C  C29  1  0.99892000  0.63878000  0.51942000  1.0
  C  C30  1  0.49966000  0.50033000  1.00000000  1.0
  C  C31  1  0.50033000  0.00000000  0.49966000  1.0
  C  C32  1  0.00000000  0.49966000  0.50033000  1.0
  C  C33  1  0.72254000  0.27746000  1.00000000  1.0
  C  C34  1  0.27747000  1.00000000  0.72254000  1.0
  C  C35  1  0.00000000  0.72254000  0.27746000  1.0
  N  N36  1  0.58703000  0.25119000  0.99939000  1.0
  N  N37  1  0.25120000  0.99939000  0.58703000  1.0
  N  N38  1  0.99940000  0.58703000  0.25119000  1.0
  N  N39  1  0.41296000  0.00060000  0.74880000  1.0
  N  N40  1  0.74880000  0.41296000  0.00060000  1.0
  N  N41  1  0.00060000  0.74880000  0.41296000  1.0
  O  O42  1  0.23032000  0.42566000  0.02690000  1.0
  O  O43  1  0.42566000  0.02690000  0.23032000  1.0
  O  O44  1  0.02690000  0.23032000  0.42566000  1.0
  O  O45  1  0.76968000  0.97310000  0.57433000  1.0
  O  O46  1  0.57434000  0.76968000  0.97310000  1.0
  O  O47  1  0.97310000  0.57433000  0.76968000  1.0
  O  O48  1  0.32618000  0.21059000  0.96491000  1.0
  O  O49  1  0.21059000  0.96491000  0.32618000  1.0
  O  O50  1  0.96491000  0.32618000  0.21059000  1.0
  O  O51  1  0.67382000  0.03509000  0.78941000  1.0
  O  O52  1  0.78941000  0.67381000  0.03509000  1.0
  O  O53  1  0.03509000  0.78941000  0.67382000  1.0
  O  O54  1  0.82561000  0.17439000  0.00000000  1.0
  O  O55  1  0.17439000  0.00000000  0.82561000  1.0
  O  O56  1  0.00000000  0.82561000  0.17439000  1.0
  O  O57  1  0.05416000  0.29347000  0.90592000  1.0
  O  O58  1  0.29348000  0.90592000  0.05416000  1.0
  O  O59  1  0.90592000  0.05416000  0.29347000  1.0
  O  O60  1  0.94584000  0.09407000  0.70652000  1.0
  O  O61  1  0.70652000  0.94583000  0.09407000  1.0
  O  O62  1  0.09407000  0.70652000  0.94583000  1.0
