# generated using pymatgen
data_ZnPH9C3NO3
_symmetry_space_group_name_H-M   'P 1'
_cell_length_a   7.62279000
_cell_length_b   8.21655000
_cell_length_c   11.96840000
_cell_angle_alpha   90.00000000
_cell_angle_beta   94.67160000
_cell_angle_gamma   90.00000000
_symmetry_Int_Tables_number   1
_chemical_formula_structural   ZnPH9C3NO3
_chemical_formula_sum   'Zn4 P4 H36 C12 N4 O12'
_cell_volume   747.12689918
_cell_formula_units_Z   4
loop_
 _symmetry_equiv_pos_site_id
 _symmetry_equiv_pos_as_xyz
  1  'x, y, z'
loop_
 _atom_site_type_symbol
 _atom_site_label
 _atom_site_symmetry_multiplicity
 _atom_site_fract_x
 _atom_site_fract_y
 _atom_site_fract_z
 _atom_site_occupancy
  Zn  Zn0  1  0.21361000  0.02934000  0.42104000  1.0
  Zn  Zn1  1  0.28638000  0.52934000  0.57896000  1.0
  Zn  Zn2  1  0.78638000  0.97066000  0.57896000  1.0
  Zn  Zn3  1  0.71361000  0.47066000  0.42104000  1.0
  P  P4  1  0.58878000  0.10755000  0.35671000  1.0
  P  P5  1  0.91122000  0.60756000  0.64328000  1.0
  P  P6  1  0.41122000  0.89245000  0.64329000  1.0
  P  P7  1  0.08878000  0.39245000  0.35672000  1.0
  H  H8  1  0.66596000  0.14095000  0.25583000  1.0
  H  H9  1  0.83404000  0.64095000  0.74417000  1.0
  H  H10  1  0.33404000  0.85905000  0.74417000  1.0
  H  H11  1  0.16596000  0.35905000  0.25583000  1.0
  H  H12  1  0.99448000  0.70993000  0.20992000  1.0
  H  H13  1  0.50552000  0.20993000  0.79008000  1.0
  H  H14  1  0.00552000  0.29008000  0.79008000  1.0
  H  H15  1  0.49448000  0.79008000  0.20992000  1.0
  H  H16  1  0.21057000  0.79128000  0.22568000  1.0
  H  H17  1  0.28943000  0.29127000  0.77432000  1.0
  H  H18  1  0.78943000  0.20872000  0.77432000  1.0
  H  H19  1  0.71057000  0.70872000  0.22568000  1.0
  H  H20  1  0.16885000  0.89969000  0.02510000  1.0
  H  H21  1  0.33115000  0.39968000  0.97490000  1.0
  H  H22  1  0.83115000  0.10032000  0.97490000  1.0
  H  H23  1  0.66885000  0.60031000  0.02510000  1.0
  H  H24  1  0.95339000  0.81938000  0.01247000  1.0
  H  H25  1  0.54661000  0.31938000  0.98754000  1.0
  H  H26  1  0.04661000  0.18062000  0.98754000  1.0
  H  H27  1  0.45339000  0.68062000  0.01246000  1.0
  H  H28  1  0.09409000  0.07054000  0.18794000  1.0
  H  H29  1  0.40591000  0.57054000  0.81206000  1.0
  H  H30  1  0.90591000  0.92946000  0.81206000  1.0
  H  H31  1  0.59409000  0.42946000  0.18794000  1.0
  H  H32  1  0.87631000  0.99469000  0.17497000  1.0
  H  H33  1  0.62369000  0.49468000  0.82503000  1.0
  H  H34  1  0.12369000  0.00532000  0.82503000  1.0
  H  H35  1  0.37631000  0.50532000  0.17497000  1.0
  H  H36  1  0.07930000  0.74661000  0.40033000  1.0
  H  H37  1  0.42070000  0.24661000  0.59967000  1.0
  H  H38  1  0.92070000  0.25339000  0.59967000  1.0
  H  H39  1  0.57930000  0.75339000  0.40033000  1.0
  H  H40  1  0.92656000  0.88500000  0.36807000  1.0
  H  H41  1  0.57344000  0.38500000  0.63193000  1.0
  H  H42  1  0.07344000  0.11500000  0.63193000  1.0
  H  H43  1  0.42656000  0.61500000  0.36807000  1.0
  C  C44  1  0.07169000  0.81905000  0.23545000  1.0
  C  C45  1  0.42831000  0.31905000  0.76455000  1.0
  C  C46  1  0.92831000  0.18095000  0.76455000  1.0
  C  C47  1  0.57170000  0.68095000  0.23545000  1.0
  C  C48  1  0.01392000  0.96340000  0.16196000  1.0
  C  C49  1  0.48607000  0.46340000  0.83804000  1.0
  C  C50  1  0.98608000  0.03660000  0.83804000  1.0
  C  C51  1  0.51393000  0.53660000  0.16196000  1.0
  C  C52  1  0.03049000  0.92896000  0.03794000  1.0
  C  C53  1  0.46951000  0.42896000  0.96206000  1.0
  C  C54  1  0.96951000  0.07104000  0.96206000  1.0
  C  C55  1  0.53049000  0.57104000  0.03794000  1.0
  N  N56  1  0.05426000  0.85219000  0.35575000  1.0
  N  N57  1  0.44574000  0.35219000  0.64425000  1.0
  N  N58  1  0.94574000  0.14781000  0.64425000  1.0
  N  N59  1  0.55426000  0.64781000  0.35575000  1.0
  O  O60  1  0.40519000  0.03951000  0.32096000  1.0
  O  O61  1  0.09481000  0.53951000  0.67904000  1.0
  O  O62  1  0.59481000  0.96049000  0.67904000  1.0
  O  O63  1  0.90519000  0.46049000  0.32096000  1.0
  O  O64  1  0.58162000  0.26517000  0.42424000  1.0
  O  O65  1  0.91838000  0.76517000  0.57576000  1.0
  O  O66  1  0.41838000  0.73483000  0.57576000  1.0
  O  O67  1  0.08162000  0.23483000  0.42424000  1.0
  O  O68  1  0.70799000  0.97658000  0.41746000  1.0
  O  O69  1  0.79201000  0.47658000  0.58254000  1.0
  O  O70  1  0.29201000  0.02342000  0.58254000  1.0
  O  O71  1  0.20799000  0.52342000  0.41746000  1.0
