# generated using pymatgen
data_ZnH12C10S(NCl)2
_symmetry_space_group_name_H-M   'P 1'
_cell_length_a   10.13660000
_cell_length_b   10.31430000
_cell_length_c   12.09290000
_cell_angle_alpha   90.00000000
_cell_angle_beta   90.00000000
_cell_angle_gamma   90.00000000
_symmetry_Int_Tables_number   1
_chemical_formula_structural   ZnH12C10S(NCl)2
_chemical_formula_sum   'Zn4 H48 C40 S4 N8 Cl8'
_cell_volume   1264.33607517
_cell_formula_units_Z   4
loop_
 _symmetry_equiv_pos_site_id
 _symmetry_equiv_pos_as_xyz
  1  'x, y, z'
loop_
 _atom_site_type_symbol
 _atom_site_label
 _atom_site_symmetry_multiplicity
 _atom_site_fract_x
 _atom_site_fract_y
 _atom_site_fract_z
 _atom_site_occupancy
  Zn  Zn0  1  0.18120000  0.00340000  0.27294000  1.0
  Zn  Zn1  1  0.31880000  0.99660000  0.77294000  1.0
  Zn  Zn2  1  0.68120000  0.49660000  0.72706000  1.0
  Zn  Zn3  1  0.81880000  0.50340000  0.22706000  1.0
  H  H4  1  0.88482000  0.06409000  0.28788000  1.0
  H  H5  1  0.61518000  0.93591000  0.78788000  1.0
  H  H6  1  0.38482000  0.43591000  0.71212000  1.0
  H  H7  1  0.11518000  0.56409000  0.21213000  1.0
  H  H8  1  0.77787000  0.00328000  0.62927000  1.0
  H  H9  1  0.72213000  0.99672000  0.12927000  1.0
  H  H10  1  0.27786000  0.49672000  0.37074000  1.0
  H  H11  1  0.22213000  0.50328000  0.87073000  1.0
  H  H12  1  0.01671000  0.95704000  0.66863000  1.0
  H  H13  1  0.48329000  0.04296000  0.16863000  1.0
  H  H14  1  0.51671000  0.54296000  0.33136000  1.0
  H  H15  1  0.98329000  0.45704000  0.83137000  1.0
  H  H16  1  0.17720000  0.96445000  0.51227000  1.0
  H  H17  1  0.32280000  0.03555000  0.01227000  1.0
  H  H18  1  0.67720000  0.53555000  0.48773000  1.0
  H  H19  1  0.82280000  0.46445000  0.98773000  1.0
  H  H20  1  0.65899000  0.07977000  0.33764000  1.0
  H  H21  1  0.84102000  0.92023000  0.83764000  1.0
  H  H22  1  0.15898000  0.42023000  0.66236000  1.0
  H  H23  1  0.34102000  0.57977000  0.16236000  1.0
  H  H24  1  0.57694000  0.14803000  0.66279000  1.0
  H  H25  1  0.92306000  0.85197000  0.16279000  1.0
  H  H26  1  0.07694000  0.35197000  0.33721000  1.0
  H  H27  1  0.42306000  0.64803000  0.83721000  1.0
  H  H28  1  0.43452000  0.19105000  0.58850000  1.0
  H  H29  1  0.06548000  0.80895000  0.08850000  1.0
  H  H30  1  0.93452000  0.30895000  0.41150000  1.0
  H  H31  1  0.56548000  0.69105000  0.91150000  1.0
  H  H32  1  0.69697000  0.25363000  0.51793000  1.0
  H  H33  1  0.80303000  0.74637000  0.01793000  1.0
  H  H34  1  0.19696000  0.24638000  0.48207000  1.0
  H  H35  1  0.30304000  0.75362000  0.98207000  1.0
  H  H36  1  0.55814000  0.24819000  0.42769000  1.0
  H  H37  1  0.94186000  0.75181000  0.92769000  1.0
  H  H38  1  0.05813000  0.25181000  0.57231000  1.0
  H  H39  1  0.44186000  0.74819000  0.07231000  1.0
  H  H40  1  0.48545000  0.80849000  0.39517000  1.0
  H  H41  1  0.01455000  0.19151000  0.89517000  1.0
  H  H42  1  0.98545000  0.69151000  0.60483000  1.0
  H  H43  1  0.51455000  0.30849000  0.10483000  1.0
  H  H44  1  0.62421000  0.76906000  0.48114000  1.0
  H  H45  1  0.87579000  0.23094000  0.98114000  1.0
  H  H46  1  0.12421000  0.73094000  0.51886000  1.0
  H  H47  1  0.37579000  0.26906000  0.01886000  1.0
  H  H48  1  0.64907000  0.83766000  0.34681000  1.0
  H  H49  1  0.85093000  0.16234000  0.84681000  1.0
  H  H50  1  0.14907000  0.66234000  0.65319000  1.0
  H  H51  1  0.35093000  0.33766000  0.15319000  1.0
  C  C52  1  0.90854000  0.03772000  0.37302000  1.0
  C  C53  1  0.59146000  0.96228000  0.87302000  1.0
  C  C54  1  0.40854000  0.46228000  0.62698000  1.0
  C  C55  1  0.09146000  0.53772000  0.12698000  1.0
  C  C56  1  0.81178000  0.03721000  0.45498000  1.0
  C  C57  1  0.68822000  0.96279000  0.95498000  1.0
  C  C58  1  0.31178000  0.46279000  0.54502000  1.0
  C  C59  1  0.18822000  0.53721000  0.04502000  1.0
  C  C60  1  0.85070000  0.00689000  0.56304000  1.0
  C  C61  1  0.64930000  0.99311000  0.06304000  1.0
  C  C62  1  0.35070000  0.49311000  0.43696000  1.0
  C  C63  1  0.14930000  0.50689000  0.93696000  1.0
  C  C64  1  0.98254000  0.98077000  0.58555000  1.0
  C  C65  1  0.51746000  0.01923000  0.08555000  1.0
  C  C66  1  0.48253000  0.51923000  0.41445000  1.0
  C  C67  1  0.01746000  0.48077000  0.91445000  1.0
  C  C68  1  0.07257000  0.98373000  0.49877000  1.0
  C  C69  1  0.42743000  0.01626000  0.99877000  1.0
  C  C70  1  0.57257000  0.51626000  0.50123000  1.0
  C  C71  1  0.92743000  0.48374000  0.00123000  1.0
  C  C72  1  0.67006000  0.07058000  0.42763000  1.0
  C  C73  1  0.82994000  0.92942000  0.92763000  1.0
  C  C74  1  0.17006000  0.42942000  0.57237000  1.0
  C  C75  1  0.32994000  0.57058000  0.07237000  1.0
  C  C76  1  0.50701000  0.00101000  0.55233000  1.0
  C  C77  1  0.99299000  0.99899000  0.05233000  1.0
  C  C78  1  0.00701000  0.49899000  0.44767000  1.0
  C  C79  1  0.49299000  0.50101000  0.94767000  1.0
  C  C80  1  0.52952000  0.14077000  0.58096000  1.0
  C  C81  1  0.97048000  0.85923000  0.08096000  1.0
  C  C82  1  0.02952000  0.35923000  0.41904000  1.0
  C  C83  1  0.47048000  0.64077000  0.91904000  1.0
  C  C84  1  0.61691000  0.19244000  0.48676000  1.0
  C  C85  1  0.88310000  0.80756000  0.98676000  1.0
  C  C86  1  0.11691000  0.30756000  0.51324000  1.0
  C  C87  1  0.38310000  0.69244000  0.01324000  1.0
  C  C88  1  0.58541000  0.83781000  0.41985000  1.0
  C  C89  1  0.91459000  0.16219000  0.91986000  1.0
  C  C90  1  0.08541000  0.66219000  0.58015000  1.0
  C  C91  1  0.41459000  0.33781000  0.08014000  1.0
  S  S92  1  0.40515000  0.89467000  0.61580000  1.0
  S  S93  1  0.09485000  0.10533000  0.11580000  1.0
  S  S94  1  0.90515000  0.60533000  0.38420000  1.0
  S  S95  1  0.59485000  0.39467000  0.88420000  1.0
  N  N96  1  0.03603000  0.01112000  0.39438000  1.0
  N  N97  1  0.46397000  0.98888000  0.89438000  1.0
  N  N98  1  0.53603000  0.48888000  0.60562000  1.0
  N  N99  1  0.96397000  0.51112000  0.10563000  1.0
  N  N100  1  0.58148000  0.96702000  0.46728000  1.0
  N  N101  1  0.91852000  0.03298000  0.96728000  1.0
  N  N102  1  0.08148000  0.53298000  0.53272000  1.0
  N  N103  1  0.41852000  0.46702000  0.03272000  1.0
  Cl  Cl104  1  0.33739000  0.14882000  0.32359000  1.0
  Cl  Cl105  1  0.16261000  0.85118000  0.82359000  1.0
  Cl  Cl106  1  0.83739000  0.35118000  0.67641000  1.0
  Cl  Cl107  1  0.66261000  0.64882000  0.17641000  1.0
  Cl  Cl108  1  0.24974000  0.79678000  0.27633000  1.0
  Cl  Cl109  1  0.25026000  0.20322000  0.77633000  1.0
  Cl  Cl110  1  0.74974000  0.70322000  0.72367000  1.0
  Cl  Cl111  1  0.75026000  0.29678000  0.22367000  1.0
