# generated using pymatgen
data_CuH7C5BrN3
_symmetry_space_group_name_H-M   'P 1'
_cell_length_a   6.96973000
_cell_length_b   7.20865000
_cell_length_c   8.01584000
_cell_angle_alpha   98.07410000
_cell_angle_beta   105.80100000
_cell_angle_gamma   99.95690000
_symmetry_Int_Tables_number   1
_chemical_formula_structural   CuH7C5BrN3
_chemical_formula_sum   'Cu2 H14 C10 Br2 N6'
_cell_volume   374.13250664
_cell_formula_units_Z   2
loop_
 _symmetry_equiv_pos_site_id
 _symmetry_equiv_pos_as_xyz
  1  'x, y, z'
loop_
 _atom_site_type_symbol
 _atom_site_label
 _atom_site_symmetry_multiplicity
 _atom_site_fract_x
 _atom_site_fract_y
 _atom_site_fract_z
 _atom_site_occupancy
  Cu  Cu0  1  0.85404000  0.64706000  0.01195000  1.0
  Cu  Cu1  1  0.14598000  0.35293000  0.98805000  1.0
  H  H2  1  0.05151000  0.72391000  0.34240000  1.0
  H  H3  1  0.94850000  0.27610000  0.65760000  1.0
  H  H4  1  0.54614000  0.87957000  0.79401000  1.0
  H  H5  1  0.45389000  0.12044000  0.20599000  1.0
  H  H6  1  0.69409000  0.89952000  0.15091000  1.0
  H  H7  1  0.30590000  0.10045000  0.84907000  1.0
  H  H8  1  0.97065000  0.99283000  0.18797000  1.0
  H  H9  1  0.02931000  0.00716000  0.81201000  1.0
  H  H10  1  0.58236000  0.57297000  0.22426000  1.0
  H  H11  1  0.41764000  0.42702000  0.77574000  1.0
  H  H12  1  0.77278000  0.45390000  0.32911000  1.0
  H  H13  1  0.22723000  0.54610000  0.67089000  1.0
  H  H14  1  0.47802000  0.82554000  0.42283000  1.0
  H  H15  1  0.52198000  0.17448000  0.57717000  1.0
  C  C16  1  0.89325000  0.72800000  0.27707000  1.0
  C  C17  1  0.10674000  0.27202000  0.72292000  1.0
  C  C18  1  0.61443000  0.80188000  0.70840000  1.0
  C  C19  1  0.38560000  0.19814000  0.29163000  1.0
  C  C20  1  0.84979000  0.87661000  0.19103000  1.0
  C  C21  1  0.15020000  0.12339000  0.80896000  1.0
  C  C22  1  0.73276000  0.59348000  0.32251000  1.0
  C  C23  1  0.26723000  0.40649000  0.67749000  1.0
  C  C24  1  0.58165000  0.77952000  0.52836000  1.0
  C  C25  1  0.41838000  0.22049000  0.47165000  1.0
  Br  Br26  1  0.74159000  0.29647000  0.96037000  1.0
  Br  Br27  1  0.25836000  0.70352000  0.03968000  1.0
  N  N28  1  0.75708000  0.70040000  0.77216000  1.0
  N  N29  1  0.24292000  0.29961000  0.22785000  1.0
  N  N30  1  0.81484000  0.61728000  0.64142000  1.0
  N  N31  1  0.18515000  0.38271000  0.35855000  1.0
  N  N32  1  0.70819000  0.66555000  0.49445000  1.0
  N  N33  1  0.29183000  0.33443000  0.50557000  1.0
