# generated using pymatgen
data_Zn5H14(C10O11)2
_symmetry_space_group_name_H-M   'P 1'
_cell_length_a   7.01473000
_cell_length_b   15.19980000
_cell_length_c   15.42130000
_cell_angle_alpha   89.99970000
_cell_angle_beta   89.99980000
_cell_angle_gamma   98.52550000
_symmetry_Int_Tables_number   1
_chemical_formula_structural   Zn5H14(C10O11)2
_chemical_formula_sum   'Zn10 H28 C40 O44'
_cell_volume   1626.08837685
_cell_formula_units_Z   2
loop_
 _symmetry_equiv_pos_site_id
 _symmetry_equiv_pos_as_xyz
  1  'x, y, z'
loop_
 _atom_site_type_symbol
 _atom_site_label
 _atom_site_symmetry_multiplicity
 _atom_site_fract_x
 _atom_site_fract_y
 _atom_site_fract_z
 _atom_site_occupancy
  Zn  Zn0  1  0.50000000  0.50000000  0.50000000  1.0
  Zn  Zn1  1  0.00000000  0.00000000  0.00000000  1.0
  Zn  Zn2  1  0.20374000  0.64397000  0.47130000  1.0
  Zn  Zn3  1  0.29628000  0.85604000  0.97130000  1.0
  Zn  Zn4  1  0.79626000  0.35603000  0.52870000  1.0
  Zn  Zn5  1  0.70373000  0.14397000  0.02871000  1.0
  Zn  Zn6  1  0.15997000  0.44120000  0.36677000  1.0
  Zn  Zn7  1  0.34003000  0.05880000  0.86677000  1.0
  Zn  Zn8  1  0.84003000  0.55880000  0.63323000  1.0
  Zn  Zn9  1  0.65997000  0.94120000  0.13323000  1.0
  H  H10  1  0.84867000  0.50799000  0.46334000  1.0
  H  H11  1  0.65133000  0.99201000  0.96334000  1.0
  H  H12  1  0.15133000  0.49201000  0.53666000  1.0
  H  H13  1  0.34867000  0.00799000  0.03666000  1.0
  H  H14  1  0.19244000  0.40718000  0.20835000  1.0
  H  H15  1  0.30756000  0.09283000  0.70836000  1.0
  H  H16  1  0.80756000  0.59282000  0.79165000  1.0
  H  H17  1  0.69244000  0.90716000  0.29165000  1.0
  H  H18  1  0.97136000  0.36363000  0.21958000  1.0
  H  H19  1  0.52864000  0.13637000  0.71958000  1.0
  H  H20  1  0.02863000  0.63637000  0.78042000  1.0
  H  H21  1  0.47136000  0.86362000  0.28042000  1.0
  H  H22  1  0.19650000  0.77718000  0.32857000  1.0
  H  H23  1  0.30351000  0.72282000  0.82857000  1.0
  H  H24  1  0.80351000  0.22282000  0.67143000  1.0
  H  H25  1  0.69649000  0.27718000  0.17144000  1.0
  H  H26  1  0.23826000  0.85933000  0.38683000  1.0
  H  H27  1  0.26175000  0.64067000  0.88683000  1.0
  H  H28  1  0.76173000  0.14067000  0.61316000  1.0
  H  H29  1  0.73824000  0.35933000  0.11317000  1.0
  H  H30  1  0.38703000  0.63217000  0.17664000  1.0
  H  H31  1  0.11298000  0.86783000  0.67664000  1.0
  H  H32  1  0.61297000  0.36783000  0.82336000  1.0
  H  H33  1  0.88700000  0.13218000  0.32336000  1.0
  H  H34  1  0.09526000  0.71413000  0.19396000  1.0
  H  H35  1  0.40475000  0.78586000  0.69396000  1.0
  H  H36  1  0.90474000  0.28586000  0.80604000  1.0
  H  H37  1  0.59526000  0.21414000  0.30604000  1.0
  C  C38  1  0.84417000  0.63912000  0.25337000  1.0
  C  C39  1  0.65585000  0.86088000  0.75336000  1.0
  C  C40  1  0.15584000  0.36089000  0.74664000  1.0
  C  C41  1  0.34415000  0.13911000  0.24663000  1.0
  C  C42  1  0.64201000  0.61658000  0.24771000  1.0
  C  C43  1  0.85800000  0.88342000  0.74771000  1.0
  C  C44  1  0.35800000  0.38342000  0.75229000  1.0
  C  C45  1  0.14198000  0.11657000  0.25229000  1.0
  C  C46  1  0.54269000  0.65155000  0.18067000  1.0
  C  C47  1  0.95732000  0.84846000  0.68067000  1.0
  C  C48  1  0.45730000  0.34845000  0.81933000  1.0
  C  C49  1  0.04267000  0.15155000  0.31933000  1.0
  C  C50  1  0.63637000  0.71409000  0.12280000  1.0
  C  C51  1  0.86365000  0.78592000  0.62281000  1.0
  C  C52  1  0.36363000  0.28592000  0.87720000  1.0
  C  C53  1  0.13636000  0.21408000  0.37720000  1.0
  C  C54  1  0.83680000  0.73685000  0.12863000  1.0
  C  C55  1  0.66321000  0.76315000  0.62863000  1.0
  C  C56  1  0.16318000  0.26314000  0.87136000  1.0
  C  C57  1  0.33679000  0.23685000  0.37136000  1.0
  C  C58  1  0.93886000  0.69730000  0.19183000  1.0
  C  C59  1  0.56115000  0.80269000  0.69183000  1.0
  C  C60  1  0.06115000  0.30270000  0.80816000  1.0
  C  C61  1  0.43884000  0.19730000  0.30817000  1.0
  C  C62  1  0.96514000  0.60338000  0.32143000  1.0
  C  C63  1  0.53487000  0.89662000  0.82143000  1.0
  C  C64  1  0.03486000  0.39662000  0.67857000  1.0
  C  C65  1  0.46514000  0.10338000  0.17857000  1.0
  C  C66  1  0.52131000  0.56577000  0.31653000  1.0
  C  C67  1  0.97871000  0.93423000  0.81653000  1.0
  C  C68  1  0.47869000  0.43423000  0.68347000  1.0
  C  C69  1  0.02130000  0.06577000  0.18347000  1.0
  C  C70  1  0.51602000  0.75185000  0.05609000  1.0
  C  C71  1  0.98400000  0.74815000  0.55609000  1.0
  C  C72  1  0.48398000  0.24815000  0.94392000  1.0
  C  C73  1  0.01601000  0.25187000  0.44391000  1.0
  C  C74  1  0.94876000  0.80563000  0.07184000  1.0
  C  C75  1  0.55125000  0.69437000  0.57185000  1.0
  C  C76  1  0.05124000  0.19437000  0.92815000  1.0
  C  C77  1  0.44875000  0.30562000  0.42815000  1.0
  O  O78  1  0.93325000  0.52197000  0.34211000  1.0
  O  O79  1  0.56676000  0.97804000  0.84210000  1.0
  O  O80  1  0.06675000  0.47802000  0.65789000  1.0
  O  O81  1  0.43325000  0.02197000  0.15789000  1.0
  O  O82  1  0.10198000  0.66067000  0.35338000  1.0
  O  O83  1  0.39804000  0.83933000  0.85337000  1.0
  O  O84  1  0.89803000  0.33933000  0.64662000  1.0
  O  O85  1  0.60197000  0.16067000  0.14663000  1.0
  O  O86  1  0.36592000  0.51786000  0.29217000  1.0
  O  O87  1  0.13409000  0.98214000  0.79217000  1.0
  O  O88  1  0.63408000  0.48214000  0.70784000  1.0
  O  O89  1  0.86590000  0.01786000  0.20783000  1.0
  O  O90  1  0.57844000  0.57985000  0.39410000  1.0
  O  O91  1  0.92156000  0.92015000  0.89410000  1.0
  O  O92  1  0.42156000  0.42015000  0.60590000  1.0
  O  O93  1  0.07843000  0.07986000  0.10590000  1.0
  O  O94  1  0.49989000  0.83710000  0.06177000  1.0
  O  O95  1  0.00013000  0.66289000  0.56178000  1.0
  O  O96  1  0.50011000  0.16290000  0.93823000  1.0
  O  O97  1  0.99988000  0.33711000  0.43822000  1.0
  O  O98  1  0.42917000  0.70313000  0.00004000  1.0
  O  O99  1  0.07085000  0.79687000  0.50004000  1.0
  O  O100  1  0.57084000  0.29688000  0.99996000  1.0
  O  O101  1  0.92915000  0.20313000  0.49995000  1.0
  O  O102  1  0.07443000  0.77970000  0.02254000  1.0
  O  O103  1  0.42558000  0.72030000  0.52254000  1.0
  O  O104  1  0.92557000  0.22030000  0.97746000  1.0
  O  O105  1  0.57441000  0.27970000  0.47746000  1.0
  O  O106  1  0.91549000  0.88517000  0.08017000  1.0
  O  O107  1  0.58452000  0.61483000  0.58017000  1.0
  O  O108  1  0.08450000  0.11483000  0.91983000  1.0
  O  O109  1  0.41548000  0.38517000  0.41983000  1.0
  O  O110  1  0.78512000  0.48460000  0.51718000  1.0
  O  O111  1  0.71487000  0.01540000  0.01718000  1.0
  O  O112  1  0.21488000  0.51540000  0.48282000  1.0
  O  O113  1  0.28513000  0.98461000  0.98282000  1.0
  O  O114  1  0.10176000  0.37459000  0.24896000  1.0
  O  O115  1  0.39825000  0.12542000  0.74897000  1.0
  O  O116  1  0.89824000  0.62542000  0.75104000  1.0
  O  O117  1  0.60175000  0.87458000  0.25104000  1.0
  O  O118  1  0.25969000  0.83968000  0.32784000  1.0
  O  O119  1  0.24031000  0.66032000  0.82785000  1.0
  O  O120  1  0.74031000  0.16032000  0.67215000  1.0
  O  O121  1  0.75969000  0.33968000  0.17216000  1.0
