# generated using pymatgen
data_CoCuH20C27(N2O3)2
_symmetry_space_group_name_H-M   'P 1'
_cell_length_a   9.89556000
_cell_length_b   11.86860000
_cell_length_c   12.22790000
_cell_angle_alpha   67.82880000
_cell_angle_beta   85.56580000
_cell_angle_gamma   68.09830000
_symmetry_Int_Tables_number   1
_chemical_formula_structural   CoCuH20C27(N2O3)2
_chemical_formula_sum   'Co2 Cu2 H40 C54 N8 O12'
_cell_volume   1230.57964286
_cell_formula_units_Z   2
loop_
 _symmetry_equiv_pos_site_id
 _symmetry_equiv_pos_as_xyz
  1  'x, y, z'
loop_
 _atom_site_type_symbol
 _atom_site_label
 _atom_site_symmetry_multiplicity
 _atom_site_fract_x
 _atom_site_fract_y
 _atom_site_fract_z
 _atom_site_occupancy
  Co  Co0  1  0.08263000  0.32619000  0.66351000  1.0
  Co  Co1  1  0.91737000  0.67382000  0.33649000  1.0
  Cu  Cu2  1  0.29413000  0.23691000  0.09220000  1.0
  Cu  Cu3  1  0.70587000  0.76310000  0.90781000  1.0
  H  H4  1  0.81228000  0.45003000  0.27337000  1.0
  H  H5  1  0.18772000  0.54997000  0.72664000  1.0
  H  H6  1  0.58884000  0.45524000  0.18762000  1.0
  H  H7  1  0.41116000  0.54477000  0.81239000  1.0
  H  H8  1  0.61139000  0.37399000  0.02194000  1.0
  H  H9  1  0.38860000  0.62601000  0.97808000  1.0
  H  H10  1  0.84838000  0.30224000  0.93924000  1.0
  H  H11  1  0.15161000  0.69776000  0.06077000  1.0
  H  H12  1  0.04500000  0.41979000  0.28291000  1.0
  H  H13  1  0.95500000  0.58021000  0.71710000  1.0
  H  H14  1  0.26206000  0.41783000  0.30363000  1.0
  H  H15  1  0.73793000  0.58217000  0.69638000  1.0
  H  H16  1  0.38431000  0.39103000  0.19367000  1.0
  H  H17  1  0.61567000  0.60898000  0.80633000  1.0
  H  H18  1  0.36825000  0.19904000  0.43801000  1.0
  H  H19  1  0.63175000  0.80096000  0.56200000  1.0
  H  H20  1  0.52131000  0.23121000  0.36799000  1.0
  H  H21  1  0.47869000  0.76880000  0.63201000  1.0
  H  H22  1  0.55883000  0.01909000  0.37147000  1.0
  H  H23  1  0.44118000  0.98092000  0.62853000  1.0
  H  H24  1  0.36950000  0.05995000  0.34386000  1.0
  H  H25  1  0.63051000  0.94005000  0.65614000  1.0
  H  H26  1  0.69282000  0.01417000  0.22224000  1.0
  H  H27  1  0.30718000  0.98584000  0.77775000  1.0
  H  H28  1  0.50433000  0.18478000  0.75108000  1.0
  H  H29  1  0.49565000  0.81522000  0.24892000  1.0
  H  H30  1  0.76765000  0.09715000  0.72712000  1.0
  H  H31  1  0.23233000  0.90284000  0.27287000  1.0
  H  H32  1  0.94766000  0.99282000  0.90180000  1.0
  H  H33  1  0.05234000  0.00718000  0.09819000  1.0
  H  H34  1  0.85618000  0.98569000  0.10015000  1.0
  H  H35  1  0.14383000  0.01431000  0.89984000  1.0
  H  H36  1  0.02023000  0.94300000  0.71772000  1.0
  H  H37  1  0.97979000  0.05699000  0.28227000  1.0
  H  H38  1  0.06496000  0.18529000  0.36455000  1.0
  H  H39  1  0.93505000  0.81469000  0.63545000  1.0
  H  H40  1  0.60835000  0.59086000  0.31315000  1.0
  H  H41  1  0.39166000  0.40914000  0.68684000  1.0
  H  H42  1  0.65373000  0.38784000  0.69014000  1.0
  H  H43  1  0.34629000  0.61214000  0.30985000  1.0
  C  C44  1  0.11792000  0.29593000  0.90171000  1.0
  C  C45  1  0.88207000  0.70407000  0.09830000  1.0
  C  C46  1  0.96799000  0.33513000  0.05729000  1.0
  C  C47  1  0.03200000  0.66487000  0.94272000  1.0
  C  C48  1  0.95603000  0.37529000  0.15510000  1.0
  C  C49  1  0.04396000  0.62471000  0.84491000  1.0
  C  C50  1  0.81816000  0.41849000  0.19944000  1.0
  C  C51  1  0.18183000  0.58151000  0.80057000  1.0
  C  C52  1  0.69395000  0.42062000  0.15191000  1.0
  C  C53  1  0.30604000  0.57938000  0.84810000  1.0
  C  C54  1  0.70680000  0.37633000  0.05901000  1.0
  C  C55  1  0.29320000  0.62367000  0.94100000  1.0
  C  C56  1  0.84068000  0.33477000  0.01226000  1.0
  C  C57  1  0.15932000  0.66523000  0.98775000  1.0
  C  C58  1  0.07575000  0.37707000  0.21488000  1.0
  C  C59  1  0.92425000  0.62293000  0.78513000  1.0
  C  C60  1  0.31890000  0.34764000  0.26124000  1.0
  C  C61  1  0.68109000  0.65236000  0.73876000  1.0
  C  C62  1  0.42058000  0.21810000  0.35377000  1.0
  C  C63  1  0.57942000  0.78191000  0.64623000  1.0
  C  C64  1  0.45825000  0.09784000  0.32040000  1.0
  C  C65  1  0.54175000  0.90216000  0.67960000  1.0
  C  C66  1  0.59858000  0.07612000  0.15686000  1.0
  C  C67  1  0.40142000  0.92388000  0.84314000  1.0
  C  C68  1  0.63097000  0.08913000  0.03629000  1.0
  C  C69  1  0.36902000  0.91087000  0.96370000  1.0
  C  C70  1  0.52679000  0.14579000  0.93709000  1.0
  C  C71  1  0.47320000  0.85422000  0.06291000  1.0
  C  C72  1  0.58140000  0.14424000  0.82704000  1.0
  C  C73  1  0.41859000  0.85577000  0.17295000  1.0
  C  C74  1  0.73029000  0.09255000  0.81449000  1.0
  C  C75  1  0.26969000  0.90745000  0.18551000  1.0
  C  C76  1  0.83161000  0.03538000  0.91187000  1.0
  C  C77  1  0.16838000  0.96462000  0.08812000  1.0
  C  C78  1  0.78097000  0.03314000  0.02127000  1.0
  C  C79  1  0.21902000  0.96686000  0.97873000  1.0
  C  C80  1  0.27178000  0.23699000  0.86944000  1.0
  C  C81  1  0.72821000  0.76301000  0.13056000  1.0
  C  C82  1  0.08660000  0.15628000  0.59134000  1.0
  C  C83  1  0.91341000  0.84372000  0.40867000  1.0
  C  C84  1  0.04752000  0.07220000  0.54518000  1.0
  C  C85  1  0.95249000  0.92779000  0.45482000  1.0
  C  C86  1  0.01077000  0.96754000  0.62258000  1.0
  C  C87  1  0.98925000  0.03245000  0.37741000  1.0
  C  C88  1  0.03692000  0.10337000  0.42282000  1.0
  C  C89  1  0.96310000  0.89663000  0.57718000  1.0
  C  C90  1  0.80292000  0.47419000  0.50327000  1.0
  C  C91  1  0.19709000  0.52582000  0.49672000  1.0
  C  C92  1  0.64649000  0.48762000  0.50161000  1.0
  C  C93  1  0.35353000  0.51237000  0.49837000  1.0
  C  C94  1  0.56009000  0.55035000  0.39430000  1.0
  C  C95  1  0.43993000  0.44964000  0.60568000  1.0
  C  C96  1  0.58515000  0.43718000  0.60752000  1.0
  C  C97  1  0.41487000  0.56280000  0.39247000  1.0
  N  N98  1  0.10272000  0.29420000  0.01173000  1.0
  N  N99  1  0.89727000  0.70580000  0.98828000  1.0
  N  N100  1  0.21281000  0.33163000  0.19712000  1.0
  N  N101  1  0.78719000  0.66837000  0.80288000  1.0
  N  N102  1  0.47308000  0.12715000  0.19375000  1.0
  N  N103  1  0.52692000  0.87285000  0.80625000  1.0
  N  N104  1  0.37850000  0.20019000  0.95121000  1.0
  N  N105  1  0.62149000  0.79981000  0.04879000  1.0
  O  O106  1  0.01748000  0.34241000  0.82066000  1.0
  O  O107  1  0.98252000  0.65758000  0.17934000  1.0
  O  O108  1  0.28237000  0.22832000  0.76862000  1.0
  O  O109  1  0.71761000  0.77170000  0.23138000  1.0
  O  O110  1  0.12711000  0.24771000  0.52258000  1.0
  O  O111  1  0.87290000  0.75229000  0.47742000  1.0
  O  O112  1  0.07042000  0.14089000  0.70072000  1.0
  O  O113  1  0.92958000  0.85912000  0.29928000  1.0
  O  O114  1  0.87354000  0.41655000  0.60406000  1.0
  O  O115  1  0.12648000  0.58347000  0.39593000  1.0
  O  O116  1  0.85362000  0.52037000  0.40400000  1.0
  O  O117  1  0.14637000  0.47964000  0.59598000  1.0
