# generated using pymatgen
data_ZnH13C13(NO)5
_symmetry_space_group_name_H-M   'P 1'
_cell_length_a   12.47710000
_cell_length_b   12.47720000
_cell_length_c   14.19430000
_cell_angle_alpha   71.13800000
_cell_angle_beta   71.13820000
_cell_angle_gamma   79.62590000
_symmetry_Int_Tables_number   1
_chemical_formula_structural   ZnH13C13(NO)5
_chemical_formula_sum   'Zn4 H52 C52 N20 O20'
_cell_volume   1971.74800627
_cell_formula_units_Z   4
loop_
 _symmetry_equiv_pos_site_id
 _symmetry_equiv_pos_as_xyz
  1  'x, y, z'
loop_
 _atom_site_type_symbol
 _atom_site_label
 _atom_site_symmetry_multiplicity
 _atom_site_fract_x
 _atom_site_fract_y
 _atom_site_fract_z
 _atom_site_occupancy
  Zn  Zn0  1  0.86475000  0.26512000  0.88125000  1.0
  Zn  Zn1  1  0.73487000  0.13525000  0.61875000  1.0
  Zn  Zn2  1  0.13525000  0.73487000  0.11875000  1.0
  Zn  Zn3  1  0.26512000  0.86475000  0.38125000  1.0
  H  H4  1  0.87593000  0.15632000  0.08350000  1.0
  H  H5  1  0.84368000  0.12407000  0.41650000  1.0
  H  H6  1  0.12407000  0.84368000  0.91650000  1.0
  H  H7  1  0.15632000  0.87593000  0.58350000  1.0
  H  H8  1  0.74826000  0.20424000  0.07588000  1.0
  H  H9  1  0.79576000  0.25174000  0.42412000  1.0
  H  H10  1  0.25174000  0.79576000  0.92412000  1.0
  H  H11  1  0.20424000  0.74826000  0.57588000  1.0
  H  H12  1  0.66407000  0.24986000  0.86758000  1.0
  H  H13  1  0.75014000  0.33593000  0.63243000  1.0
  H  H14  1  0.33593000  0.75014000  0.13242000  1.0
  H  H15  1  0.24986000  0.66407000  0.36758000  1.0
  H  H16  1  0.67264000  0.36086000  0.90317000  1.0
  H  H17  1  0.63915000  0.32735000  0.59683000  1.0
  H  H18  1  0.32735000  0.63915000  0.09683000  1.0
  H  H19  1  0.36085000  0.67265000  0.40317000  1.0
  H  H20  1  0.92129000  0.26952000  0.66793000  1.0
  H  H21  1  0.73048000  0.07871000  0.83207000  1.0
  H  H22  1  0.07871000  0.73048000  0.33207000  1.0
  H  H23  1  0.26952000  0.92129000  0.16793000  1.0
  H  H24  1  0.90374000  0.39661000  0.68041000  1.0
  H  H25  1  0.60339000  0.09626000  0.81959000  1.0
  H  H26  1  0.09626000  0.60339000  0.31960000  1.0
  H  H27  1  0.39661000  0.90374000  0.18041000  1.0
  H  H28  1  0.65521000  0.68825000  0.90491000  1.0
  H  H29  1  0.31174000  0.34479000  0.59509000  1.0
  H  H30  1  0.34479000  0.31174000  0.09509000  1.0
  H  H31  1  0.68825000  0.65521000  0.40491000  1.0
  H  H32  1  0.70801000  0.87295000  0.90377000  1.0
  H  H33  1  0.12705000  0.29199000  0.59623000  1.0
  H  H34  1  0.29199000  0.12705000  0.09623000  1.0
  H  H35  1  0.87295000  0.70801000  0.40378000  1.0
  H  H36  1  0.05834000  0.73796000  0.85605000  1.0
  H  H37  1  0.26204000  0.94165000  0.64395000  1.0
  H  H38  1  0.94165000  0.26204000  0.14395000  1.0
  H  H39  1  0.73796000  0.05835000  0.35605000  1.0
  H  H40  1  0.00387000  0.55550000  0.85739000  1.0
  H  H41  1  0.44451000  0.99613000  0.64261000  1.0
  H  H42  1  0.99613000  0.44451000  0.14261000  1.0
  H  H43  1  0.55550000  0.00387000  0.35739000  1.0
  H  H44  1  0.23974000  0.99859000  0.87430000  1.0
  H  H45  1  0.00141000  0.76025000  0.62570000  1.0
  H  H46  1  0.76025000  0.00141000  0.12570000  1.0
  H  H47  1  0.99859000  0.23975000  0.37429000  1.0
  H  H48  1  0.29977000  0.32192000  0.85657000  1.0
  H  H49  1  0.67808000  0.70023000  0.64343000  1.0
  H  H50  1  0.70023000  0.67808000  0.14343000  1.0
  H  H51  1  0.32193000  0.29976000  0.35657000  1.0
  H  H52  1  0.09353000  0.39018000  0.86149000  1.0
  H  H53  1  0.60981000  0.90647000  0.63850000  1.0
  H  H54  1  0.90647000  0.60982000  0.13851000  1.0
  H  H55  1  0.39019000  0.09352000  0.36149000  1.0
  C  C56  1  0.79586000  0.50161000  0.87743000  1.0
  C  C57  1  0.49839000  0.20413000  0.62257000  1.0
  C  C58  1  0.20413000  0.49839000  0.12257000  1.0
  C  C59  1  0.50161000  0.79587000  0.37743000  1.0
  C  C60  1  0.82664000  0.61129000  0.87998000  1.0
  C  C61  1  0.38871000  0.17336000  0.62002000  1.0
  C  C62  1  0.17336000  0.38870000  0.12003000  1.0
  C  C63  1  0.61129000  0.82664000  0.37998000  1.0
  C  C64  1  0.74323000  0.70106000  0.89352000  1.0
  C  C65  1  0.29894000  0.25677000  0.60648000  1.0
  C  C66  1  0.25678000  0.29894000  0.10648000  1.0
  C  C67  1  0.70106000  0.74323000  0.39352000  1.0
  C  C68  1  0.77312000  0.80374000  0.89213000  1.0
  C  C69  1  0.19626000  0.22688000  0.60787000  1.0
  C  C70  1  0.22689000  0.19626000  0.10787000  1.0
  C  C71  1  0.80374000  0.77312000  0.39213000  1.0
  C  C72  1  0.88708000  0.81871000  0.87789000  1.0
  C  C73  1  0.18129000  0.11292000  0.62211000  1.0
  C  C74  1  0.11292000  0.18129000  0.12211000  1.0
  C  C75  1  0.81870000  0.88709000  0.37789000  1.0
  C  C76  1  0.97017000  0.72809000  0.86591000  1.0
  C  C77  1  0.27191000  0.02983000  0.63409000  1.0
  C  C78  1  0.02983000  0.27191000  0.13409000  1.0
  C  C79  1  0.72808000  0.97018000  0.36591000  1.0
  C  C80  1  0.93976000  0.62583000  0.86720000  1.0
  C  C81  1  0.37418000  0.06025000  0.63280000  1.0
  C  C82  1  0.06025000  0.37418000  0.13280000  1.0
  C  C83  1  0.62582000  0.93976000  0.36720000  1.0
  C  C84  1  0.91855000  0.92613000  0.87684000  1.0
  C  C85  1  0.07387000  0.08145000  0.62316000  1.0
  C  C86  1  0.08145000  0.07387000  0.12316000  1.0
  C  C87  1  0.92613000  0.91855000  0.37685000  1.0
  C  C88  1  0.01065000  0.05414000  0.87575000  1.0
  C  C89  1  0.94586000  0.98935000  0.62425000  1.0
  C  C90  1  0.98935000  0.94586000  0.12425000  1.0
  C  C91  1  0.05414000  0.01065000  0.37575000  1.0
  C  C92  1  0.09458000  0.12401000  0.87178000  1.0
  C  C93  1  0.87599000  0.90542000  0.62822000  1.0
  C  C94  1  0.90542000  0.87599000  0.12822000  1.0
  C  C95  1  0.12401000  0.09458000  0.37177000  1.0
  C  C96  1  0.20776000  0.08658000  0.87098000  1.0
  C  C97  1  0.91342000  0.79224000  0.62902000  1.0
  C  C98  1  0.79224000  0.91343000  0.12902000  1.0
  C  C99  1  0.08658000  0.20776000  0.37098000  1.0
  C  C100  1  0.24068000  0.26449000  0.86112000  1.0
  C  C101  1  0.73551000  0.75932000  0.63888000  1.0
  C  C102  1  0.75932000  0.73551000  0.13887000  1.0
  C  C103  1  0.26450000  0.24068000  0.36113000  1.0
  C  C104  1  0.12773000  0.30299000  0.86315000  1.0
  C  C105  1  0.69701000  0.87227000  0.63685000  1.0
  C  C106  1  0.87227000  0.69701000  0.13685000  1.0
  C  C107  1  0.30299000  0.12773000  0.36315000  1.0
  N  N108  1  0.84586000  0.02077000  0.87508000  1.0
  N  N109  1  0.97923000  0.15414000  0.62492000  1.0
  N  N110  1  0.15414000  0.97923000  0.12492000  1.0
  N  N111  1  0.02076000  0.84586000  0.37508000  1.0
  N  N112  1  0.90509000  0.10151000  0.87460000  1.0
  N  N113  1  0.89849000  0.09491000  0.62540000  1.0
  N  N114  1  0.09491000  0.89849000  0.12540000  1.0
  N  N115  1  0.10151000  0.90509000  0.37460000  1.0
  N  N116  1  0.02301000  0.94392000  0.87765000  1.0
  N  N117  1  0.05608000  0.97699000  0.62235000  1.0
  N  N118  1  0.97699000  0.05608000  0.12235000  1.0
  N  N119  1  0.94392000  0.02301000  0.37765000  1.0
  N  N120  1  0.05543000  0.23303000  0.86844000  1.0
  N  N121  1  0.76697000  0.94457000  0.63156000  1.0
  N  N122  1  0.94457000  0.76697000  0.13156000  1.0
  N  N123  1  0.23303000  0.05542000  0.36844000  1.0
  N  N124  1  0.28058000  0.15621000  0.86574000  1.0
  N  N125  1  0.84378000  0.71942000  0.63426000  1.0
  N  N126  1  0.71942000  0.84379000  0.13426000  1.0
  N  N127  1  0.15622000  0.28057000  0.36574000  1.0
  O  O128  1  0.69309000  0.48870000  0.89277000  1.0
  O  O129  1  0.51131000  0.30691000  0.60723000  1.0
  O  O130  1  0.30692000  0.51130000  0.10722000  1.0
  O  O131  1  0.48869000  0.69309000  0.39277000  1.0
  O  O132  1  0.88109000  0.42783000  0.85872000  1.0
  O  O133  1  0.57217000  0.11891000  0.64128000  1.0
  O  O134  1  0.11891000  0.57218000  0.14128000  1.0
  O  O135  1  0.42782000  0.88110000  0.35872000  1.0
  O  O136  1  0.82683000  0.22308000  0.05081000  1.0
  O  O137  1  0.77692000  0.17316000  0.44919000  1.0
  O  O138  1  0.17316000  0.77692000  0.94919000  1.0
  O  O139  1  0.22308000  0.82684000  0.55081000  1.0
  O  O140  1  0.68422000  0.27447000  0.91840000  1.0
  O  O141  1  0.72554000  0.31577000  0.58160000  1.0
  O  O142  1  0.31577000  0.72553000  0.08160000  1.0
  O  O143  1  0.27447000  0.68423000  0.41840000  1.0
  O  O144  1  0.86875000  0.32511000  0.70504000  1.0
  O  O145  1  0.67489000  0.13125000  0.79496000  1.0
  O  O146  1  0.13125000  0.67489000  0.29496000  1.0
  O  O147  1  0.32511000  0.86875000  0.20504000  1.0
