# generated using pymatgen
data_ZnH17C25N3O4
_symmetry_space_group_name_H-M   'P 1'
_cell_length_a   9.73539000
_cell_length_b   14.42600000
_cell_length_c   19.69010000
_cell_angle_alpha   90.00010000
_cell_angle_beta   89.99980000
_cell_angle_gamma   89.99990000
_symmetry_Int_Tables_number   1
_chemical_formula_structural   ZnH17C25N3O4
_chemical_formula_sum   'Zn4 H68 C100 N12 O16'
_cell_volume   2765.33151884
_cell_formula_units_Z   4
loop_
 _symmetry_equiv_pos_site_id
 _symmetry_equiv_pos_as_xyz
  1  'x, y, z'
loop_
 _atom_site_type_symbol
 _atom_site_label
 _atom_site_symmetry_multiplicity
 _atom_site_fract_x
 _atom_site_fract_y
 _atom_site_fract_z
 _atom_site_occupancy
  Zn  Zn0  1  0.79963000  0.65324000  0.28637000  1.0
  Zn  Zn1  1  0.70037000  0.34676000  0.78637000  1.0
  Zn  Zn2  1  0.20037000  0.15324000  0.21363000  1.0
  Zn  Zn3  1  0.29963000  0.84676000  0.71363000  1.0
  H  H4  1  0.91812000  0.25950000  0.59109000  1.0
  H  H5  1  0.58189000  0.74050000  0.09109000  1.0
  H  H6  1  0.08189000  0.75950000  0.90891000  1.0
  H  H7  1  0.41812000  0.24050000  0.40891000  1.0
  H  H8  1  0.07216000  0.20503000  0.50016000  1.0
  H  H9  1  0.42784000  0.79497000  0.00017000  1.0
  H  H10  1  0.92784000  0.70503000  0.99984000  1.0
  H  H11  1  0.57216000  0.29497000  0.49984000  1.0
  H  H12  1  0.06675000  0.27911000  0.38568000  1.0
  H  H13  1  0.43325000  0.72089000  0.88568000  1.0
  H  H14  1  0.93325000  0.77911000  0.11432000  1.0
  H  H15  1  0.56675000  0.22089000  0.61432000  1.0
  H  H16  1  0.90538000  0.40817000  0.36332000  1.0
  H  H17  1  0.59462000  0.59183000  0.86332000  1.0
  H  H18  1  0.09462000  0.90817000  0.13668000  1.0
  H  H19  1  0.40538000  0.09183000  0.63668000  1.0
  H  H20  1  0.56261000  0.56772000  0.49093000  1.0
  H  H21  1  0.93739000  0.43228000  0.99093000  1.0
  H  H22  1  0.43739000  0.06772000  0.00907000  1.0
  H  H23  1  0.06261000  0.93228000  0.50907000  1.0
  H  H24  1  0.57781000  0.50148000  0.60761000  1.0
  H  H25  1  0.92219000  0.49852000  0.10761000  1.0
  H  H26  1  0.42219000  0.00148000  0.89239000  1.0
  H  H27  1  0.07781000  0.99852000  0.39239000  1.0
  H  H28  1  0.55921000  0.77896000  0.22295000  1.0
  H  H29  1  0.94079000  0.22104000  0.72295000  1.0
  H  H30  1  0.44079000  0.27896000  0.27705000  1.0
  H  H31  1  0.05921000  0.72104000  0.77705000  1.0
  H  H32  1  0.37313000  0.91910000  0.44073000  1.0
  H  H33  1  0.12687000  0.08089000  0.94073000  1.0
  H  H34  1  0.62687000  0.41911000  0.05927000  1.0
  H  H35  1  0.87313000  0.58090000  0.55927000  1.0
  H  H36  1  0.49644000  0.88720000  0.54845000  1.0
  H  H37  1  0.00355000  0.11280000  0.04845000  1.0
  H  H38  1  0.50356000  0.38720000  0.95155000  1.0
  H  H39  1  0.99645000  0.61280000  0.45155000  1.0
  H  H40  1  0.70393000  0.78635000  0.55046000  1.0
  H  H41  1  0.79607000  0.21365000  0.05046000  1.0
  H  H42  1  0.29607000  0.28635000  0.94954000  1.0
  H  H43  1  0.20393000  0.71365000  0.44954000  1.0
  H  H44  1  0.79429000  0.71450000  0.44453000  1.0
  H  H45  1  0.70571000  0.28550000  0.94452000  1.0
  H  H46  1  0.20571000  0.21450000  0.05547000  1.0
  H  H47  1  0.29429000  0.78550000  0.55548000  1.0
  H  H48  1  0.37719000  0.90922000  0.23547000  1.0
  H  H49  1  0.12281000  0.09077000  0.73546000  1.0
  H  H50  1  0.62281000  0.40923000  0.26453000  1.0
  H  H51  1  0.87719000  0.59077000  0.76453000  1.0
  H  H52  1  0.33842000  0.95088000  0.31644000  1.0
  H  H53  1  0.16159000  0.04912000  0.81644000  1.0
  H  H54  1  0.66158000  0.45088000  0.18356000  1.0
  H  H55  1  0.83842000  0.54912000  0.68356000  1.0
  H  H56  1  0.32129000  0.69680000  0.31683000  1.0
  H  H57  1  0.17871000  0.30320000  0.81682000  1.0
  H  H58  1  0.67871000  0.19680000  0.18317000  1.0
  H  H59  1  0.82129000  0.80320000  0.68317000  1.0
  H  H60  1  0.09863000  0.61140000  0.31548000  1.0
  H  H61  1  0.40137000  0.38860000  0.81548000  1.0
  H  H62  1  0.90137000  0.11140000  0.18452000  1.0
  H  H63  1  0.59863000  0.88860000  0.68452000  1.0
  H  H64  1  0.88181000  0.84735000  0.26284000  1.0
  H  H65  1  0.61819000  0.15265000  0.76284000  1.0
  H  H66  1  0.11819000  0.34735000  0.23716000  1.0
  H  H67  1  0.38181000  0.65265000  0.73716000  1.0
  H  H68  1  0.09623000  0.94486000  0.26466000  1.0
  H  H69  1  0.40377000  0.05513000  0.76466000  1.0
  H  H70  1  0.90377000  0.44486000  0.23534000  1.0
  H  H71  1  0.59623000  0.55514000  0.73534000  1.0
  C  C72  1  0.73226000  0.36448000  0.65342000  1.0
  C  C73  1  0.76774000  0.63552000  0.15342000  1.0
  C  C74  1  0.26774000  0.86448000  0.84658000  1.0
  C  C75  1  0.23226000  0.13552000  0.34658000  1.0
  C  C76  1  0.73484000  0.40335000  0.58293000  1.0
  C  C77  1  0.76517000  0.59666000  0.08293000  1.0
  C  C78  1  0.26517000  0.90335000  0.91707000  1.0
  C  C79  1  0.23483000  0.09665000  0.41707000  1.0
  C  C80  1  0.82334000  0.36729000  0.53098000  1.0
  C  C81  1  0.67666000  0.63272000  0.03098000  1.0
  C  C82  1  0.17666000  0.86729000  0.96903000  1.0
  C  C83  1  0.32334000  0.13271000  0.46903000  1.0
  C  C84  1  0.91692000  0.29306000  0.54173000  1.0
  C  C85  1  0.58309000  0.70694000  0.04174000  1.0
  C  C86  1  0.08309000  0.79306000  0.95827000  1.0
  C  C87  1  0.41691000  0.20694000  0.45827000  1.0
  C  C88  1  0.00161000  0.26212000  0.49045000  1.0
  C  C89  1  0.49839000  0.73788000  0.99045000  1.0
  C  C90  1  0.99839000  0.76212000  0.00955000  1.0
  C  C91  1  0.50161000  0.23788000  0.50955000  1.0
  C  C92  1  0.99768000  0.30345000  0.42544000  1.0
  C  C93  1  0.50232000  0.69656000  0.92544000  1.0
  C  C94  1  0.00232000  0.80345000  0.07456000  1.0
  C  C95  1  0.49768000  0.19655000  0.57456000  1.0
  C  C96  1  0.90823000  0.37539000  0.41310000  1.0
  C  C97  1  0.59177000  0.62462000  0.91310000  1.0
  C  C98  1  0.09177000  0.87539000  0.08690000  1.0
  C  C99  1  0.40823000  0.12461000  0.58690000  1.0
  C  C100  1  0.81929000  0.40924000  0.46464000  1.0
  C  C101  1  0.68071000  0.59076000  0.96464000  1.0
  C  C102  1  0.18071000  0.90924000  0.03536000  1.0
  C  C103  1  0.31929000  0.09076000  0.53536000  1.0
  C  C104  1  0.72394000  0.48207000  0.45130000  1.0
  C  C105  1  0.77606000  0.51793000  0.95130000  1.0
  C  C106  1  0.27606000  0.98207000  0.04870000  1.0
  C  C107  1  0.22394000  0.01793000  0.54870000  1.0
  C  C108  1  0.63640000  0.51287000  0.50194000  1.0
  C  C109  1  0.86361000  0.48713000  0.00193000  1.0
  C  C110  1  0.36361000  0.01287000  0.99807000  1.0
  C  C111  1  0.13639000  0.98713000  0.49807000  1.0
  C  C112  1  0.64467000  0.47511000  0.56767000  1.0
  C  C113  1  0.85533000  0.52489000  0.06766000  1.0
  C  C114  1  0.35533000  0.97512000  0.93234000  1.0
  C  C115  1  0.14467000  0.02489000  0.43234000  1.0
  C  C116  1  0.71910000  0.52784000  0.38270000  1.0
  C  C117  1  0.78090000  0.47216000  0.88270000  1.0
  C  C118  1  0.28090000  0.02784000  0.11730000  1.0
  C  C119  1  0.21909000  0.97215000  0.61730000  1.0
  C  C120  1  0.56463000  0.78685000  0.27771000  1.0
  C  C121  1  0.93538000  0.21315000  0.77771000  1.0
  C  C122  1  0.43538000  0.28685000  0.22229000  1.0
  C  C123  1  0.06462000  0.71315000  0.72229000  1.0
  C  C124  1  0.51599000  0.83415000  0.38230000  1.0
  C  C125  1  0.98401000  0.16585000  0.88230000  1.0
  C  C126  1  0.48401000  0.33415000  0.11770000  1.0
  C  C127  1  0.01599000  0.66585000  0.61770000  1.0
  C  C128  1  0.46378000  0.87483000  0.44125000  1.0
  C  C129  1  0.03622000  0.12517000  0.94125000  1.0
  C  C130  1  0.53622000  0.37483000  0.05875000  1.0
  C  C131  1  0.96378000  0.62517000  0.55875000  1.0
  C  C132  1  0.53420000  0.85632000  0.50142000  1.0
  C  C133  1  0.96580000  0.14368000  0.00141000  1.0
  C  C134  1  0.46580000  0.35632000  0.99858000  1.0
  C  C135  1  0.03420000  0.64368000  0.49858000  1.0
  C  C136  1  0.65175000  0.79913000  0.50236000  1.0
  C  C137  1  0.84825000  0.20087000  0.00236000  1.0
  C  C138  1  0.34825000  0.29913000  0.99763000  1.0
  C  C139  1  0.15175000  0.70087000  0.49764000  1.0
  C  C140  1  0.70346000  0.75850000  0.44357000  1.0
  C  C141  1  0.79654000  0.24151000  0.94357000  1.0
  C  C142  1  0.29654000  0.25850000  0.05643000  1.0
  C  C143  1  0.20346000  0.74150000  0.55643000  1.0
  C  C144  1  0.63364000  0.77651000  0.38289000  1.0
  C  C145  1  0.86637000  0.22349000  0.88289000  1.0
  C  C146  1  0.36637000  0.27651000  0.11711000  1.0
  C  C147  1  0.13364000  0.72348000  0.61711000  1.0
  C  C148  1  0.35559000  0.88649000  0.28787000  1.0
  C  C149  1  0.14441000  0.11351000  0.78786000  1.0
  C  C150  1  0.64441000  0.38649000  0.21213000  1.0
  C  C151  1  0.85559000  0.61351000  0.71213000  1.0
  C  C152  1  0.22672000  0.82839000  0.28957000  1.0
  C  C153  1  0.27328000  0.17161000  0.78956000  1.0
  C  C154  1  0.77328000  0.32839000  0.21043000  1.0
  C  C155  1  0.72672000  0.67161000  0.71043000  1.0
  C  C156  1  0.22674000  0.73358000  0.30439000  1.0
  C  C157  1  0.27326000  0.26642000  0.80439000  1.0
  C  C158  1  0.77326000  0.23358000  0.19561000  1.0
  C  C159  1  0.72674000  0.76642000  0.69561000  1.0
  C  C160  1  0.10306000  0.68519000  0.30347000  1.0
  C  C161  1  0.39694000  0.31481000  0.80347000  1.0
  C  C162  1  0.89694000  0.18519000  0.19653000  1.0
  C  C163  1  0.60306000  0.81481000  0.69653000  1.0
  C  C164  1  0.98198000  0.81748000  0.27453000  1.0
  C  C165  1  0.51802000  0.18253000  0.77453000  1.0
  C  C166  1  0.01802000  0.31748000  0.22547000  1.0
  C  C167  1  0.48198000  0.68252000  0.72547000  1.0
  C  C168  1  0.10052000  0.87068000  0.27479000  1.0
  C  C169  1  0.39948000  0.12932000  0.77479000  1.0
  C  C170  1  0.89948000  0.37068000  0.22521000  1.0
  C  C171  1  0.60052000  0.62932000  0.72521000  1.0
  N  N172  1  0.66035000  0.74802000  0.31650000  1.0
  N  N173  1  0.83965000  0.25198000  0.81650000  1.0
  N  N174  1  0.33965000  0.24802000  0.18350000  1.0
  N  N175  1  0.16035000  0.75198000  0.68350000  1.0
  N  N176  1  0.47569000  0.83928000  0.31449000  1.0
  N  N177  1  0.02431000  0.16071000  0.81448000  1.0
  N  N178  1  0.52431000  0.33929000  0.18551000  1.0
  N  N179  1  0.97569000  0.66071000  0.68551000  1.0
  N  N180  1  0.98272000  0.72606000  0.28856000  1.0
  N  N181  1  0.51728000  0.27394000  0.78856000  1.0
  N  N182  1  0.01728000  0.22606000  0.21144000  1.0
  N  N183  1  0.48272000  0.77394000  0.71144000  1.0
  O  O184  1  0.83175000  0.57105000  0.36575000  1.0
  O  O185  1  0.66825000  0.42895000  0.86575000  1.0
  O  O186  1  0.16825000  0.07105000  0.13425000  1.0
  O  O187  1  0.33175000  0.92894000  0.63425000  1.0
  O  O188  1  0.61300000  0.52497000  0.34723000  1.0
  O  O189  1  0.88700000  0.47502000  0.84723000  1.0
  O  O190  1  0.38700000  0.02498000  0.15277000  1.0
  O  O191  1  0.11300000  0.97503000  0.65277000  1.0
  O  O192  1  0.69867000  0.42212000  0.70173000  1.0
  O  O193  1  0.80134000  0.57788000  0.20173000  1.0
  O  O194  1  0.30134000  0.92212000  0.79827000  1.0
  O  O195  1  0.19866000  0.07788000  0.29827000  1.0
  O  O196  1  0.75874000  0.28090000  0.66576000  1.0
  O  O197  1  0.74126000  0.71910000  0.16577000  1.0
  O  O198  1  0.24126000  0.78090000  0.83424000  1.0
  O  O199  1  0.25874000  0.21910000  0.33424000  1.0
