# generated using pymatgen
data_MnH28C32N3O9F
_symmetry_space_group_name_H-M   'P 1'
_cell_length_a   10.18070000
_cell_length_b   12.10010000
_cell_length_c   13.61640000
_cell_angle_alpha   63.63540000
_cell_angle_beta   72.14050000
_cell_angle_gamma   83.10470000
_symmetry_Int_Tables_number   1
_chemical_formula_structural   MnH28C32N3O9F
_chemical_formula_sum   'Mn2 H56 C64 N6 O18 F2'
_cell_volume   1430.22188541
_cell_formula_units_Z   2
loop_
 _symmetry_equiv_pos_site_id
 _symmetry_equiv_pos_as_xyz
  1  'x, y, z'
loop_
 _atom_site_type_symbol
 _atom_site_label
 _atom_site_symmetry_multiplicity
 _atom_site_fract_x
 _atom_site_fract_y
 _atom_site_fract_z
 _atom_site_occupancy
  Mn  Mn0  1  0.91775000  0.18472000  0.90003000  1.0
  Mn  Mn1  1  0.08225000  0.81528000  0.09997000  1.0
  H  H2  1  0.92078000  0.21406000  0.57579000  1.0
  H  H3  1  0.07923000  0.78594000  0.42420000  1.0
  H  H4  1  0.27784000  0.51158000  0.25435000  1.0
  H  H5  1  0.72216000  0.48842000  0.74565000  1.0
  H  H6  1  0.27847000  0.56008000  0.57584000  1.0
  H  H7  1  0.72153000  0.43992000  0.42416000  1.0
  H  H8  1  0.27489000  0.68009000  0.30916000  1.0
  H  H9  1  0.72511000  0.31991000  0.69083000  1.0
  H  H10  1  0.51083000  0.48805000  0.33522000  1.0
  H  H11  1  0.48916000  0.51194000  0.66477000  1.0
  H  H12  1  0.50986000  0.63566000  0.21044000  1.0
  H  H13  1  0.49014000  0.36434000  0.78956000  1.0
  H  H14  1  0.48175000  0.60365000  0.45600000  1.0
  H  H15  1  0.51825000  0.39634000  0.54399000  1.0
  H  H16  1  0.47892000  0.75064000  0.33222000  1.0
  H  H17  1  0.52109000  0.24935000  0.66778000  1.0
  H  H18  1  0.04652000  0.46698000  0.08341000  1.0
  H  H19  1  0.95349000  0.53303000  0.91658000  1.0
  H  H20  1  0.95464000  0.34504000  0.20937000  1.0
  H  H21  1  0.04537000  0.65496000  0.79062000  1.0
  H  H22  1  0.09722000  0.18978000  0.14997000  1.0
  H  H23  1  0.90278000  0.81021000  0.85003000  1.0
  H  H24  1  0.01368000  0.28838000  0.04439000  1.0
  H  H25  1  0.98632000  0.71161000  0.95560000  1.0
  H  H26  1  0.42770000  0.38217000  0.96727000  1.0
  H  H27  1  0.57231000  0.61781000  0.03273000  1.0
  H  H28  1  0.36739000  0.24634000  0.09519000  1.0
  H  H29  1  0.63261000  0.75365000  0.90481000  1.0
  H  H30  1  0.37453000  0.40588000  0.15068000  1.0
  H  H31  1  0.62548000  0.59412000  0.84932000  1.0
  H  H32  1  0.28638000  0.51429000  0.05404000  1.0
  H  H33  1  0.71363000  0.48570000  0.94595000  1.0
  H  H34  1  0.15377000  0.87382000  0.72627000  1.0
  H  H35  1  0.84623000  0.12619000  0.27374000  1.0
  H  H36  1  0.27294000  0.94033000  0.52061000  1.0
  H  H37  1  0.72705000  0.05968000  0.47940000  1.0
  H  H38  1  0.40561000  0.27695000  0.49835000  1.0
  H  H39  1  0.59439000  0.72306000  0.50166000  1.0
  H  H40  1  0.28197000  0.20938000  0.70749000  1.0
  H  H41  1  0.71805000  0.79062000  0.29253000  1.0
  H  H42  1  0.16593000  0.07511000  0.38331000  1.0
  H  H43  1  0.83406000  0.92488000  0.61669000  1.0
  H  H44  1  0.13675000  0.97402000  0.26634000  1.0
  H  H45  1  0.86324000  0.02598000  0.73366000  1.0
  H  H46  1  0.57562000  0.99263000  0.11284000  1.0
  H  H47  1  0.42437000  0.00738000  0.88717000  1.0
  H  H48  1  0.60234000  0.11207000  0.21644000  1.0
  H  H49  1  0.39766000  0.88793000  0.78357000  1.0
  H  H50  1  0.25544000  0.24924000  0.97448000  1.0
  H  H51  1  0.74456000  0.75075000  0.02553000  1.0
  H  H52  1  0.21566000  0.39605000  0.92008000  1.0
  H  H53  1  0.78435000  0.60395000  0.07992000  1.0
  H  H54  1  0.64701000  0.24037000  0.94242000  1.0
  H  H55  1  0.35299000  0.75963000  0.05759000  1.0
  H  H56  1  0.71065000  0.24400000  0.03349000  1.0
  H  H57  1  0.28934000  0.75600000  0.96651000  1.0
  C  C58  1  0.11816000  0.40953000  0.77488000  1.0
  C  C59  1  0.88184000  0.59047000  0.22512000  1.0
  C  C60  1  0.12486000  0.41669000  0.66048000  1.0
  C  C61  1  0.87513000  0.58331000  0.33951000  1.0
  C  C62  1  0.03951000  0.34346000  0.64367000  1.0
  C  C63  1  0.96049000  0.65654000  0.35632000  1.0
  C  C64  1  0.07034000  0.35464000  0.52785000  1.0
  C  C65  1  0.92965000  0.64536000  0.47214000  1.0
  C  C66  1  0.99841000  0.27999000  0.50565000  1.0
  C  C67  1  0.00160000  0.72001000  0.49435000  1.0
  C  C68  1  0.02899000  0.28760000  0.39772000  1.0
  C  C69  1  0.97102000  0.71240000  0.60227000  1.0
  C  C70  1  0.13189000  0.36925000  0.30255000  1.0
  C  C71  1  0.86812000  0.63075000  0.69744000  1.0
  C  C72  1  0.20246000  0.44423000  0.32495000  1.0
  C  C73  1  0.79754000  0.55578000  0.67505000  1.0
  C  C74  1  0.17372000  0.43651000  0.43551000  1.0
  C  C75  1  0.82628000  0.56350000  0.56449000  1.0
  C  C76  1  0.21927000  0.49904000  0.56532000  1.0
  C  C77  1  0.78073000  0.50096000  0.43467000  1.0
  C  C78  1  0.33357000  0.61035000  0.36184000  1.0
  C  C79  1  0.66643000  0.38965000  0.63816000  1.0
  C  C80  1  0.47570000  0.58277000  0.30270000  1.0
  C  C81  1  0.52429000  0.41723000  0.69729000  1.0
  C  C82  1  0.45746000  0.65180000  0.37477000  1.0
  C  C83  1  0.54254000  0.34819000  0.62523000  1.0
  C  C84  1  0.05525000  0.37078000  0.14549000  1.0
  C  C85  1  0.94476000  0.62922000  0.85450000  1.0
  C  C86  1  0.08935000  0.28486000  0.08788000  1.0
  C  C87  1  0.91066000  0.71513000  0.91212000  1.0
  C  C88  1  0.33824000  0.33861000  0.04125000  1.0
  C  C89  1  0.66177000  0.66138000  0.95875000  1.0
  C  C90  1  0.29355000  0.41540000  0.10963000  1.0
  C  C91  1  0.70646000  0.58460000  0.89036000  1.0
  C  C92  1  0.20592000  0.04033000  0.72796000  1.0
  C  C93  1  0.79408000  0.95968000  0.27205000  1.0
  C  C94  1  0.20520000  0.96385000  0.67542000  1.0
  C  C95  1  0.79480000  0.03616000  0.32459000  1.0
  C  C96  1  0.27240000  0.00158000  0.55983000  1.0
  C  C97  1  0.72760000  0.99843000  0.44017000  1.0
  C  C98  1  0.34206000  0.11669000  0.49487000  1.0
  C  C99  1  0.65792000  0.88332000  0.50513000  1.0
  C  C100  1  0.34758000  0.19008000  0.54946000  1.0
  C  C101  1  0.65242000  0.80993000  0.45054000  1.0
  C  C102  1  0.27949000  0.15286000  0.66438000  1.0
  C  C103  1  0.72052000  0.84715000  0.33563000  1.0
  C  C104  1  0.41331000  0.16356000  0.37064000  1.0
  C  C105  1  0.58668000  0.83644000  0.62937000  1.0
  C  C106  1  0.38763000  0.09837000  0.30776000  1.0
  C  C107  1  0.61236000  0.90163000  0.69226000  1.0
  C  C108  1  0.25561000  0.05832000  0.32347000  1.0
  C  C109  1  0.74439000  0.94168000  0.67654000  1.0
  C  C110  1  0.23892000  0.00116000  0.25913000  1.0
  C  C111  1  0.76108000  0.99884000  0.74088000  1.0
  C  C112  1  0.35433000  0.97597000  0.18417000  1.0
  C  C113  1  0.64567000  0.02403000  0.81584000  1.0
  C  C114  1  0.48640000  0.01316000  0.17052000  1.0
  C  C115  1  0.51360000  0.98684000  0.82949000  1.0
  C  C116  1  0.50153000  0.07850000  0.22842000  1.0
  C  C117  1  0.49847000  0.92150000  0.77159000  1.0
  C  C118  1  0.13897000  0.00088000  0.85295000  1.0
  C  C119  1  0.86103000  0.99913000  0.14706000  1.0
  C  C120  1  0.33393000  0.91078000  0.11893000  1.0
  C  C121  1  0.66607000  0.08923000  0.88106000  1.0
  N  N122  1  0.22660000  0.32045000  0.99810000  1.0
  N  N123  1  0.77340000  0.67954000  0.00189000  1.0
  N  N124  1  0.16305000  0.36721000  0.19710000  1.0
  N  N125  1  0.83696000  0.63279000  0.80289000  1.0
  N  N126  1  0.24460000  0.51111000  0.45769000  1.0
  N  N127  1  0.75540000  0.48889000  0.54230000  1.0
  O  O128  1  0.02376000  0.34190000  0.86328000  1.0
  O  O129  1  0.97623000  0.65812000  0.13672000  1.0
  O  O130  1  0.70993000  0.29013000  0.95384000  1.0
  O  O131  1  0.29006000  0.70988000  0.04617000  1.0
  O  O132  1  0.20711000  0.46970000  0.78129000  1.0
  O  O133  1  0.79290000  0.53029000  0.21870000  1.0
  O  O134  1  0.94185000  0.27026000  0.72155000  1.0
  O  O135  1  0.05815000  0.72974000  0.27845000  1.0
  O  O136  1  0.10027000  0.08463000  0.88715000  1.0
  O  O137  1  0.89972000  0.91538000  0.11286000  1.0
  O  O138  1  0.13065000  0.88468000  0.91723000  1.0
  O  O139  1  0.86934000  0.11533000  0.08278000  1.0
  O  O140  1  0.49434000  0.25362000  0.31974000  1.0
  O  O141  1  0.50567000  0.74638000  0.68027000  1.0
  O  O142  1  0.22230000  0.93547000  0.08903000  1.0
  O  O143  1  0.77770000  0.06454000  0.91096000  1.0
  O  O144  1  0.42580000  0.83695000  0.09811000  1.0
  O  O145  1  0.57419000  0.16305000  0.90189000  1.0
  F  F146  1  0.96023000  0.20843000  0.38208000  1.0
  F  F147  1  0.03977000  0.79157000  0.61791000  1.0
