# generated using pymatgen
data_HgH14C22N6(OF)2
_symmetry_space_group_name_H-M   'P 1'
_cell_length_a   7.89601000
_cell_length_b   10.34090000
_cell_length_c   12.17280000
_cell_angle_alpha   78.53700000
_cell_angle_beta   89.99990000
_cell_angle_gamma   89.99990000
_symmetry_Int_Tables_number   1
_chemical_formula_structural   HgH14C22N6(OF)2
_chemical_formula_sum   'Hg2 H28 C44 N12 O4 F4'
_cell_volume   974.10592797
_cell_formula_units_Z   2
loop_
 _symmetry_equiv_pos_site_id
 _symmetry_equiv_pos_as_xyz
  1  'x, y, z'
loop_
 _atom_site_type_symbol
 _atom_site_label
 _atom_site_symmetry_multiplicity
 _atom_site_fract_x
 _atom_site_fract_y
 _atom_site_fract_z
 _atom_site_occupancy
  Hg  Hg0  1  0.00000000  0.00000000  0.50000000  1.0
  Hg  Hg1  1  0.50000000  0.50000000  0.50000000  1.0
  H  H2  1  0.95753000  0.86368000  0.81771000  1.0
  H  H3  1  0.45753000  0.63632000  0.18229000  1.0
  H  H4  1  0.04247000  0.13633000  0.18229000  1.0
  H  H5  1  0.54247000  0.36367000  0.81771000  1.0
  H  H6  1  0.88759000  0.64019000  0.93360000  1.0
  H  H7  1  0.38759000  0.85981000  0.06640000  1.0
  H  H8  1  0.11241000  0.35981000  0.06640000  1.0
  H  H9  1  0.61240000  0.14019000  0.93360000  1.0
  H  H10  1  0.81609000  0.49510000  0.64199000  1.0
  H  H11  1  0.31609000  0.00490000  0.35801000  1.0
  H  H12  1  0.18391000  0.50490000  0.35801000  1.0
  H  H13  1  0.68391000  0.99510000  0.64199000  1.0
  H  H14  1  0.05780000  0.70874000  0.28094000  1.0
  H  H15  1  0.55780000  0.79126000  0.71906000  1.0
  H  H16  1  0.94220000  0.29126000  0.71906000  1.0
  H  H17  1  0.44220000  0.20874000  0.28094000  1.0
  H  H18  1  0.81783000  0.93586000  0.98721000  1.0
  H  H19  1  0.31783000  0.56414000  0.01279000  1.0
  H  H20  1  0.18217000  0.06414000  0.01279000  1.0
  H  H21  1  0.68217000  0.43586000  0.98721000  1.0
  H  H22  1  0.66673000  0.06885000  0.10912000  1.0
  H  H23  1  0.16673000  0.43115000  0.89088000  1.0
  H  H24  1  0.33333333  0.93116000  0.89088000  1.0
  H  H25  1  0.83327000  0.56885000  0.10912000  1.0
  H  H26  1  0.71577000  0.02478000  0.31411000  1.0
  H  H27  1  0.21577000  0.47522000  0.68589000  1.0
  H  H28  1  0.28423000  0.97522000  0.68589000  1.0
  H  H29  1  0.78423000  0.52479000  0.31411000  1.0
  C  C30  1  0.92533000  0.78071000  0.77870000  1.0
  C  C31  1  0.42533000  0.71929000  0.22130000  1.0
  C  C32  1  0.07468000  0.21929000  0.22130000  1.0
  C  C33  1  0.57468000  0.28071000  0.77869000  1.0
  C  C34  1  0.88621000  0.65646000  0.84244000  1.0
  C  C35  1  0.38621000  0.84354000  0.15756000  1.0
  C  C36  1  0.11380000  0.34354000  0.15756000  1.0
  C  C37  1  0.61379000  0.15646000  0.84244000  1.0
  C  C38  1  0.84664000  0.57681000  0.68296000  1.0
  C  C39  1  0.34664000  0.92319000  0.31704000  1.0
  C  C40  1  0.15336000  0.42319000  0.31704000  1.0
  C  C41  1  0.65336000  0.07681000  0.68296000  1.0
  C  C42  1  0.88405000  0.70115000  0.61758000  1.0
  C  C43  1  0.38405000  0.79885000  0.38243000  1.0
  C  C44  1  0.11595000  0.29885000  0.38243000  1.0
  C  C45  1  0.61596000  0.20115000  0.61757000  1.0
  C  C46  1  0.87295000  0.71971000  0.49174000  1.0
  C  C47  1  0.37295000  0.78029000  0.50826000  1.0
  C  C48  1  0.12705000  0.28029000  0.50826000  1.0
  C  C49  1  0.62705000  0.21971000  0.49174000  1.0
  C  C50  1  0.88715000  0.86310000  0.31180000  1.0
  C  C51  1  0.38715000  0.63690000  0.68820000  1.0
  C  C52  1  0.11284000  0.13690000  0.68820000  1.0
  C  C53  1  0.61285000  0.36310000  0.31180000  1.0
  C  C54  1  0.97184000  0.78791000  0.24473000  1.0
  C  C55  1  0.47185000  0.71208000  0.75527000  1.0
  C  C56  1  0.02815000  0.21209000  0.75527000  1.0
  C  C57  1  0.52816000  0.28792000  0.24473000  1.0
  C  C58  1  0.94589000  0.81877000  0.12975000  1.0
  C  C59  1  0.44589000  0.68123000  0.87025000  1.0
  C  C60  1  0.05410000  0.18123000  0.87024000  1.0
  C  C61  1  0.55411000  0.31878000  0.12975000  1.0
  C  C62  1  0.83706000  0.91756000  0.07757000  1.0
  C  C63  1  0.33706000  0.58244000  0.92243000  1.0
  C  C64  1  0.16294000  0.08244000  0.92243000  1.0
  C  C65  1  0.66294000  0.41756000  0.07757000  1.0
  C  C66  1  0.75417000  0.99096000  0.14602000  1.0
  C  C67  1  0.25417000  0.50904000  0.85399000  1.0
  C  C68  1  0.24583000  0.00904000  0.85399000  1.0
  C  C69  1  0.74583000  0.49096000  0.14601000  1.0
  C  C70  1  0.77913000  0.96547000  0.26174000  1.0
  C  C71  1  0.27914000  0.53453000  0.73827000  1.0
  C  C72  1  0.22086000  0.03453000  0.73827000  1.0
  C  C73  1  0.72087000  0.46548000  0.26173000  1.0
  N  N74  1  0.92246000  0.80257000  0.66677000  1.0
  N  N75  1  0.42246000  0.69743000  0.33323000  1.0
  N  N76  1  0.07754000  0.19743000  0.33323000  1.0
  N  N77  1  0.57755000  0.30257000  0.66677000  1.0
  N  N78  1  0.84546000  0.55431000  0.79502000  1.0
  N  N79  1  0.34546000  0.94569000  0.20498000  1.0
  N  N80  1  0.15454000  0.44569000  0.20498000  1.0
  N  N81  1  0.65454000  0.05430000  0.79502000  1.0
  N  N82  1  0.91170000  0.83941000  0.43002000  1.0
  N  N83  1  0.41170000  0.66059000  0.56998000  1.0
  N  N84  1  0.08830000  0.16059000  0.56998000  1.0
  N  N85  1  0.58830000  0.33941000  0.43002000  1.0
  O  O86  1  0.82281000  0.62343000  0.45181000  1.0
  O  O87  1  0.32281000  0.87657000  0.54820000  1.0
  O  O88  1  0.17719000  0.37657000  0.54820000  1.0
  O  O89  1  0.67719000  0.12343000  0.45180000  1.0
  F  F90  1  0.03407000  0.74818000  0.06387000  1.0
  F  F91  1  0.53407000  0.75183000  0.93613000  1.0
  F  F92  1  0.96593000  0.25183000  0.93613000  1.0
  F  F93  1  0.46593000  0.24818000  0.06387000  1.0
