# generated using pymatgen
data_ZnH8C18N3O4
_symmetry_space_group_name_H-M   'P 1'
_cell_length_a   9.77950000
_cell_length_b   11.07270000
_cell_length_c   13.30500000
_cell_angle_alpha   89.75270000
_cell_angle_beta   70.55940000
_cell_angle_gamma   88.57960000
_symmetry_Int_Tables_number   1
_chemical_formula_structural   ZnH8C18N3O4
_chemical_formula_sum   'Zn2 H16 C36 N6 O8'
_cell_volume   1358.16815469
_cell_formula_units_Z   2
loop_
 _symmetry_equiv_pos_site_id
 _symmetry_equiv_pos_as_xyz
  1  'x, y, z'
loop_
 _atom_site_type_symbol
 _atom_site_label
 _atom_site_symmetry_multiplicity
 _atom_site_fract_x
 _atom_site_fract_y
 _atom_site_fract_z
 _atom_site_occupancy
  Zn  Zn0  1  0.64858000  0.50175000  0.50237000  1.0
  Zn  Zn1  1  0.35279000  0.50845000  0.51163000  1.0
  H  H2  1  0.77483000  0.11837000  0.32515000  1.0
  H  H3  1  0.80886000  0.89668000  0.32420000  1.0
  H  H4  1  0.85194000  0.90208000  0.44540000  1.0
  H  H5  1  0.06783000  0.39638000  0.64449000  1.0
  H  H6  1  0.81498000  0.39206000  0.63867000  1.0
  H  H7  1  0.99223000  0.59253000  0.26442000  1.0
  H  H8  1  0.93258000  0.72403000  0.34611000  1.0
  H  H9  1  0.24354000  0.61205000  0.27552000  1.0
  H  H10  1  0.13886000  0.38331000  0.20565000  1.0
  H  H11  1  0.18187000  0.73991000  0.36274000  1.0
  H  H12  1  0.07145000  0.44582000  0.04871000  1.0
  H  H13  1  0.59059000  0.45360000  0.82409000  1.0
  H  H14  1  0.73246000  0.36312000  0.88775000  1.0
  H  H15  1  0.91216000  0.33473000  0.97757000  1.0
  H  H16  1  0.84289000  0.38321000  0.17359000  1.0
  H  H17  1  0.32469000  0.37654000  0.29282000  1.0
  C  C18  1  0.50485000  0.73913000  0.49866000  1.0
  C  C19  1  0.55082000  0.39598000  0.03344000  1.0
  C  C20  1  0.50748000  0.40001000  0.14713000  1.0
  C  C21  1  0.44150000  0.41835000  0.98336000  1.0
  C  C22  1  0.29175000  0.41874000  0.04717000  1.0
  C  C23  1  0.25295000  0.39530000  0.15886000  1.0
  C  C24  1  0.35606000  0.39091000  0.20737000  1.0
  C  C25  1  0.47767000  0.44766000  0.87468000  1.0
  C  C26  1  0.22362000  0.47227000  0.89150000  1.0
  C  C27  1  0.61768000  0.40686000  0.19534000  1.0
  C  C28  1  0.62158000  0.94375000  0.47018000  1.0
  C  C29  1  0.58486000  0.45312000  0.30675000  1.0
  C  C30  1  0.49946000  0.87385000  0.51148000  1.0
  C  C31  1  0.36855000  0.93886000  0.56611000  1.0
  C  C32  1  0.36517000  0.06722000  0.57679000  1.0
  C  C33  1  0.49083000  0.13571000  0.52967000  1.0
  C  C34  1  0.61593000  0.06922000  0.47780000  1.0
  C  C35  1  0.77178000  0.08259000  0.40328000  1.0
  C  C36  1  0.78075000  0.93850000  0.40333000  1.0
  C  C37  1  0.10223000  0.56693000  0.43890000  1.0
  C  C38  1  0.03878000  0.44615000  0.58350000  1.0
  C  C39  1  0.89765000  0.44314000  0.57991000  1.0
  C  C40  1  0.48973000  0.27086000  0.52733000  1.0
  C  C41  1  0.96281000  0.56136000  0.43415000  1.0
  C  C42  1  0.99634000  0.63948000  0.33586000  1.0
  C  C43  1  0.15476000  0.64922000  0.34341000  1.0
  C  C44  1  0.41940000  0.50335000  0.71187000  1.0
  C  C45  1  0.18567000  0.44464000  0.99947000  1.0
  C  C46  1  0.37312000  0.47496000  0.82820000  1.0
  C  C47  1  0.76140000  0.38159000  0.13411000  1.0
  C  C48  1  0.80044000  0.35809000  0.02460000  1.0
  C  C49  1  0.69801000  0.37210000  0.97412000  1.0
  C  C50  1  0.10849000  0.49975000  0.85061000  1.0
  C  C51  1  0.23300000  0.12786000  0.63768000  1.0
  C  C52  1  0.87663000  0.14725000  0.43666000  1.0
  C  C53  1  0.23285000  0.88028000  0.61053000  1.0
  N  N54  1  0.14440000  0.50938000  0.51198000  1.0
  N  N55  1  0.85697000  0.50117000  0.50410000  1.0
  N  N56  1  0.00469000  0.51952000  0.82764000  1.0
  N  N57  1  0.12687000  0.17751000  0.69060000  1.0
  N  N58  1  0.96650000  0.19775000  0.45810000  1.0
  N  N59  1  0.11531000  0.84428000  0.64721000  1.0
  O  O60  1  0.62908000  0.68670000  0.47417000  1.0
  O  O61  1  0.38402000  0.69000000  0.51413000  1.0
  O  O62  1  0.68474000  0.44376000  0.34877000  1.0
  O  O63  1  0.46130000  0.50442000  0.35114000  1.0
  O  O64  1  0.59665000  0.32005000  0.54306000  1.0
  O  O65  1  0.38574000  0.32133000  0.50517000  1.0
  O  O66  1  0.55067000  0.53134000  0.66453000  1.0
  O  O67  1  0.32194000  0.49418000  0.66873000  1.0
