# generated using pymatgen
data_CdH9C13NO5
_symmetry_space_group_name_H-M   'P 1'
_cell_length_a   7.77678000
_cell_length_b   17.37050000
_cell_length_c   17.37152882
_cell_angle_alpha   117.80059479
_cell_angle_beta   98.58486952
_cell_angle_gamma   98.58330000
_symmetry_Int_Tables_number   1
_chemical_formula_structural   CdH9C13NO5
_chemical_formula_sum   'Cd6 H54 C78 N6 O30'
_cell_volume   1987.24281195
_cell_formula_units_Z   6
loop_
 _symmetry_equiv_pos_site_id
 _symmetry_equiv_pos_as_xyz
  1  'x, y, z'
loop_
 _atom_site_type_symbol
 _atom_site_label
 _atom_site_symmetry_multiplicity
 _atom_site_fract_x
 _atom_site_fract_y
 _atom_site_fract_z
 _atom_site_occupancy
  Cd  Cd0  1  0.07108000  0.33329000  0.08536000  1.0
  Cd  Cd1  1  0.73803000  0.75208000  0.66671000  1.0
  Cd  Cd2  1  0.98571000  0.91452667  0.24786000  1.0
  Cd  Cd3  1  0.92892000  0.66671000  0.91464000  1.0
  Cd  Cd4  1  0.26201333  0.24796333  0.33333333  1.0
  Cd  Cd5  1  0.01429000  0.08547333  0.75214000  1.0
  H  H6  1  0.81507000  0.17302000  0.02534000  1.0
  H  H7  1  0.64200000  0.85218000  0.82687000  1.0
  H  H8  1  0.78979000  0.97455000  0.14766000  1.0
  H  H9  1  0.18494000  0.82698000  0.97466000  1.0
  H  H10  1  0.35800000  0.14782000  0.17313000  1.0
  H  H11  1  0.21021000  0.02545000  0.85234000  1.0
  H  H12  1  0.78936000  0.18005000  0.93555000  1.0
  H  H13  1  0.60957000  0.75539000  0.81995000  1.0
  H  H14  1  0.85399000  0.06434000  0.24445000  1.0
  H  H15  1  0.21064000  0.81995000  0.06445000  1.0
  H  H16  1  0.39043000  0.24461000  0.18005000  1.0
  H  H17  1  0.14601000  0.93566000  0.75555000  1.0
  H  H18  1  0.33966000  0.65614000  0.97146000  1.0
  H  H19  1  0.68311000  0.31517000  0.34399000  1.0
  H  H20  1  0.36809000  0.02871000  0.68471000  1.0
  H  H21  1  0.66033000  0.34386000  0.02854000  1.0
  H  H22  1  0.31689000  0.68483000  0.65601000  1.0
  H  H23  1  0.63191000  0.97128000  0.31529000  1.0
  H  H24  1  0.51682000  0.54295000  0.94845000  1.0
  H  H25  1  0.97352000  0.40521000  0.45702000  1.0
  H  H26  1  0.56807000  0.05163000  0.59443000  1.0
  H  H27  1  0.48318000  0.45705000  0.05155000  1.0
  H  H28  1  0.02649000  0.59479000  0.54298000  1.0
  H  H29  1  0.43193000  0.94837000  0.40557000  1.0
  H  H30  1  0.01714000  0.33679000  0.81222000  1.0
  H  H31  1  0.68040000  0.47549000  0.66333000  1.0
  H  H32  1  0.20453000  0.18783000  0.52449000  1.0
  H  H33  1  0.98285000  0.66320000  0.18777000  1.0
  H  H34  1  0.31960000  0.52451000  0.33667000  1.0
  H  H35  1  0.79547000  0.81216000  0.47551000  1.0
  H  H36  1  0.86105000  0.46064000  0.84222000  1.0
  H  H37  1  0.40033000  0.38155000  0.53961000  1.0
  H  H38  1  0.01878000  0.15809000  0.61861000  1.0
  H  H39  1  0.13894000  0.53936000  0.15777000  1.0
  H  H40  1  0.59968000  0.61845000  0.46039000  1.0
  H  H41  1  0.98122000  0.84191000  0.38139000  1.0
  H  H42  1  0.53940000  0.42406000  0.79538000  1.0
  H  H43  1  0.11519000  0.37125000  0.57610000  1.0
  H  H44  1  0.74332000  0.20474000  0.62859000  1.0
  H  H45  1  0.46060000  0.57594000  0.20462000  1.0
  H  H46  1  0.88481000  0.62875000  0.42390000  1.0
  H  H47  1  0.25670000  0.79526000  0.37142000  1.0
  H  H48  1  0.73392000  0.31784000  0.75293000  1.0
  H  H49  1  0.41595000  0.43494000  0.68227000  1.0
  H  H50  1  0.98053000  0.24711000  0.56488000  1.0
  H  H51  1  0.26607000  0.68216000  0.24707000  1.0
  H  H52  1  0.58405000  0.56507000  0.31773000  1.0
  H  H53  1  0.01947000  0.75289000  0.43512000  1.0
  H  H54  1  0.46696000  0.17941000  0.86844000  1.0
  H  H55  1  0.28768000  0.68891000  0.82053000  1.0
  H  H56  1  0.59863000  0.13118000  0.31075000  1.0
  H  H57  1  0.53304000  0.82059000  0.13156000  1.0
  H  H58  1  0.71232000  0.31109000  0.17947000  1.0
  H  H59  1  0.40137000  0.86881000  0.68925000  1.0
  C  C60  1  0.27309000  0.58484000  0.93769000  1.0
  C  C61  1  0.68787000  0.35271000  0.41529000  1.0
  C  C62  1  0.33522000  0.06248000  0.64718000  1.0
  C  C63  1  0.72690000  0.41516000  0.06231000  1.0
  C  C64  1  0.31213000  0.64729000  0.58471000  1.0
  C  C65  1  0.66478000  0.93752000  0.35282000  1.0
  C  C66  1  0.37097000  0.52084000  0.92416000  1.0
  C  C67  1  0.84986000  0.40313000  0.47922000  1.0
  C  C68  1  0.44655000  0.07594000  0.59665000  1.0
  C  C69  1  0.62902000  0.47916000  0.07584000  1.0
  C  C70  1  0.15014000  0.59687000  0.52078000  1.0
  C  C71  1  0.55345000  0.92406000  0.40335000  1.0
  C  C72  1  0.28148000  0.42933000  0.87752000  1.0
  C  C73  1  0.85209000  0.44810000  0.57074000  1.0
  C  C74  1  0.40354000  0.12250000  0.55169000  1.0
  C  C75  1  0.71850000  0.57066000  0.12247000  1.0
  C  C76  1  0.14792000  0.55189000  0.42926000  1.0
  C  C77  1  0.59646000  0.87750000  0.44831000  1.0
  C  C78  1  0.09371000  0.40693000  0.84870000  1.0
  C  C79  1  0.68671000  0.44174000  0.59318000  1.0
  C  C80  1  0.24463000  0.15137000  0.55819000  1.0
  C  C81  1  0.90629000  0.59307000  0.15130000  1.0
  C  C82  1  0.31329000  0.55825000  0.40682000  1.0
  C  C83  1  0.75537000  0.84862000  0.44181000  1.0
  C  C84  1  0.00630000  0.47516000  0.86482000  1.0
  C  C85  1  0.53098000  0.38960000  0.52503000  1.0
  C  C86  1  0.14132000  0.13541000  0.61045000  1.0
  C  C87  1  0.99370000  0.52484000  0.13518000  1.0
  C  C88  1  0.46903000  0.61041000  0.47498000  1.0
  C  C89  1  0.85869000  0.86459000  0.38955000  1.0
  C  C90  1  0.38814000  0.36109000  0.85423000  1.0
  C  C91  1  0.02701000  0.49309000  0.63896000  1.0
  C  C92  1  0.53346000  0.14568000  0.50665000  1.0
  C  C93  1  0.61186000  0.63891000  0.14577000  1.0
  C  C94  1  0.97299000  0.50691000  0.36104000  1.0
  C  C95  1  0.46654000  0.85432000  0.49335000  1.0
  C  C96  1  0.52180000  0.36959000  0.81059000  1.0
  C  C97  1  0.15209000  0.44094000  0.63050000  1.0
  C  C98  1  0.71066000  0.18936000  0.55885000  1.0
  C  C99  1  0.47820000  0.63042000  0.18941000  1.0
  C  C100  1  0.84793000  0.55907000  0.36951000  1.0
  C  C101  1  0.28934000  0.81064000  0.44115000  1.0
  C  C102  1  0.63345000  0.31122000  0.78821000  1.0
  C  C103  1  0.32212000  0.47686000  0.68885000  1.0
  C  C104  1  0.84484000  0.21170000  0.52292000  1.0
  C  C105  1  0.36654000  0.68878000  0.21179000  1.0
  C  C106  1  0.67788000  0.52314000  0.31115000  1.0
  C  C107  1  0.15516000  0.78830000  0.47708000  1.0
  C  C108  1  0.62025000  0.24427000  0.81187000  1.0
  C  C109  1  0.37604000  0.56746000  0.75577000  1.0
  C  C110  1  0.80830000  0.18786000  0.43227000  1.0
  C  C111  1  0.37975000  0.75572000  0.18813000  1.0
  C  C112  1  0.62397000  0.43254000  0.24423000  1.0
  C  C113  1  0.19170000  0.81214000  0.56773000  1.0
  C  C114  1  0.48226000  0.23263000  0.85152000  1.0
  C  C115  1  0.24971000  0.61878000  0.76735000  1.0
  C  C116  1  0.63069000  0.14815000  0.38090000  1.0
  C  C117  1  0.51774000  0.76737000  0.14848000  1.0
  C  C118  1  0.75030000  0.38123000  0.23265000  1.0
  C  C119  1  0.36931000  0.85185000  0.61910000  1.0
  C  C120  1  0.36476000  0.28903000  0.87184000  1.0
  C  C121  1  0.07576000  0.58274000  0.71099000  1.0
  C  C122  1  0.49270000  0.12798000  0.41696000  1.0
  C  C123  1  0.63524000  0.71098000  0.12816000  1.0
  C  C124  1  0.92424000  0.41726000  0.28901000  1.0
  C  C125  1  0.50730000  0.87202000  0.58304000  1.0
  C  C126  1  0.23086000  0.27442000  0.92094000  1.0
  C  C127  1  0.95660000  0.64649000  0.72562000  1.0
  C  C128  1  0.30967000  0.07900000  0.35332000  1.0
  C  C129  1  0.76914000  0.72558000  0.07906000  1.0
  C  C130  1  0.04340000  0.35351000  0.27438000  1.0
  C  C131  1  0.69033000  0.92099000  0.64668000  1.0
  C  C132  1  0.75263000  0.18733000  0.79526000  1.0
  C  C133  1  0.56546000  0.60773000  0.81261000  1.0
  C  C134  1  0.95754000  0.20456000  0.39210000  1.0
  C  C135  1  0.24737000  0.81267000  0.20474000  1.0
  C  C136  1  0.43454000  0.39227000  0.18739000  1.0
  C  C137  1  0.04246000  0.79544000  0.60790000  1.0
  N  N138  1  0.09341000  0.56284000  0.90758000  1.0
  N  N139  1  0.53029000  0.34464000  0.43735000  1.0
  N  N140  1  0.18576000  0.09265000  0.65536000  1.0
  N  N141  1  0.90659000  0.43717000  0.09242000  1.0
  N  N142  1  0.46971000  0.65536000  0.56265000  1.0
  N  N143  1  0.81424000  0.90735000  0.34464000  1.0
  O  O144  1  0.81172000  0.21510000  0.00338000  1.0
  O  O145  1  0.59680000  0.78813000  0.78486000  1.0
  O  O146  1  0.80836000  0.99652000  0.21168000  1.0
  O  O147  1  0.18828000  0.78490000  0.99662000  1.0
  O  O148  1  0.40320000  0.21187000  0.21514000  1.0
  O  O149  1  0.19164000  0.00348000  0.78832000  1.0
  O  O150  1  0.15814000  0.19447000  0.90066000  1.0
  O  O151  1  0.96392000  0.70615000  0.80555000  1.0
  O  O152  1  0.25739000  0.09929000  0.29364000  1.0
  O  O153  1  0.84186000  0.80553000  0.09934000  1.0
  O  O154  1  0.03608000  0.29385000  0.19445000  1.0
  O  O155  1  0.74261000  0.90071000  0.70636000  1.0
  O  O156  1  0.20510000  0.34491000  0.98365000  1.0
  O  O157  1  0.86041000  0.63877000  0.65514000  1.0
  O  O158  1  0.22105000  0.01640000  0.36120000  1.0
  O  O159  1  0.79489000  0.65510000  0.01635000  1.0
  O  O160  1  0.13960000  0.36123000  0.34486000  1.0
  O  O161  1  0.77896000  0.98361000  0.63881000  1.0
  O  O162  1  0.75411000  0.13457000  0.82757000  1.0
  O  O163  1  0.61972000  0.69279000  0.86541000  1.0
  O  O164  1  0.92685000  0.17234000  0.30705000  1.0
  O  O165  1  0.24589000  0.86543000  0.17243000  1.0
  O  O166  1  0.38028000  0.30721000  0.13459000  1.0
  O  O167  1  0.07315000  0.82766000  0.69295000  1.0
  O  O168  1  0.86145000  0.19422000  0.74921000  1.0
  O  O169  1  0.66750000  0.55482000  0.80562000  1.0
  O  O170  1  0.11237000  0.25062000  0.44506000  1.0
  O  O171  1  0.13855000  0.80578000  0.25079000  1.0
  O  O172  1  0.33250000  0.44518000  0.19438000  1.0
  O  O173  1  0.88763000  0.74938000  0.55494000  1.0
