# generated using pymatgen
data_TmH12C11O8
_symmetry_space_group_name_H-M   'P 1'
_cell_length_a   5.75338000
_cell_length_b   13.26560000
_cell_length_c   15.51390000
_cell_angle_alpha   94.49910000
_cell_angle_beta   90.00000000
_cell_angle_gamma   90.00000000
_symmetry_Int_Tables_number   1
_chemical_formula_structural   TmH12C11O8
_chemical_formula_sum   'Tm4 H48 C44 O32'
_cell_volume   1180.40388165
_cell_formula_units_Z   4
loop_
 _symmetry_equiv_pos_site_id
 _symmetry_equiv_pos_as_xyz
  1  'x, y, z'
loop_
 _atom_site_type_symbol
 _atom_site_label
 _atom_site_symmetry_multiplicity
 _atom_site_fract_x
 _atom_site_fract_y
 _atom_site_fract_z
 _atom_site_occupancy
  Tm  Tm0  1  0.44086000  0.36476000  0.41537000  1.0
  Tm  Tm1  1  0.94086000  0.13524000  0.08463000  1.0
  Tm  Tm2  1  0.55913000  0.63523000  0.58463000  1.0
  Tm  Tm3  1  0.05914000  0.86477000  0.91537000  1.0
  H  H4  1  0.87374000  0.28088000  0.33381000  1.0
  H  H5  1  0.37375000  0.21912000  0.16618000  1.0
  H  H6  1  0.12625000  0.71912000  0.66618000  1.0
  H  H7  1  0.62626000  0.78088000  0.83381000  1.0
  H  H8  1  0.68871000  0.28534000  0.25714000  1.0
  H  H9  1  0.18871000  0.21466000  0.24286000  1.0
  H  H10  1  0.31129000  0.71466000  0.74286000  1.0
  H  H11  1  0.81129000  0.78534000  0.75714000  1.0
  H  H12  1  0.89695000  0.31240000  0.50308000  1.0
  H  H13  1  0.39696000  0.18760000  0.99692000  1.0
  H  H14  1  0.10304000  0.68759000  0.49692000  1.0
  H  H15  1  0.60305000  0.81240000  0.00308000  1.0
  H  H16  1  0.79168000  0.41336000  0.53970000  1.0
  H  H17  1  0.29170000  0.08664000  0.96030000  1.0
  H  H18  1  0.20831000  0.58663000  0.46030000  1.0
  H  H19  1  0.70832000  0.91337000  0.03970000  1.0
  H  H20  1  0.08820000  0.03613000  0.35377000  1.0
  H  H21  1  0.58822000  0.46387000  0.14623000  1.0
  H  H22  1  0.91178000  0.96386000  0.64623000  1.0
  H  H23  1  0.41178000  0.53614000  0.85377000  1.0
  H  H24  1  0.88391000  0.11919000  0.40399000  1.0
  H  H25  1  0.38393000  0.38082000  0.09602000  1.0
  H  H26  1  0.11607000  0.88081000  0.59602000  1.0
  H  H27  1  0.61608000  0.61919000  0.90398000  1.0
  H  H28  1  0.21055000  0.52405000  0.15848000  1.0
  H  H29  1  0.71055000  0.97595000  0.34152000  1.0
  H  H30  1  0.78947000  0.47595000  0.84152000  1.0
  H  H31  1  0.28946000  0.02405000  0.65848000  1.0
  H  H32  1  0.08766000  0.09770000  0.54907000  1.0
  H  H33  1  0.58767000  0.40230000  0.95094000  1.0
  H  H34  1  0.91233000  0.90228000  0.45093000  1.0
  H  H35  1  0.41232000  0.59771000  0.04907000  1.0
  H  H36  1  0.26669000  0.00515000  0.49563000  1.0
  H  H37  1  0.76670000  0.49485000  0.00437000  1.0
  H  H38  1  0.73330000  0.99484000  0.50437000  1.0
  H  H39  1  0.23331000  0.50516000  0.99563000  1.0
  H  H40  1  0.61098000  0.71600000  0.13867000  1.0
  H  H41  1  0.11097000  0.78400000  0.36133000  1.0
  H  H42  1  0.38904000  0.28401000  0.86133000  1.0
  H  H43  1  0.88904000  0.21600000  0.63867000  1.0
  H  H44  1  0.51368000  0.69186000  0.29077000  1.0
  H  H45  1  0.01369000  0.80814000  0.20923000  1.0
  H  H46  1  0.48631000  0.30813000  0.70923000  1.0
  H  H47  1  0.98631000  0.19187000  0.79077000  1.0
  H  H48  1  0.96855000  0.63602000  0.07168000  1.0
  H  H49  1  0.46854000  0.86398000  0.42832000  1.0
  H  H50  1  0.03147000  0.36399000  0.92832000  1.0
  H  H51  1  0.53147000  0.13602000  0.57168000  1.0
  C  C52  1  0.15805000  0.48226000  0.32142000  1.0
  C  C53  1  0.65806000  0.01774000  0.17858000  1.0
  C  C54  1  0.84194000  0.51774000  0.67859000  1.0
  C  C55  1  0.34194000  0.98227000  0.82141000  1.0
  C  C56  1  0.22614000  0.17698000  0.40013000  1.0
  C  C57  1  0.72616000  0.32302000  0.09987000  1.0
  C  C58  1  0.77384000  0.82301000  0.59987000  1.0
  C  C59  1  0.27385000  0.67699000  0.90013000  1.0
  C  C60  1  0.73898000  0.59149000  0.40395000  1.0
  C  C61  1  0.23899000  0.90850000  0.09605000  1.0
  C  C62  1  0.26101000  0.40850000  0.59605000  1.0
  C  C63  1  0.76102000  0.09150000  0.90395000  1.0
  C  C64  1  0.81027000  0.59759000  0.31145000  1.0
  C  C65  1  0.31028000  0.90240000  0.18855000  1.0
  C  C66  1  0.18972000  0.40240000  0.68855000  1.0
  C  C67  1  0.68973000  0.09760000  0.81145000  1.0
  C  C68  1  0.00507000  0.54826000  0.27287000  1.0
  C  C69  1  0.50508000  0.95173000  0.22713000  1.0
  C  C70  1  0.99493000  0.45173000  0.72713000  1.0
  C  C71  1  0.49493000  0.04827000  0.77287000  1.0
  C  C72  1  0.06215000  0.09073000  0.41035000  1.0
  C  C73  1  0.56217000  0.40927000  0.08965000  1.0
  C  C74  1  0.93783000  0.90926000  0.58965000  1.0
  C  C75  1  0.43783000  0.59074000  0.91035000  1.0
  C  C76  1  0.05788000  0.56215000  0.18636000  1.0
  C  C77  1  0.55788000  0.93785000  0.31364000  1.0
  C  C78  1  0.94213000  0.43785000  0.81364000  1.0
  C  C79  1  0.44213000  0.06215000  0.68636000  1.0
  C  C80  1  0.09323000  0.03980000  0.49430000  1.0
  C  C81  1  0.59325000  0.46020000  0.00570000  1.0
  C  C82  1  0.90675000  0.96019000  0.50570000  1.0
  C  C83  1  0.40676000  0.53981000  0.99430000  1.0
  C  C84  1  0.72223000  0.66866000  0.17563000  1.0
  C  C85  1  0.22223000  0.83134000  0.32437000  1.0
  C  C86  1  0.27778000  0.33135000  0.82438000  1.0
  C  C87  1  0.77778000  0.16866000  0.67562000  1.0
  C  C88  1  0.66758000  0.65579000  0.26165000  1.0
  C  C89  1  0.16759000  0.84420000  0.23835000  1.0
  C  C90  1  0.33241000  0.34420000  0.73835000  1.0
  C  C91  1  0.83242000  0.15580000  0.76165000  1.0
  C  C92  1  0.92075000  0.62313000  0.13795000  1.0
  C  C93  1  0.42074000  0.87687000  0.36205000  1.0
  C  C94  1  0.07928000  0.37688000  0.86205000  1.0
  C  C95  1  0.57927000  0.12313000  0.63795000  1.0
  O  O96  1  0.13128000  0.48033000  0.40429000  1.0
  O  O97  1  0.63130000  0.01966000  0.09571000  1.0
  O  O98  1  0.86869000  0.51966000  0.59571000  1.0
  O  O99  1  0.36870000  0.98034000  0.90428000  1.0
  O  O100  1  0.61306000  0.51859000  0.42467000  1.0
  O  O101  1  0.11307000  0.98140000  0.07533000  1.0
  O  O102  1  0.38692000  0.48140000  0.57534000  1.0
  O  O103  1  0.88693000  0.01860000  0.92466000  1.0
  O  O104  1  0.78492000  0.66516000  0.45909000  1.0
  O  O105  1  0.28493000  0.83484000  0.04090000  1.0
  O  O106  1  0.21508000  0.33483000  0.54091000  1.0
  O  O107  1  0.71509000  0.16516000  0.95909000  1.0
  O  O108  1  0.71813000  0.30773000  0.31846000  1.0
  O  O109  1  0.21813000  0.19227000  0.18154000  1.0
  O  O110  1  0.28187000  0.69227000  0.68154000  1.0
  O  O111  1  0.78187000  0.80773000  0.81846000  1.0
  O  O112  1  0.74611000  0.34647000  0.50973000  1.0
  O  O113  1  0.24612000  0.15353000  0.99028000  1.0
  O  O114  1  0.25387000  0.65352000  0.49028000  1.0
  O  O115  1  0.75389000  0.84648000  0.00973000  1.0
  O  O116  1  0.42555000  0.18313000  0.43340000  1.0
  O  O117  1  0.92557000  0.31687000  0.06660000  1.0
  O  O118  1  0.57444000  0.81686000  0.56660000  1.0
  O  O119  1  0.07443000  0.68313000  0.93340000  1.0
  O  O120  1  0.15441000  0.25163000  0.35586000  1.0
  O  O121  1  0.65442000  0.24837000  0.14414000  1.0
  O  O122  1  0.84558000  0.74836000  0.64414000  1.0
  O  O123  1  0.34558000  0.75163000  0.85586000  1.0
  O  O124  1  0.31454000  0.42817000  0.28321000  1.0
  O  O125  1  0.81455000  0.07182000  0.21679000  1.0
  O  O126  1  0.68544000  0.57182000  0.71679000  1.0
  O  O127  1  0.18545000  0.92818000  0.78321000  1.0
