# generated using pymatgen
data_CuH40C34Br2(N2O)4
_symmetry_space_group_name_H-M   'P 1'
_cell_length_a   12.65011757
_cell_length_b   12.65050000
_cell_length_c   20.37830000
_cell_angle_alpha   89.99600000
_cell_angle_beta   90.00020001
_cell_angle_gamma   119.99900000
_symmetry_Int_Tables_number   1
_chemical_formula_structural   CuH40C34Br2(N2O)4
_chemical_formula_sum   'Cu3 H120 C102 Br6 N24 O12'
_cell_volume   2824.26348386
_cell_formula_units_Z   3
loop_
 _symmetry_equiv_pos_site_id
 _symmetry_equiv_pos_as_xyz
  1  'x, y, z'
loop_
 _atom_site_type_symbol
 _atom_site_label
 _atom_site_symmetry_multiplicity
 _atom_site_fract_x
 _atom_site_fract_y
 _atom_site_fract_z
 _atom_site_occupancy
  Cu  Cu0  1  0.38594000  0.99999000  0.00000000  1.0
  Cu  Cu1  1  0.61429000  0.61462000  0.33333333  1.0
  Cu  Cu2  1  0.99967000  0.38537000  0.66666667  1.0
  H  H3  1  0.45270000  0.18398000  0.89747000  1.0
  H  H4  1  0.73098000  0.54772000  0.23040000  1.0
  H  H5  1  0.81648000  0.26900000  0.56397000  1.0
  H  H6  1  0.26872000  0.81601000  0.10253000  1.0
  H  H7  1  0.18325000  0.45228000  0.76959000  1.0
  H  H8  1  0.54748000  0.73101000  0.43602000  1.0
  H  H9  1  0.14316000  0.04703000  0.76650000  1.0
  H  H10  1  0.90394000  0.85716000  0.09939000  1.0
  H  H11  1  0.95315000  0.09613000  0.43301000  1.0
  H  H12  1  0.09613000  0.95297000  0.23351000  1.0
  H  H13  1  0.04678000  0.14283000  0.90061000  1.0
  H  H14  1  0.85702000  0.90388000  0.56698000  1.0
  H  H15  1  0.02040000  0.89498000  0.85439000  1.0
  H  H16  1  0.87488000  0.98013000  0.18720000  1.0
  H  H17  1  0.10513000  0.12521000  0.52089000  1.0
  H  H18  1  0.12541000  0.10501000  0.14561000  1.0
  H  H19  1  0.89475000  0.01986000  0.81280000  1.0
  H  H20  1  0.97991000  0.87479000  0.47910000  1.0
  H  H21  1  0.12479000  0.88819000  0.95776000  1.0
  H  H22  1  0.76389000  0.87596000  0.29071000  1.0
  H  H23  1  0.11181000  0.23622000  0.62437000  1.0
  H  H24  1  0.23660000  0.11180000  0.04224000  1.0
  H  H25  1  0.88792000  0.12403000  0.70930000  1.0
  H  H26  1  0.87558000  0.76377000  0.37563000  1.0
  H  H27  1  0.47650000  0.25777000  0.79023000  1.0
  H  H28  1  0.78128000  0.52376000  0.12332000  1.0
  H  H29  1  0.74252000  0.21896000  0.45679000  1.0
  H  H30  1  0.21872000  0.74222000  0.20977000  1.0
  H  H31  1  0.25752000  0.47623000  0.87668000  1.0
  H  H32  1  0.52356000  0.78105000  0.54320000  1.0
  H  H33  1  0.53800000  0.34898000  0.68681000  1.0
  H  H34  1  0.81079000  0.46188000  0.01970000  1.0
  H  H35  1  0.65118000  0.18924000  0.35315000  1.0
  H  H36  1  0.18901000  0.65101000  0.31320000  1.0
  H  H37  1  0.34891000  0.53812000  0.98030000  1.0
  H  H38  1  0.46195000  0.81077000  0.64685000  1.0
  H  H39  1  0.42064000  0.49490000  0.73954000  1.0
  H  H40  1  0.07403000  0.57938000  0.07253000  1.0
  H  H41  1  0.50519000  0.92595000  0.40594000  1.0
  H  H42  1  0.92574000  0.50511000  0.26046000  1.0
  H  H43  1  0.49465000  0.42061000  0.92747000  1.0
  H  H44  1  0.57924000  0.07405000  0.59406000  1.0
  H  H45  1  0.52074000  0.46303000  0.78586000  1.0
  H  H46  1  0.94205000  0.47945000  0.11888000  1.0
  H  H47  1  0.53705000  0.05792000  0.45226000  1.0
  H  H48  1  0.05771000  0.53697000  0.21414000  1.0
  H  H49  1  0.46260000  0.52055000  0.88112000  1.0
  H  H50  1  0.47914000  0.94209000  0.54774000  1.0
  H  H51  1  0.59261000  0.60491000  0.65698000  1.0
  H  H52  1  0.01163000  0.40697000  0.99007000  1.0
  H  H53  1  0.39536000  0.98822000  0.32336000  1.0
  H  H54  1  0.98770000  0.39509000  0.34301000  1.0
  H  H55  1  0.60466000  0.59303000  0.00992000  1.0
  H  H56  1  0.40715000  0.01178000  0.67664000  1.0
  H  H57  1  0.63561000  0.70794000  0.79672000  1.0
  H  H58  1  0.07272000  0.36493000  0.12978000  1.0
  H  H59  1  0.29201000  0.92762000  0.46304000  1.0
  H  H60  1  0.92766000  0.29206000  0.20327000  1.0
  H  H61  1  0.70779000  0.63506000  0.87022000  1.0
  H  H62  1  0.36438000  0.07237000  0.53696000  1.0
  H  H63  1  0.53381000  0.71219000  0.73815000  1.0
  H  H64  1  0.17834000  0.46650000  0.07100000  1.0
  H  H65  1  0.28786000  0.82180000  0.40435000  1.0
  H  H66  1  0.82162000  0.28782000  0.26184000  1.0
  H  H67  1  0.71184000  0.53349000  0.92900000  1.0
  H  H68  1  0.46606000  0.17819000  0.59565000  1.0
  H  H69  1  0.69438000  0.79456000  0.72364000  1.0
  H  H70  1  0.10018000  0.30584000  0.05674000  1.0
  H  H71  1  0.20557000  0.90005000  0.38990000  1.0
  H  H72  1  0.89981000  0.20545000  0.27636000  1.0
  H  H73  1  0.79435000  0.69415000  0.94325000  1.0
  H  H74  1  0.30553000  0.09996000  0.61011000  1.0
  H  H75  1  0.80457000  0.67253000  0.69287000  1.0
  H  H76  1  0.86792000  0.19519000  0.02645000  1.0
  H  H77  1  0.32740000  0.13217000  0.35948000  1.0
  H  H78  1  0.13203000  0.32747000  0.30712000  1.0
  H  H79  1  0.67275000  0.80482000  0.97354000  1.0
  H  H80  1  0.19523000  0.86783000  0.64052000  1.0
  H  H81  1  0.71758000  0.51015000  0.69276000  1.0
  H  H82  1  0.79214000  0.28191000  0.02649000  1.0
  H  H83  1  0.48984000  0.20783000  0.35946000  1.0
  H  H84  1  0.20743000  0.48986000  0.30723000  1.0
  H  H85  1  0.51024000  0.71809000  0.97350000  1.0
  H  H86  1  0.28201000  0.79217000  0.64054000  1.0
  H  H87  1  0.75009000  0.59089000  0.76793000  1.0
  H  H88  1  0.84127000  0.25005000  0.10151000  1.0
  H  H89  1  0.40877000  0.15895000  0.43457000  1.0
  H  H90  1  0.15919000  0.40910000  0.23206000  1.0
  H  H91  1  0.59123000  0.74994000  0.89849000  1.0
  H  H92  1  0.24983000  0.84106000  0.56543000  1.0
  H  H93  1  0.36260000  0.41283000  0.62652000  1.0
  H  H94  1  0.05024000  0.63727000  0.95950000  1.0
  H  H95  1  0.58725000  0.94986000  0.29308000  1.0
  H  H96  1  0.94976000  0.58715000  0.37349000  1.0
  H  H97  1  0.41297000  0.36273000  0.04050000  1.0
  H  H98  1  0.63739000  0.05014000  0.70692000  1.0
  H  H99  1  0.62415000  0.50482000  0.46341000  1.0
  H  H100  1  0.88034000  0.37591000  0.79654000  1.0
  H  H101  1  0.49580000  0.11945000  0.12990000  1.0
  H  H102  1  0.11934000  0.49519000  0.53659000  1.0
  H  H103  1  0.50443000  0.62409000  0.20347000  1.0
  H  H104  1  0.37634000  0.88054000  0.87009000  1.0
  H  H105  1  0.35366000  0.50608000  0.34924000  1.0
  H  H106  1  0.15216000  0.64573000  0.68210000  1.0
  H  H107  1  0.49347000  0.84715000  0.01579000  1.0
  H  H108  1  0.84760000  0.49393000  0.65078000  1.0
  H  H109  1  0.50643000  0.35427000  0.31790000  1.0
  H  H110  1  0.64631000  0.15284000  0.98421000  1.0
  H  H111  1  0.19486000  0.39594000  0.43543000  1.0
  H  H112  1  0.20121000  0.80489000  0.76818000  1.0
  H  H113  1  0.60339000  0.79819000  0.10198000  1.0
  H  H114  1  0.79893000  0.60406000  0.56458000  1.0
  H  H115  1  0.39631000  0.19511000  0.23182000  1.0
  H  H116  1  0.80519000  0.20181000  0.89802000  1.0
  H  H117  1  0.25994000  0.34916000  0.54253000  1.0
  H  H118  1  0.08945000  0.74017000  0.87536000  1.0
  H  H119  1  0.65059000  0.91022000  0.20905000  1.0
  H  H120  1  0.91078000  0.65084000  0.45748000  1.0
  H  H121  1  0.34928000  0.25983000  0.12464000  1.0
  H  H122  1  0.74037000  0.08978000  0.79095000  1.0
  C  C123  1  0.35783000  0.11961000  0.88465000  1.0
  C  C124  1  0.76162000  0.64264000  0.21758000  1.0
  C  C125  1  0.88072000  0.23831000  0.55115000  1.0
  C  C126  1  0.23822000  0.88038000  0.11535000  1.0
  C  C127  1  0.11897000  0.35735000  0.78242000  1.0
  C  C128  1  0.64240000  0.76168000  0.44884000  1.0
  C  C129  1  0.30799000  0.12698000  0.82454000  1.0
  C  C130  1  0.81894000  0.69236000  0.15746000  1.0
  C  C131  1  0.87329000  0.18112000  0.49103000  1.0
  C  C132  1  0.18101000  0.87302000  0.17546000  1.0
  C  C133  1  0.12658000  0.30764000  0.84254000  1.0
  C  C134  1  0.69217000  0.81888000  0.50896000  1.0
  C  C135  1  0.18424000  0.04346000  0.81263000  1.0
  C  C136  1  0.85932000  0.81613000  0.14553000  1.0
  C  C137  1  0.95675000  0.14080000  0.47913000  1.0
  C  C138  1  0.14077000  0.95653000  0.18737000  1.0
  C  C139  1  0.04319000  0.18386000  0.85447000  1.0
  C  C140  1  0.81595000  0.85921000  0.52086000  1.0
  C  C141  1  0.11716000  0.95970000  0.86159000  1.0
  C  C142  1  0.84281000  0.88336000  0.19448000  1.0
  C  C143  1  0.04049000  0.15736000  0.52810000  1.0
  C  C144  1  0.15746000  0.04030000  0.13842000  1.0
  C  C145  1  0.95945000  0.11663000  0.80553000  1.0
  C  C146  1  0.88312000  0.84264000  0.47189000  1.0
  C  C147  1  0.17358000  0.95529000  0.91932000  1.0
  C  C148  1  0.78208000  0.82708000  0.25226000  1.0
  C  C149  1  0.04482000  0.21804000  0.58588000  1.0
  C  C150  1  0.21829000  0.04470000  0.08068000  1.0
  C  C151  1  0.95499000  0.17291000  0.74774000  1.0
  C  C152  1  0.82677000  0.78196000  0.41411000  1.0
  C  C153  1  0.35330000  0.25691000  0.72483000  1.0
  C  C154  1  0.90318000  0.64668000  0.05763000  1.0
  C  C155  1  0.74342000  0.09674000  0.39129000  1.0
  C  C156  1  0.09641000  0.74310000  0.27517000  1.0
  C  C157  1  0.25650000  0.35332000  0.94237000  1.0
  C  C158  1  0.64668000  0.90326000  0.60870000  1.0
  C  C159  1  0.46185000  0.36731000  0.69249000  1.0
  C  C160  1  0.90524000  0.53811000  0.02541000  1.0
  C  C161  1  0.63292000  0.09480000  0.35892000  1.0
  C  C162  1  0.09454000  0.63269000  0.30752000  1.0
  C  C163  1  0.36714000  0.46191000  0.97459000  1.0
  C  C164  1  0.53813000  0.90520000  0.64108000  1.0
  C  C165  1  0.49989000  0.48117000  0.73603000  1.0
  C  C166  1  0.98103000  0.50017000  0.06905000  1.0
  C  C167  1  0.51899000  0.01895000  0.40243000  1.0
  C  C168  1  0.01871000  0.51883000  0.26397000  1.0
  C  C169  1  0.48087000  0.49984000  0.93095000  1.0
  C  C170  1  0.50004000  0.98105000  0.59757000  1.0
  C  C171  1  0.60964000  0.59798000  0.70948000  1.0
  C  C172  1  0.98807000  0.39032000  0.04263000  1.0
  C  C173  1  0.40220000  0.01195000  0.37588000  1.0
  C  C174  1  0.01165000  0.40202000  0.29051000  1.0
  C  C175  1  0.59776000  0.60968000  0.95737000  1.0
  C  C176  1  0.39026000  0.98806000  0.62412000  1.0
  C  C177  1  0.61886000  0.70967000  0.74382000  1.0
  C  C178  1  0.09085000  0.38143000  0.07685000  1.0
  C  C179  1  0.29040000  0.90936000  0.41012000  1.0
  C  C180  1  0.90918000  0.29033000  0.25617000  1.0
  C  C181  1  0.70943000  0.61857000  0.92315000  1.0
  C  C182  1  0.38104000  0.09063000  0.58988000  1.0
  C  C183  1  0.72723000  0.59277000  0.71597000  1.0
  C  C184  1  0.86549000  0.27259000  0.04948000  1.0
  C  C185  1  0.40721000  0.13463000  0.38254000  1.0
  C  C186  1  0.13445000  0.40722000  0.28403000  1.0
  C  C187  1  0.59291000  0.72741000  0.95052000  1.0
  C  C188  1  0.27258000  0.86537000  0.61746000  1.0
  C  C189  1  0.49690000  0.40246000  0.57397000  1.0
  C  C190  1  0.90549000  0.50323000  0.90688000  1.0
  C  C191  1  0.59806000  0.09454000  0.24035000  1.0
  C  C192  1  0.09445000  0.59755000  0.42603000  1.0
  C  C193  1  0.40226000  0.49677000  0.09312000  1.0
  C  C194  1  0.50352000  0.90545000  0.75965000  1.0
  C  C195  1  0.44794000  0.42508000  0.51176000  1.0
  C  C196  1  0.97713000  0.55216000  0.84469000  1.0
  C  C197  1  0.57515000  0.02267000  0.17824000  1.0
  C  C198  1  0.02286000  0.57492000  0.48824000  1.0
  C  C199  1  0.42497000  0.44784000  0.15531000  1.0
  C  C200  1  0.55248000  0.97732000  0.82176000  1.0
  C  C201  1  0.52890000  0.48159000  0.45990000  1.0
  C  C202  1  0.95243000  0.47108000  0.79290000  1.0
  C  C203  1  0.51879000  0.04728000  0.12637000  1.0
  C  C204  1  0.04732000  0.51842000  0.54011000  1.0
  C  C205  1  0.48135000  0.52892000  0.20711000  1.0
  C  C206  1  0.47150000  0.95271000  0.87363000  1.0
  C  C207  1  0.37539000  0.47777000  0.39523000  1.0
  C  C208  1  0.10225000  0.62428000  0.72813000  1.0
  C  C209  1  0.52196000  0.89721000  0.06177000  1.0
  C  C210  1  0.89763000  0.52223000  0.60478000  1.0
  C  C211  1  0.47797000  0.37573000  0.27187000  1.0
  C  C212  1  0.62474000  0.10278000  0.93823000  1.0
  C  C213  1  0.28861000  0.41796000  0.44385000  1.0
  C  C214  1  0.12945000  0.71122000  0.77668000  1.0
  C  C215  1  0.58165000  0.87008000  0.11040000  1.0
  C  C216  1  0.87065000  0.58204000  0.55616000  1.0
  C  C217  1  0.41823000  0.28878000  0.22332000  1.0
  C  C218  1  0.71156000  0.12992000  0.88960000  1.0
  C  C219  1  0.32564000  0.39284000  0.50319000  1.0
  C  C220  1  0.06736000  0.67439000  0.83605000  1.0
  C  C221  1  0.60700000  0.93234000  0.16971000  1.0
  C  C222  1  0.93280000  0.60716000  0.49682000  1.0
  C  C223  1  0.39297000  0.32561000  0.16395000  1.0
  C  C224  1  0.67466000  0.06766000  0.83029000  1.0
  Br  Br225  1  0.53139000  0.27191000  0.02897000  1.0
  Br  Br226  1  0.74063000  0.46900000  0.36181000  1.0
  Br  Br227  1  0.72821000  0.25922000  0.69492000  1.0
  Br  Br228  1  0.25949000  0.72811000  0.97101000  1.0
  Br  Br229  1  0.27164000  0.53101000  0.63818000  1.0
  Br  Br230  1  0.46901000  0.74079000  0.30508000  1.0
  N  N231  1  0.29315000  0.03354000  0.92941000  1.0
  N  N232  1  0.74046000  0.70746000  0.26237000  1.0
  N  N233  1  0.96668000  0.25949000  0.59595000  1.0
  N  N234  1  0.25961000  0.96646000  0.07060000  1.0
  N  N235  1  0.03300000  0.29253000  0.73763000  1.0
  N  N236  1  0.70718000  0.74050000  0.40404000  1.0
  N  N237  1  0.38563000  0.21598000  0.77984000  1.0
  N  N238  1  0.83024000  0.61460000  0.11279000  1.0
  N  N239  1  0.78429000  0.16987000  0.44635000  1.0
  N  N240  1  0.16966000  0.78403000  0.22016000  1.0
  N  N241  1  0.21565000  0.38540000  0.88721000  1.0
  N  N242  1  0.61442000  0.83014000  0.55364000  1.0
  N  N243  1  0.42683000  0.38500000  0.62776000  1.0
  N  N244  1  0.95816000  0.57310000  0.96072000  1.0
  N  N245  1  0.61525000  0.04197000  0.29423000  1.0
  N  N246  1  0.04182000  0.61499000  0.37225000  1.0
  N  N247  1  0.38506000  0.42690000  0.03928000  1.0
  N  N248  1  0.57329000  0.95803000  0.70577000  1.0
  N  N249  1  0.49297000  0.50876000  0.40337000  1.0
  N  N250  1  0.01550000  0.50679000  0.73637000  1.0
  N  N251  1  0.49136000  0.98406000  0.06989000  1.0
  N  N252  1  0.98423000  0.49125000  0.59663000  1.0
  N  N253  1  0.50870000  0.49320000  0.26364000  1.0
  N  N254  1  0.50729000  0.01594000  0.93010000  1.0
  O  O255  1  0.24717000  0.21257000  0.70541000  1.0
  O  O256  1  0.96462000  0.75271000  0.03798000  1.0
  O  O257  1  0.78785000  0.03504000  0.37184000  1.0
  O  O258  1  0.03464000  0.78747000  0.29461000  1.0
  O  O259  1  0.21191000  0.24729000  0.96202000  1.0
  O  O260  1  0.75281000  0.96495000  0.62815000  1.0
  O  O261  1  0.59367000  0.39952000  0.57416000  1.0
  O  O262  1  0.80567000  0.40660000  0.90701000  1.0
  O  O263  1  0.60140000  0.19446000  0.24037000  1.0
  O  O264  1  0.19415000  0.60050000  0.42584000  1.0
  O  O265  1  0.39907000  0.59340000  0.09299000  1.0
  O  O266  1  0.40695000  0.80553000  0.75962000  1.0
