# generated using pymatgen
data_HgH9C12Br2N3
_symmetry_space_group_name_H-M   'P 1'
_cell_length_a   6.97247000
_cell_length_b   13.55670000
_cell_length_c   14.21230000
_cell_angle_alpha   89.99950000
_cell_angle_beta   90.00010000
_cell_angle_gamma   89.99950000
_symmetry_Int_Tables_number   1
_chemical_formula_structural   HgH9C12Br2N3
_chemical_formula_sum   'Hg4 H36 C48 Br8 N12'
_cell_volume   1343.39895471
_cell_formula_units_Z   4
loop_
 _symmetry_equiv_pos_site_id
 _symmetry_equiv_pos_as_xyz
  1  'x, y, z'
loop_
 _atom_site_type_symbol
 _atom_site_label
 _atom_site_symmetry_multiplicity
 _atom_site_fract_x
 _atom_site_fract_y
 _atom_site_fract_z
 _atom_site_occupancy
  Hg  Hg0  1  0.55784000  0.40860000  0.54586000  1.0
  Hg  Hg1  1  0.44216000  0.59140000  0.04587000  1.0
  Hg  Hg2  1  0.05784000  0.09140000  0.54586000  1.0
  Hg  Hg3  1  0.94215000  0.90860000  0.04586000  1.0
  H  H4  1  0.09641000  0.34712000  0.51201000  1.0
  H  H5  1  0.90360000  0.65288000  0.01201000  1.0
  H  H6  1  0.59640000  0.15288000  0.51201000  1.0
  H  H7  1  0.40359000  0.84711000  0.01201000  1.0
  H  H8  1  0.17011000  0.04037000  0.31515000  1.0
  H  H9  1  0.82989000  0.95964000  0.81515000  1.0
  H  H10  1  0.67011000  0.45963000  0.31515000  1.0
  H  H11  1  0.32989000  0.54036000  0.81515000  1.0
  H  H12  1  0.27905000  0.05627000  0.14940000  1.0
  H  H13  1  0.72096000  0.94374000  0.64940000  1.0
  H  H14  1  0.77904000  0.44373000  0.14940000  1.0
  H  H15  1  0.22096000  0.55627000  0.64940000  1.0
  H  H16  1  0.35757000  0.21903000  0.08090000  1.0
  H  H17  1  0.64243000  0.78098000  0.58090000  1.0
  H  H18  1  0.85757000  0.28097000  0.08090000  1.0
  H  H19  1  0.14243000  0.71903000  0.58090000  1.0
  H  H20  1  0.32025000  0.37314000  0.17401000  1.0
  H  H21  1  0.67975000  0.62686000  0.67401000  1.0
  H  H22  1  0.82024000  0.12686000  0.17401000  1.0
  H  H23  1  0.17975000  0.87314000  0.67401000  1.0
  H  H24  1  0.05656000  0.48334000  0.23794000  1.0
  H  H25  1  0.94344000  0.51667000  0.73794000  1.0
  H  H26  1  0.55656000  0.01667000  0.23793000  1.0
  H  H27  1  0.44344000  0.98333000  0.73794000  1.0
  H  H28  1  0.10163000  0.66681000  0.23890000  1.0
  H  H29  1  0.89837000  0.33320000  0.73890000  1.0
  H  H30  1  0.60163000  0.83319000  0.23890000  1.0
  H  H31  1  0.39837000  0.16681000  0.73890000  1.0
  H  H32  1  0.29557000  0.74351000  0.36885000  1.0
  H  H33  1  0.70442000  0.25649000  0.86885000  1.0
  H  H34  1  0.79557000  0.75649000  0.36885000  1.0
  H  H35  1  0.20442000  0.24351000  0.86885000  1.0
  H  H36  1  0.44447000  0.63201000  0.48951000  1.0
  H  H37  1  0.55554000  0.36799000  0.98952000  1.0
  H  H38  1  0.94446000  0.86799000  0.48952000  1.0
  H  H39  1  0.05553000  0.13201000  0.98951000  1.0
  C  C40  1  0.13351000  0.31004000  0.44684000  1.0
  C  C41  1  0.86650000  0.68997000  0.94684000  1.0
  C  C42  1  0.63351000  0.18996000  0.44684000  1.0
  C  C43  1  0.36649000  0.81003000  0.94685000  1.0
  C  C44  1  0.18226000  0.19903000  0.33807000  1.0
  C  C45  1  0.81774000  0.80098000  0.83808000  1.0
  C  C46  1  0.68226000  0.30097000  0.33808000  1.0
  C  C47  1  0.31774000  0.69902000  0.83808000  1.0
  C  C48  1  0.20097000  0.11256000  0.28513000  1.0
  C  C49  1  0.79904000  0.88744000  0.78513000  1.0
  C  C50  1  0.70097000  0.38744000  0.28513000  1.0
  C  C51  1  0.29904000  0.61256000  0.78513000  1.0
  C  C52  1  0.26269000  0.12236000  0.19237000  1.0
  C  C53  1  0.73732000  0.87764000  0.69236000  1.0
  C  C54  1  0.76269000  0.37764000  0.19237000  1.0
  C  C55  1  0.23732000  0.62236000  0.69237000  1.0
  C  C56  1  0.30621000  0.21511000  0.15325000  1.0
  C  C57  1  0.69379000  0.78490000  0.65325000  1.0
  C  C58  1  0.80621000  0.28490000  0.15325000  1.0
  C  C59  1  0.19379000  0.71510000  0.65325000  1.0
  C  C60  1  0.28769000  0.30176000  0.20491000  1.0
  C  C61  1  0.71231000  0.69825000  0.70491000  1.0
  C  C62  1  0.78768000  0.19824000  0.20491000  1.0
  C  C63  1  0.21231000  0.80175000  0.70491000  1.0
  C  C64  1  0.22438000  0.29180000  0.29734000  1.0
  C  C65  1  0.77561000  0.70821000  0.79734000  1.0
  C  C66  1  0.72439000  0.20820000  0.29734000  1.0
  C  C67  1  0.27561000  0.79179000  0.79734000  1.0
  C  C68  1  0.22374000  0.46435000  0.36446000  1.0
  C  C69  1  0.77626000  0.53566000  0.86447000  1.0
  C  C70  1  0.72374000  0.03565000  0.36446000  1.0
  C  C71  1  0.27625000  0.96434000  0.86447000  1.0
  C  C72  1  0.14121000  0.51937000  0.29220000  1.0
  C  C73  1  0.85879000  0.48064000  0.79220000  1.0
  C  C74  1  0.64122000  0.98064000  0.29220000  1.0
  C  C75  1  0.35878000  0.01936000  0.79220000  1.0
  C  C76  1  0.16609000  0.62113000  0.29348000  1.0
  C  C77  1  0.83391000  0.37888000  0.79349000  1.0
  C  C78  1  0.66609000  0.87887000  0.29348000  1.0
  C  C79  1  0.33391000  0.12113000  0.79349000  1.0
  C  C80  1  0.27303000  0.66402000  0.36571000  1.0
  C  C81  1  0.72697000  0.33598000  0.86571000  1.0
  C  C82  1  0.77303000  0.83598000  0.36571000  1.0
  C  C83  1  0.22697000  0.16402000  0.86571000  1.0
  C  C84  1  0.35427000  0.60268000  0.43336000  1.0
  C  C85  1  0.64574000  0.39732000  0.93336000  1.0
  C  C86  1  0.85426000  0.89732000  0.43336000  1.0
  C  C87  1  0.14573000  0.10268000  0.93336000  1.0
  Br  Br88  1  0.84006000  0.52536000  0.52044000  1.0
  Br  Br89  1  0.15995000  0.47463000  0.02043000  1.0
  Br  Br90  1  0.34005000  0.97463000  0.52043000  1.0
  Br  Br91  1  0.65993000  0.02535000  0.02040000  1.0
  Br  Br92  1  0.33061000  0.35157000  0.67361000  1.0
  Br  Br93  1  0.66940000  0.64842000  0.17361000  1.0
  Br  Br94  1  0.83061000  0.14843000  0.67361000  1.0
  Br  Br95  1  0.16938000  0.85158000  0.17361000  1.0
  N  N96  1  0.12438000  0.21401000  0.43100000  1.0
  N  N97  1  0.87563000  0.78599000  0.93100000  1.0
  N  N98  1  0.62437000  0.28599000  0.43100000  1.0
  N  N99  1  0.37562000  0.71400000  0.93100000  1.0
  N  N100  1  0.19426000  0.36079000  0.36896000  1.0
  N  N101  1  0.80574000  0.63921000  0.86896000  1.0
  N  N102  1  0.69426000  0.13921000  0.36896000  1.0
  N  N103  1  0.30574000  0.86079000  0.86896000  1.0
  N  N104  1  0.33096000  0.50416000  0.43293000  1.0
  N  N105  1  0.66905000  0.49585000  0.93294000  1.0
  N  N106  1  0.83096000  0.99584000  0.43294000  1.0
  N  N107  1  0.16904000  0.00415000  0.93294000  1.0
