# generated using pymatgen
data_LiH7C4N2O3
_symmetry_space_group_name_H-M   'P 1'
_cell_length_a   4.97404000
_cell_length_b   7.68635000
_cell_length_c   8.87663000
_cell_angle_alpha   106.65500000
_cell_angle_beta   89.99980000
_cell_angle_gamma   89.99920000
_symmetry_Int_Tables_number   1
_chemical_formula_structural   LiH7C4N2O3
_chemical_formula_sum   'Li2 H14 C8 N4 O6'
_cell_volume   325.13578178
_cell_formula_units_Z   2
loop_
 _symmetry_equiv_pos_site_id
 _symmetry_equiv_pos_as_xyz
  1  'x, y, z'
loop_
 _atom_site_type_symbol
 _atom_site_label
 _atom_site_symmetry_multiplicity
 _atom_site_fract_x
 _atom_site_fract_y
 _atom_site_fract_z
 _atom_site_occupancy
  Li  Li0  1  0.45486000  0.37974000  0.51315000  1.0
  Li  Li1  1  0.95486000  0.62026000  0.48685000  1.0
  H  H2  1  0.90888000  0.18729000  0.23973000  1.0
  H  H3  1  0.40890000  0.81272000  0.76026000  1.0
  H  H4  1  0.06824000  0.36988000  0.22655000  1.0
  H  H5  1  0.56825000  0.63012000  0.77345000  1.0
  H  H6  1  0.42508000  0.80957000  0.06401000  1.0
  H  H7  1  0.92509000  0.19043000  0.93599000  1.0
  H  H8  1  0.42751000  0.22424000  0.09873000  1.0
  H  H9  1  0.92752000  0.77576000  0.90127000  1.0
  H  H10  1  0.24292000  0.02481000  0.01144000  1.0
  H  H11  1  0.74293000  0.97519000  0.98856000  1.0
  H  H12  1  0.70186000  0.87175000  0.37229000  1.0
  H  H13  1  0.20187000  0.12824000  0.62770000  1.0
  H  H14  1  0.77814000  0.70016000  0.19765000  1.0
  H  H15  1  0.27815000  0.29982000  0.80234000  1.0
  C  C16  1  0.27227000  0.13289000  0.12211000  1.0
  C  C17  1  0.77228000  0.86712000  0.87788000  1.0
  C  C18  1  0.39294000  0.04673000  0.24132000  1.0
  C  C19  1  0.89296000  0.95328000  0.75870000  1.0
  C  C20  1  0.61087000  0.77295000  0.27001000  1.0
  C  C21  1  0.11089000  0.22705000  0.72999000  1.0
  C  C22  1  0.45327000  0.63684000  0.33226000  1.0
  C  C23  1  0.95328000  0.36316000  0.66775000  1.0
  N  N24  1  0.02443000  0.23749000  0.16665000  1.0
  N  N25  1  0.52444000  0.76251000  0.83335000  1.0
  N  N26  1  0.45621000  0.87022000  0.18269000  1.0
  N  N27  1  0.95623000  0.12977000  0.81730000  1.0
  O  O28  1  0.43976000  0.13555000  0.38075000  1.0
  O  O29  1  0.93979000  0.86445000  0.61924000  1.0
  O  O30  1  0.20252000  0.62012000  0.31096000  1.0
  O  O31  1  0.70253000  0.37987000  0.68904000  1.0
  O  O32  1  0.59543000  0.54845000  0.40533000  1.0
  O  O33  1  0.09544000  0.45157000  0.59469000  1.0
