# generated using pymatgen
data_LiH7C14(N2O)2
_symmetry_space_group_name_H-M   'P 1'
_cell_length_a   8.60057000
_cell_length_b   9.45283000
_cell_length_c   9.58006000
_cell_angle_alpha   64.87690000
_cell_angle_beta   78.11600000
_cell_angle_gamma   67.41160000
_symmetry_Int_Tables_number   1
_chemical_formula_structural   LiH7C14(N2O)2
_chemical_formula_sum   'Li2 H14 C28 N8 O4'
_cell_volume   650.22328932
_cell_formula_units_Z   2
loop_
 _symmetry_equiv_pos_site_id
 _symmetry_equiv_pos_as_xyz
  1  'x, y, z'
loop_
 _atom_site_type_symbol
 _atom_site_label
 _atom_site_symmetry_multiplicity
 _atom_site_fract_x
 _atom_site_fract_y
 _atom_site_fract_z
 _atom_site_occupancy
  Li  Li0  1  0.62099000  0.28065000  0.28784000  1.0
  Li  Li1  1  0.37901000  0.71935000  0.71216000  1.0
  H  H2  1  0.04996000  0.15662000  0.18679000  1.0
  H  H3  1  0.95004000  0.84338000  0.81321000  1.0
  H  H4  1  0.04603000  0.92546000  0.12992000  1.0
  H  H5  1  0.95397000  0.07454000  0.87007000  1.0
  H  H6  1  0.31495000  0.70162000  0.11526000  1.0
  H  H7  1  0.68505000  0.29838000  0.88474000  1.0
  H  H8  1  0.58629000  0.70453000  0.16415000  1.0
  H  H9  1  0.41371000  0.29546000  0.83585000  1.0
  H  H10  1  0.59214000  0.93719000  0.21703000  1.0
  H  H11  1  0.40786000  0.06280000  0.78298000  1.0
  H  H12  1  0.38824000  0.43643000  0.45106000  1.0
  H  H13  1  0.61176000  0.56357000  0.54894000  1.0
  H  H14  1  0.55767000  0.33358000  0.53545000  1.0
  H  H15  1  0.44233000  0.66642000  0.46455000  1.0
  C  C16  1  0.32892000  0.20094000  0.23056000  1.0
  C  C17  1  0.67107000  0.79906000  0.76944000  1.0
  C  C18  1  0.32164000  0.06256000  0.20385000  1.0
  C  C19  1  0.67836000  0.93744000  0.79615000  1.0
  C  C20  1  0.16739000  0.05848000  0.18026000  1.0
  C  C21  1  0.83261000  0.94152000  0.81974000  1.0
  C  C22  1  0.16520000  0.92946000  0.14744000  1.0
  C  C23  1  0.83480000  0.07054000  0.85256000  1.0
  C  C24  1  0.31604000  0.80305000  0.14077000  1.0
  C  C25  1  0.68396000  0.19695000  0.85922000  1.0
  C  C26  1  0.46945000  0.80448000  0.16747000  1.0
  C  C27  1  0.53054000  0.19552000  0.83254000  1.0
  C  C28  1  0.47314000  0.93445000  0.19765000  1.0
  C  C29  1  0.52686000  0.06554000  0.80235000  1.0
  C  C30  1  0.16751000  0.31863000  0.27458000  1.0
  C  C31  1  0.83249000  0.68137000  0.72541000  1.0
  C  C32  1  0.08893000  0.25380000  0.42000000  1.0
  C  C33  1  0.91106000  0.74620000  0.57999000  1.0
  C  C34  1  0.93955000  0.34759000  0.47768000  1.0
  C  C35  1  0.06045000  0.65241000  0.52232000  1.0
  C  C36  1  0.15738000  0.08604000  0.51866000  1.0
  C  C37  1  0.84262000  0.91395000  0.48134000  1.0
  C  C38  1  0.11656000  0.48323000  0.16747000  1.0
  C  C39  1  0.88344000  0.51678000  0.83253000  1.0
  C  C40  1  0.98102000  0.61534000  0.19330000  1.0
  C  C41  1  0.01898000  0.38466000  0.80670000  1.0
  C  C42  1  0.20208000  0.53244000  0.02200000  1.0
  C  C43  1  0.79793000  0.46757000  0.97800000  1.0
  N  N44  1  0.21253000  0.94696000  0.60043000  1.0
  N  N45  1  0.78746000  0.05304000  0.39956000  1.0
  N  N46  1  0.81508000  0.42151000  0.52798000  1.0
  N  N47  1  0.18493000  0.57849000  0.47203000  1.0
  N  N48  1  0.87356000  0.73092000  0.20812000  1.0
  N  N49  1  0.12644000  0.26908000  0.79189000  1.0
  N  N50  1  0.26633000  0.58368000  0.89967000  1.0
  N  N51  1  0.73368000  0.41633000  0.10033000  1.0
  O  O52  1  0.46178000  0.22834000  0.21820000  1.0
  O  O53  1  0.53822000  0.77167000  0.78180000  1.0
  O  O54  1  0.50595000  0.36486000  0.44072000  1.0
  O  O55  1  0.49405000  0.63515000  0.55928000  1.0
