# generated using pymatgen
data_AgH2C3SO2
_symmetry_space_group_name_H-M   'P 1'
_cell_length_a   5.47300000
_cell_length_b   12.35190000
_cell_length_c   12.65280000
_cell_angle_alpha   85.16810000
_cell_angle_beta   89.99970000
_cell_angle_gamma   89.99990000
_symmetry_Int_Tables_number   1
_chemical_formula_structural   AgH2C3SO2
_chemical_formula_sum   'Ag8 H16 C24 S8 O16'
_cell_volume   852.31410811
_cell_formula_units_Z   8
loop_
 _symmetry_equiv_pos_site_id
 _symmetry_equiv_pos_as_xyz
  1  'x, y, z'
loop_
 _atom_site_type_symbol
 _atom_site_label
 _atom_site_symmetry_multiplicity
 _atom_site_fract_x
 _atom_site_fract_y
 _atom_site_fract_z
 _atom_site_occupancy
  Ag  Ag0  1  0.85402000  0.87892000  0.97975000  1.0
  Ag  Ag1  1  0.35401000  0.62107000  0.02024000  1.0
  Ag  Ag2  1  0.14598000  0.12108000  0.02024000  1.0
  Ag  Ag3  1  0.64598000  0.37892000  0.97976000  1.0
  Ag  Ag4  1  0.21442000  0.09054000  0.49444000  1.0
  Ag  Ag5  1  0.71442000  0.40945000  0.50557000  1.0
  Ag  Ag6  1  0.78559000  0.90946000  0.50556000  1.0
  Ag  Ag7  1  0.28558000  0.59055000  0.49443000  1.0
  H  H8  1  0.14300000  0.41880000  0.66183000  1.0
  H  H9  1  0.64300000  0.08120000  0.33817000  1.0
  H  H10  1  0.85700000  0.58120000  0.33817000  1.0
  H  H11  1  0.35701000  0.91880000  0.66183000  1.0
  H  H12  1  0.41561000  0.43195000  0.73786000  1.0
  H  H13  1  0.91561000  0.06806000  0.26214000  1.0
  H  H14  1  0.58439000  0.56806000  0.26214000  1.0
  H  H15  1  0.08439000  0.93194000  0.73786000  1.0
  H  H16  1  0.05418000  0.35597000  0.84861000  1.0
  H  H17  1  0.55419000  0.14403000  0.15139000  1.0
  H  H18  1  0.94583000  0.64403000  0.15139000  1.0
  H  H19  1  0.44582000  0.85596000  0.84861000  1.0
  H  H20  1  0.04668000  0.24170000  0.76976000  1.0
  H  H21  1  0.54667000  0.25831000  0.23025000  1.0
  H  H22  1  0.95332000  0.75830000  0.23024000  1.0
  H  H23  1  0.45332000  0.74169000  0.76976000  1.0
  C  C24  1  0.73645000  0.12042000  0.63056000  1.0
  C  C25  1  0.23649000  0.37957000  0.36943000  1.0
  C  C26  1  0.26352000  0.87957000  0.36943000  1.0
  C  C27  1  0.76351000  0.62043000  0.63057000  1.0
  C  C28  1  0.57664000  0.18785000  0.69780000  1.0
  C  C29  1  0.07664000  0.31215000  0.30221000  1.0
  C  C30  1  0.42337000  0.81215000  0.30220000  1.0
  C  C31  1  0.92337000  0.68785000  0.69780000  1.0
  C  C32  1  0.28313000  0.37403000  0.71014000  1.0
  C  C33  1  0.78313000  0.12598000  0.28986000  1.0
  C  C34  1  0.71687000  0.62597000  0.28986000  1.0
  C  C35  1  0.21687000  0.87402000  0.71014000  1.0
  C  C36  1  0.16297000  0.30466000  0.79974000  1.0
  C  C37  1  0.66296000  0.19534000  0.20027000  1.0
  C  C38  1  0.83705000  0.69535000  0.20025000  1.0
  C  C39  1  0.33705000  0.80465000  0.79974000  1.0
  C  C40  1  0.55635000  0.16369000  0.80397000  1.0
  C  C41  1  0.05636000  0.33631000  0.19603000  1.0
  C  C42  1  0.44365000  0.83631000  0.19603000  1.0
  C  C43  1  0.94364000  0.66369000  0.80397000  1.0
  C  C44  1  0.68215000  0.06914000  0.86267000  1.0
  C  C45  1  0.18216000  0.43087000  0.13734000  1.0
  C  C46  1  0.31783000  0.93088000  0.13735000  1.0
  C  C47  1  0.81783000  0.56914000  0.86266000  1.0
  S  S48  1  0.43384000  0.29122000  0.61745000  1.0
  S  S49  1  0.93384000  0.20878000  0.38256000  1.0
  S  S50  1  0.56617000  0.70878000  0.38255000  1.0
  S  S51  1  0.06616000  0.79122000  0.61744000  1.0
  S  S52  1  0.38238000  0.23819000  0.89009000  1.0
  S  S53  1  0.88238000  0.26181000  0.10992000  1.0
  S  S54  1  0.61761000  0.76181000  0.10991000  1.0
  S  S55  1  0.11761000  0.73819000  0.89008000  1.0
  O  O56  1  0.62563000  0.07280000  0.55796000  1.0
  O  O57  1  0.12562000  0.42720000  0.44205000  1.0
  O  O58  1  0.37438000  0.92719000  0.44204000  1.0
  O  O59  1  0.87438000  0.57281000  0.55796000  1.0
  O  O60  1  0.96268000  0.12113000  0.64633000  1.0
  O  O61  1  0.46264000  0.37888000  0.35366000  1.0
  O  O62  1  0.03735000  0.87887000  0.35367000  1.0
  O  O63  1  0.53736000  0.62113000  0.64633000  1.0
  O  O64  1  0.73024000  0.98531000  0.81565000  1.0
  O  O65  1  0.23024000  0.51468000  0.18436000  1.0
  O  O66  1  0.26976000  0.01468000  0.18435000  1.0
  O  O67  1  0.76976000  0.48531000  0.81564000  1.0
  O  O68  1  0.72541000  0.07884000  0.96111000  1.0
  O  O69  1  0.22543000  0.42117000  0.03889000  1.0
  O  O70  1  0.27456000  0.92117000  0.03889000  1.0
  O  O71  1  0.77457000  0.57883000  0.96110000  1.0
