# generated using pymatgen
data_CdH13C17S3(NO)5
_symmetry_space_group_name_H-M   'P 1'
_cell_length_a   9.40722000
_cell_length_b   9.59275000
_cell_length_c   12.45040000
_cell_angle_alpha   69.30540000
_cell_angle_beta   71.79580000
_cell_angle_gamma   81.22100000
_symmetry_Int_Tables_number   1
_chemical_formula_structural   CdH13C17S3(NO)5
_chemical_formula_sum   'Cd2 H26 C34 S6 N10 O10'
_cell_volume   997.31091661
_cell_formula_units_Z   2
loop_
 _symmetry_equiv_pos_site_id
 _symmetry_equiv_pos_as_xyz
  1  'x, y, z'
loop_
 _atom_site_type_symbol
 _atom_site_label
 _atom_site_symmetry_multiplicity
 _atom_site_fract_x
 _atom_site_fract_y
 _atom_site_fract_z
 _atom_site_occupancy
  Cd  Cd0  1  0.84608000  0.36829000  0.61693000  1.0
  Cd  Cd1  1  0.15392000  0.63171000  0.38308000  1.0
  H  H2  1  0.87185000  0.56959000  0.78699000  1.0
  H  H3  1  0.12815000  0.43041000  0.21302000  1.0
  H  H4  1  0.81569000  0.75787000  0.72288000  1.0
  H  H5  1  0.18430000  0.24213000  0.27713000  1.0
  H  H6  1  0.23708000  0.87456000  0.59887000  1.0
  H  H7  1  0.76292000  0.12545000  0.40113000  1.0
  H  H8  1  0.55690000  0.12213000  0.01840000  1.0
  H  H9  1  0.44310000  0.87787000  0.98161000  1.0
  H  H10  1  0.42352000  0.16163000  0.93579000  1.0
  H  H11  1  0.57648000  0.83838000  0.06421000  1.0
  H  H12  1  0.09076000  0.10822000  0.56707000  1.0
  H  H13  1  0.90925000  0.89179000  0.43292000  1.0
  H  H14  1  0.96547000  0.29807000  0.83718000  1.0
  H  H15  1  0.03453000  0.70193000  0.16282000  1.0
  H  H16  1  0.14619000  0.12800000  0.94101000  1.0
  H  H17  1  0.85382000  0.87200000  0.05899000  1.0
  H  H18  1  0.30971000  0.94243000  0.84784000  1.0
  H  H19  1  0.69028000  0.05757000  0.15216000  1.0
  H  H20  1  0.61796000  0.60901000  0.69998000  1.0
  H  H21  1  0.38203000  0.39099000  0.30001000  1.0
  H  H22  1  0.73561000  0.51554000  0.38074000  1.0
  H  H23  1  0.26439000  0.48446000  0.61925000  1.0
  H  H24  1  0.55844000  0.71564000  0.30022000  1.0
  H  H25  1  0.44156000  0.28437000  0.69978000  1.0
  H  H26  1  0.40592000  0.86946000  0.42374000  1.0
  H  H27  1  0.59407000  0.13054000  0.57626000  1.0
  C  C28  1  0.91343000  0.68181000  0.73742000  1.0
  C  C29  1  0.08657000  0.31819000  0.26258000  1.0
  C  C30  1  0.12309000  0.61397000  0.85952000  1.0
  C  C31  1  0.87692000  0.38603000  0.14048000  1.0
  C  C32  1  0.30915000  0.44784000  0.94115000  1.0
  C  C33  1  0.69085000  0.55216000  0.05885000  1.0
  C  C34  1  0.50781000  0.21069000  0.95389000  1.0
  C  C35  1  0.49219000  0.78931000  0.04611000  1.0
  C  C36  1  0.63173000  0.27252000  0.83791000  1.0
  C  C37  1  0.36827000  0.72748000  0.16210000  1.0
  C  C38  1  0.10732000  0.11038000  0.64943000  1.0
  C  C39  1  0.89269000  0.88963000  0.35057000  1.0
  C  C40  1  0.03672000  0.21486000  0.80152000  1.0
  C  C41  1  0.96328000  0.78514000  0.19848000  1.0
  C  C42  1  0.13791000  0.11993000  0.85807000  1.0
  C  C43  1  0.86209000  0.88006000  0.14193000  1.0
  C  C44  1  0.22820000  0.01747000  0.80724000  1.0
  C  C45  1  0.77180000  0.98253000  0.19276000  1.0
  C  C46  1  0.21312000  0.01195000  0.70017000  1.0
  C  C47  1  0.78688000  0.98805000  0.29982000  1.0
  C  C48  1  0.43141000  0.84530000  0.65120000  1.0
  C  C49  1  0.56859000  0.15470000  0.34880000  1.0
  C  C50  1  0.50130000  0.75197000  0.57252000  1.0
  C  C51  1  0.49870000  0.24803000  0.42748000  1.0
  C  C52  1  0.60205000  0.63612000  0.61166000  1.0
  C  C53  1  0.39795000  0.36388000  0.38834000  1.0
  C  C54  1  0.66629000  0.58272000  0.43429000  1.0
  C  C55  1  0.33371000  0.41728000  0.56571000  1.0
  C  C56  1  0.56756000  0.69505000  0.38942000  1.0
  C  C57  1  0.43244000  0.30495000  0.61058000  1.0
  C  C58  1  0.48192000  0.78004000  0.45961000  1.0
  C  C59  1  0.51808000  0.21996000  0.54039000  1.0
  C  C60  1  0.01956000  0.68503000  0.61578000  1.0
  C  C61  1  0.98043000  0.31496000  0.38423000  1.0
  S  S62  1  0.98081000  0.74748000  0.83047000  1.0
  S  S63  1  0.01919000  0.25252000  0.16953000  1.0
  S  S64  1  0.20657000  0.60623000  0.96854000  1.0
  S  S65  1  0.79343000  0.39377000  0.03146000  1.0
  S  S66  1  0.42021000  0.34189000  0.03190000  1.0
  S  S67  1  0.57979000  0.65811000  0.96811000  1.0
  N  N68  1  0.02226000  0.20906000  0.69899000  1.0
  N  N69  1  0.97774000  0.79094000  0.30100000  1.0
  N  N70  1  0.68120000  0.55255000  0.54465000  1.0
  N  N71  1  0.31880000  0.44746000  0.45534000  1.0
  N  N72  1  0.29439000  0.91196000  0.64166000  1.0
  N  N73  1  0.70561000  0.08804000  0.35834000  1.0
  N  N74  1  0.17552000  0.51075000  0.80834000  1.0
  N  N75  1  0.82449000  0.48925000  0.19166000  1.0
  N  N76  1  0.28196000  0.41576000  0.85528000  1.0
  N  N77  1  0.71804000  0.58423000  0.14472000  1.0
  O  O78  1  0.70021000  0.38579000  0.82166000  1.0
  O  O79  1  0.29980000  0.61421000  0.17834000  1.0
  O  O80  1  0.66027000  0.20181000  0.76364000  1.0
  O  O81  1  0.33973000  0.79820000  0.23636000  1.0
  O  O82  1  0.99407000  0.58761000  0.57556000  1.0
  O  O83  1  0.00592000  0.41239000  0.42444000  1.0
  O  O84  1  0.11759000  0.78024000  0.55669000  1.0
  O  O85  1  0.88240000  0.21976000  0.44331000  1.0
  O  O86  1  0.49916000  0.86249000  0.71644000  1.0
  O  O87  1  0.50083000  0.13751000  0.28356000  1.0
