# generated using pymatgen
data_FeAg2H20C31N8O
_symmetry_space_group_name_H-M   'P 1'
_cell_length_a   13.69810000
_cell_length_b   15.38380000
_cell_length_c   17.40060000
_cell_angle_alpha   114.90900000
_cell_angle_beta   112.65200000
_cell_angle_gamma   90.73230000
_symmetry_Int_Tables_number   1
_chemical_formula_structural   FeAg2H20C31N8O
_chemical_formula_sum   'Fe4 Ag8 H80 C124 N32 O4'
_cell_volume   3001.34847527
_cell_formula_units_Z   4
loop_
 _symmetry_equiv_pos_site_id
 _symmetry_equiv_pos_as_xyz
  1  'x, y, z'
loop_
 _atom_site_type_symbol
 _atom_site_label
 _atom_site_symmetry_multiplicity
 _atom_site_fract_x
 _atom_site_fract_y
 _atom_site_fract_z
 _atom_site_occupancy
  Fe  Fe0  1  0.19240000  0.44028000  0.38164000  1.0
  Fe  Fe1  1  0.80760000  0.55972000  0.61836000  1.0
  Fe  Fe2  1  0.69064000  0.93960000  0.38138000  1.0
  Fe  Fe3  1  0.30937000  0.06040000  0.61862000  1.0
  Ag  Ag4  1  0.46634000  0.70380000  0.43023000  1.0
  Ag  Ag5  1  0.53366000  0.29620000  0.56977000  1.0
  Ag  Ag6  1  0.96331000  0.70015000  0.41616000  1.0
  Ag  Ag7  1  0.03669000  0.29985000  0.58385000  1.0
  Ag  Ag8  1  0.93197000  0.18775000  0.36006000  1.0
  Ag  Ag9  1  0.06803000  0.81225000  0.63995000  1.0
  Ag  Ag10  1  0.42447000  0.18449000  0.35727000  1.0
  Ag  Ag11  1  0.57553000  0.81551000  0.64273000  1.0
  H  H12  1  0.23628000  0.33110000  0.48852000  1.0
  H  H13  1  0.76372000  0.66889000  0.51148000  1.0
  H  H14  1  0.30031000  0.36759000  0.65544000  1.0
  H  H15  1  0.69968000  0.63241000  0.34456000  1.0
  H  H16  1  0.34617000  0.67586000  0.72930000  1.0
  H  H17  1  0.65384000  0.32414000  0.27070000  1.0
  H  H18  1  0.27694000  0.62636000  0.55808000  1.0
  H  H19  1  0.72305000  0.37364000  0.44192000  1.0
  H  H20  1  0.49348000  0.59635000  0.10301000  1.0
  H  H21  1  0.50652000  0.40365000  0.89699000  1.0
  H  H22  1  0.59920000  0.72365000  0.26848000  1.0
  H  H23  1  0.40080000  0.27635000  0.73152000  1.0
  H  H24  1  0.61121000  0.93922000  0.18705000  1.0
  H  H25  1  0.38879000  0.06078000  0.81295000  1.0
  H  H26  1  0.50925000  0.82009000  0.01744000  1.0
  H  H27  1  0.49075000  0.17991000  0.98256000  1.0
  H  H28  1  0.75571000  0.16086000  0.49408000  1.0
  H  H29  1  0.24429000  0.83914000  0.50592000  1.0
  H  H30  1  0.85791000  0.29055000  0.65970000  1.0
  H  H31  1  0.14209000  0.70945000  0.34030000  1.0
  H  H32  1  0.89230000  0.06115000  0.74409000  1.0
  H  H33  1  0.10770000  0.93885000  0.25591000  1.0
  H  H34  1  0.79063000  0.94033000  0.57378000  1.0
  H  H35  1  0.20938000  0.05967000  0.42622000  1.0
  H  H36  1  0.10638000  0.50810000  0.10720000  1.0
  H  H37  1  0.89362000  0.49190000  0.89280000  1.0
  H  H38  1  0.16769000  0.54700000  0.27407000  1.0
  H  H39  1  0.83231000  0.45300000  0.72593000  1.0
  H  H40  1  0.08945000  0.25402000  0.20384000  1.0
  H  H41  1  0.91055000  0.74599000  0.79616000  1.0
  H  H42  1  0.01975000  0.20341000  0.03345000  1.0
  H  H43  1  0.98025000  0.79659000  0.96655000  1.0
  H  H44  1  0.64717000  0.51535000  0.95963000  1.0
  H  H45  1  0.35283000  0.48465000  0.04037000  1.0
  H  H46  1  0.57522000  0.46157000  0.78755000  1.0
  H  H47  1  0.42478000  0.53843000  0.21245000  1.0
  H  H48  1  0.59769000  0.58172000  0.73084000  1.0
  H  H49  1  0.40231000  0.41828000  0.26916000  1.0
  H  H50  1  0.69377000  0.75304000  0.84436000  1.0
  H  H51  1  0.30623000  0.24696000  0.15564000  1.0
  H  H52  1  0.80176000  0.88090000  0.01096000  1.0
  H  H53  1  0.19824000  0.11910000  0.98904000  1.0
  H  H54  1  0.87248000  0.93268000  0.18117000  1.0
  H  H55  1  0.12752000  0.06732000  0.81882000  1.0
  H  H56  1  0.84332000  0.81429000  0.23731000  1.0
  H  H57  1  0.15668000  0.18571000  0.76269000  1.0
  H  H58  1  0.74522000  0.64259000  0.12247000  1.0
  H  H59  1  0.25477000  0.35742000  0.87753000  1.0
  H  H60  1  0.72065000  0.03668000  0.11374000  1.0
  H  H61  1  0.27935000  0.96332000  0.88626000  1.0
  H  H62  1  0.68132000  0.15001000  0.24416000  1.0
  H  H63  1  0.31868000  0.84998000  0.75584000  1.0
  H  H64  1  0.49221000  0.17312000  0.21474000  1.0
  H  H65  1  0.50779000  0.82688000  0.78526000  1.0
  H  H66  1  0.65673000  0.91960000  0.94428000  1.0
  H  H67  1  0.34327000  0.08040000  0.05572000  1.0
  H  H68  1  0.80897000  0.44125000  0.94931000  1.0
  H  H69  1  0.19103000  0.55875000  0.05069000  1.0
  H  H70  1  0.70835000  0.32273000  0.77905000  1.0
  H  H71  1  0.29165000  0.67727000  0.22095000  1.0
  H  H72  1  0.63009000  0.15029000  0.73045000  1.0
  H  H73  1  0.36992000  0.84971000  0.26955000  1.0
  H  H74  1  0.65065000  0.09669000  0.85018000  1.0
  H  H75  1  0.34935000  0.90331000  0.14983000  1.0
  H  H76  1  0.71350000  0.13748000  0.01923000  1.0
  H  H77  1  0.28651000  0.86252000  0.98077000  1.0
  H  H78  1  0.81379000  0.25597000  0.18756000  1.0
  H  H79  1  0.18621000  0.74403000  0.81244000  1.0
  H  H80  1  0.89585000  0.42674000  0.23565000  1.0
  H  H81  1  0.10415000  0.57326000  0.76435000  1.0
  H  H82  1  0.87599000  0.47939000  0.11460000  1.0
  H  H83  1  0.12402000  0.52061000  0.88540000  1.0
  H  H84  1  0.09905000  0.91213000  0.88140000  1.0
  H  H85  1  0.90094000  0.08787000  0.11859000  1.0
  H  H86  1  0.92779000  0.89781000  0.75213000  1.0
  H  H87  1  0.07221000  0.10219000  0.24787000  1.0
  H  H88  1  0.77365000  0.96023000  0.78593000  1.0
  H  H89  1  0.22635000  0.03977000  0.21407000  1.0
  H  H90  1  0.79097000  0.03425000  0.94838000  1.0
  H  H91  1  0.20903000  0.96575000  0.05162000  1.0
  C  C92  1  0.36954000  0.59551000  0.42002000  1.0
  C  C93  1  0.63047000  0.40448000  0.57997000  1.0
  C  C94  1  0.05447000  0.59623000  0.40774000  1.0
  C  C95  1  0.94552000  0.40377000  0.59225000  1.0
  C  C96  1  0.02025000  0.29019000  0.35578000  1.0
  C  C97  1  0.97975000  0.70981000  0.64422000  1.0
  C  C98  1  0.33076000  0.28535000  0.35726000  1.0
  C  C99  1  0.66924000  0.71465000  0.64274000  1.0
  C  C100  1  0.26038000  0.40624000  0.54376000  1.0
  C  C101  1  0.73962000  0.59376000  0.45624000  1.0
  C  C102  1  0.29641000  0.42699000  0.63668000  1.0
  C  C103  1  0.70358000  0.57301000  0.36332000  1.0
  C  C104  1  0.32724000  0.52517000  0.70606000  1.0
  C  C105  1  0.67276000  0.47483000  0.29394000  1.0
  C  C106  1  0.32203000  0.59868000  0.67797000  1.0
  C  C107  1  0.67797000  0.40132000  0.32203000  1.0
  C  C108  1  0.28383000  0.57170000  0.58302000  1.0
  C  C109  1  0.71617000  0.42830000  0.41698000  1.0
  C  C110  1  0.36135000  0.54481000  0.80223000  1.0
  C  C111  1  0.63865000  0.45519000  0.19777000  1.0
  C  C112  1  0.43207000  0.62137000  0.95210000  1.0
  C  C113  1  0.56792000  0.37863000  0.04789000  1.0
  C  C114  1  0.49106000  0.69826000  0.04707000  1.0
  C  C115  1  0.50894000  0.30174000  0.95293000  1.0
  C  C116  1  0.51699000  0.67182000  0.11931000  1.0
  C  C117  1  0.48301000  0.32818000  0.88069000  1.0
  C  C118  1  0.57611000  0.74238000  0.21105000  1.0
  C  C119  1  0.42389000  0.25762000  0.78895000  1.0
  C  C120  1  0.58336000  0.86239000  0.16532000  1.0
  C  C121  1  0.41664000  0.13761000  0.83468000  1.0
  C  C122  1  0.52604000  0.79596000  0.07093000  1.0
  C  C123  1  0.47396000  0.20404000  0.92907000  1.0
  C  C124  1  0.51678000  0.08231000  0.35565000  1.0
  C  C125  1  0.48322000  0.91769000  0.64435000  1.0
  C  C126  1  0.84178000  0.07878000  0.35468000  1.0
  C  C127  1  0.15822000  0.92122000  0.64532000  1.0
  C  C128  1  0.86627000  0.79837000  0.41093000  1.0
  C  C129  1  0.13374000  0.20164000  0.58908000  1.0
  C  C130  1  0.55090000  0.80679000  0.42350000  1.0
  C  C131  1  0.44911000  0.19321000  0.57650000  1.0
  C  C132  1  0.78809000  0.14188000  0.55145000  1.0
  C  C133  1  0.21191000  0.85812000  0.44855000  1.0
  C  C134  1  0.84440000  0.21368000  0.64331000  1.0
  C  C135  1  0.15560000  0.78632000  0.35669000  1.0
  C  C136  1  0.88421000  0.18575000  0.71509000  1.0
  C  C137  1  0.11579000  0.81425000  0.28491000  1.0
  C  C138  1  0.86368000  0.08588000  0.69059000  1.0
  C  C139  1  0.13632000  0.91411000  0.30941000  1.0
  C  C140  1  0.80726000  0.01884000  0.59631000  1.0
  C  C141  1  0.19275000  0.98116000  0.40369000  1.0
  C  C142  1  0.94518000  0.26137000  0.81021000  1.0
  C  C143  1  0.05482000  0.73863000  0.18979000  1.0
  C  C144  1  0.02381000  0.33402000  0.96023000  1.0
  C  C145  1  0.97619000  0.66598000  0.03977000  1.0
  C  C146  1  0.06037000  0.35235000  0.05642000  1.0
  C  C147  1  0.93963000  0.64765000  0.94358000  1.0
  C  C148  1  0.10302000  0.44982000  0.12614000  1.0
  C  C149  1  0.89698000  0.55018000  0.87386000  1.0
  C  C150  1  0.13672000  0.47183000  0.21903000  1.0
  C  C151  1  0.86328000  0.52817000  0.78097000  1.0
  C  C152  1  0.09176000  0.30810000  0.17948000  1.0
  C  C153  1  0.90824000  0.69190000  0.82052000  1.0
  C  C154  1  0.05363000  0.28025000  0.08434000  1.0
  C  C155  1  0.94637000  0.71975000  0.91566000  1.0
  C  C156  1  0.65622000  0.56653000  0.93334000  1.0
  C  C157  1  0.34378000  0.43347000  0.06666000  1.0
  C  C158  1  0.61610000  0.53755000  0.83835000  1.0
  C  C159  1  0.38390000  0.46245000  0.16165000  1.0
  C  C160  1  0.62870000  0.60559000  0.80601000  1.0
  C  C161  1  0.37131000  0.39441000  0.19399000  1.0
  C  C162  1  0.68222000  0.70125000  0.86943000  1.0
  C  C163  1  0.31778000  0.29875000  0.13057000  1.0
  C  C164  1  0.72599000  0.73323000  0.96776000  1.0
  C  C165  1  0.27401000  0.26677000  0.03224000  1.0
  C  C166  1  0.78610000  0.82976000  0.03530000  1.0
  C  C167  1  0.21390000  0.17024000  0.96470000  1.0
  C  C168  1  0.82700000  0.85810000  0.13012000  1.0
  C  C169  1  0.17300000  0.14190000  0.86988000  1.0
  C  C170  1  0.81144000  0.79065000  0.16215000  1.0
  C  C171  1  0.18856000  0.20935000  0.83785000  1.0
  C  C172  1  0.75621000  0.69548000  0.09847000  1.0
  C  C173  1  0.24379000  0.30452000  0.90153000  1.0
  C  C174  1  0.71204000  0.66444000  0.00031000  1.0
  C  C175  1  0.28795000  0.33556000  0.99969000  1.0
  C  C176  1  0.63836000  0.04771000  0.10065000  1.0
  C  C177  1  0.36164000  0.95229000  0.89935000  1.0
  C  C178  1  0.61626000  0.11088000  0.17335000  1.0
  C  C179  1  0.38374000  0.88912000  0.82665000  1.0
  C  C180  1  0.50908000  0.12300000  0.15689000  1.0
  C  C181  1  0.49092000  0.87700000  0.84310000  1.0
  C  C182  1  0.57426000  0.92890000  0.93167000  1.0
  C  C183  1  0.42574000  0.07110000  0.06833000  1.0
  C  C184  1  0.55450000  0.99415000  0.00826000  1.0
  C  C185  1  0.44550000  0.00585000  0.99174000  1.0
  C  C186  1  0.77489000  0.36546000  0.92651000  1.0
  C  C187  1  0.22511000  0.63454000  0.07349000  1.0
  C  C188  1  0.71946000  0.29944000  0.83257000  1.0
  C  C189  1  0.28054000  0.70056000  0.16743000  1.0
  C  C190  1  0.67524000  0.20150000  0.80480000  1.0
  C  C191  1  0.32476000  0.79850000  0.19520000  1.0
  C  C192  1  0.68696000  0.17156000  0.87169000  1.0
  C  C193  1  0.31304000  0.82844000  0.12831000  1.0
  C  C194  1  0.74279000  0.23788000  0.96904000  1.0
  C  C195  1  0.25721000  0.76212000  0.03096000  1.0
  C  C196  1  0.75242000  0.21116000  0.04004000  1.0
  C  C197  1  0.24758000  0.78884000  0.95996000  1.0
  C  C198  1  0.80668000  0.27772000  0.13381000  1.0
  C  C199  1  0.19333000  0.72229000  0.86620000  1.0
  C  C200  1  0.85257000  0.37502000  0.16129000  1.0
  C  C201  1  0.14743000  0.62499000  0.83871000  1.0
  C  C202  1  0.84230000  0.40421000  0.09418000  1.0
  C  C203  1  0.15770000  0.59579000  0.90582000  1.0
  C  C204  1  0.78795000  0.33690000  0.99699000  1.0
  C  C205  1  0.21205000  0.66310000  0.00302000  1.0
  C  C206  1  0.03222000  0.94033000  0.89626000  1.0
  C  C207  1  0.96778000  0.05967000  0.10374000  1.0
  C  C208  1  0.93656000  0.93226000  0.82422000  1.0
  C  C209  1  0.06344000  0.06774000  0.17578000  1.0
  C  C210  1  0.84894000  0.96651000  0.84321000  1.0
  C  C211  1  0.15105000  0.03349000  0.15679000  1.0
  C  C212  1  0.85817000  0.00747000  0.93369000  1.0
  C  C213  1  0.14183000  0.99253000  0.06631000  1.0
  C  C214  1  0.95537000  0.01706000  0.00958000  1.0
  C  C215  1  0.04463000  0.98294000  0.99042000  1.0
  N  N216  1  0.30446000  0.53433000  0.40685000  1.0
  N  N217  1  0.69554000  0.46567000  0.59315000  1.0
  N  N218  1  0.10677000  0.53614000  0.39819000  1.0
  N  N219  1  0.89322000  0.46385000  0.60181000  1.0
  N  N220  1  0.08173000  0.34787000  0.36038000  1.0
  N  N221  1  0.91827000  0.65213000  0.63962000  1.0
  N  N222  1  0.27774000  0.34490000  0.36483000  1.0
  N  N223  1  0.72226000  0.65510000  0.63517000  1.0
  N  N224  1  0.25231000  0.47708000  0.51624000  1.0
  N  N225  1  0.74769000  0.52292000  0.48376000  1.0
  N  N226  1  0.34855000  0.48073000  0.83081000  1.0
  N  N227  1  0.65145000  0.51927000  0.16919000  1.0
  N  N228  1  0.39381000  0.52996000  0.92712000  1.0
  N  N229  1  0.60619000  0.47004000  0.07288000  1.0
  N  N230  1  0.60818000  0.83671000  0.23472000  1.0
  N  N231  1  0.39182000  0.16329000  0.76528000  1.0
  N  N232  1  0.57412000  0.02695000  0.35933000  1.0
  N  N233  1  0.42588000  0.97305000  0.64067000  1.0
  N  N234  1  0.78774000  0.01826000  0.35349000  1.0
  N  N235  1  0.21227000  0.98174000  0.64651000  1.0
  N  N236  1  0.80653000  0.85128000  0.40364000  1.0
  N  N237  1  0.19348000  0.14872000  0.59637000  1.0
  N  N238  1  0.59892000  0.86310000  0.41511000  1.0
  N  N239  1  0.40108000  0.13690000  0.58489000  1.0
  N  N240  1  0.77040000  0.04553000  0.52733000  1.0
  N  N241  1  0.22960000  0.95446000  0.47267000  1.0
  N  N242  1  0.98467000  0.35258000  0.83598000  1.0
  N  N243  1  0.01533000  0.64742000  0.16402000  1.0
  N  N244  1  0.03534000  0.39922000  0.93237000  1.0
  N  N245  1  0.96466000  0.60079000  0.06763000  1.0
  N  N246  1  0.13332000  0.40231000  0.24647000  1.0
  N  N247  1  0.86668000  0.59769000  0.75353000  1.0
  O  O248  1  0.41291000  0.63630000  0.87569000  1.0
  O  O249  1  0.58709000  0.36370000  0.12431000  1.0
  O  O250  1  0.96808000  0.24397000  0.88577000  1.0
  O  O251  1  0.03192000  0.75604000  0.11423000  1.0
