# generated using pymatgen
data_AgH3C5N2
_symmetry_space_group_name_H-M   'P 1'
_cell_length_a   6.95329000
_cell_length_b   9.77554000
_cell_length_c   16.71940000
_cell_angle_alpha   84.66980000
_cell_angle_beta   83.00990000
_cell_angle_gamma   73.92790000
_symmetry_Int_Tables_number   1
_chemical_formula_structural   AgH3C5N2
_chemical_formula_sum   'Ag8 H24 C40 N16'
_cell_volume   1081.82734906
_cell_formula_units_Z   8
loop_
 _symmetry_equiv_pos_site_id
 _symmetry_equiv_pos_as_xyz
  1  'x, y, z'
loop_
 _atom_site_type_symbol
 _atom_site_label
 _atom_site_symmetry_multiplicity
 _atom_site_fract_x
 _atom_site_fract_y
 _atom_site_fract_z
 _atom_site_occupancy
  Ag  Ag0  1  0.73655000  0.00784000  0.92238000  1.0
  Ag  Ag1  1  0.26345000  0.99216000  0.07762000  1.0
  Ag  Ag2  1  0.37860000  0.35032000  0.15424000  1.0
  Ag  Ag3  1  0.62141000  0.64968000  0.84576000  1.0
  Ag  Ag4  1  0.11655000  0.61026000  0.42428000  1.0
  Ag  Ag5  1  0.88345000  0.38975000  0.57572000  1.0
  Ag  Ag6  1  0.51397000  0.27870000  0.64912000  1.0
  Ag  Ag7  1  0.48602000  0.72130000  0.35088000  1.0
  H  H8  1  0.38418000  0.37827000  0.81979000  1.0
  H  H9  1  0.61582000  0.62174000  0.18021000  1.0
  H  H10  1  0.39849000  0.37185000  0.96839000  1.0
  H  H11  1  0.60150000  0.62815000  0.03162000  1.0
  H  H12  1  0.95435000  0.79374000  0.82705000  1.0
  H  H13  1  0.04564000  0.20626000  0.17295000  1.0
  H  H14  1  0.86069000  0.89370000  0.09554000  1.0
  H  H15  1  0.13933000  0.10630000  0.90446000  1.0
  H  H16  1  0.09290000  0.68299000  0.16683000  1.0
  H  H17  1  0.90710000  0.31701000  0.83317000  1.0
  H  H18  1  0.16082000  0.58582000  0.74944000  1.0
  H  H19  1  0.83918000  0.41418000  0.25057000  1.0
  H  H20  1  0.92554000  0.83430000  0.32519000  1.0
  H  H21  1  0.07446000  0.16571000  0.67481000  1.0
  H  H22  1  0.95214000  0.71176000  0.59777000  1.0
  H  H23  1  0.04786000  0.28823000  0.40223000  1.0
  H  H24  1  0.75380000  0.93422000  0.66824000  1.0
  H  H25  1  0.24620000  0.06577000  0.33176000  1.0
  H  H26  1  0.54679000  0.27682000  0.46378000  1.0
  H  H27  1  0.45321000  0.72318000  0.53622000  1.0
  H  H28  1  0.58061000  0.27707000  0.31394000  1.0
  H  H29  1  0.41939000  0.72293000  0.68606000  1.0
  H  H30  1  0.76686000  0.05764000  0.24448000  1.0
  H  H31  1  0.23314000  0.94236000  0.75551000  1.0
  C  C32  1  0.32908000  0.43309000  0.58458000  1.0
  C  C33  1  0.67090000  0.56692000  0.41542000  1.0
  C  C34  1  0.20936000  0.52334000  0.31605000  1.0
  C  C35  1  0.79065000  0.47666000  0.68395000  1.0
  C  C36  1  0.68533000  0.09757000  0.81009000  1.0
  C  C37  1  0.31467000  0.90243000  0.18991000  1.0
  C  C38  1  0.53548000  0.19032000  0.08521000  1.0
  C  C39  1  0.46452000  0.80968000  0.91478000  1.0
  C  C40  1  0.29269000  0.46689000  0.85447000  1.0
  C  C41  1  0.70731000  0.53312000  0.14554000  1.0
  C  C42  1  0.30173000  0.46245000  0.93679000  1.0
  C  C43  1  0.69826000  0.53755000  0.06322000  1.0
  C  C44  1  0.05025000  0.69967000  0.85677000  1.0
  C  C45  1  0.94975000  0.30033000  0.14324000  1.0
  C  C46  1  0.18454000  0.57788000  0.98189000  1.0
  C  C47  1  0.81546000  0.42212000  0.01811000  1.0
  C  C48  1  0.95546000  0.80412000  0.06223000  1.0
  C  C49  1  0.04455000  0.19588000  0.93777000  1.0
  C  C50  1  0.05650000  0.69810000  0.94112000  1.0
  C  C51  1  0.94350000  0.30190000  0.05888000  1.0
  C  C52  1  0.08385000  0.68557000  0.10193000  1.0
  C  C53  1  0.91616000  0.31444000  0.89807000  1.0
  C  C54  1  0.16643000  0.58569000  0.81433000  1.0
  C  C55  1  0.83357000  0.41431000  0.18567000  1.0
  C  C56  1  0.84026000  0.93149000  0.35417000  1.0
  C  C57  1  0.15973000  0.06851000  0.64583000  1.0
  C  C58  1  0.71191000  0.05518000  0.47957000  1.0
  C  C59  1  0.28809000  0.94482000  0.52043000  1.0
  C  C60  1  0.82131000  0.92894000  0.43946000  1.0
  C  C61  1  0.17869000  0.07106000  0.56054000  1.0
  C  C62  1  0.88236000  0.80969000  0.56339000  1.0
  C  C63  1  0.11764000  0.19030000  0.43661000  1.0
  C  C64  1  0.77220000  0.93422000  0.60243000  1.0
  C  C65  1  0.22781000  0.06577000  0.39757000  1.0
  C  C66  1  0.62714000  0.18102000  0.43281000  1.0
  C  C67  1  0.37287000  0.81898000  0.56719000  1.0
  C  C68  1  0.64817000  0.18040000  0.34968000  1.0
  C  C69  1  0.35182000  0.81960000  0.65032000  1.0
  C  C70  1  0.75418000  0.05534000  0.31023000  1.0
  C  C71  1  0.24581000  0.94466000  0.68977000  1.0
  N  N72  1  0.22386000  0.51842000  0.54358000  1.0
  N  N73  1  0.77614000  0.48158000  0.45642000  1.0
  N  N74  1  0.63784000  0.15454000  0.74786000  1.0
  N  N75  1  0.36216000  0.84546000  0.25214000  1.0
  N  N76  1  0.62590000  0.10290000  0.04097000  1.0
  N  N77  1  0.37410000  0.89710000  0.95903000  1.0
  N  N78  1  0.94102000  0.81024000  0.98373000  1.0
  N  N79  1  0.05898000  0.18977000  0.01627000  1.0
  N  N80  1  0.19505000  0.57440000  0.06321000  1.0
  N  N81  1  0.80495000  0.42560000  0.93679000  1.0
  N  N82  1  0.26210000  0.46385000  0.25616000  1.0
  N  N83  1  0.73791000  0.53615000  0.74384000  1.0
  N  N84  1  0.90892000  0.80747000  0.48376000  1.0
  N  N85  1  0.09108000  0.19253000  0.51624000  1.0
  N  N86  1  0.69158000  0.05498000  0.56190000  1.0
  N  N87  1  0.30843000  0.94502000  0.43810000  1.0
