# generated using pymatgen
data_CuH5C4BrN3Cl2
_symmetry_space_group_name_H-M   'P 1'
_cell_length_a   6.89656000
_cell_length_b   7.51318000
_cell_length_c   16.71050000
_cell_angle_alpha   89.99810000
_cell_angle_beta   89.99920000
_cell_angle_gamma   90.55810000
_symmetry_Int_Tables_number   1
_chemical_formula_structural   CuH5C4BrN3Cl2
_chemical_formula_sum   'Cu4 H20 C16 Br4 N12 Cl8'
_cell_volume   865.81509591
_cell_formula_units_Z   4
loop_
 _symmetry_equiv_pos_site_id
 _symmetry_equiv_pos_as_xyz
  1  'x, y, z'
loop_
 _atom_site_type_symbol
 _atom_site_label
 _atom_site_symmetry_multiplicity
 _atom_site_fract_x
 _atom_site_fract_y
 _atom_site_fract_z
 _atom_site_occupancy
  Cu  Cu0  1  0.17495000  0.40827000  0.22536000  1.0
  Cu  Cu1  1  0.32504000  0.59174000  0.72537000  1.0
  Cu  Cu2  1  0.82504000  0.59173000  0.77465000  1.0
  Cu  Cu3  1  0.67496000  0.40827000  0.27463000  1.0
  H  H4  1  0.31819000  0.87437000  0.21959000  1.0
  H  H5  1  0.18179000  0.12563000  0.71959000  1.0
  H  H6  1  0.68179000  0.12564000  0.78041000  1.0
  H  H7  1  0.81820000  0.87437000  0.28042000  1.0
  H  H8  1  0.24504000  0.08714000  0.18023000  1.0
  H  H9  1  0.25494000  0.91286000  0.68023000  1.0
  H  H10  1  0.75495000  0.91285000  0.81978000  1.0
  H  H11  1  0.74505000  0.08715000  0.31976000  1.0
  H  H12  1  0.33315000  0.82407000  0.35091000  1.0
  H  H13  1  0.16684000  0.17591000  0.85091000  1.0
  H  H14  1  0.66685000  0.17591000  0.64909000  1.0
  H  H15  1  0.83316000  0.82408000  0.14909000  1.0
  H  H16  1  0.10283000  0.41625000  0.39941000  1.0
  H  H17  1  0.39719000  0.58374000  0.89943000  1.0
  H  H18  1  0.89718000  0.58374000  0.60059000  1.0
  H  H19  1  0.60281000  0.41626000  0.10058000  1.0
  H  H20  1  0.29602000  0.90461000  0.48849000  1.0
  H  H21  1  0.20399000  0.09538000  0.98849000  1.0
  H  H22  1  0.70399000  0.09537000  0.51151000  1.0
  H  H23  1  0.79599000  0.90462000  0.01150000  1.0
  C  C24  1  0.24827000  0.06158000  0.30175000  1.0
  C  C25  1  0.25173000  0.93840000  0.80176000  1.0
  C  C26  1  0.75175000  0.93841000  0.69824000  1.0
  C  C27  1  0.74826000  0.06160000  0.19825000  1.0
  C  C28  1  0.15706000  0.28192000  0.39062000  1.0
  C  C29  1  0.34295000  0.71807000  0.89063000  1.0
  C  C30  1  0.84295000  0.71808000  0.60938000  1.0
  C  C31  1  0.65704000  0.28193000  0.10937000  1.0
  C  C32  1  0.19744000  0.17175000  0.45633000  1.0
  C  C33  1  0.30260000  0.82825000  0.95634000  1.0
  C  C34  1  0.80260000  0.82827000  0.54366000  1.0
  C  C35  1  0.69741000  0.17177000  0.04366000  1.0
  C  C36  1  0.26293000  0.00234000  0.44198000  1.0
  C  C37  1  0.23709000  0.99767000  0.94199000  1.0
  C  C38  1  0.73709000  0.99768000  0.55801000  1.0
  C  C39  1  0.76290000  0.00235000  0.05801000  1.0
  Br  Br40  1  0.16918000  0.26203000  0.56100000  1.0
  Br  Br41  1  0.33081000  0.73792000  0.06101000  1.0
  Br  Br42  1  0.83082000  0.73797000  0.43899000  1.0
  Br  Br43  1  0.66918000  0.26208000  0.93900000  1.0
  N  N44  1  0.18445000  0.23026000  0.31494000  1.0
  N  N45  1  0.31553000  0.76973000  0.81494000  1.0
  N  N46  1  0.81556000  0.76973000  0.68507000  1.0
  N  N47  1  0.68446000  0.23026000  0.18505000  1.0
  N  N48  1  0.27267000  0.00245000  0.22801000  1.0
  N  N49  1  0.22731000  0.99754000  0.72801000  1.0
  N  N50  1  0.72733000  0.99755000  0.77198000  1.0
  N  N51  1  0.77268000  0.00246000  0.27199000  1.0
  N  N52  1  0.28575000  0.95110000  0.36476000  1.0
  N  N53  1  0.21424000  0.04889000  0.86476000  1.0
  N  N54  1  0.71426000  0.04891000  0.63523000  1.0
  N  N55  1  0.78575000  0.95111000  0.13524000  1.0
  Cl  Cl56  1  0.92226000  0.61444000  0.23790000  1.0
  Cl  Cl57  1  0.57773000  0.38558000  0.73789000  1.0
  Cl  Cl58  1  0.07773000  0.38557000  0.76211000  1.0
  Cl  Cl59  1  0.42227000  0.61443000  0.26210000  1.0
  Cl  Cl60  1  0.18338000  0.28814000  0.10059000  1.0
  Cl  Cl61  1  0.31660000  0.71187000  0.60060000  1.0
  Cl  Cl62  1  0.81661000  0.71188000  0.89941000  1.0
  Cl  Cl63  1  0.68340000  0.28814000  0.39940000  1.0
