# generated using pymatgen
data_CuH12C14N2O5
_symmetry_space_group_name_H-M   'P 1'
_cell_length_a   8.59865000
_cell_length_b   8.59865000
_cell_length_c   43.63390000
_cell_angle_alpha   90.00020000
_cell_angle_beta   90.00020000
_cell_angle_gamma   89.99990000
_symmetry_Int_Tables_number   1
_chemical_formula_structural   CuH12C14N2O5
_chemical_formula_sum   'Cu8 H96 C112 N16 O40'
_cell_volume   3226.15014432
_cell_formula_units_Z   8
loop_
 _symmetry_equiv_pos_site_id
 _symmetry_equiv_pos_as_xyz
  1  'x, y, z'
loop_
 _atom_site_type_symbol
 _atom_site_label
 _atom_site_symmetry_multiplicity
 _atom_site_fract_x
 _atom_site_fract_y
 _atom_site_fract_z
 _atom_site_occupancy
  Cu  Cu0  1  0.15553000  0.48672000  0.85697000  1.0
  Cu  Cu1  1  0.84447000  0.51328000  0.35697000  1.0
  Cu  Cu2  1  0.98672000  0.34447000  0.10697000  1.0
  Cu  Cu3  1  0.01328000  0.65553000  0.60697000  1.0
  Cu  Cu4  1  0.65553000  0.01328000  0.39303000  1.0
  Cu  Cu5  1  0.34447000  0.98672000  0.89303000  1.0
  Cu  Cu6  1  0.48672000  0.15552000  0.14303000  1.0
  Cu  Cu7  1  0.51328000  0.84448000  0.64303000  1.0
  H  H8  1  0.65707000  0.48617000  0.87988000  1.0
  H  H9  1  0.34293000  0.51383000  0.37988000  1.0
  H  H10  1  0.98617000  0.84293000  0.12988000  1.0
  H  H11  1  0.01383000  0.15707000  0.62988000  1.0
  H  H12  1  0.15707000  0.01383000  0.37012000  1.0
  H  H13  1  0.84293000  0.98617000  0.87012000  1.0
  H  H14  1  0.48617000  0.65707000  0.12012000  1.0
  H  H15  1  0.51383000  0.34294000  0.62012000  1.0
  H  H16  1  0.64613000  0.16019000  0.89331000  1.0
  H  H17  1  0.35387000  0.83981000  0.39330000  1.0
  H  H18  1  0.66019000  0.85387000  0.14330000  1.0
  H  H19  1  0.33981000  0.14614000  0.64330000  1.0
  H  H20  1  0.14613000  0.33981000  0.35670000  1.0
  H  H21  1  0.85387000  0.66019000  0.85670000  1.0
  H  H22  1  0.16019000  0.64613000  0.10670000  1.0
  H  H23  1  0.83981000  0.35387000  0.60669000  1.0
  H  H24  1  0.66319000  0.21133000  0.83453000  1.0
  H  H25  1  0.33681000  0.78866000  0.33453000  1.0
  H  H26  1  0.71133000  0.83681000  0.08453000  1.0
  H  H27  1  0.28866000  0.16319000  0.58453000  1.0
  H  H28  1  0.16319000  0.28867000  0.41547000  1.0
  H  H29  1  0.83681000  0.71133000  0.91547000  1.0
  H  H30  1  0.21133000  0.66319000  0.16547000  1.0
  H  H31  1  0.78866000  0.33681000  0.66547000  1.0
  H  H32  1  0.65101000  0.41300000  0.82491000  1.0
  H  H33  1  0.34898000  0.58700000  0.32491000  1.0
  H  H34  1  0.91300000  0.84898000  0.07491000  1.0
  H  H35  1  0.08700000  0.15101000  0.57491000  1.0
  H  H36  1  0.15101000  0.08700000  0.42509000  1.0
  H  H37  1  0.84899000  0.91300000  0.92510000  1.0
  H  H38  1  0.41300000  0.65102000  0.17510000  1.0
  H  H39  1  0.58700000  0.34899000  0.67509000  1.0
  H  H40  1  0.01421000  0.72382000  0.81806000  1.0
  H  H41  1  0.98578000  0.27618000  0.31806000  1.0
  H  H42  1  0.22382000  0.48578000  0.06806000  1.0
  H  H43  1  0.77618000  0.51423000  0.56806000  1.0
  H  H44  1  0.51422000  0.77618000  0.43194000  1.0
  H  H45  1  0.48578000  0.22382000  0.93194000  1.0
  H  H46  1  0.72382000  0.01422000  0.18194000  1.0
  H  H47  1  0.27618000  0.98579000  0.68194000  1.0
  H  H48  1  0.98515000  0.77691000  0.76266000  1.0
  H  H49  1  0.01485000  0.22309000  0.26266000  1.0
  H  H50  1  0.27691000  0.51485000  0.01266000  1.0
  H  H51  1  0.72309000  0.48516000  0.51266000  1.0
  H  H52  1  0.48515000  0.72309000  0.48734000  1.0
  H  H53  1  0.51485000  0.27691000  0.98734000  1.0
  H  H54  1  0.77691000  0.98515000  0.23734000  1.0
  H  H55  1  0.22309000  0.01485000  0.73734000  1.0
  H  H56  1  0.28170000  0.37899000  0.74543000  1.0
  H  H57  1  0.71830000  0.62100000  0.24543000  1.0
  H  H58  1  0.87900000  0.21830000  0.99543000  1.0
  H  H59  1  0.12101000  0.78170000  0.49543000  1.0
  H  H60  1  0.78170000  0.12101000  0.50457000  1.0
  H  H61  1  0.21830000  0.87900000  0.00457000  1.0
  H  H62  1  0.37900000  0.28170000  0.25457000  1.0
  H  H63  1  0.62100000  0.71829000  0.75457000  1.0
  H  H64  1  0.30766000  0.35133000  0.80185000  1.0
  H  H65  1  0.69234000  0.64867000  0.30185000  1.0
  H  H66  1  0.85133000  0.19234000  0.05185000  1.0
  H  H67  1  0.14867000  0.80766000  0.55185000  1.0
  H  H68  1  0.80767000  0.14867000  0.44815000  1.0
  H  H69  1  0.19234000  0.85133000  0.94815000  1.0
  H  H70  1  0.35133000  0.30766000  0.19815000  1.0
  H  H71  1  0.64867000  0.69234000  0.69815000  1.0
  H  H72  1  0.24233000  0.48530000  0.64543000  1.0
  H  H73  1  0.75768000  0.51470000  0.14543000  1.0
  H  H74  1  0.98531000  0.25768000  0.89543000  1.0
  H  H75  1  0.01469000  0.74232000  0.39543000  1.0
  H  H76  1  0.74232000  0.01469000  0.60457000  1.0
  H  H77  1  0.25768000  0.98531000  0.10457000  1.0
  H  H78  1  0.48531000  0.24233000  0.35457000  1.0
  H  H79  1  0.51470000  0.75767000  0.85457000  1.0
  H  H80  1  0.29209000  0.44631000  0.70012000  1.0
  H  H81  1  0.70792000  0.55369000  0.20012000  1.0
  H  H82  1  0.94631000  0.20792000  0.95012000  1.0
  H  H83  1  0.05369000  0.79209000  0.45012000  1.0
  H  H84  1  0.79208000  0.05369000  0.54988000  1.0
  H  H85  1  0.20792000  0.94631000  0.04988000  1.0
  H  H86  1  0.44631000  0.29208000  0.29988000  1.0
  H  H87  1  0.55369000  0.70791000  0.79988000  1.0
  H  H88  1  0.91537000  0.76932000  0.71846000  1.0
  H  H89  1  0.08464000  0.23067000  0.21846000  1.0
  H  H90  1  0.26932000  0.58464000  0.96846000  1.0
  H  H91  1  0.73068000  0.41537000  0.46846000  1.0
  H  H92  1  0.41536000  0.73068000  0.53154000  1.0
  H  H93  1  0.58464000  0.26932000  0.03154000  1.0
  H  H94  1  0.76932000  0.91536000  0.28154000  1.0
  H  H95  1  0.23068000  0.08463000  0.78154000  1.0
  H  H96  1  0.88370000  0.79776000  0.66266000  1.0
  H  H97  1  0.11631000  0.20223000  0.16266000  1.0
  H  H98  1  0.29776000  0.61631000  0.91266000  1.0
  H  H99  1  0.70224000  0.38370000  0.41266000  1.0
  H  H100  1  0.38369000  0.70224000  0.58734000  1.0
  H  H101  1  0.61631000  0.29776000  0.08734000  1.0
  H  H102  1  0.79776000  0.88370000  0.33734000  1.0
  H  H103  1  0.20224000  0.11630000  0.83734000  1.0
  C  C104  1  0.44745000  0.36053000  0.87061000  1.0
  C  C105  1  0.55255000  0.63946000  0.37061000  1.0
  C  C106  1  0.86054000  0.05255000  0.12061000  1.0
  C  C107  1  0.13946000  0.94745000  0.62061000  1.0
  C  C108  1  0.94745000  0.13946000  0.37939000  1.0
  C  C109  1  0.05255000  0.86053000  0.87939000  1.0
  C  C110  1  0.36054000  0.44745000  0.12939000  1.0
  C  C111  1  0.63946000  0.55255000  0.62939000  1.0
  C  C112  1  0.62547000  0.36710000  0.87328000  1.0
  C  C113  1  0.37452000  0.63290000  0.37328000  1.0
  C  C114  1  0.86710000  0.87452000  0.12328000  1.0
  C  C115  1  0.13289000  0.12548000  0.62328000  1.0
  C  C116  1  0.12548000  0.13290000  0.37672000  1.0
  C  C117  1  0.87452000  0.86710000  0.87672000  1.0
  C  C118  1  0.36710000  0.62548000  0.12672000  1.0
  C  C119  1  0.63290000  0.37453000  0.62672000  1.0
  C  C120  1  0.69635000  0.32920000  0.84176000  1.0
  C  C121  1  0.30365000  0.67080000  0.34176000  1.0
  C  C122  1  0.82920000  0.80365000  0.09176000  1.0
  C  C123  1  0.17080000  0.19635000  0.59176000  1.0
  C  C124  1  0.19635000  0.17080000  0.40824000  1.0
  C  C125  1  0.80365000  0.82920000  0.90824000  1.0
  C  C126  1  0.32920000  0.69635000  0.15824000  1.0
  C  C127  1  0.67080000  0.30365000  0.65824000  1.0
  C  C128  1  0.87315000  0.34093000  0.84240000  1.0
  C  C129  1  0.12684000  0.65907000  0.34240000  1.0
  C  C130  1  0.84093000  0.62684000  0.09240000  1.0
  C  C131  1  0.15907000  0.37316000  0.59240000  1.0
  C  C132  1  0.37316000  0.15907000  0.40760000  1.0
  C  C133  1  0.62684000  0.84093000  0.90760000  1.0
  C  C134  1  0.34093000  0.87316000  0.15760000  1.0
  C  C135  1  0.65907000  0.12684000  0.65760000  1.0
  C  C136  1  0.07252000  0.65140000  0.80104000  1.0
  C  C137  1  0.92747000  0.34860000  0.30104000  1.0
  C  C138  1  0.15141000  0.42748000  0.05104000  1.0
  C  C139  1  0.84860000  0.57253000  0.55104000  1.0
  C  C140  1  0.57253000  0.84860000  0.44896000  1.0
  C  C141  1  0.42748000  0.15140000  0.94896000  1.0
  C  C142  1  0.65140000  0.07252000  0.19896000  1.0
  C  C143  1  0.34860000  0.92748000  0.69896000  1.0
  C  C144  1  0.05536000  0.67799000  0.76983000  1.0
  C  C145  1  0.94464000  0.32201000  0.26983000  1.0
  C  C146  1  0.17800000  0.44464000  0.01983000  1.0
  C  C147  1  0.82201000  0.55537000  0.51983000  1.0
  C  C148  1  0.55536000  0.82201000  0.48017000  1.0
  C  C149  1  0.44464000  0.17799000  0.98017000  1.0
  C  C150  1  0.67799000  0.05536000  0.23017000  1.0
  C  C151  1  0.32201000  0.94464000  0.73017000  1.0
  C  C152  1  0.12783000  0.58011000  0.74839000  1.0
  C  C153  1  0.87218000  0.41989000  0.24839000  1.0
  C  C154  1  0.08011000  0.37218000  0.99839000  1.0
  C  C155  1  0.91989000  0.62783000  0.49839000  1.0
  C  C156  1  0.62782000  0.91989000  0.50161000  1.0
  C  C157  1  0.37218000  0.08011000  0.00161000  1.0
  C  C158  1  0.58011000  0.12782000  0.25161000  1.0
  C  C159  1  0.41989000  0.87218000  0.75161000  1.0
  C  C160  1  0.22119000  0.46034000  0.76040000  1.0
  C  C161  1  0.77881000  0.53966000  0.26040000  1.0
  C  C162  1  0.96034000  0.27881000  0.01040000  1.0
  C  C163  1  0.03966000  0.72119000  0.51040000  1.0
  C  C164  1  0.72119000  0.03966000  0.48960000  1.0
  C  C165  1  0.27881000  0.96034000  0.98960000  1.0
  C  C166  1  0.46034000  0.22119000  0.23960000  1.0
  C  C167  1  0.53966000  0.77881000  0.73960000  1.0
  C  C168  1  0.23545000  0.44247000  0.79191000  1.0
  C  C169  1  0.76456000  0.55753000  0.29191000  1.0
  C  C170  1  0.94247000  0.26455000  0.04191000  1.0
  C  C171  1  0.05753000  0.73545000  0.54191000  1.0
  C  C172  1  0.73544000  0.05753000  0.45809000  1.0
  C  C173  1  0.26455000  0.94246000  0.95809000  1.0
  C  C174  1  0.44246000  0.23545000  0.20809000  1.0
  C  C175  1  0.55754000  0.76455000  0.70809000  1.0
  C  C176  1  0.17095000  0.54458000  0.66231000  1.0
  C  C177  1  0.82906000  0.45542000  0.16231000  1.0
  C  C178  1  0.04458000  0.32906000  0.91231000  1.0
  C  C179  1  0.95542000  0.67095000  0.41231000  1.0
  C  C180  1  0.67094000  0.95542000  0.58769000  1.0
  C  C181  1  0.32905000  0.04458000  0.08769000  1.0
  C  C182  1  0.54458000  0.17095000  0.33769000  1.0
  C  C183  1  0.45542000  0.82905000  0.83769000  1.0
  C  C184  1  0.19789000  0.52365000  0.69344000  1.0
  C  C185  1  0.80212000  0.47635000  0.19344000  1.0
  C  C186  1  0.02365000  0.30212000  0.94344000  1.0
  C  C187  1  0.97635000  0.69789000  0.44344000  1.0
  C  C188  1  0.69788000  0.97635000  0.55656000  1.0
  C  C189  1  0.30212000  0.02365000  0.05656000  1.0
  C  C190  1  0.52365000  0.19788000  0.30656000  1.0
  C  C191  1  0.47635000  0.80212000  0.80656000  1.0
  C  C192  1  0.10585000  0.60174000  0.71503000  1.0
  C  C193  1  0.89416000  0.39826000  0.21503000  1.0
  C  C194  1  0.10174000  0.39416000  0.96503000  1.0
  C  C195  1  0.89826000  0.60585000  0.46503000  1.0
  C  C196  1  0.60584000  0.89826000  0.53497000  1.0
  C  C197  1  0.39415000  0.10174000  0.03497000  1.0
  C  C198  1  0.60174000  0.10585000  0.28497000  1.0
  C  C199  1  0.39826000  0.89415000  0.78497000  1.0
  C  C200  1  0.99099000  0.70232000  0.70342000  1.0
  C  C201  1  0.00902000  0.29768000  0.20342000  1.0
  C  C202  1  0.20232000  0.50902000  0.95342000  1.0
  C  C203  1  0.79768000  0.49099000  0.45342000  1.0
  C  C204  1  0.49098000  0.79769000  0.54658000  1.0
  C  C205  1  0.50901000  0.20232000  0.04658000  1.0
  C  C206  1  0.70232000  0.99099000  0.29658000  1.0
  C  C207  1  0.29768000  0.00901000  0.79658000  1.0
  C  C208  1  0.97069000  0.71841000  0.67202000  1.0
  C  C209  1  0.02932000  0.28158000  0.17202000  1.0
  C  C210  1  0.21841000  0.52932000  0.92202000  1.0
  C  C211  1  0.78158000  0.47069000  0.42202000  1.0
  C  C212  1  0.47068000  0.78159000  0.57798000  1.0
  C  C213  1  0.52931000  0.21842000  0.07798000  1.0
  C  C214  1  0.71842000  0.97069000  0.32798000  1.0
  C  C215  1  0.28158000  0.02931000  0.82798000  1.0
  N  N216  1  0.16057000  0.53457000  0.81194000  1.0
  N  N217  1  0.83943000  0.46542000  0.31194000  1.0
  N  N218  1  0.03458000  0.33943000  0.06194000  1.0
  N  N219  1  0.96543000  0.66057000  0.56194000  1.0
  N  N220  1  0.66057000  0.96542000  0.43806000  1.0
  N  N221  1  0.33943000  0.03457000  0.93806000  1.0
  N  N222  1  0.53458000  0.16057000  0.18806000  1.0
  N  N223  1  0.46542000  0.83944000  0.68806000  1.0
  N  N224  1  0.05817000  0.63855000  0.65184000  1.0
  N  N225  1  0.94183000  0.36144000  0.15184000  1.0
  N  N226  1  0.13855000  0.44183000  0.90184000  1.0
  N  N227  1  0.86144000  0.55817000  0.40184000  1.0
  N  N228  1  0.55817000  0.86144000  0.59816000  1.0
  N  N229  1  0.44183000  0.13856000  0.09816000  1.0
  N  N230  1  0.63856000  0.05817000  0.34816000  1.0
  N  N231  1  0.36145000  0.94182000  0.84816000  1.0
  O  O232  1  0.38565000  0.47911000  0.85712000  1.0
  O  O233  1  0.61435000  0.52089000  0.35712000  1.0
  O  O234  1  0.97911000  0.11435000  0.10712000  1.0
  O  O235  1  0.02088000  0.88565000  0.60712000  1.0
  O  O236  1  0.88565000  0.02089000  0.39288000  1.0
  O  O237  1  0.11435000  0.97911000  0.89288000  1.0
  O  O238  1  0.47912000  0.38565000  0.14288000  1.0
  O  O239  1  0.52089000  0.61435000  0.64288000  1.0
  O  O240  1  0.37381000  0.24604000  0.88066000  1.0
  O  O241  1  0.62619000  0.75396000  0.38066000  1.0
  O  O242  1  0.74605000  0.12619000  0.13066000  1.0
  O  O243  1  0.25396000  0.87381000  0.63066000  1.0
  O  O244  1  0.87381000  0.25396000  0.36934000  1.0
  O  O245  1  0.12619000  0.74604000  0.86934000  1.0
  O  O246  1  0.24605000  0.37381000  0.11934000  1.0
  O  O247  1  0.75396000  0.62619000  0.61934000  1.0
  O  O248  1  0.68383000  0.26822000  0.89660000  1.0
  O  O249  1  0.31617000  0.73178000  0.39660000  1.0
  O  O250  1  0.76822000  0.81617000  0.14660000  1.0
  O  O251  1  0.23177000  0.18383000  0.64660000  1.0
  O  O252  1  0.18383000  0.23178000  0.35340000  1.0
  O  O253  1  0.81617000  0.76822000  0.85340000  1.0
  O  O254  1  0.26822000  0.68383000  0.10340000  1.0
  O  O255  1  0.73178000  0.31617000  0.60340000  1.0
  O  O256  1  0.92502000  0.47126000  0.85391000  1.0
  O  O257  1  0.07498000  0.52874000  0.35391000  1.0
  O  O258  1  0.97126000  0.57498000  0.10391000  1.0
  O  O259  1  0.02874000  0.42502000  0.60391000  1.0
  O  O260  1  0.42502000  0.02874000  0.39609000  1.0
  O  O261  1  0.57498000  0.97126000  0.89609000  1.0
  O  O262  1  0.47126000  0.92502000  0.14609000  1.0
  O  O263  1  0.52874000  0.07499000  0.64609000  1.0
  O  O264  1  0.95771000  0.23339000  0.83308000  1.0
  O  O265  1  0.04228000  0.76661000  0.33307000  1.0
  O  O266  1  0.73339000  0.54228000  0.08308000  1.0
  O  O267  1  0.26661000  0.45772000  0.58308000  1.0
  O  O268  1  0.45772000  0.26661000  0.41692000  1.0
  O  O269  1  0.54228000  0.73339000  0.91693000  1.0
  O  O270  1  0.23339000  0.95772000  0.16693000  1.0
  O  O271  1  0.76661000  0.04229000  0.66692000  1.0
