# generated using pymatgen
data_AlH8C12NClO5
_symmetry_space_group_name_H-M   'P 1'
_cell_length_a   6.63280000
_cell_length_b   11.10530000
_cell_length_c   17.02500000
_cell_angle_alpha   84.35870000
_cell_angle_beta   82.48970000
_cell_angle_gamma   72.80610000
_symmetry_Int_Tables_number   1
_chemical_formula_structural   AlH8C12NClO5
_chemical_formula_sum   'Al2 H16 C24 N2 Cl2 O10'
_cell_volume   1185.36861044
_cell_formula_units_Z   2
loop_
 _symmetry_equiv_pos_site_id
 _symmetry_equiv_pos_as_xyz
  1  'x, y, z'
loop_
 _atom_site_type_symbol
 _atom_site_label
 _atom_site_symmetry_multiplicity
 _atom_site_fract_x
 _atom_site_fract_y
 _atom_site_fract_z
 _atom_site_occupancy
  Al  Al0  1  0.49999000  0.50001000  0.50001000  1.0
  Al  Al1  1  0.00000000  0.50000000  0.50001000  1.0
  H  H2  1  0.23711000  0.59035000  0.40983000  1.0
  H  H3  1  0.76290000  0.40965000  0.59018000  1.0
  H  H4  1  0.84919000  0.59220000  0.73538000  1.0
  H  H5  1  0.78501000  0.59265000  0.88390000  1.0
  H  H6  1  0.43240000  0.36857000  0.89817000  1.0
  H  H7  1  0.56757000  0.63138000  0.10183000  1.0
  H  H8  1  0.21498000  0.40735000  0.11611000  1.0
  H  H9  1  0.15080000  0.40783000  0.26463000  1.0
  H  H10  1  0.30095000  0.87966000  0.44341000  1.0
  H  H11  1  0.69906000  0.12036000  0.55658000  1.0
  H  H12  1  0.07961000  0.06049000  0.38700000  1.0
  H  H13  1  0.15751000  0.20214000  0.37245000  1.0
  H  H14  1  0.98619000  0.17973000  0.45669000  1.0
  H  H15  1  0.01382000  0.82028000  0.54329000  1.0
  H  H16  1  0.84254000  0.79787000  0.62753000  1.0
  H  H17  1  0.92046000  0.93952000  0.61297000  1.0
  C  C18  1  0.63199000  0.72799000  0.50493000  1.0
  C  C19  1  0.79932000  0.50486000  0.35595000  1.0
  C  C20  1  0.36803000  0.27202000  0.49506000  1.0
  C  C21  1  0.20068000  0.49515000  0.64406000  1.0
  C  C22  1  0.17713000  0.48578000  0.73279000  1.0
  C  C23  1  0.97644000  0.54530000  0.77209000  1.0
  C  C24  1  0.93968000  0.54523000  0.85399000  1.0
  C  C25  1  0.10663000  0.48155000  0.89953000  1.0
  C  C26  1  0.30609000  0.41935000  0.86198000  1.0
  C  C27  1  0.34209000  0.42171000  0.77935000  1.0
  C  C28  1  0.69389000  0.58061000  0.13802000  1.0
  C  C29  1  0.89335000  0.51844000  0.10047000  1.0
  C  C30  1  0.06031000  0.45478000  0.14601000  1.0
  C  C31  1  0.02354000  0.45471000  0.22791000  1.0
  C  C32  1  0.82285000  0.51421000  0.26722000  1.0
  C  C33  1  0.65786000  0.57826000  0.22066000  1.0
  C  C34  1  0.43298000  0.13156000  0.49436000  1.0
  C  C35  1  0.56703000  0.86845000  0.50562000  1.0
  C  C36  1  0.31442000  0.06630000  0.46117000  1.0
  C  C37  1  0.68561000  0.93371000  0.53881000  1.0
  C  C38  1  0.38625000  0.93457000  0.46840000  1.0
  C  C39  1  0.61378000  0.06545000  0.53158000  1.0
  C  C40  1  0.12414000  0.13025000  0.41722000  1.0
  C  C41  1  0.87589000  0.86977000  0.58276000  1.0
  N  N42  1  0.09114000  0.47266000  0.98337000  1.0
  N  N43  1  0.90885000  0.52732000  0.01663000  1.0
  Cl  Cl44  1  0.59256000  0.33687000  0.73979000  1.0
  Cl  Cl45  1  0.40736000  0.66305000  0.26020000  1.0
  O  O46  1  0.48516000  0.67443000  0.50886000  1.0
  O  O47  1  0.96591000  0.49197000  0.38936000  1.0
  O  O48  1  0.16928000  0.32774000  0.50253000  1.0
  O  O49  1  0.38275000  0.49117000  0.60865000  1.0
  O  O50  1  0.51484000  0.32559000  0.49115000  1.0
  O  O51  1  0.03411000  0.50802000  0.61064000  1.0
  O  O52  1  0.83073000  0.67226000  0.49747000  1.0
  O  O53  1  0.61728000  0.50885000  0.39136000  1.0
  O  O54  1  0.23405000  0.55650000  0.46458000  1.0
  O  O55  1  0.76597000  0.44351000  0.53543000  1.0
