# generated using pymatgen
data_CaHgH9C9S2N3O7
_symmetry_space_group_name_H-M   'P 1'
_cell_length_a   6.84116000
_cell_length_b   15.25640000
_cell_length_c   16.98720660
_cell_angle_alpha   116.34953421
_cell_angle_beta   90.00000000
_cell_angle_gamma   90.00000000
_symmetry_Int_Tables_number   1
_chemical_formula_structural   CaHgH9C9S2N3O7
_chemical_formula_sum   'Ca4 Hg4 H36 C36 S8 N12 O28'
_cell_volume   1588.77258167
_cell_formula_units_Z   4
loop_
 _symmetry_equiv_pos_site_id
 _symmetry_equiv_pos_as_xyz
  1  'x, y, z'
loop_
 _atom_site_type_symbol
 _atom_site_label
 _atom_site_symmetry_multiplicity
 _atom_site_fract_x
 _atom_site_fract_y
 _atom_site_fract_z
 _atom_site_occupancy
  Ca  Ca0  1  0.69064000  0.24369000  0.43175000  1.0
  Ca  Ca1  1  0.19063000  0.25631000  0.56825000  1.0
  Ca  Ca2  1  0.30936000  0.75632000  0.56826000  1.0
  Ca  Ca3  1  0.80937000  0.74369000  0.43175000  1.0
  Hg  Hg4  1  0.54310000  0.85217000  0.13043000  1.0
  Hg  Hg5  1  0.04309000  0.64782000  0.86957000  1.0
  Hg  Hg6  1  0.45690000  0.14783000  0.86957000  1.0
  Hg  Hg7  1  0.95691000  0.35218000  0.13043000  1.0
  H  H8  1  0.63234000  0.02797000  0.37961000  1.0
  H  H9  1  0.13234000  0.47203000  0.62039000  1.0
  H  H10  1  0.36766000  0.97203000  0.62039000  1.0
  H  H11  1  0.86766000  0.52797000  0.37961000  1.0
  H  H12  1  0.66862000  0.07716000  0.48261000  1.0
  H  H13  1  0.16862000  0.42283000  0.51739000  1.0
  H  H14  1  0.33138000  0.92284000  0.51739000  1.0
  H  H15  1  0.83137000  0.57716000  0.48261000  1.0
  H  H16  1  0.63427000  0.31808000  0.28312000  1.0
  H  H17  1  0.13427000  0.18192000  0.71688000  1.0
  H  H18  1  0.36573000  0.68192000  0.71688000  1.0
  H  H19  1  0.86574000  0.81808000  0.28312000  1.0
  H  H20  1  0.61199000  0.39493000  0.38336000  1.0
  H  H21  1  0.11199000  0.10506000  0.61664000  1.0
  H  H22  1  0.38801000  0.60506000  0.61664000  1.0
  H  H23  1  0.88801000  0.89493000  0.38336000  1.0
  H  H24  1  0.69892000  0.47537000  0.55678000  1.0
  H  H25  1  0.19892000  0.02464000  0.44322000  1.0
  H  H26  1  0.30108000  0.52464000  0.44322000  1.0
  H  H27  1  0.80108000  0.97536000  0.55678000  1.0
  H  H28  1  0.48583000  0.42930000  0.55240000  1.0
  H  H29  1  0.98583000  0.07070000  0.44760000  1.0
  H  H30  1  0.51416000  0.57070000  0.44760000  1.0
  H  H31  1  0.01417000  0.92930000  0.55240000  1.0
  H  H32  1  0.24386000  0.55858000  0.25411000  1.0
  H  H33  1  0.74387000  0.94142000  0.74589000  1.0
  H  H34  1  0.75613000  0.44142000  0.74589000  1.0
  H  H35  1  0.25613000  0.05858000  0.25411000  1.0
  H  H36  1  0.31308000  0.50632000  0.09356000  1.0
  H  H37  1  0.81309000  0.99368000  0.90644000  1.0
  H  H38  1  0.68692000  0.49368000  0.90644000  1.0
  H  H39  1  0.18692000  0.00632000  0.09356000  1.0
  H  H40  1  0.44262000  0.63238000  0.04934000  1.0
  H  H41  1  0.94262000  0.86762000  0.95067000  1.0
  H  H42  1  0.55738000  0.36761000  0.95066000  1.0
  H  H43  1  0.05738000  0.13238000  0.04933000  1.0
  C  C44  1  0.40145000  0.88482000  0.32267000  1.0
  C  C45  1  0.90143000  0.61518000  0.67733000  1.0
  C  C46  1  0.59856000  0.11518000  0.67733000  1.0
  C  C47  1  0.09856000  0.38482000  0.32267000  1.0
  C  C48  1  0.31096000  0.73345000  0.38659000  1.0
  C  C49  1  0.81094000  0.76656000  0.61342000  1.0
  C  C50  1  0.68906000  0.26656000  0.61341000  1.0
  C  C51  1  0.18904000  0.23344000  0.38658000  1.0
  C  C52  1  0.38960000  0.77563000  0.26153000  1.0
  C  C53  1  0.88959000  0.72437000  0.73847000  1.0
  C  C54  1  0.61040000  0.22437000  0.73847000  1.0
  C  C55  1  0.11040000  0.27562000  0.26152000  1.0
  C  C56  1  0.32718000  0.70796000  0.29116000  1.0
  C  C57  1  0.82717000  0.79204000  0.70885000  1.0
  C  C58  1  0.67282000  0.29204000  0.70884000  1.0
  C  C59  1  0.17282000  0.20796000  0.29115000  1.0
  C  C60  1  0.29577000  0.61058000  0.23076000  1.0
  C  C61  1  0.79578000  0.88942000  0.76925000  1.0
  C  C62  1  0.70422000  0.38941000  0.76924000  1.0
  C  C63  1  0.20422000  0.11059000  0.23076000  1.0
  C  C64  1  0.33371000  0.58176000  0.14234000  1.0
  C  C65  1  0.83371000  0.91823000  0.85766000  1.0
  C  C66  1  0.66629000  0.41824000  0.85766000  1.0
  C  C67  1  0.16628000  0.08175000  0.14233000  1.0
  C  C68  1  0.40549000  0.65080000  0.11732000  1.0
  C  C69  1  0.90549000  0.84919000  0.88268000  1.0
  C  C70  1  0.59450000  0.34920000  0.88268000  1.0
  C  C71  1  0.09450000  0.15080000  0.11732000  1.0
  C  C72  1  0.69392000  0.06313000  0.19950000  1.0
  C  C73  1  0.19393000  0.43686000  0.80050000  1.0
  C  C74  1  0.30610000  0.93687000  0.80050000  1.0
  C  C75  1  0.80609000  0.56314000  0.19950000  1.0
  C  C76  1  0.02593000  0.80299000  0.11501000  1.0
  C  C77  1  0.52594000  0.69701000  0.88499000  1.0
  C  C78  1  0.97407000  0.19702000  0.88499000  1.0
  C  C79  1  0.47408000  0.30298000  0.11500000  1.0
  S  S80  1  0.66272000  0.98183000  0.09576000  1.0
  S  S81  1  0.16272000  0.51816000  0.90423000  1.0
  S  S82  1  0.33729000  0.01816000  0.90424000  1.0
  S  S83  1  0.83728000  0.48183000  0.09576000  1.0
  S  S84  1  0.16531000  0.81051000  0.03967000  1.0
  S  S85  1  0.66531000  0.68949000  0.96033000  1.0
  S  S86  1  0.83470000  0.18948000  0.96032000  1.0
  S  S87  1  0.33470000  0.31051000  0.03967000  1.0
  N  N88  1  0.43176000  0.74446000  0.17588000  1.0
  N  N89  1  0.93176000  0.75554000  0.82413000  1.0
  N  N90  1  0.56824000  0.25555000  0.82413000  1.0
  N  N91  1  0.06824000  0.24446000  0.17587000  1.0
  N  N92  1  0.71597000  0.12090000  0.27289000  1.0
  N  N93  1  0.21597000  0.37910000  0.72711000  1.0
  N  N94  1  0.28404000  0.87909000  0.72711000  1.0
  N  N95  1  0.78404000  0.62090000  0.27289000  1.0
  N  N96  1  0.92406000  0.79823000  0.16939000  1.0
  N  N97  1  0.42407000  0.70177000  0.83061000  1.0
  N  N98  1  0.07594000  0.20177000  0.83061000  1.0
  N  N99  1  0.57594000  0.29823000  0.16939000  1.0
  O  O100  1  0.48042000  0.94046000  0.29378000  1.0
  O  O101  1  0.98041000  0.55954000  0.70622000  1.0
  O  O102  1  0.51958000  0.05954000  0.70622000  1.0
  O  O103  1  0.01959000  0.44045000  0.29377000  1.0
  O  O104  1  0.32497000  0.91338000  0.39779000  1.0
  O  O105  1  0.82495000  0.58662000  0.60221000  1.0
  O  O106  1  0.67504000  0.08661000  0.60221000  1.0
  O  O107  1  0.17503000  0.41339000  0.39779000  1.0
  O  O108  1  0.46910000  0.75113000  0.42992000  1.0
  O  O109  1  0.96909000  0.74887000  0.57008000  1.0
  O  O110  1  0.53090000  0.24887000  0.57008000  1.0
  O  O111  1  0.03090000  0.25113000  0.42992000  1.0
  O  O112  1  0.14801000  0.72793000  0.41888000  1.0
  O  O113  1  0.64801000  0.77208000  0.58113000  1.0
  O  O114  1  0.85199000  0.27208000  0.58113000  1.0
  O  O115  1  0.35199000  0.22792000  0.41887000  1.0
  O  O116  1  0.71659000  0.07531000  0.42730000  1.0
  O  O117  1  0.21659000  0.42468000  0.57270000  1.0
  O  O118  1  0.28341000  0.92469000  0.57270000  1.0
  O  O119  1  0.78341000  0.57531000  0.42730000  1.0
  O  O120  1  0.66968000  0.33227000  0.34408000  1.0
  O  O121  1  0.16967000  0.16774000  0.65592000  1.0
  O  O122  1  0.33032000  0.66773000  0.65592000  1.0
  O  O123  1  0.83032000  0.83227000  0.34408000  1.0
  O  O124  1  0.61666000  0.41627000  0.52520000  1.0
  O  O125  1  0.11667000  0.08374000  0.47480000  1.0
  O  O126  1  0.38333000  0.58374000  0.47480000  1.0
  O  O127  1  0.88333000  0.91627000  0.52520000  1.0
