# generated using pymatgen
data_CdH20C17(NO)4
_symmetry_space_group_name_H-M   'P 1'
_cell_length_a   11.10480000
_cell_length_b   13.62770000
_cell_length_c   17.28750000
_cell_angle_alpha   106.04900000
_cell_angle_beta   89.99980000
_cell_angle_gamma   89.99980000
_symmetry_Int_Tables_number   1
_chemical_formula_structural   CdH20C17(NO)4
_chemical_formula_sum   'Cd4 H80 C68 N16 O16'
_cell_volume   2514.20370917
_cell_formula_units_Z   4
loop_
 _symmetry_equiv_pos_site_id
 _symmetry_equiv_pos_as_xyz
  1  'x, y, z'
loop_
 _atom_site_type_symbol
 _atom_site_label
 _atom_site_symmetry_multiplicity
 _atom_site_fract_x
 _atom_site_fract_y
 _atom_site_fract_z
 _atom_site_occupancy
  Cd  Cd0  1  0.31702000  0.11657000  0.33918000  1.0
  Cd  Cd1  1  0.81702000  0.88343000  0.16082000  1.0
  Cd  Cd2  1  0.68298000  0.88343000  0.66083000  1.0
  Cd  Cd3  1  0.18297000  0.11657000  0.83918000  1.0
  H  H4  1  0.40813000  0.08156000  0.75548000  1.0
  H  H5  1  0.90813000  0.91843000  0.74452000  1.0
  H  H6  1  0.59187000  0.91843000  0.24452000  1.0
  H  H7  1  0.09187000  0.08156000  0.25548000  1.0
  H  H8  1  0.30646000  0.26941000  0.96046000  1.0
  H  H9  1  0.80646000  0.73059000  0.53954000  1.0
  H  H10  1  0.69354000  0.73059000  0.03953000  1.0
  H  H11  1  0.19354000  0.26941000  0.46047000  1.0
  H  H12  1  0.24110000  0.11570000  0.51412000  1.0
  H  H13  1  0.74109000  0.88431000  0.98589000  1.0
  H  H14  1  0.75891000  0.88430000  0.48589000  1.0
  H  H15  1  0.25890000  0.11569000  0.01411000  1.0
  H  H16  1  0.55354000  0.09978000  0.65989000  1.0
  H  H17  1  0.05354000  0.90022000  0.84011000  1.0
  H  H18  1  0.44646000  0.90022000  0.34011000  1.0
  H  H19  1  0.94646000  0.09978000  0.15990000  1.0
  H  H20  1  0.67978000  0.12568000  0.54929000  1.0
  H  H21  1  0.17978000  0.87432000  0.95070000  1.0
  H  H22  1  0.32022000  0.87433000  0.45071000  1.0
  H  H23  1  0.82022000  0.12568000  0.04930000  1.0
  H  H24  1  0.57980000  0.14209000  0.42270000  1.0
  H  H25  1  0.07979000  0.85791000  0.07730000  1.0
  H  H26  1  0.42021000  0.85792000  0.57731000  1.0
  H  H27  1  0.92020000  0.14209000  0.92270000  1.0
  H  H28  1  0.21347000  0.12896000  0.65674000  1.0
  H  H29  1  0.71347000  0.87104000  0.84326000  1.0
  H  H30  1  0.78653000  0.87104000  0.34326000  1.0
  H  H31  1  0.28653000  0.12896000  0.15674000  1.0
  H  H32  1  0.28275000  0.01005000  0.65041000  1.0
  H  H33  1  0.78275000  0.98995000  0.84958000  1.0
  H  H34  1  0.71725000  0.98995000  0.34959000  1.0
  H  H35  1  0.21725000  0.01005000  0.15041000  1.0
  H  H36  1  0.30987000  0.28116000  0.74981000  1.0
  H  H37  1  0.80988000  0.71884000  0.75019000  1.0
  H  H38  1  0.69013000  0.71883000  0.25018000  1.0
  H  H39  1  0.19013000  0.28116000  0.24981000  1.0
  H  H40  1  0.46493000  0.24878000  0.73852000  1.0
  H  H41  1  0.96494000  0.75122000  0.76148000  1.0
  H  H42  1  0.53506000  0.75122000  0.26148000  1.0
  H  H43  1  0.03506000  0.24877000  0.23852000  1.0
  H  H44  1  0.46210000  0.22072000  0.87758000  1.0
  H  H45  1  0.96211000  0.77928000  0.62242000  1.0
  H  H46  1  0.53789000  0.77928000  0.12242000  1.0
  H  H47  1  0.03789000  0.22072000  0.37758000  1.0
  H  H48  1  0.44390000  0.34966000  0.87452000  1.0
  H  H49  1  0.94391000  0.65033000  0.62548000  1.0
  H  H50  1  0.55609000  0.65033000  0.12548000  1.0
  H  H51  1  0.05609000  0.34966000  0.37452000  1.0
  H  H52  1  0.27148000  0.43869000  0.93344000  1.0
  H  H53  1  0.77149000  0.56130000  0.56656000  1.0
  H  H54  1  0.72852000  0.56130000  0.06655000  1.0
  H  H55  1  0.22851000  0.43870000  0.43344000  1.0
  H  H56  1  0.17968000  0.36746000  0.85233000  1.0
  H  H57  1  0.67968000  0.63254000  0.64767000  1.0
  H  H58  1  0.82032000  0.63253000  0.14767000  1.0
  H  H59  1  0.32032000  0.36746000  0.35233000  1.0
  H  H60  1  0.97376000  0.35725000  0.87859000  1.0
  H  H61  1  0.47376000  0.64275000  0.62140000  1.0
  H  H62  1  0.02624000  0.64275000  0.12140000  1.0
  H  H63  1  0.52623000  0.35725000  0.37860000  1.0
  H  H64  1  0.22244000  0.39562000  0.07588000  1.0
  H  H65  1  0.72245000  0.60438000  0.42412000  1.0
  H  H66  1  0.77756000  0.60439000  0.92412000  1.0
  H  H67  1  0.27755000  0.39563000  0.57588000  1.0
  H  H68  1  0.04491000  0.39858000  0.16609000  1.0
  H  H69  1  0.54492000  0.60143000  0.33391000  1.0
  H  H70  1  0.95510000  0.60143000  0.83391000  1.0
  H  H71  1  0.45508000  0.39858000  0.66609000  1.0
  H  H72  1  0.83825000  0.38310000  0.10664000  1.0
  H  H73  1  0.33826000  0.61691000  0.39336000  1.0
  H  H74  1  0.16176000  0.61691000  0.89336000  1.0
  H  H75  1  0.66174000  0.38309000  0.60664000  1.0
  H  H76  1  0.54213000  0.14248000  0.11672000  1.0
  H  H77  1  0.04213000  0.85751000  0.38327000  1.0
  H  H78  1  0.45786000  0.85751000  0.88328000  1.0
  H  H79  1  0.95787000  0.14249000  0.61672000  1.0
  H  H80  1  0.64706000  0.21327000  0.18898000  1.0
  H  H81  1  0.14706000  0.78673000  0.31101000  1.0
  H  H82  1  0.35294000  0.78673000  0.81102000  1.0
  H  H83  1  0.85294000  0.21327000  0.68898000  1.0
  C  C84  1  0.33803000  0.12028000  0.52584000  1.0
  C  C85  1  0.83803000  0.87973000  0.97416000  1.0
  C  C86  1  0.66198000  0.87973000  0.47417000  1.0
  C  C87  1  0.16197000  0.12027000  0.02584000  1.0
  C  C88  1  0.38486000  0.10943000  0.59789000  1.0
  C  C89  1  0.88485000  0.89057000  0.90211000  1.0
  C  C90  1  0.61515000  0.89057000  0.40211000  1.0
  C  C91  1  0.11514000  0.10943000  0.09789000  1.0
  C  C92  1  0.51022000  0.11096000  0.60631000  1.0
  C  C93  1  0.01022000  0.88904000  0.89369000  1.0
  C  C94  1  0.48978000  0.88905000  0.39370000  1.0
  C  C95  1  0.98978000  0.11095000  0.10631000  1.0
  C  C96  1  0.58199000  0.12454000  0.54406000  1.0
  C  C97  1  0.08199000  0.87546000  0.95594000  1.0
  C  C98  1  0.41801000  0.87546000  0.45595000  1.0
  C  C99  1  0.91801000  0.12454000  0.04406000  1.0
  C  C100  1  0.52752000  0.13349000  0.47383000  1.0
  C  C101  1  0.02752000  0.86651000  0.02617000  1.0
  C  C102  1  0.47248000  0.86651000  0.52618000  1.0
  C  C103  1  0.97248000  0.13349000  0.97383000  1.0
  C  C104  1  0.30034000  0.09230000  0.66146000  1.0
  C  C105  1  0.80034000  0.90770000  0.83853000  1.0
  C  C106  1  0.69966000  0.90770000  0.33854000  1.0
  C  C107  1  0.19966000  0.09229000  0.16146000  1.0
  C  C108  1  0.38101000  0.23640000  0.76871000  1.0
  C  C109  1  0.88102000  0.76360000  0.73129000  1.0
  C  C110  1  0.61898000  0.76360000  0.23129000  1.0
  C  C111  1  0.11898000  0.23640000  0.26871000  1.0
  C  C112  1  0.40059000  0.27365000  0.85948000  1.0
  C  C113  1  0.90060000  0.72635000  0.64052000  1.0
  C  C114  1  0.59940000  0.72635000  0.14052000  1.0
  C  C115  1  0.09940000  0.27365000  0.35948000  1.0
  C  C116  1  0.21481000  0.36952000  0.91214000  1.0
  C  C117  1  0.71481000  0.63048000  0.58786000  1.0
  C  C118  1  0.78519000  0.63048000  0.08786000  1.0
  C  C119  1  0.28519000  0.36952000  0.41214000  1.0
  C  C120  1  0.99194000  0.36761000  0.94251000  1.0
  C  C121  1  0.49195000  0.63239000  0.55749000  1.0
  C  C122  1  0.00806000  0.63239000  0.05749000  1.0
  C  C123  1  0.50805000  0.36761000  0.44251000  1.0
  C  C124  1  0.11143000  0.37495000  0.96941000  1.0
  C  C125  1  0.61143000  0.62505000  0.53059000  1.0
  C  C126  1  0.88857000  0.62505000  0.03058000  1.0
  C  C127  1  0.38856000  0.37495000  0.46941000  1.0
  C  C128  1  0.13106000  0.38745000  0.05147000  1.0
  C  C129  1  0.63107000  0.61254000  0.44853000  1.0
  C  C130  1  0.86894000  0.61255000  0.94852000  1.0
  C  C131  1  0.36893000  0.38746000  0.55148000  1.0
  C  C132  1  0.03281000  0.38994000  0.10196000  1.0
  C  C133  1  0.53282000  0.61006000  0.39804000  1.0
  C  C134  1  0.96720000  0.61006000  0.89804000  1.0
  C  C135  1  0.46718000  0.38994000  0.60196000  1.0
  C  C136  1  0.91739000  0.38161000  0.06865000  1.0
  C  C137  1  0.41740000  0.61840000  0.43135000  1.0
  C  C138  1  0.08261000  0.61839000  0.93135000  1.0
  C  C139  1  0.58260000  0.38160000  0.56865000  1.0
  C  C140  1  0.50223000  0.14574000  0.23812000  1.0
  C  C141  1  0.00224000  0.85426000  0.26188000  1.0
  C  C142  1  0.49776000  0.85426000  0.76188000  1.0
  C  C143  1  0.99777000  0.14574000  0.73812000  1.0
  C  C144  1  0.59339000  0.14287000  0.17120000  1.0
  C  C145  1  0.09339000  0.85713000  0.32880000  1.0
  C  C146  1  0.40661000  0.85713000  0.82880000  1.0
  C  C147  1  0.90661000  0.14287000  0.67120000  1.0
  C  C148  1  0.67351000  0.04934000  0.15617000  1.0
  C  C149  1  0.17352000  0.95066000  0.34383000  1.0
  C  C150  1  0.32648000  0.95066000  0.84383000  1.0
  C  C151  1  0.82649000  0.04934000  0.65617000  1.0
  N  N152  1  0.40742000  0.13048000  0.46483000  1.0
  N  N153  1  0.90742000  0.86953000  0.03517000  1.0
  N  N154  1  0.59258000  0.86953000  0.53517000  1.0
  N  N155  1  0.09257000  0.13047000  0.96483000  1.0
  N  N156  1  0.34236000  0.12945000  0.74490000  1.0
  N  N157  1  0.84236000  0.87055000  0.75510000  1.0
  N  N158  1  0.65764000  0.87055000  0.25510000  1.0
  N  N159  1  0.15764000  0.12944000  0.24490000  1.0
  N  N160  1  0.28753000  0.27638000  0.90445000  1.0
  N  N161  1  0.78753000  0.72361000  0.59555000  1.0
  N  N162  1  0.71247000  0.72361000  0.09555000  1.0
  N  N163  1  0.21247000  0.27639000  0.40445000  1.0
  N  N164  1  0.89601000  0.37165000  0.99053000  1.0
  N  N165  1  0.39602000  0.62835000  0.50947000  1.0
  N  N166  1  0.10399000  0.62835000  0.00947000  1.0
  N  N167  1  0.60398000  0.37165000  0.49053000  1.0
  O  O168  1  0.64136000  0.96738000  0.10505000  1.0
  O  O169  1  0.14136000  0.03262000  0.39495000  1.0
  O  O170  1  0.35864000  0.03262000  0.89495000  1.0
  O  O171  1  0.85864000  0.96738000  0.60505000  1.0
  O  O172  1  0.76894000  0.05757000  0.19931000  1.0
  O  O173  1  0.26894000  0.94243000  0.30069000  1.0
  O  O174  1  0.23105000  0.94243000  0.80069000  1.0
  O  O175  1  0.73106000  0.05757000  0.69931000  1.0
  O  O176  1  0.49959000  0.07100000  0.26960000  1.0
  O  O177  1  0.99959000  0.92900000  0.23040000  1.0
  O  O178  1  0.50041000  0.92900000  0.73040000  1.0
  O  O179  1  0.00041000  0.07100000  0.76960000  1.0
  O  O180  1  0.43059000  0.22103000  0.25819000  1.0
  O  O181  1  0.93059000  0.77897000  0.24180000  1.0
  O  O182  1  0.56941000  0.77897000  0.74181000  1.0
  O  O183  1  0.06941000  0.22104000  0.75819000  1.0
