# generated using pymatgen
data_ZnH14C26(NO2)2
_symmetry_space_group_name_H-M   'P 1'
_cell_length_a   9.00278000
_cell_length_b   12.73300000
_cell_length_c   13.26600000
_cell_angle_alpha   91.58700000
_cell_angle_beta   93.22910000
_cell_angle_gamma   102.27900000
_symmetry_Int_Tables_number   1
_chemical_formula_structural   ZnH14C26(NO2)2
_chemical_formula_sum   'Zn2 H28 C52 N4 O8'
_cell_volume   1482.33837734
_cell_formula_units_Z   2
loop_
 _symmetry_equiv_pos_site_id
 _symmetry_equiv_pos_as_xyz
  1  'x, y, z'
loop_
 _atom_site_type_symbol
 _atom_site_label
 _atom_site_symmetry_multiplicity
 _atom_site_fract_x
 _atom_site_fract_y
 _atom_site_fract_z
 _atom_site_occupancy
  Zn  Zn0  1  0.15516000  0.40335000  0.03762000  1.0
  Zn  Zn1  1  0.84484000  0.59666000  0.96237000  1.0
  H  H2  1  0.41094000  0.54987000  0.93288000  1.0
  H  H3  1  0.58906000  0.45014000  0.06711000  1.0
  H  H4  1  0.09885000  0.82295000  0.05139000  1.0
  H  H5  1  0.90115000  0.17705000  0.94861000  1.0
  H  H6  1  0.10212000  0.26907000  0.84156000  1.0
  H  H7  1  0.89787000  0.73094000  0.15844000  1.0
  H  H8  1  0.11996000  0.02055000  0.05347000  1.0
  H  H9  1  0.88004000  0.97946000  0.94653000  1.0
  H  H10  1  0.49594000  0.69538000  0.12064000  1.0
  H  H11  1  0.50406000  0.30463000  0.87936000  1.0
  H  H12  1  0.65231000  0.88009000  0.15730000  1.0
  H  H13  1  0.34768000  0.11991000  0.84269000  1.0
  H  H14  1  0.90070000  0.24533000  0.12538000  1.0
  H  H15  1  0.09931000  0.75466000  0.87462000  1.0
  H  H16  1  0.54695000  0.23466000  0.13824000  1.0
  H  H17  1  0.45305000  0.76534000  0.86176000  1.0
  H  H18  1  0.72791000  0.23497000  0.26914000  1.0
  H  H19  1  0.27210000  0.76501000  0.73086000  1.0
  H  H20  1  0.54810000  0.55128000  0.77690000  1.0
  H  H21  1  0.45189000  0.44872000  0.22309000  1.0
  H  H22  1  0.22881000  0.25516000  0.67891000  1.0
  H  H23  1  0.77119000  0.74483000  0.32110000  1.0
  H  H24  1  0.15532000  0.54055000  0.23233000  1.0
  H  H25  1  0.84466000  0.45945000  0.76766000  1.0
  H  H26  1  0.67124000  0.07794000  0.16364000  1.0
  H  H27  1  0.32877000  0.92207000  0.83636000  1.0
  H  H28  1  0.99437000  0.54504000  0.37912000  1.0
  H  H29  1  0.00562000  0.45495000  0.62088000  1.0
  C  C30  1  0.19530000  0.63643000  0.06605000  1.0
  C  C31  1  0.80470000  0.36357000  0.93395000  1.0
  C  C32  1  0.37273000  0.48679000  0.87426000  1.0
  C  C33  1  0.62727000  0.51322000  0.12573000  1.0
  C  C34  1  0.21941000  0.83568000  0.07578000  1.0
  C  C35  1  0.78059000  0.16433000  0.92423000  1.0
  C  C36  1  0.32558000  0.13585000  0.09554000  1.0
  C  C37  1  0.67442000  0.86415000  0.90446000  1.0
  C  C38  1  0.28757000  0.74844000  0.08607000  1.0
  C  C39  1  0.71243000  0.25157000  0.91393000  1.0
  C  C40  1  0.46464000  0.95874000  0.12518000  1.0
  C  C41  1  0.53535000  0.04127000  0.87482000  1.0
  C  C42  1  0.30572000  0.94195000  0.09384000  1.0
  C  C43  1  0.69428000  0.05805000  0.90616000  1.0
  C  C44  1  0.25478000  0.22990000  0.07527000  1.0
  C  C45  1  0.74521000  0.77010000  0.92472000  1.0
  C  C46  1  0.40036000  0.40203000  0.71395000  1.0
  C  C47  1  0.59963000  0.59797000  0.28606000  1.0
  C  C48  1  0.20090000  0.32931000  0.82263000  1.0
  C  C49  1  0.79910000  0.67069000  0.17737000  1.0
  C  C50  1  0.23976000  0.03238000  0.07929000  1.0
  C  C51  1  0.76024000  0.96763000  0.92071000  1.0
  C  C52  1  0.44511000  0.76537000  0.11548000  1.0
  C  C53  1  0.55489000  0.23464000  0.88452000  1.0
  C  C54  1  0.53091000  0.86770000  0.13549000  1.0
  C  C55  1  0.46909000  0.13231000  0.86451000  1.0
  C  C56  1  0.91608000  0.30955000  0.18360000  1.0
  C  C57  1  0.08392000  0.69043000  0.81640000  1.0
  C  C58  1  0.48499000  0.39580000  0.62850000  1.0
  C  C59  1  0.51501000  0.60419000  0.37150000  1.0
  C  C60  1  0.48213000  0.15210000  0.12776000  1.0
  C  C61  1  0.51787000  0.84791000  0.87224000  1.0
  C  C62  1  0.82130000  0.30408000  0.26316000  1.0
  C  C63  1  0.17871000  0.69590000  0.73685000  1.0
  C  C64  1  0.66166000  0.39091000  0.48335000  1.0
  C  C65  1  0.33837000  0.60908000  0.51666000  1.0
  C  C66  1  0.44931000  0.48713000  0.78626000  1.0
  C  C67  1  0.55069000  0.51288000  0.21373000  1.0
  C  C68  1  0.56837000  0.39310000  0.55888000  1.0
  C  C69  1  0.43165000  0.60688000  0.44113000  1.0
  C  C70  1  0.27091000  0.32241000  0.73281000  1.0
  C  C71  1  0.72909000  0.67758000  0.26720000  1.0
  C  C72  1  0.05885000  0.47489000  0.24314000  1.0
  C  C73  1  0.94114000  0.52510000  0.75685000  1.0
  C  C74  1  0.54978000  0.06581000  0.14179000  1.0
  C  C75  1  0.45022000  0.93419000  0.85821000  1.0
  C  C76  1  0.74818000  0.38997000  0.41523000  1.0
  C  C77  1  0.25183000  0.61002000  0.58477000  1.0
  C  C78  1  0.84554000  0.39021000  0.33560000  1.0
  C  C79  1  0.15447000  0.60978000  0.66440000  1.0
  C  C80  1  0.96957000  0.47690000  0.32484000  1.0
  C  C81  1  0.03043000  0.52308000  0.67517000  1.0
  N  N82  1  0.03224000  0.39385000  0.17277000  1.0
  N  N83  1  0.96774000  0.60615000  0.82723000  1.0
  N  N84  1  0.25185000  0.40916000  0.89302000  1.0
  N  N85  1  0.74815000  0.59086000  0.10698000  1.0
  O  O86  1  0.26776000  0.55984000  0.07047000  1.0
  O  O87  1  0.73224000  0.44017000  0.92953000  1.0
  O  O88  1  0.05272000  0.62241000  0.04942000  1.0
  O  O89  1  0.94728000  0.37759000  0.95058000  1.0
  O  O90  1  0.12058000  0.21399000  0.03381000  1.0
  O  O91  1  0.87942000  0.78601000  0.96619000  1.0
  O  O92  1  0.33208000  0.32506000  0.09881000  1.0
  O  O93  1  0.66791000  0.67494000  0.90118000  1.0
