# generated using pymatgen
data_ZnH8C10(NO)4
_symmetry_space_group_name_H-M   'P 1'
_cell_length_a   7.92975000
_cell_length_b   7.92976000
_cell_length_c   17.75280000
_cell_angle_alpha   90.00000000
_cell_angle_beta   90.00000000
_cell_angle_gamma   90.00000000
_symmetry_Int_Tables_number   1
_chemical_formula_structural   ZnH8C10(NO)4
_chemical_formula_sum   'Zn4 H32 C40 N16 O16'
_cell_volume   1116.31407173
_cell_formula_units_Z   4
loop_
 _symmetry_equiv_pos_site_id
 _symmetry_equiv_pos_as_xyz
  1  'x, y, z'
loop_
 _atom_site_type_symbol
 _atom_site_label
 _atom_site_symmetry_multiplicity
 _atom_site_fract_x
 _atom_site_fract_y
 _atom_site_fract_z
 _atom_site_occupancy
  Zn  Zn0  1  0.25370000  0.25370000  0.00000000  1.0
  Zn  Zn1  1  0.24630000  0.75370000  0.25000000  1.0
  Zn  Zn2  1  0.75370000  0.24630000  0.75000000  1.0
  Zn  Zn3  1  0.74630000  0.74630000  0.50000000  1.0
  H  H4  1  0.57827000  0.31646000  0.08203000  1.0
  H  H5  1  0.18354000  0.07827000  0.33203000  1.0
  H  H6  1  0.81646000  0.92173000  0.83203000  1.0
  H  H7  1  0.07827000  0.18354000  0.66797000  1.0
  H  H8  1  0.92173000  0.81646000  0.16797000  1.0
  H  H9  1  0.42173000  0.68354000  0.58203000  1.0
  H  H10  1  0.31646000  0.57827000  0.91797000  1.0
  H  H11  1  0.68354000  0.42173000  0.41797000  1.0
  H  H12  1  0.81297000  0.52778000  0.08229000  1.0
  H  H13  1  0.97221000  0.31297000  0.33229000  1.0
  H  H14  1  0.02779000  0.68703000  0.83229000  1.0
  H  H15  1  0.31297000  0.97222000  0.66771000  1.0
  H  H16  1  0.68702000  0.02778000  0.16771000  1.0
  H  H17  1  0.18703000  0.47222000  0.58229000  1.0
  H  H18  1  0.52779000  0.81297000  0.91771000  1.0
  H  H19  1  0.47221000  0.18703000  0.41771000  1.0
  H  H20  1  0.03027000  0.64608000  0.98982000  1.0
  H  H21  1  0.85393000  0.53028000  0.23982000  1.0
  H  H22  1  0.14607000  0.46972000  0.73982000  1.0
  H  H23  1  0.53028000  0.85392000  0.76018000  1.0
  H  H24  1  0.46973000  0.14608000  0.26018000  1.0
  H  H25  1  0.96972000  0.35392000  0.48982000  1.0
  H  H26  1  0.64607000  0.03028000  0.01018000  1.0
  H  H27  1  0.35393000  0.96972000  0.51018000  1.0
  H  H28  1  0.24467000  0.87732000  0.99027000  1.0
  H  H29  1  0.62267000  0.74468000  0.24027000  1.0
  H  H30  1  0.37733000  0.25532000  0.74027000  1.0
  H  H31  1  0.74468000  0.62268000  0.75973000  1.0
  H  H32  1  0.25533000  0.37732000  0.25973000  1.0
  H  H33  1  0.75532000  0.12268000  0.49027000  1.0
  H  H34  1  0.87733000  0.24468000  0.00973000  1.0
  H  H35  1  0.12267000  0.75532000  0.50974000  1.0
  C  C36  1  0.57512000  0.42647000  0.04526000  1.0
  C  C37  1  0.07353000  0.07511000  0.29526000  1.0
  C  C38  1  0.92647000  0.92489000  0.79526000  1.0
  C  C39  1  0.07512000  0.07353000  0.70474000  1.0
  C  C40  1  0.92488000  0.92647000  0.20474000  1.0
  C  C41  1  0.42488000  0.57353000  0.54526000  1.0
  C  C42  1  0.42647000  0.57512000  0.95474000  1.0
  C  C43  1  0.57353000  0.42489000  0.45474000  1.0
  C  C44  1  0.70362000  0.54554000  0.04578000  1.0
  C  C45  1  0.95445000  0.20362000  0.29578000  1.0
  C  C46  1  0.04554000  0.79639000  0.79578000  1.0
  C  C47  1  0.20362000  0.95446000  0.70422000  1.0
  C  C48  1  0.79638000  0.04554000  0.20422000  1.0
  C  C49  1  0.29638000  0.45446000  0.54578000  1.0
  C  C50  1  0.54555000  0.70362000  0.95422000  1.0
  C  C51  1  0.45445000  0.29638000  0.45422000  1.0
  C  C52  1  0.68870000  0.68869000  0.00000000  1.0
  C  C53  1  0.81130000  0.18870000  0.25000000  1.0
  C  C54  1  0.18870000  0.81130000  0.75000000  1.0
  C  C55  1  0.31130000  0.31130000  0.50000000  1.0
  C  C56  1  0.82013000  0.82014000  0.00000000  1.0
  C  C57  1  0.67987000  0.32013000  0.25000000  1.0
  C  C58  1  0.32013000  0.67986000  0.75000000  1.0
  C  C59  1  0.17987000  0.17986000  0.50000000  1.0
  C  C60  1  0.99116000  0.77720000  0.99526000  1.0
  C  C61  1  0.72281000  0.49116000  0.24526000  1.0
  C  C62  1  0.27719000  0.50884000  0.74526000  1.0
  C  C63  1  0.49116000  0.72280000  0.75473000  1.0
  C  C64  1  0.50884000  0.27720000  0.25474000  1.0
  C  C65  1  0.00884000  0.22280000  0.49527000  1.0
  C  C66  1  0.77720000  0.99116000  0.00474000  1.0
  C  C67  1  0.22281000  0.00883000  0.50474000  1.0
  C  C68  1  0.11074000  0.90507000  0.99484000  1.0
  C  C69  1  0.59492000  0.61074000  0.24485000  1.0
  C  C70  1  0.40508000  0.38926000  0.74485000  1.0
  C  C71  1  0.61074000  0.59492000  0.75515000  1.0
  C  C72  1  0.38926000  0.40508000  0.25516000  1.0
  C  C73  1  0.88926000  0.09492000  0.49485000  1.0
  C  C74  1  0.90508000  0.11074000  0.00515000  1.0
  C  C75  1  0.09492000  0.88925000  0.50515000  1.0
  N  N76  1  0.50553000  0.18790000  0.87775000  1.0
  N  N77  1  0.31210000  0.00553000  0.12775000  1.0
  N  N78  1  0.68790000  0.99447000  0.62775000  1.0
  N  N79  1  0.00553000  0.31210000  0.87225000  1.0
  N  N80  1  0.99447000  0.68790000  0.37225000  1.0
  N  N81  1  0.49447000  0.81210000  0.37775000  1.0
  N  N82  1  0.18790000  0.50553000  0.12225000  1.0
  N  N83  1  0.81210000  0.49447000  0.62225000  1.0
  N  N84  1  0.43943000  0.43943000  0.00000000  1.0
  N  N85  1  0.06056000  0.93943000  0.25000000  1.0
  N  N86  1  0.93943000  0.06057000  0.75000000  1.0
  N  N87  1  0.56057000  0.56057000  0.50000000  1.0
  N  N88  1  0.06909000  0.06909000  0.00000000  1.0
  N  N89  1  0.43091000  0.56909000  0.25000000  1.0
  N  N90  1  0.56909000  0.43091000  0.75000000  1.0
  N  N91  1  0.93091000  0.93091000  0.50000000  1.0
  O  O92  1  0.60031000  0.09863000  0.83548000  1.0
  O  O93  1  0.40137000  0.10031000  0.08548000  1.0
  O  O94  1  0.59864000  0.89969000  0.58548000  1.0
  O  O95  1  0.10031000  0.40136000  0.91452000  1.0
  O  O96  1  0.89969000  0.59864000  0.41452000  1.0
  O  O97  1  0.39969000  0.90137000  0.33548000  1.0
  O  O98  1  0.09863000  0.60031000  0.16452000  1.0
  O  O99  1  0.90136000  0.39969000  0.66452000  1.0
  O  O100  1  0.40450000  0.10120000  0.91782000  1.0
  O  O101  1  0.39880000  0.90450000  0.16782000  1.0
  O  O102  1  0.60120000  0.09550000  0.66782000  1.0
  O  O103  1  0.90450000  0.39880000  0.83218000  1.0
  O  O104  1  0.09550000  0.60120000  0.33218000  1.0
  O  O105  1  0.59550000  0.89880000  0.41782000  1.0
  O  O106  1  0.10120000  0.40450000  0.08218000  1.0
  O  O107  1  0.89880000  0.59550000  0.58218000  1.0
