# generated using pymatgen
data_BiH8C8N4Cl3
_symmetry_space_group_name_H-M   'P 1'
_cell_length_a   7.80559000
_cell_length_b   9.62459000
_cell_length_c   9.88650000
_cell_angle_alpha   107.07200000
_cell_angle_beta   111.53900000
_cell_angle_gamma   98.26070000
_symmetry_Int_Tables_number   1
_chemical_formula_structural   BiH8C8N4Cl3
_chemical_formula_sum   'Bi2 H16 C16 N8 Cl6'
_cell_volume   633.46252474
_cell_formula_units_Z   2
loop_
 _symmetry_equiv_pos_site_id
 _symmetry_equiv_pos_as_xyz
  1  'x, y, z'
loop_
 _atom_site_type_symbol
 _atom_site_label
 _atom_site_symmetry_multiplicity
 _atom_site_fract_x
 _atom_site_fract_y
 _atom_site_fract_z
 _atom_site_occupancy
  Bi  Bi0  1  0.19329000  0.68056000  0.73274000  1.0
  Bi  Bi1  1  0.80671000  0.31944000  0.26726000  1.0
  H  H2  1  0.87945000  0.70224000  0.93379000  1.0
  H  H3  1  0.12055000  0.29776000  0.06621000  1.0
  H  H4  1  0.22916000  0.41734000  0.90554000  1.0
  H  H5  1  0.77084000  0.58266000  0.09446000  1.0
  H  H6  1  0.52254000  0.47292000  0.74230000  1.0
  H  H7  1  0.47746000  0.52708000  0.25770000  1.0
  H  H8  1  0.69233000  0.34062000  0.59330000  1.0
  H  H9  1  0.30766000  0.65938000  0.40670000  1.0
  H  H10  1  0.64794000  0.87140000  0.82152000  1.0
  H  H11  1  0.35206000  0.12860000  0.17847000  1.0
  H  H12  1  0.13460000  0.96689000  0.61218000  1.0
  H  H13  1  0.86540000  0.03311000  0.38782000  1.0
  H  H14  1  0.82581000  0.08715000  0.78718000  1.0
  H  H15  1  0.17419000  0.91285000  0.21282000  1.0
  H  H16  1  0.31218000  0.18552000  0.57951000  1.0
  H  H17  1  0.68782000  0.81448000  0.42049000  1.0
  C  C18  1  0.93280000  0.61111000  0.96295000  1.0
  C  C19  1  0.06720000  0.38889000  0.03705000  1.0
  C  C20  1  0.12578000  0.45444000  0.94690000  1.0
  C  C21  1  0.87422000  0.54556000  0.05310000  1.0
  C  C22  1  0.51291000  0.48503000  0.63367000  1.0
  C  C23  1  0.48709000  0.51497000  0.36633000  1.0
  C  C24  1  0.60741000  0.41252000  0.55142000  1.0
  C  C25  1  0.39259000  0.58748000  0.44859000  1.0
  C  C26  1  0.57296000  0.94057000  0.76520000  1.0
  C  C27  1  0.42704000  0.05943000  0.23480000  1.0
  C  C28  1  0.28919000  0.99417000  0.64957000  1.0
  C  C29  1  0.71081000  0.00583000  0.35043000  1.0
  C  C30  1  0.67066000  0.06205000  0.74694000  1.0
  C  C31  1  0.32934000  0.93795000  0.25306000  1.0
  C  C32  1  0.38937000  0.11494000  0.63253000  1.0
  C  C33  1  0.61063000  0.88506000  0.36747000  1.0
  N  N34  1  0.05839000  0.56524000  0.90988000  1.0
  N  N35  1  0.94161000  0.43477000  0.09012000  1.0
  N  N36  1  0.40652000  0.57239000  0.58248000  1.0
  N  N37  1  0.59348000  0.42761000  0.41752000  1.0
  N  N38  1  0.38200000  0.90652000  0.71452000  1.0
  N  N39  1  0.61800000  0.09348000  0.28548000  1.0
  N  N40  1  0.57999000  0.14898000  0.68002000  1.0
  N  N41  1  0.42001000  0.85102000  0.31998000  1.0
  Cl  Cl42  1  0.04341000  0.88762000  0.83942000  1.0
  Cl  Cl43  1  0.95659000  0.11238000  0.16058000  1.0
  Cl  Cl44  1  0.04408000  0.34275000  0.57463000  1.0
  Cl  Cl45  1  0.95592000  0.65724000  0.42537000  1.0
  Cl  Cl46  1  0.51000000  0.72525000  0.97596000  1.0
  Cl  Cl47  1  0.49000000  0.27475000  0.02404000  1.0
