# generated using pymatgen
data_Zn2H19C30N3O7
_symmetry_space_group_name_H-M   'P 1'
_cell_length_a   8.17596000
_cell_length_b   12.47610000
_cell_length_c   14.17390000
_cell_angle_alpha   64.72500000
_cell_angle_beta   88.25360000
_cell_angle_gamma   72.96290000
_symmetry_Int_Tables_number   1
_chemical_formula_structural   Zn2H19C30N3O7
_chemical_formula_sum   'Zn4 H38 C60 N6 O14'
_cell_volume   1242.50544093
_cell_formula_units_Z   2
loop_
 _symmetry_equiv_pos_site_id
 _symmetry_equiv_pos_as_xyz
  1  'x, y, z'
loop_
 _atom_site_type_symbol
 _atom_site_label
 _atom_site_symmetry_multiplicity
 _atom_site_fract_x
 _atom_site_fract_y
 _atom_site_fract_z
 _atom_site_occupancy
  Zn  Zn0  1  0.65079000  0.04875000  0.43804000  1.0
  Zn  Zn1  1  0.34921000  0.95125000  0.56196000  1.0
  Zn  Zn2  1  0.72909000  0.87258000  0.70789000  1.0
  Zn  Zn3  1  0.27091000  0.12742000  0.29211000  1.0
  H  H4  1  0.44116000  0.32364000  0.32694000  1.0
  H  H5  1  0.55885000  0.67636000  0.67306000  1.0
  H  H6  1  0.43224000  0.51210000  0.15958000  1.0
  H  H7  1  0.56776000  0.48790000  0.84042000  1.0
  H  H8  1  0.64965000  0.48772000  0.03377000  1.0
  H  H9  1  0.35035000  0.51228000  0.96623000  1.0
  H  H10  1  0.84748000  0.09845000  0.25083000  1.0
  H  H11  1  0.15251000  0.90155000  0.74917000  1.0
  H  H12  1  0.97170000  0.07197000  0.13284000  1.0
  H  H13  1  0.02830000  0.92803000  0.86716000  1.0
  H  H14  1  0.21201000  0.24869000  0.86089000  1.0
  H  H15  1  0.78799000  0.75131000  0.13910000  1.0
  H  H16  1  0.82210000  0.60578000  0.86573000  1.0
  H  H17  1  0.17790000  0.39421000  0.13427000  1.0
  H  H18  1  0.23639000  0.40241000  0.75160000  1.0
  H  H19  1  0.76361000  0.59759000  0.24840000  1.0
  H  H20  1  0.24268000  0.60684000  0.61032000  1.0
  H  H21  1  0.75732000  0.39316000  0.38968000  1.0
  H  H22  1  0.03637000  0.80214000  0.60339000  1.0
  H  H23  1  0.96363000  0.19786000  0.39661000  1.0
  H  H24  1  0.19459000  0.91499000  0.17149000  1.0
  H  H25  1  0.80541000  0.08501000  0.82851000  1.0
  H  H26  1  0.39067000  0.71674000  0.18399000  1.0
  H  H27  1  0.60933000  0.28326000  0.81601000  1.0
  H  H28  1  0.54796000  0.70948000  0.03040000  1.0
  H  H29  1  0.45204000  0.29052000  0.96960000  1.0
  H  H30  1  0.28067000  0.09430000  0.84525000  1.0
  H  H31  1  0.71934000  0.90570000  0.15475000  1.0
  H  H32  1  0.55366000  0.27522000  0.62679000  1.0
  H  H33  1  0.44634000  0.72478000  0.37322000  1.0
  H  H34  1  0.55045000  0.47582000  0.62676000  1.0
  H  H35  1  0.44955000  0.52418000  0.37324000  1.0
  H  H36  1  0.82140000  0.53403000  0.60873000  1.0
  H  H37  1  0.17861000  0.46598000  0.39127000  1.0
  H  H38  1  0.09062000  0.39236000  0.58648000  1.0
  H  H39  1  0.90938000  0.60764000  0.41352000  1.0
  H  H40  1  0.33770000  0.16488000  0.45062000  1.0
  H  H41  1  0.66230000  0.83512000  0.54938000  1.0
  C  C42  1  0.53029000  0.31805000  0.26915000  1.0
  C  C43  1  0.46971000  0.68195000  0.73084000  1.0
  C  C44  1  0.52684000  0.42211000  0.17648000  1.0
  C  C45  1  0.47317000  0.57789000  0.82352000  1.0
  C  C46  1  0.64502000  0.40864000  0.10637000  1.0
  C  C47  1  0.35498000  0.59136000  0.89363000  1.0
  C  C48  1  0.76213000  0.29103000  0.12909000  1.0
  C  C49  1  0.23787000  0.70897000  0.87091000  1.0
  C  C50  1  0.75713000  0.19196000  0.22487000  1.0
  C  C51  1  0.24287000  0.80804000  0.77513000  1.0
  C  C52  1  0.88827000  0.27377000  0.05539000  1.0
  C  C53  1  0.11173000  0.72623000  0.94460000  1.0
  C  C54  1  0.98748000  0.15469000  0.06854000  1.0
  C  C55  1  0.01252000  0.84531000  0.93146000  1.0
  C  C56  1  0.10662000  0.14291000  0.99772000  1.0
  C  C57  1  0.89338000  0.85709000  0.00228000  1.0
  C  C58  1  0.11841000  0.25341000  0.91610000  1.0
  C  C59  1  0.88159000  0.74659000  0.08389000  1.0
  C  C60  1  0.01446000  0.36880000  0.90731000  1.0
  C  C61  1  0.98553000  0.63120000  0.09269000  1.0
  C  C62  1  0.91677000  0.60109000  0.81081000  1.0
  C  C63  1  0.08323000  0.39891000  0.18919000  1.0
  C  C64  1  0.02732000  0.48611000  0.82140000  1.0
  C  C65  1  0.97267000  0.51389000  0.17859000  1.0
  C  C66  1  0.14646000  0.48860000  0.74755000  1.0
  C  C67  1  0.85354000  0.51140000  0.25245000  1.0
  C  C68  1  0.15154000  0.60178000  0.66849000  1.0
  C  C69  1  0.84846000  0.39822000  0.33151000  1.0
  C  C70  1  0.03650000  0.71137000  0.66373000  1.0
  C  C71  1  0.96350000  0.28863000  0.33627000  1.0
  C  C72  1  0.22034000  0.02143000  0.00749000  1.0
  C  C73  1  0.77966000  0.97857000  0.99251000  1.0
  C  C74  1  0.25391000  0.91225000  0.10228000  1.0
  C  C75  1  0.74609000  0.08775000  0.89772000  1.0
  C  C76  1  0.36845000  0.80029000  0.10991000  1.0
  C  C77  1  0.63155000  0.19971000  0.89009000  1.0
  C  C78  1  0.45514000  0.79544000  0.02489000  1.0
  C  C79  1  0.54486000  0.20456000  0.97511000  1.0
  C  C80  1  0.42303000  0.90353000  0.92994000  1.0
  C  C81  1  0.57698000  0.09646000  0.07006000  1.0
  C  C82  1  0.30405000  0.01400000  0.92155000  1.0
  C  C83  1  0.69595000  0.98600000  0.07845000  1.0
  C  C84  1  0.51644000  0.90551000  0.83722000  1.0
  C  C85  1  0.48356000  0.09449000  0.16278000  1.0
  C  C86  1  0.80707000  0.10708000  0.60224000  1.0
  C  C87  1  0.19292000  0.89293000  0.39776000  1.0
  C  C88  1  0.82450000  0.22013000  0.61014000  1.0
  C  C89  1  0.17550000  0.77987000  0.38986000  1.0
  C  C90  1  0.67188000  0.30064000  0.62071000  1.0
  C  C91  1  0.32812000  0.69936000  0.37929000  1.0
  C  C92  1  0.67071000  0.41265000  0.62086000  1.0
  C  C93  1  0.32929000  0.58735000  0.37914000  1.0
  C  C94  1  0.82228000  0.44517000  0.61142000  1.0
  C  C95  1  0.17772000  0.55483000  0.38858000  1.0
  C  C96  1  0.97291000  0.36630000  0.59899000  1.0
  C  C97  1  0.02709000  0.63370000  0.40100000  1.0
  C  C98  1  0.97612000  0.25438000  0.59682000  1.0
  C  C99  1  0.02388000  0.74563000  0.40318000  1.0
  C  C100  1  0.13539000  0.18209000  0.56820000  1.0
  C  C101  1  0.86461000  0.81792000  0.43180000  1.0
  N  N102  1  0.64454000  0.20535000  0.29288000  1.0
  N  N103  1  0.35546000  0.79465000  0.70712000  1.0
  N  N104  1  0.90044000  0.37905000  0.97583000  1.0
  N  N105  1  0.09955000  0.62095000  0.02417000  1.0
  N  N106  1  0.92104000  0.71009000  0.73361000  1.0
  N  N107  1  0.07896000  0.28992000  0.26639000  1.0
  O  O108  1  0.47349000  0.00036000  0.74997000  1.0
  O  O109  1  0.52651000  0.99964000  0.25003000  1.0
  O  O110  1  0.64370000  0.80725000  0.85116000  1.0
  O  O111  1  0.35630000  0.19274000  0.14884000  1.0
  O  O112  1  0.75322000  0.12755000  0.51133000  1.0
  O  O113  1  0.24678000  0.87245000  0.48867000  1.0
  O  O114  1  0.83322000  0.00653000  0.68639000  1.0
  O  O115  1  0.16678000  0.99347000  0.31361000  1.0
  O  O116  1  0.14829000  0.06812000  0.59117000  1.0
  O  O117  1  0.85171000  0.93188000  0.40883000  1.0
  O  O118  1  0.23907000  0.23864000  0.51920000  1.0
  O  O119  1  0.76093000  0.76136000  0.48080000  1.0
  O  O120  1  0.38842000  0.10048000  0.42381000  1.0
  O  O121  1  0.61158000  0.89952000  0.57619000  1.0
