# generated using pymatgen
data_Zn4H18C30O13
_symmetry_space_group_name_H-M   'P 1'
_cell_length_a   20.09260000
_cell_length_b   20.72280000
_cell_length_c   22.01768681
_cell_angle_alpha   114.88464936
_cell_angle_beta   115.61452776
_cell_angle_gamma   62.66400000
_symmetry_Int_Tables_number   1
_chemical_formula_structural   Zn4H18C30O13
_chemical_formula_sum   'Zn8 H36 C60 O26'
_cell_volume   7055.12740995
_cell_formula_units_Z   2
loop_
 _symmetry_equiv_pos_site_id
 _symmetry_equiv_pos_as_xyz
  1  'x, y, z'
loop_
 _atom_site_type_symbol
 _atom_site_label
 _atom_site_symmetry_multiplicity
 _atom_site_fract_x
 _atom_site_fract_y
 _atom_site_fract_z
 _atom_site_occupancy
  Zn  Zn0  1  0.97130000  0.97250000  0.88611000  1.0
  Zn  Zn1  1  0.96753000  0.11274000  0.02784000  1.0
  Zn  Zn2  1  0.11688000  0.95928000  0.02767000  1.0
  Zn  Zn3  1  0.95677000  0.96040000  0.01957000  1.0
  Zn  Zn4  1  0.53921000  0.53084000  0.59241000  1.0
  Zn  Zn5  1  0.53751000  0.39006000  0.45370000  1.0
  Zn  Zn6  1  0.55055000  0.53898000  0.45502000  1.0
  Zn  Zn7  1  0.39028000  0.54624000  0.45686000  1.0
  H  H8  1  0.82224000  0.24650000  0.87499000  1.0
  H  H9  1  0.83860000  0.10937000  0.74470000  1.0
  H  H10  1  0.77445000  0.13195000  0.63259000  1.0
  H  H11  1  0.68916000  0.21807000  0.55545000  1.0
  H  H12  1  0.66710000  0.40885000  0.73716000  1.0
  H  H13  1  0.75044000  0.32427000  0.81452000  1.0
  H  H14  1  0.25365000  0.81287000  0.87787000  1.0
  H  H15  1  0.11293000  0.84355000  0.74755000  1.0
  H  H16  1  0.32272000  0.71613000  0.81322000  1.0
  H  H17  1  0.41027000  0.63408000  0.73758000  1.0
  H  H18  1  0.23136000  0.71835000  0.56484000  1.0
  H  H19  1  0.14361000  0.80338000  0.64091000  1.0
  H  H20  1  0.84876000  0.79322000  0.86279000  1.0
  H  H21  1  0.80193000  0.85534000  0.73963000  1.0
  H  H22  1  0.72628000  0.79666000  0.62872000  1.0
  H  H23  1  0.64740000  0.71092000  0.55520000  1.0
  H  H24  1  0.68361000  0.65794000  0.73825000  1.0
  H  H25  1  0.76315000  0.74158000  0.81181000  1.0
  H  H26  1  0.24312000  0.11568000  0.17914000  1.0
  H  H27  1  0.10291000  0.26245000  0.16158000  1.0
  H  H28  1  0.12550000  0.37899000  0.23486000  1.0
  H  H29  1  0.21462000  0.45238000  0.32027000  1.0
  H  H30  1  0.41148000  0.24580000  0.32211000  1.0
  H  H31  1  0.32421000  0.17202000  0.23751000  1.0
  H  H32  1  0.78547000  0.11429000  0.13451000  1.0
  H  H33  1  0.84244000  0.24736000  0.18001000  1.0
  H  H34  1  0.79483000  0.35810000  0.26431000  1.0
  H  H35  1  0.71816000  0.43158000  0.35057000  1.0
  H  H36  1  0.64839000  0.24269000  0.29736000  1.0
  H  H37  1  0.72331000  0.16911000  0.21074000  1.0
  H  H38  1  0.10729000  0.83737000  0.18047000  1.0
  H  H39  1  0.25782000  0.80042000  0.14837000  1.0
  H  H40  1  0.37678000  0.71932000  0.20600000  1.0
  H  H41  1  0.45380000  0.64111000  0.29078000  1.0
  H  H42  1  0.24310000  0.69095000  0.33288000  1.0
  H  H43  1  0.16580000  0.76944000  0.24969000  1.0
  C  C44  1  0.88967000  0.13215000  0.88378000  1.0
  C  C45  1  0.84001000  0.18816000  0.84308000  1.0
  C  C46  1  0.81794000  0.16935000  0.77244000  1.0
  C  C47  1  0.76867000  0.22153000  0.72915000  1.0
  C  C48  1  0.75065000  0.19278000  0.65558000  1.0
  C  C49  1  0.70321000  0.24047000  0.61227000  1.0
  C  C50  1  0.67292000  0.31861000  0.64163000  1.0
  C  C51  1  0.69087000  0.34801000  0.71492000  1.0
  C  C52  1  0.73766000  0.30031000  0.75787000  1.0
  C  C53  1  0.62197000  0.37091000  0.59627000  1.0
  C  C54  1  0.13678000  0.88603000  0.88589000  1.0
  C  C55  1  0.19368000  0.83477000  0.84581000  1.0
  C  C56  1  0.17398000  0.81708000  0.77543000  1.0
  C  C57  1  0.22701000  0.76670000  0.73275000  1.0
  C  C58  1  0.30275000  0.71802000  0.75922000  1.0
  C  C59  1  0.35178000  0.67161000  0.71712000  1.0
  C  C60  1  0.32609000  0.67149000  0.64674000  1.0
  C  C61  1  0.25068000  0.71898000  0.61950000  1.0
  C  C62  1  0.20202000  0.76597000  0.66207000  1.0
  C  C63  1  0.37826000  0.62065000  0.60110000  1.0
  C  C64  1  0.89239000  0.87698000  0.87492000  1.0
  C  C65  1  0.84607000  0.82594000  0.83337000  1.0
  C  C66  1  0.80133000  0.82137000  0.76616000  1.0
  C  C67  1  0.75225000  0.77391000  0.72526000  1.0
  C  C68  1  0.71741000  0.76574000  0.65269000  1.0
  C  C69  1  0.67331000  0.71820000  0.61148000  1.0
  C  C70  1  0.66176000  0.67847000  0.64210000  1.0
  C  C71  1  0.69397000  0.68808000  0.71475000  1.0
  C  C72  1  0.73866000  0.73484000  0.75554000  1.0
  C  C73  1  0.61675000  0.62549000  0.59785000  1.0
  C  C74  1  0.12813000  0.11242000  0.11038000  1.0
  C  C75  1  0.18361000  0.15287000  0.16049000  1.0
  C  C76  1  0.16408000  0.22877000  0.18184000  1.0
  C  C77  1  0.21788000  0.27013000  0.23058000  1.0
  C  C78  1  0.18829000  0.34967000  0.25420000  1.0
  C  C79  1  0.23761000  0.39090000  0.30185000  1.0
  C  C80  1  0.31829000  0.35345000  0.32687000  1.0
  C  C81  1  0.34863000  0.27425000  0.30292000  1.0
  C  C82  1  0.29933000  0.23338000  0.25564000  1.0
  C  C83  1  0.37202000  0.39678000  0.37801000  1.0
  C  C84  1  0.86664000  0.10927000  0.09101000  1.0
  C  C85  1  0.81574000  0.14798000  0.13709000  1.0
  C  C86  1  0.80967000  0.21805000  0.18111000  1.0
  C  C87  1  0.76433000  0.25859000  0.23093000  1.0
  C  C88  1  0.76243000  0.33286000  0.27139000  1.0
  C  C89  1  0.72007000  0.37400000  0.31962000  1.0
  C  C90  1  0.67884000  0.34154000  0.32912000  1.0
  C  C91  1  0.68064000  0.26731000  0.28945000  1.0
  C  C92  1  0.72252000  0.22662000  0.24103000  1.0
  C  C93  1  0.63226000  0.38607000  0.37998000  1.0
  C  C94  1  0.10692000  0.88295000  0.10795000  1.0
  C  C95  1  0.14614000  0.83719000  0.15793000  1.0
  C  C96  1  0.22356000  0.79735000  0.17384000  1.0
  C  C97  1  0.26604000  0.75057000  0.22211000  1.0
  C  C98  1  0.34754000  0.71320000  0.23406000  1.0
  C  C99  1  0.39070000  0.66953000  0.28108000  1.0
  C  C100  1  0.35301000  0.66182000  0.31705000  1.0
  C  C101  1  0.27156000  0.69782000  0.30477000  1.0
  C  C102  1  0.22885000  0.74158000  0.25818000  1.0
  C  C103  1  0.39837000  0.61665000  0.36881000  1.0
  O  O104  1  0.00294000  0.00242000  0.98894000  1.0
  O  O105  1  0.90528000  0.16018000  0.95049000  1.0
  O  O106  1  0.91252000  0.06216000  0.85049000  1.0
  O  O107  1  0.60221000  0.34112000  0.52996000  1.0
  O  O108  1  0.60221000  0.44154000  0.62781000  1.0
  O  O109  1  0.16677000  0.90068000  0.95265000  1.0
  O  O110  1  0.06428000  0.91101000  0.85220000  1.0
  O  O111  1  0.34685000  0.61378000  0.53534000  1.0
  O  O112  1  0.45003000  0.58795000  0.63131000  1.0
  O  O113  1  0.91954000  0.88215000  0.94069000  1.0
  O  O114  1  0.90169000  0.91152000  0.84439000  1.0
  O  O115  1  0.59652000  0.61331000  0.53148000  1.0
  O  O116  1  0.60270000  0.59605000  0.62969000  1.0
  O  O117  1  0.15945000  0.04019000  0.09386000  1.0
  O  O118  1  0.05579000  0.15061000  0.08779000  1.0
  O  O119  1  0.34077000  0.46861000  0.39839000  1.0
  O  O120  1  0.44486000  0.35846000  0.39729000  1.0
  O  O121  1  0.87134000  0.04033000  0.05729000  1.0
  O  O122  1  0.90212000  0.14551000  0.08849000  1.0
  O  O123  1  0.62933000  0.45477000  0.41094000  1.0
  O  O124  1  0.59863000  0.35228000  0.38839000  1.0
  O  O125  1  0.03229000  0.91377000  0.09555000  1.0
  O  O126  1  0.14849000  0.88851000  0.08109000  1.0
  O  O127  1  0.47286000  0.58846000  0.38113000  1.0
  O  O128  1  0.35893000  0.61015000  0.39712000  1.0
  O  O129  1  0.50467000  0.50065000  0.48968000  1.0
