# generated using pymatgen
data_HgH9C12I3N2
_symmetry_space_group_name_H-M   'P 1'
_cell_length_a   4.33973000
_cell_length_b   15.54000000
_cell_length_c   23.37620000
_cell_angle_alpha   89.99950000
_cell_angle_beta   89.99980000
_cell_angle_gamma   84.21530000
_symmetry_Int_Tables_number   1
_chemical_formula_structural   HgH9C12I3N2
_chemical_formula_sum   'Hg4 H36 C48 I12 N8'
_cell_volume   1568.44904187
_cell_formula_units_Z   4
loop_
 _symmetry_equiv_pos_site_id
 _symmetry_equiv_pos_as_xyz
  1  'x, y, z'
loop_
 _atom_site_type_symbol
 _atom_site_label
 _atom_site_symmetry_multiplicity
 _atom_site_fract_x
 _atom_site_fract_y
 _atom_site_fract_z
 _atom_site_occupancy
  Hg  Hg0  1  0.70691000  0.79694000  0.25451000  1.0
  Hg  Hg1  1  0.29308000  0.70306000  0.75451000  1.0
  Hg  Hg2  1  0.29308000  0.20306000  0.74549000  1.0
  Hg  Hg3  1  0.70691000  0.29694000  0.24550000  1.0
  H  H4  1  0.43448000  0.00246000  0.24028000  1.0
  H  H5  1  0.56551000  0.49755000  0.74028000  1.0
  H  H6  1  0.56552000  0.99755000  0.75972000  1.0
  H  H7  1  0.43447000  0.50245000  0.25972000  1.0
  H  H8  1  0.48405000  0.13292000  0.18018000  1.0
  H  H9  1  0.51596000  0.36708000  0.68018000  1.0
  H  H10  1  0.51593000  0.86708000  0.81982000  1.0
  H  H11  1  0.48403000  0.63292000  0.31982000  1.0
  H  H12  1  0.11343000  0.97426000  0.07111000  1.0
  H  H13  1  0.88657000  0.52574000  0.57111000  1.0
  H  H14  1  0.88656000  0.02574000  0.92888000  1.0
  H  H15  1  0.11343000  0.47426000  0.42889000  1.0
  H  H16  1  0.03299000  0.84847000  0.13588000  1.0
  H  H17  1  0.96698000  0.65153000  0.63587000  1.0
  H  H18  1  0.96702000  0.15153000  0.86413000  1.0
  H  H19  1  0.03300000  0.34847000  0.36413000  1.0
  H  H20  1  0.70705000  0.20007000  0.09914000  1.0
  H  H21  1  0.29297000  0.29993000  0.59915000  1.0
  H  H22  1  0.29293000  0.79993000  0.90085000  1.0
  H  H23  1  0.70704000  0.70006000  0.40086000  1.0
  H  H24  1  0.43789000  0.13375000  0.96333000  1.0
  H  H25  1  0.56212000  0.36625000  0.46334000  1.0
  H  H26  1  0.56211000  0.86626000  0.03667000  1.0
  H  H27  1  0.43790000  0.63375000  0.53667000  1.0
  H  H28  1  0.58641000  0.25827000  0.90469000  1.0
  H  H29  1  0.41361000  0.24173000  0.40469000  1.0
  H  H30  1  0.41360000  0.74173000  0.09532000  1.0
  H  H31  1  0.58641000  0.75827000  0.59531000  1.0
  H  H32  1  0.98340000  0.43173000  0.00938000  1.0
  H  H33  1  0.01665000  0.06827000  0.50937000  1.0
  H  H34  1  0.01659000  0.56828000  0.99062000  1.0
  H  H35  1  0.98337000  0.93172000  0.49062000  1.0
  H  H36  1  0.82915000  0.31024000  0.06435000  1.0
  H  H37  1  0.17093000  0.18976000  0.56435000  1.0
  H  H38  1  0.17087000  0.68976000  0.93565000  1.0
  H  H39  1  0.82908000  0.81024000  0.43565000  1.0
  C  C40  1  0.58255000  0.99880000  0.20238000  1.0
  C  C41  1  0.41745000  0.50121000  0.70238000  1.0
  C  C42  1  0.41745000  0.00121000  0.79762000  1.0
  C  C43  1  0.58254000  0.49879000  0.29762000  1.0
  C  C44  1  0.61193000  0.07127000  0.16874000  1.0
  C  C45  1  0.38808000  0.42873000  0.66874000  1.0
  C  C46  1  0.38805000  0.92873000  0.83125000  1.0
  C  C47  1  0.61193000  0.57127000  0.33126000  1.0
  C  C48  1  0.80869000  0.06414000  0.12097000  1.0
  C  C49  1  0.19132000  0.43586000  0.62097000  1.0
  C  C50  1  0.19130000  0.93586000  0.87903000  1.0
  C  C51  1  0.80868000  0.56413000  0.37903000  1.0
  C  C52  1  0.96233000  0.98228000  0.10834000  1.0
  C  C53  1  0.03767000  0.51772000  0.60834000  1.0
  C  C54  1  0.03766000  0.01772000  0.89165000  1.0
  C  C55  1  0.96234000  0.48228000  0.39166000  1.0
  C  C56  1  0.91822000  0.91317000  0.14384000  1.0
  C  C57  1  0.08177000  0.58683000  0.64384000  1.0
  C  C58  1  0.08178000  0.08683000  0.85616000  1.0
  C  C59  1  0.91822000  0.41317000  0.35616000  1.0
  C  C60  1  0.85562000  0.14101000  0.08735000  1.0
  C  C61  1  0.14440000  0.35899000  0.58735000  1.0
  C  C62  1  0.14436000  0.85899000  0.91265000  1.0
  C  C63  1  0.85562000  0.64100000  0.41265000  1.0
  C  C64  1  0.12485000  0.21220000  0.01754000  1.0
  C  C65  1  0.87517000  0.28780000  0.51755000  1.0
  C  C66  1  0.87514000  0.78780000  0.98246000  1.0
  C  C67  1  0.12484000  0.71220000  0.48246000  1.0
  C  C68  1  0.33805000  0.19959000  0.97218000  1.0
  C  C69  1  0.66196000  0.30041000  0.47219000  1.0
  C  C70  1  0.66195000  0.80041000  0.02782000  1.0
  C  C71  1  0.33805000  0.69959000  0.52782000  1.0
  C  C72  1  0.42098000  0.26882000  0.93972000  1.0
  C  C73  1  0.57904000  0.23118000  0.43973000  1.0
  C  C74  1  0.57903000  0.73118000  0.06028000  1.0
  C  C75  1  0.42097000  0.76882000  0.56028000  1.0
  C  C76  1  0.29412000  0.35256000  0.95344000  1.0
  C  C77  1  0.70592000  0.14744000  0.45344000  1.0
  C  C78  1  0.70589000  0.64744000  0.04656000  1.0
  C  C79  1  0.29409000  0.85256000  0.54656000  1.0
  C  C80  1  0.08260000  0.36668000  0.99843000  1.0
  C  C81  1  0.91744000  0.13332000  0.49843000  1.0
  C  C82  1  0.91741000  0.63332000  0.00157000  1.0
  C  C83  1  0.08257000  0.86668000  0.50157000  1.0
  C  C84  1  0.99693000  0.29719000  0.02994000  1.0
  C  C85  1  0.00312000  0.20280000  0.52994000  1.0
  C  C86  1  0.00307000  0.70281000  0.97006000  1.0
  C  C87  1  0.99690000  0.79719000  0.47006000  1.0
  I  I88  1  0.29316000  0.86156000  0.33373000  1.0
  I  I89  1  0.70682000  0.63844000  0.83373000  1.0
  I  I90  1  0.70682000  0.13844000  0.66627000  1.0
  I  I91  1  0.29317000  0.36156000  0.16627000  1.0
  I  I92  1  0.09711000  0.67689000  0.20266000  1.0
  I  I93  1  0.90285000  0.82311000  0.70266000  1.0
  I  I94  1  0.90286000  0.32311000  0.79734000  1.0
  I  I95  1  0.09714000  0.17689000  0.29734000  1.0
  I  I96  1  0.42706000  0.45988000  0.90802000  1.0
  I  I97  1  0.57296000  0.04012000  0.40802000  1.0
  I  I98  1  0.57294000  0.54012000  0.09198000  1.0
  I  I99  1  0.42705000  0.95988000  0.59197000  1.0
  N  N100  1  0.73346000  0.92124000  0.19027000  1.0
  N  N101  1  0.26653000  0.57877000  0.69027000  1.0
  N  N102  1  0.26654000  0.07877000  0.80973000  1.0
  N  N103  1  0.73347000  0.42124000  0.30973000  1.0
  N  N104  1  0.06408000  0.13811000  0.04792000  1.0
  N  N105  1  0.93595000  0.36189000  0.54792000  1.0
  N  N106  1  0.93591000  0.86189000  0.95208000  1.0
  N  N107  1  0.06407000  0.63811000  0.45208000  1.0
