# generated using pymatgen
data_KH11C7SO9
_symmetry_space_group_name_H-M   'P 1'
_cell_length_a   7.16972000
_cell_length_b   7.24026000
_cell_length_c   11.93330000
_cell_angle_alpha   87.33420000
_cell_angle_beta   81.10740000
_cell_angle_gamma   73.12050000
_symmetry_Int_Tables_number   1
_chemical_formula_structural   KH11C7SO9
_chemical_formula_sum   'K2 H22 C14 S2 O18'
_cell_volume   585.65097295
_cell_formula_units_Z   2
loop_
 _symmetry_equiv_pos_site_id
 _symmetry_equiv_pos_as_xyz
  1  'x, y, z'
loop_
 _atom_site_type_symbol
 _atom_site_label
 _atom_site_symmetry_multiplicity
 _atom_site_fract_x
 _atom_site_fract_y
 _atom_site_fract_z
 _atom_site_occupancy
  K  K0  1  0.72261000  0.57043000  0.10280000  1.0
  K  K1  1  0.27739000  0.42957000  0.89720000  1.0
  H  H2  1  0.65004000  0.28643000  0.64395000  1.0
  H  H3  1  0.34996000  0.71357000  0.35605000  1.0
  H  H4  1  0.08338000  0.39184000  0.65504000  1.0
  H  H5  1  0.91662000  0.60816000  0.34496000  1.0
  H  H6  1  0.88537000  0.08339000  0.21516000  1.0
  H  H7  1  0.11464000  0.91660000  0.78484000  1.0
  H  H8  1  0.00052000  0.12367000  0.39604000  1.0
  H  H9  1  0.99948000  0.87633000  0.60396000  1.0
  H  H10  1  0.28225000  0.26110000  0.38085000  1.0
  H  H11  1  0.71776000  0.73890000  0.61915000  1.0
  H  H12  1  0.25742000  0.90604000  0.16145000  1.0
  H  H13  1  0.74258000  0.09396000  0.83855000  1.0
  H  H14  1  0.31234000  0.77119000  0.05448000  1.0
  H  H15  1  0.68766000  0.22881000  0.94552000  1.0
  H  H16  1  0.12436000  0.18844000  0.07564000  1.0
  H  H17  1  0.87564000  0.81156000  0.92436000  1.0
  H  H18  1  0.13322000  0.40900000  0.22102000  1.0
  H  H19  1  0.86678000  0.59100000  0.77898000  1.0
  H  H20  1  0.02215000  0.16399000  0.97234000  1.0
  H  H21  1  0.97785000  0.83600000  0.02766000  1.0
  H  H22  1  0.12613000  0.62964000  0.19715000  1.0
  H  H23  1  0.87387000  0.37036000  0.80286000  1.0
  C  C24  1  0.57614000  0.17246000  0.28631000  1.0
  C  C25  1  0.42386000  0.82754000  0.71369000  1.0
  C  C26  1  0.77915000  0.13269000  0.29108000  1.0
  C  C27  1  0.22085000  0.86731000  0.70892000  1.0
  C  C28  1  0.84391000  0.15613000  0.39139000  1.0
  C  C29  1  0.15609000  0.84387000  0.60861000  1.0
  C  C30  1  0.70703000  0.21823000  0.48987000  1.0
  C  C31  1  0.29297000  0.78177000  0.51013000  1.0
  C  C32  1  0.50222000  0.25642000  0.48515000  1.0
  C  C33  1  0.49777000  0.74359000  0.51485000  1.0
  C  C34  1  0.43919000  0.23270000  0.38270000  1.0
  C  C35  1  0.56081000  0.76731000  0.61730000  1.0
  C  C36  1  0.36050000  0.31899000  0.58866000  1.0
  C  C37  1  0.63950000  0.68101000  0.41134000  1.0
  S  S38  1  0.49952000  0.14159000  0.15592000  1.0
  S  S39  1  0.50048000  0.85841000  0.84408000  1.0
  O  O40  1  0.51842000  0.30639000  0.08108000  1.0
  O  O41  1  0.48158000  0.69361000  0.91892000  1.0
  O  O42  1  0.62518000  0.95704000  0.10898000  1.0
  O  O43  1  0.37483000  0.04296000  0.89102000  1.0
  O  O44  1  0.28788000  0.14653000  0.18589000  1.0
  O  O45  1  0.71212000  0.85347000  0.81412000  1.0
  O  O46  1  0.77347000  0.23854000  0.58621000  1.0
  O  O47  1  0.22654000  0.76146000  0.41378000  1.0
  O  O48  1  0.17394000  0.34663000  0.57934000  1.0
  O  O49  1  0.82606000  0.65337000  0.42066000  1.0
  O  O50  1  0.41799000  0.34430000  0.67961000  1.0
  O  O51  1  0.58201000  0.65570000  0.32039000  1.0
  O  O52  1  0.22929000  0.79570000  0.12942000  1.0
  O  O53  1  0.77071000  0.20430000  0.87057000  1.0
  O  O54  1  0.01235000  0.24924000  0.03524000  1.0
  O  O55  1  0.98765000  0.75076000  0.96476000  1.0
  O  O56  1  0.04609000  0.54200000  0.22885000  1.0
  O  O57  1  0.95391000  0.45800000  0.77115000  1.0
