# generated using pymatgen
data_Dy2H18(C3O8)3
_symmetry_space_group_name_H-M   'P 1'
_cell_length_a   8.77141000
_cell_length_b   8.77140000
_cell_length_c   8.77141000
_cell_angle_alpha   66.32060000
_cell_angle_beta   66.32060000
_cell_angle_gamma   66.32060000
_symmetry_Int_Tables_number   1
_chemical_formula_structural   Dy2H18(C3O8)3
_chemical_formula_sum   'Dy2 H18 C9 O24'
_cell_volume   542.26588830
_cell_formula_units_Z   1
loop_
 _symmetry_equiv_pos_site_id
 _symmetry_equiv_pos_as_xyz
  1  'x, y, z'
loop_
 _atom_site_type_symbol
 _atom_site_label
 _atom_site_symmetry_multiplicity
 _atom_site_fract_x
 _atom_site_fract_y
 _atom_site_fract_z
 _atom_site_occupancy
  Dy  Dy0  1  0.73243000  0.73243000  0.73243000  1.0
  Dy  Dy1  1  0.26757000  0.26757000  0.26757000  1.0
  H  H2  1  0.82433000  0.69034000  0.05087000  1.0
  H  H3  1  0.69034000  0.05088000  0.82433000  1.0
  H  H4  1  0.05088000  0.82433000  0.69034000  1.0
  H  H5  1  0.17567000  0.94912000  0.30966000  1.0
  H  H6  1  0.30966000  0.17567000  0.94912000  1.0
  H  H7  1  0.94913000  0.30966000  0.17567000  1.0
  H  H8  1  0.78323000  0.72726000  0.36309000  1.0
  H  H9  1  0.72726000  0.36309000  0.78323000  1.0
  H  H10  1  0.36309000  0.78323000  0.72726000  1.0
  H  H11  1  0.21677000  0.63692000  0.27274000  1.0
  H  H12  1  0.27274000  0.21677000  0.63692000  1.0
  H  H13  1  0.63692000  0.27274000  0.21677000  1.0
  H  H14  1  0.87457000  0.54335000  0.47625000  1.0
  H  H15  1  0.54335000  0.47625000  0.87457000  1.0
  H  H16  1  0.47625000  0.87457000  0.54335000  1.0
  H  H17  1  0.12543000  0.52375000  0.45665000  1.0
  H  H18  1  0.45665000  0.12543000  0.52375000  1.0
  H  H19  1  0.52375000  0.45665000  0.12543000  1.0
  C  C20  1  0.03591000  0.50000000  0.96409000  1.0
  C  C21  1  0.50000000  0.96409000  0.03591000  1.0
  C  C22  1  0.96409000  0.03591000  0.50000000  1.0
  C  C23  1  0.08498000  0.41803000  0.81576000  1.0
  C  C24  1  0.41803000  0.81576000  0.08498000  1.0
  C  C25  1  0.81576000  0.08498000  0.41803000  1.0
  C  C26  1  0.91502000  0.18424000  0.58197000  1.0
  C  C27  1  0.58197000  0.91502000  0.18424000  1.0
  C  C28  1  0.18424000  0.58197000  0.91502000  1.0
  O  O29  1  0.87279000  0.62200000  0.96231000  1.0
  O  O30  1  0.62200000  0.96231000  0.87279000  1.0
  O  O31  1  0.96231000  0.87279000  0.62200000  1.0
  O  O32  1  0.12721000  0.03769000  0.37800000  1.0
  O  O33  1  0.37800000  0.12721000  0.03769000  1.0
  O  O34  1  0.03769000  0.37800000  0.12721000  1.0
  O  O35  1  0.81961000  0.66681000  0.47206000  1.0
  O  O36  1  0.66681000  0.47206000  0.81962000  1.0
  O  O37  1  0.47206000  0.81961000  0.66681000  1.0
  O  O38  1  0.18038000  0.52794000  0.33319000  1.0
  O  O39  1  0.33319000  0.18038000  0.52794000  1.0
  O  O40  1  0.52794000  0.33319000  0.18039000  1.0
  O  O41  1  0.00955000  0.50741000  0.69808000  1.0
  O  O42  1  0.50741000  0.69808000  0.00955000  1.0
  O  O43  1  0.69808000  0.00955000  0.50741000  1.0
  O  O44  1  0.99045000  0.30192000  0.49259000  1.0
  O  O45  1  0.49259000  0.99044000  0.30192000  1.0
  O  O46  1  0.30192000  0.49259000  0.99045000  1.0
  O  O47  1  0.20123000  0.27376000  0.81774000  1.0
  O  O48  1  0.27376000  0.81774000  0.20124000  1.0
  O  O49  1  0.81774000  0.20124000  0.27376000  1.0
  O  O50  1  0.79876000  0.18226000  0.72624000  1.0
  O  O51  1  0.72624000  0.79876000  0.18226000  1.0
  O  O52  1  0.18226000  0.72624000  0.79876000  1.0
