# generated using pymatgen
data_Zn2H22C23(NO6)2
_symmetry_space_group_name_H-M   'P 1'
_cell_length_a   11.31370000
_cell_length_b   13.24080000
_cell_length_c   20.15500000
_cell_angle_alpha   89.99980000
_cell_angle_beta   89.99990000
_cell_angle_gamma   89.99990000
_symmetry_Int_Tables_number   1
_chemical_formula_structural   Zn2H22C23(NO6)2
_chemical_formula_sum   'Zn8 H88 C92 N8 O48'
_cell_volume   3019.26815721
_cell_formula_units_Z   4
loop_
 _symmetry_equiv_pos_site_id
 _symmetry_equiv_pos_as_xyz
  1  'x, y, z'
loop_
 _atom_site_type_symbol
 _atom_site_label
 _atom_site_symmetry_multiplicity
 _atom_site_fract_x
 _atom_site_fract_y
 _atom_site_fract_z
 _atom_site_occupancy
  Zn  Zn0  1  0.32170000  0.01910000  0.53407000  1.0
  Zn  Zn1  1  0.17830000  0.98090000  0.03407000  1.0
  Zn  Zn2  1  0.67830000  0.51910000  0.96593000  1.0
  Zn  Zn3  1  0.82170000  0.48090000  0.46593000  1.0
  Zn  Zn4  1  0.11226000  0.92840000  0.64238000  1.0
  Zn  Zn5  1  0.38774000  0.07160000  0.14238000  1.0
  Zn  Zn6  1  0.88774000  0.42840000  0.85762000  1.0
  Zn  Zn7  1  0.61226000  0.57160000  0.35762000  1.0
  H  H8  1  0.36072000  0.70893000  0.71740000  1.0
  H  H9  1  0.13928000  0.29108000  0.21740000  1.0
  H  H10  1  0.63928000  0.20893000  0.78260000  1.0
  H  H11  1  0.86071000  0.79107000  0.28261000  1.0
  H  H12  1  0.45191000  0.72980000  0.51064000  1.0
  H  H13  1  0.04809000  0.27020000  0.01064000  1.0
  H  H14  1  0.54809000  0.22980000  0.98936000  1.0
  H  H15  1  0.95191000  0.77020000  0.48936000  1.0
  H  H16  1  0.60144000  0.49299000  0.63012000  1.0
  H  H17  1  0.89856000  0.50702000  0.13012000  1.0
  H  H18  1  0.39856000  0.99299000  0.86988000  1.0
  H  H19  1  0.10144000  0.00701000  0.36988000  1.0
  H  H20  1  0.64666000  0.47630000  0.74215000  1.0
  H  H21  1  0.85334000  0.52370000  0.24215000  1.0
  H  H22  1  0.35334000  0.97630000  0.75785000  1.0
  H  H23  1  0.14666000  0.02370000  0.25785000  1.0
  H  H24  1  0.54303000  0.45040000  0.80811000  1.0
  H  H25  1  0.95696000  0.54960000  0.30811000  1.0
  H  H26  1  0.45697000  0.95040000  0.69188000  1.0
  H  H27  1  0.04303000  0.04960000  0.19189000  1.0
  H  H28  1  0.32984000  0.46224000  0.78822000  1.0
  H  H29  1  0.17016000  0.53776000  0.28822000  1.0
  H  H30  1  0.67016000  0.96224000  0.71178000  1.0
  H  H31  1  0.82984000  0.03776000  0.21178000  1.0
  H  H32  1  0.09369000  0.21919000  0.74062000  1.0
  H  H33  1  0.40630000  0.78081000  0.24062000  1.0
  H  H34  1  0.90630000  0.71919000  0.75938000  1.0
  H  H35  1  0.59369000  0.28081000  0.25938000  1.0
  H  H36  1  0.44793000  0.21766000  0.66200000  1.0
  H  H37  1  0.05207000  0.78234000  0.16200000  1.0
  H  H38  1  0.55207000  0.71766000  0.83800000  1.0
  H  H39  1  0.94793000  0.28234000  0.33800000  1.0
  H  H40  1  0.53972000  0.10481000  0.44797000  1.0
  H  H41  1  0.96029000  0.89519000  0.94798000  1.0
  H  H42  1  0.46028000  0.60481000  0.05203000  1.0
  H  H43  1  0.03971000  0.39519000  0.55202000  1.0
  H  H44  1  0.66726000  0.91531000  0.55341000  1.0
  H  H45  1  0.83274000  0.08470000  0.05341000  1.0
  H  H46  1  0.33274000  0.41531000  0.94659000  1.0
  H  H47  1  0.16726000  0.58469000  0.44658000  1.0
  H  H48  1  0.80220000  0.98484000  0.55855000  1.0
  H  H49  1  0.69780000  0.01517000  0.05855000  1.0
  H  H50  1  0.19781000  0.48483000  0.94145000  1.0
  H  H51  1  0.30219000  0.51516000  0.44145000  1.0
  H  H52  1  0.78280000  0.89360000  0.49428000  1.0
  H  H53  1  0.71720000  0.10640000  0.99428000  1.0
  H  H54  1  0.21721000  0.39360000  0.00572000  1.0
  H  H55  1  0.28279000  0.60640000  0.50572000  1.0
  H  H56  1  0.71240000  0.13349000  0.40546000  1.0
  H  H57  1  0.78760000  0.86651000  0.90546000  1.0
  H  H58  1  0.28760000  0.63348000  0.09455000  1.0
  H  H59  1  0.21240000  0.36651000  0.59454000  1.0
  H  H60  1  0.81031000  0.02775000  0.40389000  1.0
  H  H61  1  0.68969000  0.97225000  0.90389000  1.0
  H  H62  1  0.18970000  0.52774000  0.09611000  1.0
  H  H63  1  0.31030000  0.47226000  0.59611000  1.0
  H  H64  1  0.82972000  0.12493000  0.46428000  1.0
  H  H65  1  0.67029000  0.87507000  0.96428000  1.0
  H  H66  1  0.17028000  0.62493000  0.03572000  1.0
  H  H67  1  0.32972000  0.37507000  0.53571000  1.0
  H  H68  1  0.19768000  0.15750000  0.42302000  1.0
  H  H69  1  0.30231000  0.84250000  0.92302000  1.0
  H  H70  1  0.80232000  0.65750000  0.07698000  1.0
  H  H71  1  0.69769000  0.34250000  0.57698000  1.0
  H  H72  1  0.30928000  0.25248000  0.28681000  1.0
  H  H73  1  0.19072000  0.74752000  0.78681000  1.0
  H  H74  1  0.69072000  0.75247000  0.21319000  1.0
  H  H75  1  0.80928000  0.24752000  0.71319000  1.0
  H  H76  1  0.25001000  0.36239000  0.32615000  1.0
  H  H77  1  0.24999000  0.63761000  0.82615000  1.0
  H  H78  1  0.74999000  0.86239000  0.17385000  1.0
  H  H79  1  0.75001000  0.13761000  0.67385000  1.0
  H  H80  1  0.17391000  0.24308000  0.33205000  1.0
  H  H81  1  0.32609000  0.75692000  0.83205000  1.0
  H  H82  1  0.82609000  0.74308000  0.16795000  1.0
  H  H83  1  0.67391000  0.25692000  0.66795000  1.0
  H  H84  1  0.47110000  0.29627000  0.44992000  1.0
  H  H85  1  0.02890000  0.70373000  0.94992000  1.0
  H  H86  1  0.52890000  0.79627000  0.05008000  1.0
  H  H87  1  0.97110000  0.20373000  0.55008000  1.0
  H  H88  1  0.43972000  0.38025000  0.38164000  1.0
  H  H89  1  0.06028000  0.61975000  0.88164000  1.0
  H  H90  1  0.56028000  0.88025000  0.11835000  1.0
  H  H91  1  0.93973000  0.11974000  0.61836000  1.0
  H  H92  1  0.50729000  0.26114000  0.36657000  1.0
  H  H93  1  0.99270000  0.73886000  0.86656000  1.0
  H  H94  1  0.49270000  0.76114000  0.13343000  1.0
  H  H95  1  0.00730000  0.23886000  0.63343000  1.0
  C  C96  1  0.48358000  0.59676000  0.68156000  1.0
  C  C97  1  0.01642000  0.40324000  0.18156000  1.0
  C  C98  1  0.51642000  0.09676000  0.81844000  1.0
  C  C99  1  0.98358000  0.90324000  0.31844000  1.0
  C  C100  1  0.40991000  0.68096000  0.67489000  1.0
  C  C101  1  0.09009000  0.31905000  0.17489000  1.0
  C  C102  1  0.59009000  0.18095000  0.82511000  1.0
  C  C103  1  0.90991000  0.81905000  0.32511000  1.0
  C  C104  1  0.39976000  0.72940000  0.61368000  1.0
  C  C105  1  0.10025000  0.27061000  0.11368000  1.0
  C  C106  1  0.60025000  0.22940000  0.88632000  1.0
  C  C107  1  0.89975000  0.77060000  0.38632000  1.0
  C  C108  1  0.46102000  0.69256000  0.55846000  1.0
  C  C109  1  0.03898000  0.30745000  0.05847000  1.0
  C  C110  1  0.53898000  0.19256000  0.94154000  1.0
  C  C111  1  0.96102000  0.80744000  0.44154000  1.0
  C  C112  1  0.53198000  0.60691000  0.56506000  1.0
  C  C113  1  0.96803000  0.39310000  0.06506000  1.0
  C  C114  1  0.46802000  0.10691000  0.93494000  1.0
  C  C115  1  0.03198000  0.89309000  0.43495000  1.0
  C  C116  1  0.54548000  0.55949000  0.62681000  1.0
  C  C117  1  0.95452000  0.44052000  0.12681000  1.0
  C  C118  1  0.45452000  0.05949000  0.87319000  1.0
  C  C119  1  0.04548000  0.94051000  0.37320000  1.0
  C  C120  1  0.32091000  0.81952000  0.60625000  1.0
  C  C121  1  0.17909000  0.18048000  0.10625000  1.0
  C  C122  1  0.67909000  0.31952000  0.89375000  1.0
  C  C123  1  0.82091000  0.68048000  0.39375000  1.0
  C  C124  1  0.59100000  0.56310000  0.50522000  1.0
  C  C125  1  0.90900000  0.43690000  0.00522000  1.0
  C  C126  1  0.40900000  0.06310000  0.99478000  1.0
  C  C127  1  0.09101000  0.93690000  0.49478000  1.0
  C  C128  1  0.55302000  0.46568000  0.75494000  1.0
  C  C129  1  0.94698000  0.53432000  0.25494000  1.0
  C  C130  1  0.44698000  0.96568000  0.74506000  1.0
  C  C131  1  0.05302000  0.03431000  0.24506000  1.0
  C  C132  1  0.40358000  0.34386000  0.72542000  1.0
  C  C133  1  0.09641000  0.65614000  0.22541000  1.0
  C  C134  1  0.59641000  0.84386000  0.77458000  1.0
  C  C135  1  0.90358000  0.15614000  0.27458000  1.0
  C  C136  1  0.31541000  0.39059000  0.76314000  1.0
  C  C137  1  0.18459000  0.60941000  0.26313000  1.0
  C  C138  1  0.68459000  0.89059000  0.73686000  1.0
  C  C139  1  0.81541000  0.10941000  0.23686000  1.0
  C  C140  1  0.20304000  0.34632000  0.76719000  1.0
  C  C141  1  0.29696000  0.65368000  0.26719000  1.0
  C  C142  1  0.79696000  0.84632000  0.73281000  1.0
  C  C143  1  0.70304000  0.15368000  0.23281000  1.0
  C  C144  1  0.18025000  0.25422000  0.73594000  1.0
  C  C145  1  0.31975000  0.74578000  0.23594000  1.0
  C  C146  1  0.81975000  0.75421000  0.76406000  1.0
  C  C147  1  0.68025000  0.24578000  0.26406000  1.0
  C  C148  1  0.26908000  0.20832000  0.69815000  1.0
  C  C149  1  0.23091000  0.79168000  0.19815000  1.0
  C  C150  1  0.73091000  0.70832000  0.80185000  1.0
  C  C151  1  0.76909000  0.29168000  0.30185000  1.0
  C  C152  1  0.38014000  0.25366000  0.69215000  1.0
  C  C153  1  0.11985000  0.74635000  0.19215000  1.0
  C  C154  1  0.61985000  0.75365000  0.80784000  1.0
  C  C155  1  0.88014000  0.24634000  0.30785000  1.0
  C  C156  1  0.10683000  0.40137000  0.80408000  1.0
  C  C157  1  0.39317000  0.59863000  0.30408000  1.0
  C  C158  1  0.89317000  0.90137000  0.69592000  1.0
  C  C159  1  0.60683000  0.09863000  0.19592000  1.0
  C  C160  1  0.24641000  0.11209000  0.66178000  1.0
  C  C161  1  0.25358000  0.88791000  0.16178000  1.0
  C  C162  1  0.75359000  0.61209000  0.83822000  1.0
  C  C163  1  0.74641000  0.38791000  0.33822000  1.0
  C  C164  1  0.56991000  0.04555000  0.48236000  1.0
  C  C165  1  0.93010000  0.95445000  0.98236000  1.0
  C  C166  1  0.43010000  0.54555000  0.01764000  1.0
  C  C167  1  0.06990000  0.45445000  0.51764000  1.0
  C  C168  1  0.73776000  0.95080000  0.52452000  1.0
  C  C169  1  0.76224000  0.04920000  0.02451000  1.0
  C  C170  1  0.26225000  0.45080000  0.97548000  1.0
  C  C171  1  0.23776000  0.54920000  0.47548000  1.0
  C  C172  1  0.76376000  0.08129000  0.43632000  1.0
  C  C173  1  0.73624000  0.91871000  0.93632000  1.0
  C  C174  1  0.23624000  0.58129000  0.06368000  1.0
  C  C175  1  0.26376000  0.41871000  0.56368000  1.0
  C  C176  1  0.28597000  0.18856000  0.43407000  1.0
  C  C177  1  0.21402000  0.81144000  0.93407000  1.0
  C  C178  1  0.71402000  0.68855000  0.06593000  1.0
  C  C179  1  0.78598000  0.31144000  0.56593000  1.0
  C  C180  1  0.26051000  0.28022000  0.33044000  1.0
  C  C181  1  0.23949000  0.71979000  0.83044000  1.0
  C  C182  1  0.73949000  0.78021000  0.16956000  1.0
  C  C183  1  0.76051000  0.21978000  0.66956000  1.0
  C  C184  1  0.44316000  0.30134000  0.39800000  1.0
  C  C185  1  0.05684000  0.69866000  0.89800000  1.0
  C  C186  1  0.55684000  0.80134000  0.10200000  1.0
  C  C187  1  0.94317000  0.19865000  0.60200000  1.0
  N  N188  1  0.68562000  0.02716000  0.48134000  1.0
  N  N189  1  0.81438000  0.97284000  0.98134000  1.0
  N  N190  1  0.31438000  0.52716000  0.01866000  1.0
  N  N191  1  0.18562000  0.47284000  0.51865000  1.0
  N  N192  1  0.32611000  0.25629000  0.39075000  1.0
  N  N193  1  0.17389000  0.74371000  0.89075000  1.0
  N  N194  1  0.67389000  0.75629000  0.10924000  1.0
  N  N195  1  0.82611000  0.24371000  0.60925000  1.0
  O  O196  1  0.25615000  0.84312000  0.65612000  1.0
  O  O197  1  0.24385000  0.15689000  0.15612000  1.0
  O  O198  1  0.74384000  0.34312000  0.84388000  1.0
  O  O199  1  0.75616000  0.65688000  0.34388000  1.0
  O  O200  1  0.32320000  0.86547000  0.55108000  1.0
  O  O201  1  0.17681000  0.13454000  0.05108000  1.0
  O  O202  1  0.67681000  0.36546000  0.94892000  1.0
  O  O203  1  0.82319000  0.63453000  0.44892000  1.0
  O  O204  1  0.55792000  0.59735000  0.44933000  1.0
  O  O205  1  0.94208000  0.40264000  0.94933000  1.0
  O  O206  1  0.44208000  0.09735000  0.05067000  1.0
  O  O207  1  0.05793000  0.90265000  0.55067000  1.0
  O  O208  1  0.66759000  0.49354000  0.51465000  1.0
  O  O209  1  0.83241000  0.50646000  0.01465000  1.0
  O  O210  1  0.33241000  0.99354000  0.98535000  1.0
  O  O211  1  0.16760000  0.00646000  0.48535000  1.0
  O  O212  1  0.48676000  0.55521000  0.74405000  1.0
  O  O213  1  0.01324000  0.44480000  0.24404000  1.0
  O  O214  1  0.51324000  0.05521000  0.75596000  1.0
  O  O215  1  0.98676000  0.94479000  0.25596000  1.0
  O  O216  1  0.51593000  0.38220000  0.71599000  1.0
  O  O217  1  0.98406000  0.61780000  0.21599000  1.0
  O  O218  1  0.48407000  0.88220000  0.78401000  1.0
  O  O219  1  0.01593000  0.11780000  0.28401000  1.0
  O  O220  1  0.13013000  0.48100000  0.83487000  1.0
  O  O221  1  0.36987000  0.51900000  0.33487000  1.0
  O  O222  1  0.86988000  0.98100000  0.66513000  1.0
  O  O223  1  0.63012000  0.01900000  0.16513000  1.0
  O  O224  1  0.00261000  0.36051000  0.80040000  1.0
  O  O225  1  0.49739000  0.63949000  0.30040000  1.0
  O  O226  1  0.99739000  0.86051000  0.69960000  1.0
  O  O227  1  0.50261000  0.13949000  0.19960000  1.0
  O  O228  1  0.14778000  0.06771000  0.67191000  1.0
  O  O229  1  0.35221000  0.93229000  0.17190000  1.0
  O  O230  1  0.85221000  0.56771000  0.82810000  1.0
  O  O231  1  0.64779000  0.43229000  0.32810000  1.0
  O  O232  1  0.32795000  0.08107000  0.62324000  1.0
  O  O233  1  0.17204000  0.91893000  0.12324000  1.0
  O  O234  1  0.67205000  0.58107000  0.87676000  1.0
  O  O235  1  0.82795000  0.41893000  0.37676000  1.0
  O  O236  1  0.49879000  0.99956000  0.51969000  1.0
  O  O237  1  0.00121000  0.00044000  0.01970000  1.0
  O  O238  1  0.50121000  0.49956000  0.98031000  1.0
  O  O239  1  0.99879000  0.50044000  0.48030000  1.0
  O  O240  1  0.34322000  0.16027000  0.48446000  1.0
  O  O241  1  0.15678000  0.83973000  0.98446000  1.0
  O  O242  1  0.65678000  0.66027000  0.01554000  1.0
  O  O243  1  0.84322000  0.33973000  0.51554000  1.0
