# generated using pymatgen
data_Er2H16C21O17
_symmetry_space_group_name_H-M   'P 1'
_cell_length_a   9.90648000
_cell_length_b   10.65800000
_cell_length_c   28.74840000
_cell_angle_alpha   89.99990000
_cell_angle_beta   89.99980000
_cell_angle_gamma   88.15220000
_symmetry_Int_Tables_number   1
_chemical_formula_structural   Er2H16C21O17
_chemical_formula_sum   'Er8 H64 C84 O68'
_cell_volume   3033.77154318
_cell_formula_units_Z   4
loop_
 _symmetry_equiv_pos_site_id
 _symmetry_equiv_pos_as_xyz
  1  'x, y, z'
loop_
 _atom_site_type_symbol
 _atom_site_label
 _atom_site_symmetry_multiplicity
 _atom_site_fract_x
 _atom_site_fract_y
 _atom_site_fract_z
 _atom_site_occupancy
  Er  Er0  1  0.44430000  0.04217000  0.41987000  1.0
  Er  Er1  1  0.45240000  0.75771000  0.25119000  1.0
  Er  Er2  1  0.55571000  0.45783000  0.91987000  1.0
  Er  Er3  1  0.54760000  0.74228000  0.75119000  1.0
  Er  Er4  1  0.55570000  0.95781000  0.58014000  1.0
  Er  Er5  1  0.54760000  0.24228000  0.74881000  1.0
  Er  Er6  1  0.44430000  0.54219000  0.08013000  1.0
  Er  Er7  1  0.45240000  0.25771000  0.24881000  1.0
  H  H8  1  0.01656000  0.18954000  0.41048000  1.0
  H  H9  1  0.76874000  0.18465000  0.39596000  1.0
  H  H10  1  0.88843000  0.81789000  0.20718000  1.0
  H  H11  1  0.13137000  0.86996000  0.20975000  1.0
  H  H12  1  0.06843000  0.66707000  0.48866000  1.0
  H  H13  1  0.18157000  0.28625000  0.51025000  1.0
  H  H14  1  0.55854000  0.29214000  0.40155000  1.0
  H  H15  1  0.57490000  0.26843000  0.45656000  1.0
  H  H16  1  0.59306000  0.84959000  0.36038000  1.0
  H  H17  1  0.58627000  0.79945000  0.41201000  1.0
  H  H18  1  0.29120000  0.84580000  0.33308000  1.0
  H  H19  1  0.37487000  0.72493000  0.34609000  1.0
  H  H20  1  0.60190000  0.64201000  0.32668000  1.0
  H  H21  1  0.57464000  0.52246000  0.29665000  1.0
  H  H22  1  0.35084000  0.77352000  0.14944000  1.0
  H  H23  1  0.38709000  0.90882000  0.16837000  1.0
  H  H24  1  0.98344000  0.31043000  0.91048000  1.0
  H  H25  1  0.23125000  0.31534000  0.89597000  1.0
  H  H26  1  0.11158000  0.68211000  0.70719000  1.0
  H  H27  1  0.86863000  0.63004000  0.70975000  1.0
  H  H28  1  0.93157000  0.83295000  0.98865000  1.0
  H  H29  1  0.81843000  0.21378000  0.01024000  1.0
  H  H30  1  0.44149000  0.20787000  0.90154000  1.0
  H  H31  1  0.42509000  0.23157000  0.95655000  1.0
  H  H32  1  0.40693000  0.65043000  0.86038000  1.0
  H  H33  1  0.41375000  0.70059000  0.91201000  1.0
  H  H34  1  0.70882000  0.65418000  0.83307000  1.0
  H  H35  1  0.62510000  0.77500000  0.84610000  1.0
  H  H36  1  0.39814000  0.85802000  0.82670000  1.0
  H  H37  1  0.42536000  0.97753000  0.79665000  1.0
  H  H38  1  0.64916000  0.72648000  0.64944000  1.0
  H  H39  1  0.61292000  0.59119000  0.66837000  1.0
  H  H40  1  0.98344000  0.81042000  0.58953000  1.0
  H  H41  1  0.23125000  0.81533000  0.60404000  1.0
  H  H42  1  0.11156000  0.18213000  0.79281000  1.0
  H  H43  1  0.86862000  0.13005000  0.79025000  1.0
  H  H44  1  0.93156000  0.33291000  0.51134000  1.0
  H  H45  1  0.81842000  0.71373000  0.48975000  1.0
  H  H46  1  0.44148000  0.70784000  0.59846000  1.0
  H  H47  1  0.42509000  0.73156000  0.54345000  1.0
  H  H48  1  0.40692000  0.15042000  0.63962000  1.0
  H  H49  1  0.41376000  0.20058000  0.58799000  1.0
  H  H50  1  0.70881000  0.15418000  0.66692000  1.0
  H  H51  1  0.62508000  0.27499000  0.65389000  1.0
  H  H52  1  0.39810000  0.35800000  0.67331000  1.0
  H  H53  1  0.42536000  0.47753000  0.70335000  1.0
  H  H54  1  0.64915000  0.22649000  0.85056000  1.0
  H  H55  1  0.61290000  0.09119000  0.83163000  1.0
  H  H56  1  0.01656000  0.68957000  0.08953000  1.0
  H  H57  1  0.76875000  0.68465000  0.10404000  1.0
  H  H58  1  0.88843000  0.31787000  0.29281000  1.0
  H  H59  1  0.13137000  0.36994000  0.29025000  1.0
  H  H60  1  0.06844000  0.16711000  0.01134000  1.0
  H  H61  1  0.18159000  0.78629000  0.98975000  1.0
  H  H62  1  0.55854000  0.79214000  0.09846000  1.0
  H  H63  1  0.57492000  0.76844000  0.04345000  1.0
  H  H64  1  0.59309000  0.34957000  0.13961000  1.0
  H  H65  1  0.58624000  0.29942000  0.08798000  1.0
  H  H66  1  0.29119000  0.34582000  0.16692000  1.0
  H  H67  1  0.37494000  0.22502000  0.15389000  1.0
  H  H68  1  0.60191000  0.14200000  0.17332000  1.0
  H  H69  1  0.57464000  0.02246000  0.20335000  1.0
  H  H70  1  0.35085000  0.27350000  0.35056000  1.0
  H  H71  1  0.38706000  0.40880000  0.33163000  1.0
  C  C72  1  0.07002000  0.09239000  0.34775000  1.0
  C  C73  1  0.97866000  0.14567000  0.37906000  1.0
  C  C74  1  0.83895000  0.14076000  0.37127000  1.0
  C  C75  1  0.78966000  0.07821000  0.33300000  1.0
  C  C76  1  0.88070000  0.01386000  0.30178000  1.0
  C  C77  1  0.83456000  0.93295000  0.26584000  1.0
  C  C78  1  0.92488000  0.88072000  0.23398000  1.0
  C  C79  1  0.06246000  0.90807000  0.23608000  1.0
  C  C80  1  0.11186000  0.98334000  0.27105000  1.0
  C  C81  1  0.02326000  0.03053000  0.30683000  1.0
  C  C82  1  0.21292000  0.08396000  0.36406000  1.0
  C  C83  1  0.64155000  0.09526000  0.32289000  1.0
  C  C84  1  0.69355000  0.88805000  0.26315000  1.0
  C  C85  1  0.25471000  0.02377000  0.26544000  1.0
  C  C86  1  0.02908000  0.76334000  0.49206000  1.0
  C  C87  1  0.12000000  0.85933000  0.49307000  1.0
  C  C88  1  0.26590000  0.82336000  0.48303000  1.0
  C  C89  1  0.07177000  0.98610000  0.49995000  1.0
  C  C90  1  0.16057000  0.08734000  0.50654000  1.0
  C  C91  1  0.30799000  0.06705000  0.51635000  1.0
  C  C92  1  0.11075000  0.21027000  0.50759000  1.0
  C  C93  1  0.92999000  0.40758000  0.84775000  1.0
  C  C94  1  0.02134000  0.35430000  0.87905000  1.0
  C  C95  1  0.16104000  0.35922000  0.87127000  1.0
  C  C96  1  0.21033000  0.42178000  0.83300000  1.0
  C  C97  1  0.11929000  0.48612000  0.80178000  1.0
  C  C98  1  0.16544000  0.56704000  0.76584000  1.0
  C  C99  1  0.07512000  0.61927000  0.73398000  1.0
  C  C100  1  0.93754000  0.59192000  0.73608000  1.0
  C  C101  1  0.88814000  0.51665000  0.77105000  1.0
  C  C102  1  0.97675000  0.46945000  0.80683000  1.0
  C  C103  1  0.78708000  0.41602000  0.86405000  1.0
  C  C104  1  0.35844000  0.40474000  0.82289000  1.0
  C  C105  1  0.30645000  0.61194000  0.76315000  1.0
  C  C106  1  0.74529000  0.47623000  0.76543000  1.0
  C  C107  1  0.97092000  0.73669000  0.99205000  1.0
  C  C108  1  0.88000000  0.64070000  0.99306000  1.0
  C  C109  1  0.73410000  0.67666000  0.98302000  1.0
  C  C110  1  0.92823000  0.51393000  0.99994000  1.0
  C  C111  1  0.83943000  0.41268000  0.00653000  1.0
  C  C112  1  0.69201000  0.43297000  0.01634000  1.0
  C  C113  1  0.88925000  0.28975000  0.00758000  1.0
  C  C114  1  0.92998000  0.90758000  0.65225000  1.0
  C  C115  1  0.02133000  0.85430000  0.62095000  1.0
  C  C116  1  0.16104000  0.85922000  0.62873000  1.0
  C  C117  1  0.21032000  0.92177000  0.66700000  1.0
  C  C118  1  0.11929000  0.98612000  0.69822000  1.0
  C  C119  1  0.16544000  0.06704000  0.73416000  1.0
  C  C120  1  0.07511000  0.11928000  0.76602000  1.0
  C  C121  1  0.93753000  0.09193000  0.76392000  1.0
  C  C122  1  0.88813000  0.01665000  0.72896000  1.0
  C  C123  1  0.97674000  0.96945000  0.69317000  1.0
  C  C124  1  0.78708000  0.91601000  0.63595000  1.0
  C  C125  1  0.35844000  0.90473000  0.67712000  1.0
  C  C126  1  0.30645000  0.11195000  0.73685000  1.0
  C  C127  1  0.74529000  0.97623000  0.73456000  1.0
  C  C128  1  0.97091000  0.23664000  0.50795000  1.0
  C  C129  1  0.87999000  0.14065000  0.50694000  1.0
  C  C130  1  0.73409000  0.17663000  0.51698000  1.0
  C  C131  1  0.92822000  0.01388000  0.50006000  1.0
  C  C132  1  0.83943000  0.91263000  0.49347000  1.0
  C  C133  1  0.69201000  0.93294000  0.48366000  1.0
  C  C134  1  0.88924000  0.78970000  0.49241000  1.0
  C  C135  1  0.07002000  0.59241000  0.15225000  1.0
  C  C136  1  0.97866000  0.64569000  0.12095000  1.0
  C  C137  1  0.83896000  0.64076000  0.12873000  1.0
  C  C138  1  0.78968000  0.57821000  0.16700000  1.0
  C  C139  1  0.88071000  0.51387000  0.19822000  1.0
  C  C140  1  0.83456000  0.43295000  0.23416000  1.0
  C  C141  1  0.92488000  0.38071000  0.26602000  1.0
  C  C142  1  0.06246000  0.40806000  0.26392000  1.0
  C  C143  1  0.11186000  0.48334000  0.22896000  1.0
  C  C144  1  0.02326000  0.53054000  0.19317000  1.0
  C  C145  1  0.21292000  0.58398000  0.13595000  1.0
  C  C146  1  0.64156000  0.59525000  0.17711000  1.0
  C  C147  1  0.69355000  0.38805000  0.23685000  1.0
  C  C148  1  0.25471000  0.52376000  0.23457000  1.0
  C  C149  1  0.02909000  0.26339000  0.00794000  1.0
  C  C150  1  0.12002000  0.35937000  0.00693000  1.0
  C  C151  1  0.26591000  0.32339000  0.01697000  1.0
  C  C152  1  0.07179000  0.48614000  0.00005000  1.0
  C  C153  1  0.16058000  0.58739000  0.99346000  1.0
  C  C154  1  0.30800000  0.56709000  0.98365000  1.0
  C  C155  1  0.11077000  0.71032000  0.99241000  1.0
  O  O156  1  0.26304000  0.17481000  0.38685000  1.0
  O  O157  1  0.28162000  0.98109000  0.36002000  1.0
  O  O158  1  0.55759000  0.08604000  0.35547000  1.0
  O  O159  1  0.60888000  0.12603000  0.28143000  1.0
  O  O160  1  0.63670000  0.83962000  0.29871000  1.0
  O  O161  1  0.63297000  0.88702000  0.22390000  1.0
  O  O162  1  0.27900000  0.13885000  0.27201000  1.0
  O  O163  1  0.34334000  0.94420000  0.25089000  1.0
  O  O164  1  0.31568000  0.72531000  0.50118000  1.0
  O  O165  1  0.32681000  0.89427000  0.45409000  1.0
  O  O166  1  0.34113000  0.00241000  0.55200000  1.0
  O  O167  1  0.39230000  0.12194000  0.49056000  1.0
  O  O168  1  0.51840000  0.25171000  0.42822000  1.0
  O  O169  1  0.53141000  0.83328000  0.38658000  1.0
  O  O170  1  0.32484000  0.76324000  0.32021000  1.0
  O  O171  1  0.53029000  0.60031000  0.31003000  1.0
  O  O172  1  0.41027000  0.81962000  0.17105000  1.0
  O  O173  1  0.73695000  0.32517000  0.88684000  1.0
  O  O174  1  0.71839000  0.51890000  0.86002000  1.0
  O  O175  1  0.44241000  0.41399000  0.85546000  1.0
  O  O176  1  0.39112000  0.37396000  0.78143000  1.0
  O  O177  1  0.36330000  0.66038000  0.79871000  1.0
  O  O178  1  0.36702000  0.61297000  0.72390000  1.0
  O  O179  1  0.72099000  0.36115000  0.77201000  1.0
  O  O180  1  0.65666000  0.55579000  0.75088000  1.0
  O  O181  1  0.68432000  0.77470000  0.00117000  1.0
  O  O182  1  0.67320000  0.60574000  0.95408000  1.0
  O  O183  1  0.65887000  0.49760000  0.05199000  1.0
  O  O184  1  0.60771000  0.37807000  0.99056000  1.0
  O  O185  1  0.48161000  0.24830000  0.92822000  1.0
  O  O186  1  0.46860000  0.66676000  0.88657000  1.0
  O  O187  1  0.67514000  0.73674000  0.82022000  1.0
  O  O188  1  0.46973000  0.89970000  0.81003000  1.0
  O  O189  1  0.58973000  0.68038000  0.67105000  1.0
  O  O190  1  0.73695000  0.82516000  0.61316000  1.0
  O  O191  1  0.71837000  0.01888000  0.63999000  1.0
  O  O192  1  0.44240000  0.91396000  0.64454000  1.0
  O  O193  1  0.39110000  0.87396000  0.71857000  1.0
  O  O194  1  0.36328000  0.16038000  0.70129000  1.0
  O  O195  1  0.36702000  0.11297000  0.77610000  1.0
  O  O196  1  0.72099000  0.86115000  0.72799000  1.0
  O  O197  1  0.65666000  0.05580000  0.74912000  1.0
  O  O198  1  0.68431000  0.27468000  0.49884000  1.0
  O  O199  1  0.67319000  0.10571000  0.54592000  1.0
  O  O200  1  0.65887000  0.99758000  0.44801000  1.0
  O  O201  1  0.60769000  0.87805000  0.50944000  1.0
  O  O202  1  0.48160000  0.74828000  0.57178000  1.0
  O  O203  1  0.46859000  0.16673000  0.61342000  1.0
  O  O204  1  0.67513000  0.23674000  0.67978000  1.0
  O  O205  1  0.46971000  0.39969000  0.68996000  1.0
  O  O206  1  0.58972000  0.18039000  0.82895000  1.0
  O  O207  1  0.26305000  0.67483000  0.11316000  1.0
  O  O208  1  0.28162000  0.48110000  0.13998000  1.0
  O  O209  1  0.55759000  0.58602000  0.14454000  1.0
  O  O210  1  0.60889000  0.62603000  0.21857000  1.0
  O  O211  1  0.63671000  0.33961000  0.20129000  1.0
  O  O212  1  0.63297000  0.38702000  0.27610000  1.0
  O  O213  1  0.27901000  0.63884000  0.22799000  1.0
  O  O214  1  0.34334000  0.44420000  0.24912000  1.0
  O  O215  1  0.31567000  0.22534000  0.99882000  1.0
  O  O216  1  0.32682000  0.39428000  0.04591000  1.0
  O  O217  1  0.34114000  0.50245000  0.94800000  1.0
  O  O218  1  0.39231000  0.62196000  0.00944000  1.0
  O  O219  1  0.51841000  0.75172000  0.07178000  1.0
  O  O220  1  0.53141000  0.33327000  0.11342000  1.0
  O  O221  1  0.32488000  0.26326000  0.17978000  1.0
  O  O222  1  0.53030000  0.10031000  0.18997000  1.0
  O  O223  1  0.41026000  0.31961000  0.32895000  1.0
