# generated using pymatgen
data_CuH16C16S2I
_symmetry_space_group_name_H-M   'P 1'
_cell_length_a   7.10774000
_cell_length_b   12.06560000
_cell_length_c   20.72110000
_cell_angle_alpha   90.00000000
_cell_angle_beta   90.00020000
_cell_angle_gamma   90.00000000
_symmetry_Int_Tables_number   1
_chemical_formula_structural   CuH16C16S2I
_chemical_formula_sum   'Cu4 H64 C64 S8 I4'
_cell_volume   1777.02387631
_cell_formula_units_Z   4
loop_
 _symmetry_equiv_pos_site_id
 _symmetry_equiv_pos_as_xyz
  1  'x, y, z'
loop_
 _atom_site_type_symbol
 _atom_site_label
 _atom_site_symmetry_multiplicity
 _atom_site_fract_x
 _atom_site_fract_y
 _atom_site_fract_z
 _atom_site_occupancy
  Cu  Cu0  1  0.23502000  0.83785000  0.75000000  1.0
  Cu  Cu1  1  0.26498000  0.33785000  0.25000000  1.0
  Cu  Cu2  1  0.73502000  0.66215000  0.75000000  1.0
  Cu  Cu3  1  0.76498000  0.16215000  0.25000000  1.0
  H  H4  1  0.36236000  0.18419000  0.89400000  1.0
  H  H5  1  0.13763000  0.68420000  0.39400000  1.0
  H  H6  1  0.36237000  0.18420000  0.60600000  1.0
  H  H7  1  0.86237000  0.31581000  0.89400000  1.0
  H  H8  1  0.63763000  0.81581000  0.10600000  1.0
  H  H9  1  0.86236000  0.31580000  0.60600000  1.0
  H  H10  1  0.63764000  0.81580000  0.39400000  1.0
  H  H11  1  0.13763000  0.68419000  0.10600000  1.0
  H  H12  1  0.52116000  0.26074000  0.99051000  1.0
  H  H13  1  0.97883000  0.76075000  0.49051000  1.0
  H  H14  1  0.52116000  0.26075000  0.50948000  1.0
  H  H15  1  0.02117000  0.23926000  0.99052000  1.0
  H  H16  1  0.47884000  0.73925000  0.00949000  1.0
  H  H17  1  0.02116000  0.23925000  0.50949000  1.0
  H  H18  1  0.47884000  0.73925000  0.49051000  1.0
  H  H19  1  0.97883000  0.76074000  0.00949000  1.0
  H  H20  1  0.29455000  0.99695000  0.10628000  1.0
  H  H21  1  0.20544000  0.49695000  0.60629000  1.0
  H  H22  1  0.29455000  0.99695000  0.39371000  1.0
  H  H23  1  0.79456000  0.50305000  0.10629000  1.0
  H  H24  1  0.70544000  0.00305000  0.89372000  1.0
  H  H25  1  0.79456000  0.50305000  0.39372000  1.0
  H  H26  1  0.70544000  0.00305000  0.60628000  1.0
  H  H27  1  0.20544000  0.49695000  0.89372000  1.0
  H  H28  1  0.14634000  0.91629000  0.00888000  1.0
  H  H29  1  0.35366000  0.41630000  0.50888000  1.0
  H  H30  1  0.14634000  0.91629000  0.49112000  1.0
  H  H31  1  0.64634000  0.58371000  0.00888000  1.0
  H  H32  1  0.85366000  0.08371000  0.99112000  1.0
  H  H33  1  0.64634000  0.58371000  0.49112000  1.0
  H  H34  1  0.85365000  0.08371000  0.50888000  1.0
  H  H35  1  0.35366000  0.41630000  0.99112000  1.0
  H  H36  1  0.07697000  0.91735000  0.89776000  1.0
  H  H37  1  0.42303000  0.41736000  0.39776000  1.0
  H  H38  1  0.07697000  0.91736000  0.60224000  1.0
  H  H39  1  0.57697000  0.58264000  0.89776000  1.0
  H  H40  1  0.92303000  0.08264000  0.10224000  1.0
  H  H41  1  0.57697000  0.58264000  0.60224000  1.0
  H  H42  1  0.92303000  0.08264000  0.39776000  1.0
  H  H43  1  0.42303000  0.41736000  0.10224000  1.0
  H  H44  1  0.10023000  0.03993000  0.85169000  1.0
  H  H45  1  0.39977000  0.53993000  0.35169000  1.0
  H  H46  1  0.10024000  0.03994000  0.64831000  1.0
  H  H47  1  0.60023000  0.46006000  0.85169000  1.0
  H  H48  1  0.89977000  0.96007000  0.14831000  1.0
  H  H49  1  0.60023000  0.46007000  0.64831000  1.0
  H  H50  1  0.89977000  0.96007000  0.35169000  1.0
  H  H51  1  0.39977000  0.53993000  0.14831000  1.0
  H  H52  1  0.36144000  0.76489000  0.90323000  1.0
  H  H53  1  0.13856000  0.26489000  0.40323000  1.0
  H  H54  1  0.36144000  0.76489000  0.59677000  1.0
  H  H55  1  0.86143000  0.73511000  0.90323000  1.0
  H  H56  1  0.63856000  0.23511000  0.09677000  1.0
  H  H57  1  0.86143000  0.73511000  0.59677000  1.0
  H  H58  1  0.63856000  0.23511000  0.40323000  1.0
  H  H59  1  0.13856000  0.26489000  0.09677000  1.0
  H  H60  1  0.56219000  0.77868000  0.85327000  1.0
  H  H61  1  0.93782000  0.27868000  0.35327000  1.0
  H  H62  1  0.56219000  0.77868000  0.64673000  1.0
  H  H63  1  0.06218000  0.72132000  0.85327000  1.0
  H  H64  1  0.43781000  0.22132000  0.14673000  1.0
  H  H65  1  0.06218000  0.72132000  0.64673000  1.0
  H  H66  1  0.43781000  0.22132000  0.35327000  1.0
  H  H67  1  0.93781000  0.27868000  0.14673000  1.0
  C  C68  1  0.34404000  0.14380000  0.94073000  1.0
  C  C69  1  0.15596000  0.64381000  0.44073000  1.0
  C  C70  1  0.34405000  0.14381000  0.55926000  1.0
  C  C71  1  0.84405000  0.35620000  0.94073000  1.0
  C  C72  1  0.65596000  0.85620000  0.05926000  1.0
  C  C73  1  0.84404000  0.35619000  0.55927000  1.0
  C  C74  1  0.65596000  0.85619000  0.44073000  1.0
  C  C75  1  0.15596000  0.64381000  0.05927000  1.0
  C  C76  1  0.43239000  0.18740000  0.99519000  1.0
  C  C77  1  0.06761000  0.68740000  0.49519000  1.0
  C  C78  1  0.43239000  0.18740000  0.50481000  1.0
  C  C79  1  0.93240000  0.31260000  0.99519000  1.0
  C  C80  1  0.56761000  0.81260000  0.00481000  1.0
  C  C81  1  0.93239000  0.31260000  0.50481000  1.0
  C  C82  1  0.56762000  0.81260000  0.49519000  1.0
  C  C83  1  0.06761000  0.68740000  0.00481000  1.0
  C  C84  1  0.41922000  0.13400000  0.05516000  1.0
  C  C85  1  0.08078000  0.63400000  0.55516000  1.0
  C  C86  1  0.41922000  0.13400000  0.44484000  1.0
  C  C87  1  0.91922000  0.36600000  0.05516000  1.0
  C  C88  1  0.58078000  0.86600000  0.94484000  1.0
  C  C89  1  0.91922000  0.36600000  0.44484000  1.0
  C  C90  1  0.58078000  0.86600000  0.55516000  1.0
  C  C91  1  0.08078000  0.63400000  0.94484000  1.0
  C  C92  1  0.30707000  0.03901000  0.05988000  1.0
  C  C93  1  0.19293000  0.53902000  0.55988000  1.0
  C  C94  1  0.30707000  0.03901000  0.44012000  1.0
  C  C95  1  0.80707000  0.46099000  0.05988000  1.0
  C  C96  1  0.69293000  0.96099000  0.94012000  1.0
  C  C97  1  0.80706000  0.46099000  0.44012000  1.0
  C  C98  1  0.69293000  0.96099000  0.55988000  1.0
  C  C99  1  0.19293000  0.53901000  0.94012000  1.0
  C  C100  1  0.22366000  0.99396000  0.00513000  1.0
  C  C101  1  0.27633000  0.49396000  0.50513000  1.0
  C  C102  1  0.22367000  0.99396000  0.49487000  1.0
  C  C103  1  0.72367000  0.50604000  0.00513000  1.0
  C  C104  1  0.77633000  0.00604000  0.99487000  1.0
  C  C105  1  0.72366000  0.50604000  0.49487000  1.0
  C  C106  1  0.77633000  0.00604000  0.50513000  1.0
  C  C107  1  0.27633000  0.49396000  0.99487000  1.0
  C  C108  1  0.24404000  0.04394000  0.94455000  1.0
  C  C109  1  0.25596000  0.54394000  0.44455000  1.0
  C  C110  1  0.24405000  0.04394000  0.55545000  1.0
  C  C111  1  0.74405000  0.45606000  0.94455000  1.0
  C  C112  1  0.75595000  0.95606000  0.05545000  1.0
  C  C113  1  0.74405000  0.45606000  0.55545000  1.0
  C  C114  1  0.75595000  0.95606000  0.44455000  1.0
  C  C115  1  0.25595000  0.54394000  0.05545000  1.0
  C  C116  1  0.17407000  0.98490000  0.88557000  1.0
  C  C117  1  0.32593000  0.48490000  0.38557000  1.0
  C  C118  1  0.17407000  0.98490000  0.61443000  1.0
  C  C119  1  0.67407000  0.51510000  0.88557000  1.0
  C  C120  1  0.82593000  0.01510000  0.11443000  1.0
  C  C121  1  0.67407000  0.51510000  0.61443000  1.0
  C  C122  1  0.82593000  0.01510000  0.38557000  1.0
  C  C123  1  0.32593000  0.48490000  0.11443000  1.0
  C  C124  1  0.47127000  0.82318000  0.88786000  1.0
  C  C125  1  0.02873000  0.32318000  0.38787000  1.0
  C  C126  1  0.47127000  0.82318000  0.61214000  1.0
  C  C127  1  0.97126000  0.67682000  0.88786000  1.0
  C  C128  1  0.52873000  0.17682000  0.11214000  1.0
  C  C129  1  0.97127000  0.67683000  0.61214000  1.0
  C  C130  1  0.52873000  0.17682000  0.38786000  1.0
  C  C131  1  0.02873000  0.32318000  0.11214000  1.0
  S  S132  1  0.36629000  0.92891000  0.83614000  1.0
  S  S133  1  0.13371000  0.42891000  0.33614000  1.0
  S  S134  1  0.36630000  0.92891000  0.66386000  1.0
  S  S135  1  0.86629000  0.57109000  0.83614000  1.0
  S  S136  1  0.63371000  0.07109000  0.16386000  1.0
  S  S137  1  0.86629000  0.57109000  0.66386000  1.0
  S  S138  1  0.63371000  0.07109000  0.33614000  1.0
  S  S139  1  0.13371000  0.42891000  0.16386000  1.0
  I  I140  1  0.86541000  0.86610000  0.75000000  1.0
  I  I141  1  0.63459000  0.36610000  0.25000000  1.0
  I  I142  1  0.36540000  0.63390000  0.75000000  1.0
  I  I143  1  0.13460000  0.13390000  0.25000000  1.0
