# generated using pymatgen
data_CuPH16C22(NO)2
_symmetry_space_group_name_H-M   'P 1'
_cell_length_a   8.89948000
_cell_length_b   15.26950000
_cell_length_c   16.03690000
_cell_angle_alpha   89.99970000
_cell_angle_beta   89.99930000
_cell_angle_gamma   86.47900000
_symmetry_Int_Tables_number   1
_chemical_formula_structural   CuPH16C22(NO)2
_chemical_formula_sum   'Cu4 P4 H64 C88 N8 O8'
_cell_volume   2175.15044606
_cell_formula_units_Z   4
loop_
 _symmetry_equiv_pos_site_id
 _symmetry_equiv_pos_as_xyz
  1  'x, y, z'
loop_
 _atom_site_type_symbol
 _atom_site_label
 _atom_site_symmetry_multiplicity
 _atom_site_fract_x
 _atom_site_fract_y
 _atom_site_fract_z
 _atom_site_occupancy
  Cu  Cu0  1  0.62813000  0.40714000  0.99559000  1.0
  Cu  Cu1  1  0.87186000  0.09287000  0.49559000  1.0
  Cu  Cu2  1  0.37186000  0.59286000  0.00441000  1.0
  Cu  Cu3  1  0.12813000  0.90714000  0.50441000  1.0
  P  P4  1  0.41476000  0.39918000  0.93308000  1.0
  P  P5  1  0.08525000  0.10082000  0.43308000  1.0
  P  P6  1  0.58525000  0.60082000  0.06692000  1.0
  P  P7  1  0.91476000  0.89918000  0.56691000  1.0
  H  H8  1  0.34011000  0.51892000  0.64326000  1.0
  H  H9  1  0.15990000  0.98108000  0.14326000  1.0
  H  H10  1  0.65989000  0.48108000  0.35674000  1.0
  H  H11  1  0.84012000  0.01892000  0.85674000  1.0
  H  H12  1  0.71919000  0.97714000  0.07048000  1.0
  H  H13  1  0.78080000  0.52286000  0.57048000  1.0
  H  H14  1  0.28083000  0.02286000  0.92953000  1.0
  H  H15  1  0.21918000  0.47714000  0.42952000  1.0
  H  H16  1  0.37640000  0.39622000  0.74538000  1.0
  H  H17  1  0.12361000  0.10378000  0.24538000  1.0
  H  H18  1  0.62360000  0.60378000  0.25462000  1.0
  H  H19  1  0.87641000  0.89622000  0.75462000  1.0
  H  H20  1  0.97931000  0.31392000  0.10638000  1.0
  H  H21  1  0.52068000  0.18608000  0.60638000  1.0
  H  H22  1  0.02068000  0.68608000  0.89361000  1.0
  H  H23  1  0.47932000  0.81392000  0.39361000  1.0
  H  H24  1  0.93806000  0.46650000  0.16429000  1.0
  H  H25  1  0.56193000  0.03350000  0.66429000  1.0
  H  H26  1  0.06194000  0.53350000  0.83571000  1.0
  H  H27  1  0.43807000  0.96650000  0.33572000  1.0
  H  H28  1  0.10731000  0.58322000  0.11472000  1.0
  H  H29  1  0.39267000  0.91678000  0.61473000  1.0
  H  H30  1  0.89268000  0.41678000  0.88528000  1.0
  H  H31  1  0.60732000  0.08322000  0.38528000  1.0
  H  H32  1  0.15187000  0.34509000  0.83252000  1.0
  H  H33  1  0.34814000  0.15491000  0.33252000  1.0
  H  H34  1  0.84813000  0.65491000  0.16748000  1.0
  H  H35  1  0.65186000  0.84509000  0.66748000  1.0
  H  H36  1  0.09790000  0.15315000  0.92879000  1.0
  H  H37  1  0.40210000  0.34685000  0.42879000  1.0
  H  H38  1  0.90211000  0.84686000  0.07121000  1.0
  H  H39  1  0.59789000  0.65314000  0.57121000  1.0
  H  H40  1  0.66390000  0.13648000  0.04233000  1.0
  H  H41  1  0.83609000  0.36352000  0.54234000  1.0
  H  H42  1  0.33611000  0.86351000  0.95767000  1.0
  H  H43  1  0.16390000  0.63649000  0.45766000  1.0
  H  H44  1  0.18255000  0.28432000  0.00096000  1.0
  H  H45  1  0.31745000  0.21568000  0.50096000  1.0
  H  H46  1  0.81745000  0.71568000  0.99904000  1.0
  H  H47  1  0.68255000  0.78432000  0.49904000  1.0
  H  H48  1  0.52988000  0.09171000  0.84849000  1.0
  H  H49  1  0.97013000  0.40829000  0.34849000  1.0
  H  H50  1  0.47012000  0.90830000  0.15151000  1.0
  H  H51  1  0.02987000  0.59170000  0.65151000  1.0
  H  H52  1  0.29434000  0.08059000  0.76534000  1.0
  H  H53  1  0.20566000  0.41940000  0.26534000  1.0
  H  H54  1  0.70566000  0.91941000  0.23466000  1.0
  H  H55  1  0.79434000  0.58059000  0.73466000  1.0
  H  H56  1  0.57709000  0.23164000  0.92122000  1.0
  H  H57  1  0.92292000  0.26835000  0.42122000  1.0
  H  H58  1  0.42291000  0.76836000  0.07878000  1.0
  H  H59  1  0.07708000  0.73164000  0.57878000  1.0
  H  H60  1  0.32872000  0.67508000  0.69621000  1.0
  H  H61  1  0.17128000  0.82492000  0.19621000  1.0
  H  H62  1  0.67127000  0.32492000  0.30379000  1.0
  H  H63  1  0.82873000  0.17508000  0.80379000  1.0
  H  H64  1  0.34543000  0.69881000  0.85115000  1.0
  H  H65  1  0.15456000  0.80119000  0.35116000  1.0
  H  H66  1  0.65456000  0.30120000  0.14885000  1.0
  H  H67  1  0.84543000  0.19880000  0.64885000  1.0
  H  H68  1  0.10629000  0.20793000  0.75870000  1.0
  H  H69  1  0.39372000  0.29207000  0.25870000  1.0
  H  H70  1  0.89371000  0.79207000  0.24130000  1.0
  H  H71  1  0.60628000  0.70793000  0.74131000  1.0
  C  C72  1  0.34864000  0.53275000  0.70971000  1.0
  C  C73  1  0.15137000  0.96725000  0.20971000  1.0
  C  C74  1  0.65137000  0.46725000  0.29029000  1.0
  C  C75  1  0.84865000  0.03275000  0.79029000  1.0
  C  C76  1  0.80284000  0.01612000  0.04081000  1.0
  C  C77  1  0.69716000  0.48388000  0.54081000  1.0
  C  C78  1  0.19718000  0.98388000  0.95920000  1.0
  C  C79  1  0.30283000  0.51612000  0.45919000  1.0
  C  C80  1  0.36893000  0.46402000  0.76660000  1.0
  C  C81  1  0.13108000  0.03598000  0.26660000  1.0
  C  C82  1  0.63108000  0.53598000  0.23339000  1.0
  C  C83  1  0.86893000  0.96402000  0.73340000  1.0
  C  C84  1  0.37903000  0.48327000  0.85175000  1.0
  C  C85  1  0.12098000  0.01673000  0.35175000  1.0
  C  C86  1  0.62097000  0.51673000  0.14825000  1.0
  C  C87  1  0.87903000  0.98327000  0.64825000  1.0
  C  C88  1  0.05038000  0.36590000  0.08719000  1.0
  C  C89  1  0.44961000  0.13410000  0.58719000  1.0
  C  C90  1  0.94962000  0.63410000  0.91281000  1.0
  C  C91  1  0.55039000  0.86590000  0.41281000  1.0
  C  C92  1  0.02715000  0.45056000  0.11921000  1.0
  C  C93  1  0.47284000  0.04944000  0.61921000  1.0
  C  C94  1  0.97285000  0.54944000  0.88079000  1.0
  C  C95  1  0.52716000  0.95056000  0.38079000  1.0
  C  C96  1  0.12016000  0.51519000  0.09311000  1.0
  C  C97  1  0.37983000  0.98481000  0.59311000  1.0
  C  C98  1  0.87984000  0.48481000  0.90690000  1.0
  C  C99  1  0.62016000  0.01519000  0.40690000  1.0
  C  C100  1  0.23726000  0.29086000  0.83440000  1.0
  C  C101  1  0.26274000  0.20914000  0.33440000  1.0
  C  C102  1  0.76274000  0.70914000  0.16560000  1.0
  C  C103  1  0.73726000  0.79086000  0.66560000  1.0
  C  C104  1  0.01757000  0.11514000  0.96233000  1.0
  C  C105  1  0.48244000  0.38486000  0.46232000  1.0
  C  C106  1  0.98245000  0.88486000  0.03767000  1.0
  C  C107  1  0.51755000  0.61514000  0.53767000  1.0
  C  C108  1  0.05519000  0.02565000  0.98047000  1.0
  C  C109  1  0.44482000  0.47435000  0.48046000  1.0
  C  C110  1  0.94484000  0.97435000  0.01954000  1.0
  C  C111  1  0.55517000  0.52565000  0.51953000  1.0
  C  C112  1  0.25315000  0.41735000  0.00465000  1.0
  C  C113  1  0.24685000  0.08265000  0.50466000  1.0
  C  C114  1  0.74684000  0.58265000  0.99534000  1.0
  C  C115  1  0.75315000  0.91735000  0.49534000  1.0
  C  C116  1  0.77183000  0.10402000  0.02493000  1.0
  C  C117  1  0.72817000  0.39598000  0.52493000  1.0
  C  C118  1  0.22818000  0.89598000  0.97507000  1.0
  C  C119  1  0.27182000  0.60402000  0.47507000  1.0
  C  C120  1  0.37097000  0.29822000  0.87978000  1.0
  C  C121  1  0.12904000  0.20178000  0.37978000  1.0
  C  C122  1  0.62904000  0.70178000  0.12021000  1.0
  C  C123  1  0.87096000  0.79822000  0.62022000  1.0
  C  C124  1  0.16403000  0.34920000  0.02855000  1.0
  C  C125  1  0.33596000  0.15080000  0.52855000  1.0
  C  C126  1  0.83596000  0.65080000  0.97145000  1.0
  C  C127  1  0.66403000  0.84920000  0.47145000  1.0
  C  C128  1  0.44781000  0.14758000  0.84387000  1.0
  C  C129  1  0.05220000  0.35243000  0.34387000  1.0
  C  C130  1  0.55219000  0.85243000  0.15613000  1.0
  C  C131  1  0.94780000  0.64757000  0.65613000  1.0
  C  C132  1  0.31628000  0.14144000  0.79736000  1.0
  C  C133  1  0.18373000  0.35856000  0.29736000  1.0
  C  C134  1  0.68373000  0.85856000  0.20264000  1.0
  C  C135  1  0.81627000  0.64144000  0.70264000  1.0
  C  C136  1  0.47531000  0.22583000  0.88462000  1.0
  C  C137  1  0.02469000  0.27417000  0.38462000  1.0
  C  C138  1  0.52469000  0.77417000  0.11539000  1.0
  C  C139  1  0.97531000  0.72583000  0.61539000  1.0
  C  C140  1  0.34011000  0.61917000  0.73870000  1.0
  C  C141  1  0.15989000  0.88083000  0.23870000  1.0
  C  C142  1  0.65989000  0.38083000  0.26130000  1.0
  C  C143  1  0.84012000  0.11917000  0.76130000  1.0
  C  C144  1  0.35289000  0.63315000  0.82405000  1.0
  C  C145  1  0.14711000  0.86685000  0.32405000  1.0
  C  C146  1  0.64711000  0.36685000  0.17595000  1.0
  C  C147  1  0.85289000  0.13314000  0.67595000  1.0
  C  C148  1  0.21105000  0.21314000  0.79285000  1.0
  C  C149  1  0.28895000  0.28685000  0.29285000  1.0
  C  C150  1  0.78895000  0.78686000  0.20715000  1.0
  C  C151  1  0.71105000  0.71314000  0.70715000  1.0
  C  C152  1  0.87868000  0.15434000  0.98381000  1.0
  C  C153  1  0.62132000  0.34566000  0.48381000  1.0
  C  C154  1  0.12132000  0.84566000  0.01619000  1.0
  C  C155  1  0.37867000  0.65434000  0.51619000  1.0
  C  C156  1  0.83620000  0.24836000  0.96014000  1.0
  C  C157  1  0.66380000  0.25164000  0.46014000  1.0
  C  C158  1  0.16380000  0.75164000  0.03986000  1.0
  C  C159  1  0.33619000  0.74836000  0.53986000  1.0
  N  N160  1  0.23327000  0.49862000  0.03814000  1.0
  N  N161  1  0.26672000  0.00138000  0.53814000  1.0
  N  N162  1  0.76672000  0.50138000  0.96186000  1.0
  N  N163  1  0.73327000  0.99862000  0.46186000  1.0
  N  N164  1  0.37308000  0.56707000  0.87947000  1.0
  N  N165  1  0.12692000  0.93293000  0.37947000  1.0
  N  N166  1  0.62692000  0.43293000  0.12053000  1.0
  N  N167  1  0.87308000  0.06707000  0.62053000  1.0
  O  O168  1  0.88794000  0.27854000  0.89392000  1.0
  O  O169  1  0.61205000  0.22146000  0.39392000  1.0
  O  O170  1  0.11204000  0.72146000  0.10608000  1.0
  O  O171  1  0.38794000  0.77854000  0.60608000  1.0
  O  O172  1  0.74406000  0.28884000  0.01109000  1.0
  O  O173  1  0.75594000  0.21116000  0.51109000  1.0
  O  O174  1  0.25594000  0.71117000  0.98891000  1.0
  O  O175  1  0.24405000  0.78884000  0.48891000  1.0
