# generated using pymatgen
data_CdPH20C16N7(ClO)2
_symmetry_space_group_name_H-M   'P 1'
_cell_length_a   13.93160000
_cell_length_b   14.21910000
_cell_length_c   26.40590000
_cell_angle_alpha   90.00000000
_cell_angle_beta   89.99960000
_cell_angle_gamma   91.38500000
_symmetry_Int_Tables_number   1
_chemical_formula_structural   CdPH20C16N7(ClO)2
_chemical_formula_sum   'Cd8 P8 H160 C128 N56 Cl16 O16'
_cell_volume   5229.34364773
_cell_formula_units_Z   8
loop_
 _symmetry_equiv_pos_site_id
 _symmetry_equiv_pos_as_xyz
  1  'x, y, z'
loop_
 _atom_site_type_symbol
 _atom_site_label
 _atom_site_symmetry_multiplicity
 _atom_site_fract_x
 _atom_site_fract_y
 _atom_site_fract_z
 _atom_site_occupancy
  Cd  Cd0  1  0.87479000  0.99496000  0.03210000  1.0
  Cd  Cd1  1  0.62135000  0.99785000  0.97364000  1.0
  Cd  Cd2  1  0.12521000  0.50502000  0.53211000  1.0
  Cd  Cd3  1  0.37864000  0.50214000  0.47364000  1.0
  Cd  Cd4  1  0.12521000  0.00503000  0.96790000  1.0
  Cd  Cd5  1  0.37864000  0.00215000  0.02636000  1.0
  Cd  Cd6  1  0.87480000  0.49497000  0.46789000  1.0
  Cd  Cd7  1  0.62136000  0.49784000  0.52636000  1.0
  P  P8  1  0.10316000  0.29427000  0.24494000  1.0
  P  P9  1  0.66700000  0.74876000  0.26458000  1.0
  P  P10  1  0.89684000  0.20574000  0.74494000  1.0
  P  P11  1  0.33299000  0.75123000  0.76458000  1.0
  P  P12  1  0.89683000  0.70574000  0.75506000  1.0
  P  P13  1  0.33299000  0.25123000  0.73542000  1.0
  P  P14  1  0.10316000  0.79427000  0.25506000  1.0
  P  P15  1  0.66700000  0.24877000  0.23542000  1.0
  H  H16  1  0.36930000  0.93907000  0.20793000  1.0
  H  H17  1  0.34175000  0.84531000  0.25076000  1.0
  H  H18  1  0.43559000  0.83323000  0.20536000  1.0
  H  H19  1  0.38669000  0.04236000  0.27110000  1.0
  H  H20  1  0.50791000  0.05888000  0.29249000  1.0
  H  H21  1  0.42291000  0.99630000  0.33078000  1.0
  H  H22  1  0.68483000  0.87523000  0.06816000  1.0
  H  H23  1  0.60633000  0.47011000  0.30798000  1.0
  H  H24  1  0.25968000  0.53682000  0.37272000  1.0
  H  H25  1  0.31196000  0.28583000  0.44455000  1.0
  H  H26  1  0.86726000  0.20662000  0.20509000  1.0
  H  H27  1  0.56037000  0.75890000  0.35191000  1.0
  H  H28  1  0.21738000  0.19349000  0.37867000  1.0
  H  H29  1  0.89854000  0.80325000  0.21076000  1.0
  H  H30  1  0.49578000  0.42155000  0.37895000  1.0
  H  H31  1  0.15241000  0.12817000  0.16159000  1.0
  H  H32  1  0.08061000  0.05757000  0.08232000  1.0
  H  H33  1  0.80678000  0.13327000  0.12445000  1.0
  H  H34  1  0.16094000  0.45710000  0.30457000  1.0
  H  H35  1  0.62205000  0.76978000  0.13718000  1.0
  H  H36  1  0.95139000  0.90265000  0.13736000  1.0
  H  H37  1  0.45738000  0.69707000  0.42180000  1.0
  H  H38  1  0.39637000  0.34302000  0.12244000  1.0
  H  H39  1  0.30176000  0.26786000  0.09848000  1.0
  H  H40  1  0.32903000  0.26862000  0.16463000  1.0
  H  H41  1  0.32616000  0.46933000  0.08383000  1.0
  H  H42  1  0.23017000  0.52566000  0.11641000  1.0
  H  H43  1  0.20392000  0.43889000  0.06951000  1.0
  H  H44  1  0.84857000  0.56498000  0.22370000  1.0
  H  H45  1  0.91225000  0.50633000  0.27248000  1.0
  H  H46  1  0.85085000  0.43943000  0.22559000  1.0
  H  H47  1  0.92908000  0.62794000  0.16371000  1.0
  H  H48  1  0.98569000  0.54559000  0.12272000  1.0
  H  H49  1  0.05615000  0.61828000  0.16371000  1.0
  H  H50  1  0.76746000  0.04811000  0.40506000  1.0
  H  H51  1  0.65175000  0.99354000  0.41411000  1.0
  H  H52  1  0.67679000  0.05694000  0.35739000  1.0
  H  H53  1  0.86746000  0.93360000  0.40685000  1.0
  H  H54  1  0.87526000  0.85638000  0.35386000  1.0
  H  H55  1  0.80663000  0.82150000  0.40768000  1.0
  H  H56  1  0.63070000  0.56094000  0.70793000  1.0
  H  H57  1  0.65824000  0.65470000  0.75077000  1.0
  H  H58  1  0.56440000  0.66677000  0.70536000  1.0
  H  H59  1  0.61331000  0.45764000  0.77111000  1.0
  H  H60  1  0.49209000  0.44113000  0.79249000  1.0
  H  H61  1  0.57710000  0.50371000  0.83078000  1.0
  H  H62  1  0.31518000  0.62477000  0.56816000  1.0
  H  H63  1  0.39367000  0.02988000  0.80798000  1.0
  H  H64  1  0.74029000  0.96317000  0.87270000  1.0
  H  H65  1  0.68805000  0.21415000  0.94456000  1.0
  H  H66  1  0.13273000  0.29339000  0.70510000  1.0
  H  H67  1  0.43962000  0.74109000  0.85192000  1.0
  H  H68  1  0.78265000  0.30650000  0.87869000  1.0
  H  H69  1  0.10145000  0.69675000  0.71075000  1.0
  H  H70  1  0.50422000  0.07844000  0.87895000  1.0
  H  H71  1  0.84758000  0.37183000  0.66159000  1.0
  H  H72  1  0.91939000  0.44242000  0.58232000  1.0
  H  H73  1  0.19322000  0.36673000  0.62446000  1.0
  H  H74  1  0.83904000  0.04290000  0.80456000  1.0
  H  H75  1  0.37796000  0.73022000  0.63718000  1.0
  H  H76  1  0.04862000  0.59736000  0.63735000  1.0
  H  H77  1  0.54262000  0.80292000  0.92181000  1.0
  H  H78  1  0.60362000  0.15698000  0.62245000  1.0
  H  H79  1  0.69824000  0.23214000  0.59849000  1.0
  H  H80  1  0.67096000  0.23138000  0.66464000  1.0
  H  H81  1  0.67384000  0.03067000  0.58384000  1.0
  H  H82  1  0.76982000  0.97434000  0.61642000  1.0
  H  H83  1  0.79608000  0.06112000  0.56952000  1.0
  H  H84  1  0.15142000  0.93502000  0.72370000  1.0
  H  H85  1  0.08775000  0.99367000  0.77248000  1.0
  H  H86  1  0.14915000  0.06058000  0.72559000  1.0
  H  H87  1  0.07093000  0.87207000  0.66370000  1.0
  H  H88  1  0.01431000  0.95442000  0.62272000  1.0
  H  H89  1  0.94385000  0.88172000  0.66370000  1.0
  H  H90  1  0.23255000  0.45190000  0.90508000  1.0
  H  H91  1  0.34826000  0.50649000  0.91412000  1.0
  H  H92  1  0.32322000  0.44307000  0.85741000  1.0
  H  H93  1  0.13254000  0.56640000  0.90686000  1.0
  H  H94  1  0.12475000  0.64362000  0.85387000  1.0
  H  H95  1  0.19338000  0.67850000  0.90769000  1.0
  H  H96  1  0.63070000  0.06094000  0.79208000  1.0
  H  H97  1  0.65825000  0.15470000  0.74924000  1.0
  H  H98  1  0.56440000  0.16677000  0.79464000  1.0
  H  H99  1  0.61332000  0.95765000  0.72889000  1.0
  H  H100  1  0.49209000  0.94112000  0.70752000  1.0
  H  H101  1  0.57708000  0.00370000  0.66922000  1.0
  H  H102  1  0.31517000  0.12475000  0.93184000  1.0
  H  H103  1  0.39368000  0.52989000  0.69202000  1.0
  H  H104  1  0.74030000  0.46316000  0.62729000  1.0
  H  H105  1  0.68807000  0.71415000  0.55543000  1.0
  H  H106  1  0.13272000  0.79336000  0.79491000  1.0
  H  H107  1  0.43962000  0.24109000  0.64809000  1.0
  H  H108  1  0.78265000  0.80650000  0.62131000  1.0
  H  H109  1  0.10145000  0.19675000  0.78925000  1.0
  H  H110  1  0.50422000  0.57844000  0.62105000  1.0
  H  H111  1  0.84758000  0.87185000  0.83841000  1.0
  H  H112  1  0.91938000  0.94244000  0.91768000  1.0
  H  H113  1  0.19321000  0.86670000  0.87555000  1.0
  H  H114  1  0.83904000  0.54290000  0.69544000  1.0
  H  H115  1  0.37795000  0.23021000  0.86281000  1.0
  H  H116  1  0.04861000  0.09735000  0.86265000  1.0
  H  H117  1  0.54261000  0.30292000  0.57820000  1.0
  H  H118  1  0.60362000  0.65698000  0.87755000  1.0
  H  H119  1  0.69824000  0.73214000  0.90152000  1.0
  H  H120  1  0.67097000  0.73138000  0.83537000  1.0
  H  H121  1  0.67384000  0.53067000  0.91617000  1.0
  H  H122  1  0.76983000  0.47435000  0.88359000  1.0
  H  H123  1  0.79608000  0.56112000  0.93049000  1.0
  H  H124  1  0.15143000  0.43503000  0.77630000  1.0
  H  H125  1  0.08775000  0.49368000  0.72751000  1.0
  H  H126  1  0.14914000  0.56059000  0.77441000  1.0
  H  H127  1  0.07093000  0.37208000  0.83630000  1.0
  H  H128  1  0.01431000  0.45443000  0.87728000  1.0
  H  H129  1  0.94385000  0.38172000  0.83630000  1.0
  H  H130  1  0.23256000  0.95190000  0.59493000  1.0
  H  H131  1  0.34827000  0.00649000  0.58588000  1.0
  H  H132  1  0.32323000  0.94307000  0.64259000  1.0
  H  H133  1  0.13255000  0.06641000  0.59314000  1.0
  H  H134  1  0.12476000  0.14363000  0.64613000  1.0
  H  H135  1  0.19339000  0.17850000  0.59231000  1.0
  H  H136  1  0.36930000  0.43907000  0.29207000  1.0
  H  H137  1  0.34175000  0.34531000  0.24923000  1.0
  H  H138  1  0.43559000  0.33323000  0.29464000  1.0
  H  H139  1  0.38669000  0.54236000  0.22889000  1.0
  H  H140  1  0.50791000  0.55887000  0.20751000  1.0
  H  H141  1  0.42290000  0.49630000  0.16922000  1.0
  H  H142  1  0.68485000  0.37523000  0.43184000  1.0
  H  H143  1  0.60633000  0.97012000  0.19202000  1.0
  H  H144  1  0.25970000  0.03683000  0.12730000  1.0
  H  H145  1  0.31194000  0.78585000  0.05544000  1.0
  H  H146  1  0.86727000  0.70661000  0.29491000  1.0
  H  H147  1  0.56038000  0.25891000  0.14808000  1.0
  H  H148  1  0.21735000  0.69350000  0.12131000  1.0
  H  H149  1  0.89854000  0.30326000  0.28924000  1.0
  H  H150  1  0.49579000  0.92156000  0.12105000  1.0
  H  H151  1  0.15242000  0.62817000  0.33841000  1.0
  H  H152  1  0.08063000  0.55759000  0.41768000  1.0
  H  H153  1  0.80679000  0.63327000  0.37555000  1.0
  H  H154  1  0.16096000  0.95710000  0.19544000  1.0
  H  H155  1  0.62206000  0.26977000  0.36282000  1.0
  H  H156  1  0.95139000  0.40266000  0.36264000  1.0
  H  H157  1  0.45738000  0.19708000  0.07820000  1.0
  H  H158  1  0.39638000  0.84302000  0.37755000  1.0
  H  H159  1  0.30176000  0.76786000  0.40151000  1.0
  H  H160  1  0.32903000  0.76862000  0.33536000  1.0
  H  H161  1  0.32617000  0.96933000  0.41616000  1.0
  H  H162  1  0.23017000  0.02565000  0.38359000  1.0
  H  H163  1  0.20393000  0.93888000  0.43049000  1.0
  H  H164  1  0.84858000  0.06499000  0.27630000  1.0
  H  H165  1  0.91226000  0.00633000  0.22751000  1.0
  H  H166  1  0.85085000  0.93943000  0.27441000  1.0
  H  H167  1  0.92907000  0.12793000  0.33629000  1.0
  H  H168  1  0.98569000  0.04559000  0.37728000  1.0
  H  H169  1  0.05614000  0.11829000  0.33629000  1.0
  H  H170  1  0.76746000  0.54811000  0.09493000  1.0
  H  H171  1  0.65174000  0.49353000  0.08589000  1.0
  H  H172  1  0.67679000  0.55694000  0.14260000  1.0
  H  H173  1  0.86745000  0.43361000  0.09314000  1.0
  H  H174  1  0.87525000  0.35638000  0.14614000  1.0
  H  H175  1  0.80662000  0.32151000  0.09232000  1.0
  C  C176  1  0.40030000  0.88276000  0.23051000  1.0
  C  C177  1  0.44590000  0.01001000  0.29155000  1.0
  C  C178  1  0.73041000  0.85709000  0.10010000  1.0
  C  C179  1  0.18472000  0.31887000  0.33646000  1.0
  C  C180  1  0.57246000  0.52217000  0.33177000  1.0
  C  C181  1  0.01371000  0.16690000  0.18993000  1.0
  C  C182  1  0.24887000  0.46056000  0.37219000  1.0
  C  C183  1  0.27834000  0.32032000  0.41242000  1.0
  C  C184  1  0.91628000  0.17250000  0.17935000  1.0
  C  C185  1  0.75673000  0.77792000  0.17830000  1.0
  C  C186  1  0.54771000  0.68346000  0.35569000  1.0
  C  C187  1  0.22626000  0.26963000  0.37629000  1.0
  C  C188  1  0.84983000  0.81555000  0.17934000  1.0
  C  C189  1  0.51127000  0.49551000  0.37091000  1.0
  C  C190  1  0.07553000  0.12850000  0.15461000  1.0
  C  C191  1  0.03550000  0.09046000  0.11060000  1.0
  C  C192  1  0.18722000  0.38034000  0.17465000  1.0
  C  C193  1  0.04581000  0.44268000  0.20591000  1.0
  C  C194  1  0.58918000  0.61798000  0.32341000  1.0
  C  C195  1  0.88282000  0.13262000  0.13438000  1.0
  C  C196  1  0.19451000  0.41661000  0.33441000  1.0
  C  C197  1  0.69521000  0.79834000  0.13844000  1.0
  C  C198  1  0.87863000  0.87261000  0.13894000  1.0
  C  C199  1  0.48912000  0.64934000  0.39455000  1.0
  C  C200  1  0.32487000  0.31237000  0.13072000  1.0
  C  C201  1  0.25408000  0.45950000  0.10008000  1.0
  C  C202  1  0.89292000  0.50456000  0.23227000  1.0
  C  C203  1  0.98799000  0.57878000  0.16036000  1.0
  C  C204  1  0.69301000  0.88272000  0.32483000  1.0
  C  C205  1  0.55320000  0.88004000  0.27613000  1.0
  C  C206  1  0.70789000  0.01087000  0.38596000  1.0
  C  C207  1  0.82784000  0.88191000  0.38368000  1.0
  C  C208  1  0.59970000  0.61725000  0.73051000  1.0
  C  C209  1  0.55410000  0.48999000  0.79155000  1.0
  C  C210  1  0.26960000  0.64291000  0.60010000  1.0
  C  C211  1  0.81529000  0.18113000  0.83647000  1.0
  C  C212  1  0.42753000  0.97782000  0.83177000  1.0
  C  C213  1  0.98628000  0.33311000  0.68993000  1.0
  C  C214  1  0.75111000  0.03943000  0.87218000  1.0
  C  C215  1  0.72167000  0.17967000  0.91243000  1.0
  C  C216  1  0.08371000  0.32751000  0.67936000  1.0
  C  C217  1  0.24327000  0.72208000  0.67829000  1.0
  C  C218  1  0.45228000  0.81653000  0.85569000  1.0
  C  C219  1  0.77376000  0.23035000  0.87630000  1.0
  C  C220  1  0.15017000  0.68445000  0.67933000  1.0
  C  C221  1  0.48873000  0.00447000  0.87091000  1.0
  C  C222  1  0.92447000  0.37150000  0.65462000  1.0
  C  C223  1  0.96450000  0.40954000  0.61060000  1.0
  C  C224  1  0.81278000  0.11966000  0.67466000  1.0
  C  C225  1  0.95419000  0.05733000  0.70591000  1.0
  C  C226  1  0.41082000  0.88201000  0.82342000  1.0
  C  C227  1  0.11717000  0.36738000  0.63438000  1.0
  C  C228  1  0.80547000  0.08338000  0.83440000  1.0
  C  C229  1  0.30479000  0.70166000  0.63844000  1.0
  C  C230  1  0.12137000  0.62739000  0.63894000  1.0
  C  C231  1  0.51088000  0.85064000  0.89456000  1.0
  C  C232  1  0.67512000  0.18764000  0.63073000  1.0
  C  C233  1  0.74591000  0.04050000  0.60009000  1.0
  C  C234  1  0.10708000  0.99544000  0.73227000  1.0
  C  C235  1  0.01202000  0.92123000  0.66035000  1.0
  C  C236  1  0.30698000  0.61727000  0.82483000  1.0
  C  C237  1  0.44679000  0.61996000  0.77613000  1.0
  C  C238  1  0.29212000  0.48914000  0.88597000  1.0
  C  C239  1  0.17216000  0.61809000  0.88369000  1.0
  C  C240  1  0.59970000  0.11725000  0.76950000  1.0
  C  C241  1  0.55410000  0.98999000  0.70846000  1.0
  C  C242  1  0.26959000  0.14290000  0.89990000  1.0
  C  C243  1  0.81528000  0.68113000  0.66353000  1.0
  C  C244  1  0.42754000  0.47783000  0.66824000  1.0
  C  C245  1  0.98627000  0.83311000  0.81007000  1.0
  C  C246  1  0.75113000  0.53943000  0.62781000  1.0
  C  C247  1  0.72168000  0.67966000  0.58757000  1.0
  C  C248  1  0.08371000  0.82749000  0.82065000  1.0
  C  C249  1  0.24327000  0.22207000  0.82170000  1.0
  C  C250  1  0.45228000  0.31654000  0.64432000  1.0
  C  C251  1  0.77376000  0.73035000  0.62369000  1.0
  C  C252  1  0.15016000  0.18444000  0.82066000  1.0
  C  C253  1  0.48874000  0.50448000  0.62909000  1.0
  C  C254  1  0.92447000  0.87151000  0.84538000  1.0
  C  C255  1  0.96450000  0.90954000  0.88939000  1.0
  C  C256  1  0.81277000  0.61966000  0.82535000  1.0
  C  C257  1  0.95419000  0.55732000  0.79409000  1.0
  C  C258  1  0.41082000  0.38201000  0.67659000  1.0
  C  C259  1  0.11717000  0.86737000  0.86562000  1.0
  C  C260  1  0.80547000  0.58338000  0.66560000  1.0
  C  C261  1  0.30478000  0.20165000  0.86156000  1.0
  C  C262  1  0.12137000  0.12738000  0.86106000  1.0
  C  C263  1  0.51088000  0.35064000  0.60545000  1.0
  C  C264  1  0.67512000  0.68763000  0.86928000  1.0
  C  C265  1  0.74591000  0.54050000  0.89992000  1.0
  C  C266  1  0.10708000  0.49545000  0.76773000  1.0
  C  C267  1  0.01201000  0.42123000  0.83964000  1.0
  C  C268  1  0.30699000  0.11727000  0.67517000  1.0
  C  C269  1  0.44679000  0.11996000  0.72388000  1.0
  C  C270  1  0.29213000  0.98914000  0.61403000  1.0
  C  C271  1  0.17217000  0.11810000  0.61631000  1.0
  C  C272  1  0.40030000  0.38276000  0.26949000  1.0
  C  C273  1  0.44589000  0.51001000  0.20845000  1.0
  C  C274  1  0.73042000  0.35709000  0.39990000  1.0
  C  C275  1  0.18471000  0.81887000  0.16353000  1.0
  C  C276  1  0.57247000  0.02218000  0.16823000  1.0
  C  C277  1  0.01372000  0.66689000  0.31007000  1.0
  C  C278  1  0.24888000  0.96057000  0.12782000  1.0
  C  C279  1  0.27832000  0.82034000  0.08757000  1.0
  C  C280  1  0.91629000  0.67249000  0.32065000  1.0
  C  C281  1  0.75673000  0.27793000  0.32170000  1.0
  C  C282  1  0.54772000  0.18347000  0.14431000  1.0
  C  C283  1  0.22624000  0.76965000  0.12370000  1.0
  C  C284  1  0.84983000  0.31555000  0.32065000  1.0
  C  C285  1  0.51127000  0.99552000  0.12909000  1.0
  C  C286  1  0.07553000  0.62850000  0.34539000  1.0
  C  C287  1  0.03551000  0.59047000  0.38940000  1.0
  C  C288  1  0.18722000  0.88034000  0.32535000  1.0
  C  C289  1  0.04581000  0.94268000  0.29409000  1.0
  C  C290  1  0.58918000  0.11799000  0.17658000  1.0
  C  C291  1  0.88283000  0.63262000  0.36562000  1.0
  C  C292  1  0.19452000  0.91662000  0.16560000  1.0
  C  C293  1  0.69522000  0.29833000  0.36156000  1.0
  C  C294  1  0.87864000  0.37262000  0.36105000  1.0
  C  C295  1  0.48912000  0.14935000  0.10544000  1.0
  C  C296  1  0.32488000  0.81236000  0.36927000  1.0
  C  C297  1  0.25409000  0.95950000  0.39992000  1.0
  C  C298  1  0.89292000  0.00456000  0.26773000  1.0
  C  C299  1  0.98798000  0.07878000  0.33964000  1.0
  C  C300  1  0.69301000  0.38273000  0.17517000  1.0
  C  C301  1  0.55320000  0.38004000  0.22387000  1.0
  C  C302  1  0.70788000  0.51087000  0.11404000  1.0
  C  C303  1  0.82784000  0.38191000  0.11632000  1.0
  N  N304  1  0.94076000  0.09038000  0.10113000  1.0
  N  N305  1  0.82040000  0.89316000  0.10019000  1.0
  N  N306  1  0.46924000  0.55764000  0.40162000  1.0
  N  N307  1  0.29063000  0.41413000  0.41007000  1.0
  N  N308  1  0.25814000  0.38778000  0.13925000  1.0
  N  N309  1  0.97848000  0.50898000  0.20053000  1.0
  N  N310  1  0.74471000  0.92711000  0.36176000  1.0
  N  N311  1  0.47029000  0.92375000  0.26532000  1.0
  N  N312  1  0.02960000  0.37817000  0.24358000  1.0
  N  N313  1  0.19206000  0.30628000  0.20755000  1.0
  N  N314  1  0.12002000  0.44687000  0.17298000  1.0
  N  N315  1  0.73256000  0.80443000  0.30451000  1.0
  N  N316  1  0.57138000  0.80030000  0.24918000  1.0
  N  N317  1  0.60799000  0.92049000  0.31276000  1.0
  N  N318  1  0.05924000  0.40962000  0.60113000  1.0
  N  N319  1  0.17961000  0.60684000  0.60018000  1.0
  N  N320  1  0.53075000  0.94235000  0.90162000  1.0
  N  N321  1  0.70936000  0.08585000  0.91007000  1.0
  N  N322  1  0.74185000  0.11222000  0.63926000  1.0
  N  N323  1  0.02152000  0.99102000  0.70053000  1.0
  N  N324  1  0.25529000  0.57290000  0.86177000  1.0
  N  N325  1  0.52971000  0.57625000  0.76532000  1.0
  N  N326  1  0.97040000  0.12184000  0.74358000  1.0
  N  N327  1  0.80793000  0.19372000  0.70756000  1.0
  N  N328  1  0.87998000  0.05314000  0.67298000  1.0
  N  N329  1  0.26743000  0.69557000  0.80451000  1.0
  N  N330  1  0.42861000  0.69970000  0.74918000  1.0
  N  N331  1  0.39200000  0.57951000  0.81276000  1.0
  N  N332  1  0.05923000  0.90961000  0.89887000  1.0
  N  N333  1  0.17960000  0.10683000  0.89981000  1.0
  N  N334  1  0.53076000  0.44235000  0.59838000  1.0
  N  N335  1  0.70937000  0.58585000  0.58993000  1.0
  N  N336  1  0.74185000  0.61222000  0.86074000  1.0
  N  N337  1  0.02151000  0.49103000  0.79946000  1.0
  N  N338  1  0.25530000  0.07290000  0.63824000  1.0
  N  N339  1  0.52971000  0.07625000  0.73468000  1.0
  N  N340  1  0.97040000  0.62184000  0.75642000  1.0
  N  N341  1  0.80793000  0.69373000  0.79245000  1.0
  N  N342  1  0.87998000  0.55314000  0.82702000  1.0
  N  N343  1  0.26743000  0.19557000  0.69549000  1.0
  N  N344  1  0.42861000  0.19970000  0.75083000  1.0
  N  N345  1  0.39201000  0.07951000  0.68724000  1.0
  N  N346  1  0.94077000  0.59039000  0.39887000  1.0
  N  N347  1  0.82040000  0.39316000  0.39981000  1.0
  N  N348  1  0.46925000  0.05765000  0.09838000  1.0
  N  N349  1  0.29064000  0.91414000  0.08993000  1.0
  N  N350  1  0.25815000  0.88778000  0.36074000  1.0
  N  N351  1  0.97849000  0.00898000  0.29947000  1.0
  N  N352  1  0.74471000  0.42711000  0.13824000  1.0
  N  N353  1  0.47029000  0.42375000  0.23468000  1.0
  N  N354  1  0.02960000  0.87816000  0.25642000  1.0
  N  N355  1  0.19206000  0.80628000  0.29245000  1.0
  N  N356  1  0.12002000  0.94686000  0.32702000  1.0
  N  N357  1  0.73257000  0.30443000  0.19549000  1.0
  N  N358  1  0.57138000  0.30030000  0.25082000  1.0
  N  N359  1  0.60799000  0.42049000  0.18724000  1.0
  Cl  Cl360  1  0.71445000  0.09100000  0.04351000  1.0
  Cl  Cl361  1  0.76798000  0.88153000  0.97026000  1.0
  Cl  Cl362  1  0.96298000  0.10342000  0.96641000  1.0
  Cl  Cl363  1  0.51485000  0.87110000  0.02338000  1.0
  Cl  Cl364  1  0.28555000  0.40899000  0.54351000  1.0
  Cl  Cl365  1  0.23203000  0.61847000  0.47026000  1.0
  Cl  Cl366  1  0.03704000  0.39658000  0.46640000  1.0
  Cl  Cl367  1  0.48515000  0.62889000  0.52338000  1.0
  Cl  Cl368  1  0.28554000  0.90899000  0.95649000  1.0
  Cl  Cl369  1  0.23202000  0.11847000  0.02974000  1.0
  Cl  Cl370  1  0.03703000  0.89657000  0.03359000  1.0
  Cl  Cl371  1  0.48515000  0.12890000  0.97662000  1.0
  Cl  Cl372  1  0.71446000  0.59099000  0.45649000  1.0
  Cl  Cl373  1  0.76799000  0.38152000  0.52974000  1.0
  Cl  Cl374  1  0.96298000  0.60342000  0.53359000  1.0
  Cl  Cl375  1  0.51485000  0.37109000  0.47662000  1.0
  O  O376  1  0.04766000  0.19422000  0.23733000  1.0
  O  O377  1  0.13414000  0.26552000  0.30164000  1.0
  O  O378  1  0.64712000  0.64096000  0.28272000  1.0
  O  O379  1  0.72713000  0.71510000  0.21612000  1.0
  O  O380  1  0.95234000  0.30579000  0.73733000  1.0
  O  O381  1  0.86587000  0.23448000  0.80165000  1.0
  O  O382  1  0.35287000  0.85903000  0.78273000  1.0
  O  O383  1  0.27287000  0.78490000  0.71612000  1.0
  O  O384  1  0.95233000  0.80579000  0.76267000  1.0
  O  O385  1  0.86585000  0.73448000  0.69836000  1.0
  O  O386  1  0.35287000  0.35903000  0.71728000  1.0
  O  O387  1  0.27286000  0.28489000  0.78388000  1.0
  O  O388  1  0.04766000  0.69422000  0.26267000  1.0
  O  O389  1  0.13413000  0.76552000  0.19836000  1.0
  O  O390  1  0.64712000  0.14097000  0.21727000  1.0
  O  O391  1  0.72713000  0.21510000  0.28388000  1.0
