# generated using pymatgen
data_PrH19C32N4O5
_symmetry_space_group_name_H-M   'P 1'
_cell_length_a   8.79797000
_cell_length_b   8.79795000
_cell_length_c   17.34170000
_cell_angle_alpha   91.78380000
_cell_angle_beta   91.78420000
_cell_angle_gamma   106.28000000
_symmetry_Int_Tables_number   1
_chemical_formula_structural   PrH19C32N4O5
_chemical_formula_sum   'Pr2 H38 C64 N8 O10'
_cell_volume   1286.75961537
_cell_formula_units_Z   2
loop_
 _symmetry_equiv_pos_site_id
 _symmetry_equiv_pos_as_xyz
  1  'x, y, z'
loop_
 _atom_site_type_symbol
 _atom_site_label
 _atom_site_symmetry_multiplicity
 _atom_site_fract_x
 _atom_site_fract_y
 _atom_site_fract_z
 _atom_site_occupancy
  Pr  Pr0  1  0.29036000  0.70964000  0.25000000  1.0
  Pr  Pr1  1  0.70964000  0.29036000  0.75000000  1.0
  H  H2  1  0.82473000  0.77969000  0.21485000  1.0
  H  H3  1  0.22031000  0.17527000  0.28515000  1.0
  H  H4  1  0.17527000  0.22031000  0.78515000  1.0
  H  H5  1  0.77969000  0.82473000  0.71485000  1.0
  H  H6  1  0.75643000  0.24357000  0.25000000  1.0
  H  H7  1  0.24357000  0.75643000  0.75000000  1.0
  H  H8  1  0.14328000  0.91217000  0.11438000  1.0
  H  H9  1  0.08783000  0.85672000  0.38562000  1.0
  H  H10  1  0.85672000  0.08783000  0.88562000  1.0
  H  H11  1  0.91217000  0.14328000  0.61438000  1.0
  H  H12  1  0.07378000  0.93013000  0.97370000  1.0
  H  H13  1  0.06987000  0.92623000  0.52630000  1.0
  H  H14  1  0.92623000  0.06987000  0.02630000  1.0
  H  H15  1  0.93013000  0.07377000  0.47370000  1.0
  H  H16  1  0.10075000  0.71620000  0.88027000  1.0
  H  H17  1  0.28380000  0.89925000  0.61973000  1.0
  H  H18  1  0.89925000  0.28380000  0.11973000  1.0
  H  H19  1  0.71620000  0.10075000  0.38027000  1.0
  H  H20  1  0.18235000  0.47457000  0.85632000  1.0
  H  H21  1  0.52543000  0.81765000  0.64368000  1.0
  H  H22  1  0.81765000  0.52543000  0.14368000  1.0
  H  H23  1  0.47457000  0.18235000  0.35632000  1.0
  H  H24  1  0.31036000  0.27301000  0.90428000  1.0
  H  H25  1  0.72699000  0.68964000  0.59572000  1.0
  H  H26  1  0.68964000  0.72700000  0.09572000  1.0
  H  H27  1  0.27301000  0.31036000  0.40428000  1.0
  H  H28  1  0.40983000  0.15000000  0.01407000  1.0
  H  H29  1  0.85000000  0.59018000  0.48593000  1.0
  H  H30  1  0.59017000  0.85000000  0.98593000  1.0
  H  H31  1  0.15000000  0.40983000  0.51407000  1.0
  H  H32  1  0.46719000  0.14944000  0.15837000  1.0
  H  H33  1  0.85055000  0.53281000  0.34163000  1.0
  H  H34  1  0.53281000  0.85055000  0.84163000  1.0
  H  H35  1  0.14944000  0.46719000  0.65837000  1.0
  H  H36  1  0.41386000  0.36090000  0.24233000  1.0
  H  H37  1  0.63909000  0.58614000  0.25767000  1.0
  H  H38  1  0.58614000  0.63909000  0.75767000  1.0
  H  H39  1  0.36091000  0.41386000  0.74233000  1.0
  C  C40  1  0.59789000  0.92762000  0.22291000  1.0
  C  C41  1  0.07238000  0.40211000  0.27709000  1.0
  C  C42  1  0.40211000  0.07238000  0.77709000  1.0
  C  C43  1  0.92762000  0.59789000  0.72291000  1.0
  C  C44  1  0.77227000  0.00325000  0.23297000  1.0
  C  C45  1  0.99675000  0.22773000  0.26703000  1.0
  C  C46  1  0.22773000  0.99675000  0.76702000  1.0
  C  C47  1  0.00325000  0.77227000  0.73297000  1.0
  C  C48  1  0.87264000  0.90517000  0.23015000  1.0
  C  C49  1  0.09483000  0.12736000  0.26985000  1.0
  C  C50  1  0.12736000  0.09483000  0.76985000  1.0
  C  C51  1  0.90517000  0.87264000  0.73015000  1.0
  C  C52  1  0.03617000  0.96382000  0.25000000  1.0
  C  C53  1  0.96383000  0.03618000  0.75000000  1.0
  C  C54  1  0.83379000  0.16621000  0.25000000  1.0
  C  C55  1  0.16621000  0.83379000  0.75000000  1.0
  C  C56  1  0.15753000  0.82415000  0.07160000  1.0
  C  C57  1  0.17585000  0.84248000  0.42840000  1.0
  C  C58  1  0.84247000  0.17585000  0.92840000  1.0
  C  C59  1  0.82415000  0.15753000  0.57160000  1.0
  C  C60  1  0.11721000  0.83265000  0.99303000  1.0
  C  C61  1  0.16735000  0.88279000  0.50697000  1.0
  C  C62  1  0.88279000  0.16735000  0.00697000  1.0
  C  C63  1  0.83265000  0.11721000  0.49303000  1.0
  C  C64  1  0.13305000  0.71587000  0.94145000  1.0
  C  C65  1  0.28413000  0.86695000  0.55855000  1.0
  C  C66  1  0.86695000  0.28413000  0.05855000  1.0
  C  C67  1  0.71587000  0.13305000  0.44145000  1.0
  C  C68  1  0.19396000  0.59388000  0.96830000  1.0
  C  C69  1  0.40612000  0.80605000  0.53170000  1.0
  C  C70  1  0.80605000  0.40612000  0.03170000  1.0
  C  C71  1  0.59388000  0.19396000  0.46830000  1.0
  C  C72  1  0.21844000  0.47309000  0.91704000  1.0
  C  C73  1  0.52691000  0.78156000  0.58296000  1.0
  C  C74  1  0.78156000  0.52691000  0.08296000  1.0
  C  C75  1  0.47309000  0.21844000  0.41704000  1.0
  C  C76  1  0.28424000  0.36062000  0.94382000  1.0
  C  C77  1  0.63938000  0.71577000  0.55618000  1.0
  C  C78  1  0.71576000  0.63938000  0.05618000  1.0
  C  C79  1  0.36062000  0.28424000  0.44382000  1.0
  C  C80  1  0.32443000  0.35749000  0.02421000  1.0
  C  C81  1  0.64250000  0.67557000  0.47579000  1.0
  C  C82  1  0.67557000  0.64251000  0.97579000  1.0
  C  C83  1  0.35750000  0.32443000  0.52421000  1.0
  C  C84  1  0.38842000  0.23974000  0.05386000  1.0
  C  C85  1  0.76026000  0.61158000  0.44614000  1.0
  C  C86  1  0.61158000  0.76026000  0.94614000  1.0
  C  C87  1  0.23974000  0.38842000  0.55385000  1.0
  C  C88  1  0.42146000  0.23966000  0.13219000  1.0
  C  C89  1  0.76033000  0.57855000  0.36781000  1.0
  C  C90  1  0.57855000  0.76033000  0.86781000  1.0
  C  C91  1  0.23967000  0.42145000  0.63219000  1.0
  C  C92  1  0.39083000  0.35873000  0.18010000  1.0
  C  C93  1  0.64126000  0.60917000  0.31990000  1.0
  C  C94  1  0.60917000  0.64126000  0.81990000  1.0
  C  C95  1  0.35874000  0.39083000  0.68010000  1.0
  C  C96  1  0.29817000  0.47343000  0.07743000  1.0
  C  C97  1  0.52657000  0.70183000  0.42257000  1.0
  C  C98  1  0.70183000  0.52657000  0.92257000  1.0
  C  C99  1  0.47343000  0.29817000  0.57743000  1.0
  C  C100  1  0.23407000  0.59596000  0.04858000  1.0
  C  C101  1  0.40404000  0.76593000  0.45142000  1.0
  C  C102  1  0.76593000  0.40404000  0.95142000  1.0
  C  C103  1  0.59596000  0.23407000  0.54858000  1.0
  N  N104  1  0.21349000  0.70963000  0.09897000  1.0
  N  N105  1  0.29036000  0.78651000  0.40103000  1.0
  N  N106  1  0.78651000  0.29037000  0.90103000  1.0
  N  N107  1  0.70963000  0.21349000  0.59897000  1.0
  N  N108  1  0.33148000  0.47228000  0.15447000  1.0
  N  N109  1  0.52771000  0.66852000  0.34553000  1.0
  N  N110  1  0.66852000  0.52772000  0.84553000  1.0
  N  N111  1  0.47228000  0.33148000  0.65447000  1.0
  O  O112  1  0.54796000  0.79667000  0.18304000  1.0
  O  O113  1  0.20333000  0.45204000  0.31696000  1.0
  O  O114  1  0.45204000  0.20333000  0.81696000  1.0
  O  O115  1  0.79667000  0.54796000  0.68304000  1.0
  O  O116  1  0.50214000  0.98850000  0.25812000  1.0
  O  O117  1  0.01150000  0.49786000  0.24189000  1.0
  O  O118  1  0.49786000  0.01150000  0.74189000  1.0
  O  O119  1  0.98850000  0.50214000  0.75812000  1.0
  O  O120  1  0.12940000  0.87060000  0.25000000  1.0
  O  O121  1  0.87060000  0.12940000  0.75000000  1.0
