# generated using pymatgen
data_Al2H6C19NO11
_symmetry_space_group_name_H-M   'P 1'
_cell_length_a   6.66377000
_cell_length_b   18.39400000
_cell_length_c   22.31120000
_cell_angle_alpha   86.76040000
_cell_angle_beta   86.70400000
_cell_angle_gamma   87.10170000
_symmetry_Int_Tables_number   1
_chemical_formula_structural   Al2H6C19NO11
_chemical_formula_sum   'Al4 H12 C38 N2 O22'
_cell_volume   2722.79972437
_cell_formula_units_Z   2
loop_
 _symmetry_equiv_pos_site_id
 _symmetry_equiv_pos_as_xyz
  1  'x, y, z'
loop_
 _atom_site_type_symbol
 _atom_site_label
 _atom_site_symmetry_multiplicity
 _atom_site_fract_x
 _atom_site_fract_y
 _atom_site_fract_z
 _atom_site_occupancy
  Al  Al0  1  0.77106000  0.26621000  0.25904000  1.0
  Al  Al1  1  0.22898000  0.73374000  0.74097000  1.0
  Al  Al2  1  0.26991000  0.26708000  0.25965000  1.0
  Al  Al3  1  0.73013000  0.73287000  0.74039000  1.0
  H  H4  1  0.15969000  0.10835000  0.95125000  1.0
  H  H5  1  0.84008000  0.89166000  0.04877000  1.0
  H  H6  1  0.63425000  0.09085000  0.95324000  1.0
  H  H7  1  0.36553000  0.90915000  0.04682000  1.0
  H  H8  1  0.46208000  0.98808000  0.93033000  1.0
  H  H9  1  0.34040000  0.91659000  0.91095000  1.0
  H  H10  1  0.53772000  0.01194000  0.06972000  1.0
  H  H11  1  0.65945000  0.08342000  0.08909000  1.0
  H  H12  1  0.52700000  0.17559000  0.28427000  1.0
  H  H13  1  0.47306000  0.82440000  0.71582000  1.0
  H  H14  1  0.00132000  0.35606000  0.28148000  1.0
  H  H15  1  0.99876000  0.64391000  0.71852000  1.0
  C  C16  1  0.52771000  0.35326000  0.17479000  1.0
  C  C17  1  0.47228000  0.64667000  0.82521000  1.0
  C  C18  1  0.49130000  0.35185000  0.33961000  1.0
  C  C19  1  0.50879000  0.64823000  0.66030000  1.0
  C  C20  1  0.01363000  0.17444000  0.34249000  1.0
  C  C21  1  0.98632000  0.82554000  0.65756000  1.0
  C  C22  1  0.05234000  0.18419000  0.17932000  1.0
  C  C23  1  0.94771000  0.81576000  0.82072000  1.0
  C  C24  1  0.87526000  0.03359000  0.96058000  1.0
  C  C25  1  0.12456000  0.96642000  0.03944000  1.0
  C  C26  1  0.08926000  0.06027000  0.97247000  1.0
  C  C27  1  0.91053000  0.93975000  0.02755000  1.0
  C  C28  1  0.06231000  0.13751000  0.12969000  1.0
  C  C29  1  0.93766000  0.86247000  0.87032000  1.0
  C  C30  1  0.82381000  0.02050000  0.02957000  1.0
  C  C31  1  0.17598000  0.97951000  0.97046000  1.0
  C  C32  1  0.03727000  0.04841000  0.04293000  1.0
  C  C33  1  0.96255000  0.95159000  0.95709000  1.0
  C  C34  1  0.06133000  0.09676000  0.08844000  1.0
  C  C35  1  0.93856000  0.90323000  0.91158000  1.0
  C  C36  1  0.98732000  0.87931000  0.60810000  1.0
  C  C37  1  0.01251000  0.12064000  0.39193000  1.0
  C  C38  1  0.99173000  0.92571000  0.56641000  1.0
  C  C39  1  0.00784000  0.07421000  0.43360000  1.0
  C  C40  1  0.99692000  0.97653000  0.52090000  1.0
  C  C41  1  0.00245000  0.02338000  0.47911000  1.0
  C  C42  1  0.52465000  0.40015000  0.12093000  1.0
  C  C43  1  0.47546000  0.59981000  0.87908000  1.0
  C  C44  1  0.51571000  0.43869000  0.07438000  1.0
  C  C45  1  0.48463000  0.56127000  0.92562000  1.0
  C  C46  1  0.50568000  0.48074000  0.02346000  1.0
  C  C47  1  0.49505000  0.51922000  0.97653000  1.0
  C  C48  1  0.48490000  0.39834000  0.38957000  1.0
  C  C49  1  0.51534000  0.60188000  0.61024000  1.0
  C  C50  1  0.49014000  0.43767000  0.43201000  1.0
  C  C51  1  0.51039000  0.56260000  0.56775000  1.0
  C  C52  1  0.49674000  0.48045000  0.47852000  1.0
  C  C53  1  0.50405000  0.51987000  0.52120000  1.0
  N  N54  1  0.35982000  0.95048000  0.94460000  1.0
  N  N55  1  0.64001000  0.04953000  0.05544000  1.0
  O  O56  1  0.32432000  0.33063000  0.32371000  1.0
  O  O57  1  0.67579000  0.66936000  0.67628000  1.0
  O  O58  1  0.69922000  0.33067000  0.19225000  1.0
  O  O59  1  0.30079000  0.66921000  0.80770000  1.0
  O  O60  1  0.87693000  0.19820000  0.20313000  1.0
  O  O61  1  0.12313000  0.80171000  0.79694000  1.0
  O  O62  1  0.66632000  0.33691000  0.31604000  1.0
  O  O63  1  0.33376000  0.66312000  0.68390000  1.0
  O  O64  1  0.84187000  0.19821000  0.32565000  1.0
  O  O65  1  0.15810000  0.80179000  0.67438000  1.0
  O  O66  1  0.35706000  0.33920000  0.20015000  1.0
  O  O67  1  0.64295000  0.66074000  0.79989000  1.0
  O  O68  1  0.52544000  0.22289000  0.26271000  1.0
  O  O69  1  0.47455000  0.77707000  0.73733000  1.0
  O  O70  1  0.18570000  0.19224000  0.32012000  1.0
  O  O71  1  0.81426000  0.80772000  0.67993000  1.0
  O  O72  1  0.21668000  0.20678000  0.19600000  1.0
  O  O73  1  0.78338000  0.79320000  0.80400000  1.0
  O  O74  1  0.01352000  0.31077000  0.26100000  1.0
  O  O75  1  0.98654000  0.68920000  0.73902000  1.0
  O  O76  1  0.73114000  0.06673000  0.92477000  1.0
  O  O77  1  0.26865000  0.93330000  0.07527000  1.0
