# generated using pymatgen
data_ZnH21C23NO6
_symmetry_space_group_name_H-M   'P 1'
_cell_length_a   11.89520000
_cell_length_b   13.06700000
_cell_length_c   16.04250000
_cell_angle_alpha   88.38930000
_cell_angle_beta   84.64790000
_cell_angle_gamma   82.70040000
_symmetry_Int_Tables_number   1
_chemical_formula_structural   ZnH21C23NO6
_chemical_formula_sum   'Zn2 H42 C46 N2 O12'
_cell_volume   2462.23299042
_cell_formula_units_Z   2
loop_
 _symmetry_equiv_pos_site_id
 _symmetry_equiv_pos_as_xyz
  1  'x, y, z'
loop_
 _atom_site_type_symbol
 _atom_site_label
 _atom_site_symmetry_multiplicity
 _atom_site_fract_x
 _atom_site_fract_y
 _atom_site_fract_z
 _atom_site_occupancy
  Zn  Zn0  1  0.62182000  0.50203000  0.48064000  1.0
  Zn  Zn1  1  0.37816000  0.49797000  0.51937000  1.0
  H  H2  1  0.30491000  0.57997000  0.04004000  1.0
  H  H3  1  0.73517000  0.95979000  0.48341000  1.0
  H  H4  1  0.80723000  0.42450000  0.57875000  1.0
  H  H5  1  0.19276000  0.57549000  0.42123000  1.0
  H  H6  1  0.88066000  0.03120000  0.53430000  1.0
  H  H7  1  0.88387000  0.03188000  0.42350000  1.0
  H  H8  1  0.95424000  0.12126000  0.47340000  1.0
  H  H9  1  0.77442000  0.21280000  0.42772000  1.0
  H  H10  1  0.77184000  0.21216000  0.53563000  1.0
  H  H11  1  0.11611000  0.96814000  0.57648000  1.0
  H  H12  1  0.11936000  0.96880000  0.46568000  1.0
  H  H13  1  0.69507000  0.42000000  0.95998000  1.0
  H  H14  1  0.04574000  0.87876000  0.52658000  1.0
  H  H15  1  0.22815000  0.78782000  0.46439000  1.0
  H  H16  1  0.22556000  0.78722000  0.57230000  1.0
  H  H17  1  0.84471000  0.71586000  0.27393000  1.0
  H  H18  1  0.77573000  0.76109000  0.37251000  1.0
  H  H19  1  0.58763000  0.72919000  0.32785000  1.0
  H  H20  1  0.65311000  0.81560000  0.25591000  1.0
  H  H21  1  0.65418000  0.68353000  0.22951000  1.0
  H  H22  1  0.22421000  0.23889000  0.62753000  1.0
  H  H23  1  0.15526000  0.28419000  0.72610000  1.0
  H  H24  1  0.47477000  0.67597000  0.94198000  1.0
  H  H25  1  0.34582000  0.31652000  0.77046000  1.0
  H  H26  1  0.34686000  0.18445000  0.74413000  1.0
  H  H27  1  0.41235000  0.27078000  0.67214000  1.0
  H  H28  1  0.03587000  0.21176000  0.62427000  1.0
  H  H29  1  0.90766000  0.27189000  0.58567000  1.0
  H  H30  1  0.81208000  0.28096000  0.73274000  1.0
  H  H31  1  0.86511000  0.15148000  0.70544000  1.0
  H  H32  1  0.94053000  0.22038000  0.77127000  1.0
  H  H33  1  0.09241000  0.72810000  0.41426000  1.0
  H  H34  1  0.96411000  0.78821000  0.37580000  1.0
  H  H35  1  0.52521000  0.32400000  0.05803000  1.0
  H  H36  1  0.05922000  0.77974000  0.22873000  1.0
  H  H37  1  0.13470000  0.84862000  0.29454000  1.0
  H  H38  1  0.18774000  0.71919000  0.26712000  1.0
  H  H39  1  0.36502000  0.39938000  0.94324000  1.0
  H  H40  1  0.63497000  0.60058000  0.05677000  1.0
  H  H41  1  0.37102000  0.19248000  0.51108000  1.0
  H  H42  1  0.62896000  0.80752000  0.48892000  1.0
  H  H43  1  0.26482000  0.04021000  0.51660000  1.0
  C  C44  1  0.45950000  0.70064000  0.49811000  1.0
  C  C45  1  0.44716000  0.03277000  0.50402000  1.0
  C  C46  1  0.03898000  0.41827000  0.59380000  1.0
  C  C47  1  0.96101000  0.58173000  0.40617000  1.0
  C  C48  1  0.15417000  0.43122000  0.59142000  1.0
  C  C49  1  0.84583000  0.56876000  0.40855000  1.0
  C  C50  1  0.14439000  0.53589000  0.47018000  1.0
  C  C51  1  0.85560000  0.46410000  0.52980000  1.0
  C  C52  1  0.02670000  0.53072000  0.46836000  1.0
  C  C53  1  0.97329000  0.46927000  0.53161000  1.0
  C  C54  1  0.47214000  0.49608000  0.34019000  1.0
  C  C55  1  0.54046000  0.29936000  0.50189000  1.0
  C  C56  1  0.52787000  0.50393000  0.65982000  1.0
  C  C57  1  0.48557000  0.59794000  0.96893000  1.0
  C  C58  1  0.51442000  0.40204000  0.03108000  1.0
  C  C59  1  0.39166000  0.54441000  0.02181000  1.0
  C  C60  1  0.60833000  0.45556000  0.97821000  1.0
  C  C61  1  0.46472000  0.49929000  0.25057000  1.0
  C  C62  1  0.53530000  0.50071000  0.74943000  1.0
  C  C63  1  0.57543000  0.55583000  0.03050000  1.0
  C  C64  1  0.42456000  0.44414000  0.96951000  1.0
  C  C65  1  0.48107000  0.50249000  0.08580000  1.0
  C  C66  1  0.34420000  0.98791000  0.51058000  1.0
  C  C67  1  0.51892000  0.49748000  0.91421000  1.0
  C  C68  1  0.46745000  0.50189000  0.17437000  1.0
  C  C69  1  0.53255000  0.49809000  0.82565000  1.0
  C  C70  1  0.55152000  0.18325000  0.49917000  1.0
  C  C71  1  0.44847000  0.81674000  0.50083000  1.0
  C  C72  1  0.77146000  0.16058000  0.48267000  1.0
  C  C73  1  0.87770000  0.08164000  0.47834000  1.0
  C  C74  1  0.22853000  0.83943000  0.51734000  1.0
  C  C75  1  0.12229000  0.91837000  0.52165000  1.0
  C  C76  1  0.77086000  0.71028000  0.31957000  1.0
  C  C77  1  0.65579000  0.01209000  0.48942000  1.0
  C  C78  1  0.65941000  0.73607000  0.28083000  1.0
  C  C79  1  0.22911000  0.28973000  0.68043000  1.0
  C  C80  1  0.34057000  0.26395000  0.71917000  1.0
  C  C81  1  0.95752000  0.26480000  0.64040000  1.0
  C  C82  1  0.88977000  0.22762000  0.71714000  1.0
  C  C83  1  0.04245000  0.73520000  0.35959000  1.0
  C  C84  1  0.11006000  0.77248000  0.28281000  1.0
  C  C85  1  0.34129000  0.88237000  0.50963000  1.0
  C  C86  1  0.65870000  0.11763000  0.49039000  1.0
  C  C87  1  0.54971000  0.85981000  0.49464000  1.0
  C  C88  1  0.45028000  0.14019000  0.50537000  1.0
  C  C89  1  0.55283000  0.96723000  0.49599000  1.0
  N  N90  1  0.79651000  0.51115000  0.47057000  1.0
  N  N91  1  0.20348000  0.48883000  0.52940000  1.0
  O  O92  1  0.56050000  0.65446000  0.48424000  1.0
  O  O93  1  0.22600000  0.39502000  0.64826000  1.0
  O  O94  1  0.98932000  0.36510000  0.65897000  1.0
  O  O95  1  0.01067000  0.63490000  0.34099000  1.0
  O  O96  1  0.43945000  0.34555000  0.51561000  1.0
  O  O97  1  0.36994000  0.65633000  0.50936000  1.0
  O  O98  1  0.63005000  0.34368000  0.49081000  1.0
  O  O99  1  0.57273000  0.48913000  0.36252000  1.0
  O  O100  1  0.42730000  0.51070000  0.63750000  1.0
  O  O101  1  0.37977000  0.50079000  0.38765000  1.0
  O  O102  1  0.62023000  0.49942000  0.61235000  1.0
  O  O103  1  0.77399000  0.60497000  0.35170000  1.0
