# generated using pymatgen
data_AlH18C24(NO)6
_symmetry_space_group_name_H-M   'P 1'
_cell_length_a   3.94094000
_cell_length_b   28.98130000
_cell_length_c   28.98349023
_cell_angle_alpha   59.99750000
_cell_angle_beta   89.99980002
_cell_angle_gamma   89.99910000
_symmetry_Int_Tables_number   1
_chemical_formula_structural   AlH18C24(NO)6
_chemical_formula_sum   'Al2 H36 C48 N12 O12'
_cell_volume   2866.73836478
_cell_formula_units_Z   2
loop_
 _symmetry_equiv_pos_site_id
 _symmetry_equiv_pos_as_xyz
  1  'x, y, z'
loop_
 _atom_site_type_symbol
 _atom_site_label
 _atom_site_symmetry_multiplicity
 _atom_site_fract_x
 _atom_site_fract_y
 _atom_site_fract_z
 _atom_site_occupancy
  Al  Al0  1  0.99994000  0.99998000  0.50001000  1.0
  Al  Al1  1  0.99996000  0.66668000  0.16666000  1.0
  H  H2  1  0.22723000  0.52058000  0.30396000  1.0
  H  H3  1  0.77254000  0.52060000  0.17545000  1.0
  H  H4  1  0.77230000  0.14610000  0.49121000  1.0
  H  H5  1  0.22741000  0.14607000  0.36270000  1.0
  H  H6  1  0.22721000  0.80400000  0.17545000  1.0
  H  H7  1  0.77248000  0.67546000  0.30395000  1.0
  H  H8  1  0.77241000  0.99121000  0.36270000  1.0
  H  H9  1  0.22744000  0.86268000  0.49123000  1.0
  H  H10  1  0.22723000  0.67546000  0.02057000  1.0
  H  H11  1  0.77254000  0.80398000  0.02057000  1.0
  H  H12  1  0.77226000  0.86266000  0.64611000  1.0
  H  H13  1  0.22743000  0.99123000  0.64607000  1.0
  H  H14  1  0.82208000  0.37541000  0.24366000  1.0
  H  H15  1  0.95609000  0.43279000  0.19029000  1.0
  H  H16  1  0.17757000  0.37539000  0.38090000  1.0
  H  H17  1  0.04358000  0.43276000  0.37691000  1.0
  H  H18  1  0.17776000  0.29126000  0.28571000  1.0
  H  H19  1  0.04389000  0.23387000  0.28972000  1.0
  H  H20  1  0.82165000  0.29129000  0.42299000  1.0
  H  H21  1  0.95562000  0.23391000  0.47638000  1.0
  H  H22  1  0.82204000  0.74366000  0.38093000  1.0
  H  H23  1  0.95604000  0.69029000  0.37692000  1.0
  H  H24  1  0.17745000  0.88091000  0.24371000  1.0
  H  H25  1  0.04350000  0.87693000  0.19033000  1.0
  H  H26  1  0.17791000  0.78571000  0.42302000  1.0
  H  H27  1  0.04403000  0.78971000  0.47640000  1.0
  H  H28  1  0.82183000  0.92300000  0.28573000  1.0
  H  H29  1  0.95581000  0.97639000  0.28972000  1.0
  H  H30  1  0.82215000  0.88094000  0.87540000  1.0
  H  H31  1  0.95611000  0.87694000  0.93277000  1.0
  H  H32  1  0.17758000  0.74371000  0.87539000  1.0
  H  H33  1  0.04360000  0.69033000  0.93276000  1.0
  H  H34  1  0.17777000  0.92302000  0.79125000  1.0
  H  H35  1  0.04389000  0.97640000  0.73387000  1.0
  H  H36  1  0.82159000  0.78570000  0.79129000  1.0
  H  H37  1  0.95557000  0.78968000  0.73392000  1.0
  C  C38  1  0.49995000  0.95890000  0.58219000  1.0
  C  C39  1  0.49993000  0.08217000  0.45891000  1.0
  C  C40  1  0.49996000  0.95890000  0.45892000  1.0
  C  C41  1  0.49995000  0.58451000  0.20776000  1.0
  C  C42  1  0.49994000  0.70780000  0.20773000  1.0
  C  C43  1  0.49994000  0.70776000  0.08448000  1.0
  C  C44  1  0.49993000  0.52521000  0.23740000  1.0
  C  C45  1  0.34887000  0.49804000  0.28771000  1.0
  C  C46  1  0.35409000  0.44237000  0.31645000  1.0
  C  C47  1  0.49991000  0.41398000  0.29300000  1.0
  C  C48  1  0.64562000  0.44238000  0.24116000  1.0
  C  C49  1  0.65091000  0.49804000  0.21425000  1.0
  C  C50  1  0.49990000  0.35782000  0.32108000  1.0
  C  C51  1  0.49989000  0.30886000  0.34555000  1.0
  C  C52  1  0.49988000  0.25268000  0.37364000  1.0
  C  C53  1  0.64542000  0.22431000  0.42549000  1.0
  C  C54  1  0.65075000  0.16864000  0.45241000  1.0
  C  C55  1  0.49990000  0.14145000  0.42927000  1.0
  C  C56  1  0.34894000  0.16863000  0.37894000  1.0
  C  C57  1  0.35422000  0.22429000  0.35019000  1.0
  C  C58  1  0.49991000  0.73742000  0.23739000  1.0
  C  C59  1  0.34886000  0.78774000  0.21425000  1.0
  C  C60  1  0.35406000  0.81647000  0.24118000  1.0
  C  C61  1  0.49989000  0.79302000  0.29301000  1.0
  C  C62  1  0.64560000  0.74117000  0.31646000  1.0
  C  C63  1  0.65085000  0.71426000  0.28771000  1.0
  C  C64  1  0.49991000  0.82109000  0.32109000  1.0
  C  C65  1  0.49992000  0.84557000  0.34558000  1.0
  C  C66  1  0.49993000  0.87365000  0.37367000  1.0
  C  C67  1  0.64552000  0.92549000  0.35020000  1.0
  C  C68  1  0.65082000  0.95241000  0.37895000  1.0
  C  C69  1  0.49994000  0.92926000  0.42928000  1.0
  C  C70  1  0.34899000  0.87894000  0.45242000  1.0
  C  C71  1  0.35430000  0.85018000  0.42551000  1.0
  C  C72  1  0.49994000  0.73740000  0.02520000  1.0
  C  C73  1  0.34889000  0.71426000  0.99802000  1.0
  C  C74  1  0.35410000  0.74119000  0.94236000  1.0
  C  C75  1  0.49991000  0.79303000  0.91397000  1.0
  C  C76  1  0.64564000  0.81648000  0.94236000  1.0
  C  C77  1  0.65092000  0.78773000  0.99802000  1.0
  C  C78  1  0.49991000  0.82110000  0.85782000  1.0
  C  C79  1  0.49988000  0.84558000  0.80885000  1.0
  C  C80  1  0.49987000  0.87367000  0.75268000  1.0
  C  C81  1  0.64539000  0.85018000  0.72432000  1.0
  C  C82  1  0.65072000  0.87893000  0.66865000  1.0
  C  C83  1  0.49991000  0.92926000  0.64147000  1.0
  C  C84  1  0.34895000  0.95242000  0.66863000  1.0
  C  C85  1  0.35422000  0.92551000  0.72430000  1.0
  N  N86  1  0.76852000  0.41429000  0.21746000  1.0
  N  N87  1  0.23115000  0.41426000  0.36824000  1.0
  N  N88  1  0.23139000  0.25237000  0.29840000  1.0
  N  N89  1  0.76811000  0.25240000  0.44919000  1.0
  N  N90  1  0.76847000  0.71746000  0.36825000  1.0
  N  N91  1  0.23106000  0.86826000  0.21750000  1.0
  N  N92  1  0.23153000  0.79839000  0.44922000  1.0
  N  N93  1  0.76825000  0.94921000  0.29841000  1.0
  N  N94  1  0.76854000  0.86827000  0.91427000  1.0
  N  N95  1  0.23117000  0.71750000  0.91426000  1.0
  N  N96  1  0.23141000  0.94922000  0.75237000  1.0
  N  N97  1  0.76805000  0.79838000  0.75241000  1.0
  O  O98  1  0.73497000  0.99311000  0.44835000  1.0
  O  O99  1  0.73497000  0.94831000  0.55855000  1.0
  O  O100  1  0.73495000  0.05853000  0.49313000  1.0
  O  O101  1  0.26495000  0.94831000  0.49315000  1.0
  O  O102  1  0.26492000  0.05852000  0.44833000  1.0
  O  O103  1  0.26493000  0.99312000  0.55854000  1.0
  O  O104  1  0.73496000  0.71835000  0.10811000  1.0
  O  O105  1  0.73499000  0.60815000  0.17354000  1.0
  O  O106  1  0.73498000  0.67357000  0.21831000  1.0
  O  O107  1  0.26494000  0.67353000  0.10813000  1.0
  O  O108  1  0.26492000  0.71838000  0.17350000  1.0
  O  O109  1  0.26494000  0.60815000  0.21834000  1.0
