# generated using pymatgen
data_NdH24C24(NO2)6
_symmetry_space_group_name_H-M   'P 1'
_cell_length_a   16.05080000
_cell_length_b   16.05080000
_cell_length_c   16.46090000
_cell_angle_alpha   90.00000000
_cell_angle_beta   89.99990000
_cell_angle_gamma   60.00000000
_symmetry_Int_Tables_number   1
_chemical_formula_structural   NdH24C24(NO2)6
_chemical_formula_sum   'Nd4 H96 C96 N24 O48'
_cell_volume   3672.63336054
_cell_formula_units_Z   4
loop_
 _symmetry_equiv_pos_site_id
 _symmetry_equiv_pos_as_xyz
  1  'x, y, z'
loop_
 _atom_site_type_symbol
 _atom_site_label
 _atom_site_symmetry_multiplicity
 _atom_site_fract_x
 _atom_site_fract_y
 _atom_site_fract_z
 _atom_site_occupancy
  Nd  Nd0  1  0.66666667  0.66666667  0.66666667  1.0
  Nd  Nd1  1  0.33333333  0.33333333  0.83336000  1.0
  Nd  Nd2  1  0.33333333  0.33333333  0.33333333  1.0
  Nd  Nd3  1  0.66666667  0.66666667  0.16664000  1.0
  H  H4  1  0.50683000  0.74831000  0.48584000  1.0
  H  H5  1  0.74831000  0.74487000  0.48584000  1.0
  H  H6  1  0.74486000  0.50683000  0.48584000  1.0
  H  H7  1  0.25514000  0.25168000  0.01416000  1.0
  H  H8  1  0.49318000  0.25513000  0.01416000  1.0
  H  H9  1  0.25169000  0.49317000  0.01416000  1.0
  H  H10  1  0.49317000  0.25169000  0.51416000  1.0
  H  H11  1  0.25169000  0.25513000  0.51416000  1.0
  H  H12  1  0.25514000  0.49317000  0.51416000  1.0
  H  H13  1  0.74487000  0.74830000  0.98584000  1.0
  H  H14  1  0.50682000  0.74487000  0.98584000  1.0
  H  H15  1  0.74831000  0.50683000  0.98584000  1.0
  H  H16  1  0.31503000  0.09539000  0.55917000  1.0
  H  H17  1  0.09539000  0.58958000  0.55917000  1.0
  H  H18  1  0.58958000  0.31503000  0.55917000  1.0
  H  H19  1  0.41042000  0.90461000  0.94083000  1.0
  H  H20  1  0.68497000  0.41042000  0.94083000  1.0
  H  H21  1  0.90461000  0.68497000  0.94083000  1.0
  H  H22  1  0.68497000  0.90461000  0.44083000  1.0
  H  H23  1  0.90462000  0.41041000  0.44083000  1.0
  H  H24  1  0.41042000  0.68497000  0.44083000  1.0
  H  H25  1  0.58958000  0.09539000  0.05917000  1.0
  H  H26  1  0.31503000  0.58958000  0.05917000  1.0
  H  H27  1  0.09539000  0.31503000  0.05917000  1.0
  H  H28  1  0.34254000  0.84986000  0.42946000  1.0
  H  H29  1  0.84985000  0.80761000  0.42946000  1.0
  H  H30  1  0.80760000  0.34255000  0.42946000  1.0
  H  H31  1  0.19240000  0.15014000  0.07054000  1.0
  H  H32  1  0.65746000  0.19239000  0.07054000  1.0
  H  H33  1  0.15015000  0.65745000  0.07054000  1.0
  H  H34  1  0.65745000  0.15015000  0.57054000  1.0
  H  H35  1  0.15015000  0.19240000  0.57054000  1.0
  H  H36  1  0.19240000  0.65745000  0.57054000  1.0
  H  H37  1  0.80760000  0.84985000  0.92946000  1.0
  H  H38  1  0.34254000  0.80761000  0.92946000  1.0
  H  H39  1  0.84985000  0.34255000  0.92946000  1.0
  H  H40  1  0.24423000  0.02383000  0.46706000  1.0
  H  H41  1  0.02383000  0.73194000  0.46706000  1.0
  H  H42  1  0.73195000  0.24422000  0.46706000  1.0
  H  H43  1  0.26806000  0.97617000  0.03294000  1.0
  H  H44  1  0.75577000  0.26805000  0.03294000  1.0
  H  H45  1  0.97617000  0.75578000  0.03294000  1.0
  H  H46  1  0.75577000  0.97617000  0.53294000  1.0
  H  H47  1  0.97618000  0.26805000  0.53294000  1.0
  H  H48  1  0.26805000  0.75578000  0.53294000  1.0
  H  H49  1  0.73194000  0.02383000  0.96706000  1.0
  H  H50  1  0.24423000  0.73194000  0.96706000  1.0
  H  H51  1  0.02383000  0.24422000  0.96706000  1.0
  H  H52  1  0.44032000  0.08751000  0.63672000  1.0
  H  H53  1  0.08750000  0.47218000  0.63672000  1.0
  H  H54  1  0.47217000  0.44032000  0.63672000  1.0
  H  H55  1  0.52783000  0.91249000  0.86328000  1.0
  H  H56  1  0.55968000  0.52782000  0.86328000  1.0
  H  H57  1  0.91249000  0.55968000  0.86328000  1.0
  H  H58  1  0.55968000  0.91249000  0.36328000  1.0
  H  H59  1  0.91250000  0.52782000  0.36328000  1.0
  H  H60  1  0.52783000  0.55968000  0.36328000  1.0
  H  H61  1  0.47217000  0.08751000  0.13672000  1.0
  H  H62  1  0.44032000  0.47218000  0.13672000  1.0
  H  H63  1  0.08751000  0.44031000  0.13672000  1.0
  H  H64  1  0.56801000  0.09149000  0.69733000  1.0
  H  H65  1  0.09148000  0.34051000  0.69733000  1.0
  H  H66  1  0.34051000  0.56800000  0.69733000  1.0
  H  H67  1  0.65950000  0.90851000  0.80267000  1.0
  H  H68  1  0.43199000  0.65949000  0.80267000  1.0
  H  H69  1  0.90851000  0.43200000  0.80267000  1.0
  H  H70  1  0.43199000  0.90851000  0.30267000  1.0
  H  H71  1  0.90852000  0.65949000  0.30267000  1.0
  H  H72  1  0.65949000  0.43200000  0.30267000  1.0
  H  H73  1  0.34050000  0.09149000  0.19733000  1.0
  H  H74  1  0.56801000  0.34051000  0.19733000  1.0
  H  H75  1  0.09148000  0.56801000  0.19733000  1.0
  H  H76  1  0.68382000  0.99087000  0.67937000  1.0
  H  H77  1  0.99087000  0.32531000  0.67937000  1.0
  H  H78  1  0.32531000  0.68382000  0.67937000  1.0
  H  H79  1  0.67469000  0.00913000  0.82063000  1.0
  H  H80  1  0.31618000  0.67469000  0.82063000  1.0
  H  H81  1  0.00913000  0.31618000  0.82063000  1.0
  H  H82  1  0.31618000  0.00913000  0.32063000  1.0
  H  H83  1  0.00913000  0.67469000  0.32063000  1.0
  H  H84  1  0.67469000  0.31618000  0.32063000  1.0
  H  H85  1  0.32531000  0.99087000  0.17937000  1.0
  H  H86  1  0.68382000  0.32531000  0.17937000  1.0
  H  H87  1  0.99087000  0.68382000  0.17937000  1.0
  H  H88  1  0.61132000  0.89363000  0.64590000  1.0
  H  H89  1  0.89363000  0.49505000  0.64590000  1.0
  H  H90  1  0.49505000  0.61132000  0.64590000  1.0
  H  H91  1  0.50495000  0.10637000  0.85410000  1.0
  H  H92  1  0.38868000  0.50495000  0.85410000  1.0
  H  H93  1  0.10637000  0.38868000  0.85410000  1.0
  H  H94  1  0.38868000  0.10637000  0.35410000  1.0
  H  H95  1  0.10637000  0.50495000  0.35410000  1.0
  H  H96  1  0.50495000  0.38868000  0.35410000  1.0
  H  H97  1  0.49505000  0.89363000  0.14590000  1.0
  H  H98  1  0.61133000  0.49504000  0.14590000  1.0
  H  H99  1  0.89363000  0.61132000  0.14590000  1.0
  C  C100  1  0.44911000  0.96343000  0.57498000  1.0
  C  C101  1  0.96343000  0.58746000  0.57497000  1.0
  C  C102  1  0.58746000  0.44910000  0.57497000  1.0
  C  C103  1  0.41255000  0.03656000  0.92502000  1.0
  C  C104  1  0.55089000  0.41254000  0.92503000  1.0
  C  C105  1  0.03656000  0.55090000  0.92503000  1.0
  C  C106  1  0.55089000  0.03656000  0.42502000  1.0
  C  C107  1  0.03657000  0.41254000  0.42503000  1.0
  C  C108  1  0.41254000  0.55090000  0.42503000  1.0
  C  C109  1  0.58746000  0.96343000  0.07498000  1.0
  C  C110  1  0.44911000  0.58746000  0.07497000  1.0
  C  C111  1  0.96344000  0.44910000  0.07497000  1.0
  C  C112  1  0.50539000  0.86254000  0.55533000  1.0
  C  C113  1  0.86254000  0.63207000  0.55534000  1.0
  C  C114  1  0.63207000  0.50539000  0.55533000  1.0
  C  C115  1  0.36793000  0.13746000  0.94467000  1.0
  C  C116  1  0.49461000  0.36793000  0.94466000  1.0
  C  C117  1  0.13746000  0.49461000  0.94467000  1.0
  C  C118  1  0.49461000  0.13746000  0.44467000  1.0
  C  C119  1  0.13746000  0.36793000  0.44467000  1.0
  C  C120  1  0.36793000  0.49461000  0.44467000  1.0
  C  C121  1  0.63207000  0.86254000  0.05533000  1.0
  C  C122  1  0.50539000  0.63207000  0.05534000  1.0
  C  C123  1  0.86254000  0.50539000  0.05533000  1.0
  C  C124  1  0.46404000  0.82441000  0.50132000  1.0
  C  C125  1  0.82440000  0.71156000  0.50132000  1.0
  C  C126  1  0.71155000  0.46405000  0.50132000  1.0
  C  C127  1  0.28845000  0.17559000  0.99868000  1.0
  C  C128  1  0.53596000  0.28844000  0.99868000  1.0
  C  C129  1  0.17560000  0.53595000  0.99869000  1.0
  C  C130  1  0.53596000  0.17559000  0.49868000  1.0
  C  C131  1  0.17560000  0.28844000  0.49868000  1.0
  C  C132  1  0.28845000  0.53595000  0.49869000  1.0
  C  C133  1  0.71155000  0.82441000  0.00132000  1.0
  C  C134  1  0.46404000  0.71156000  0.00132000  1.0
  C  C135  1  0.82440000  0.46405000  0.00131000  1.0
  C  C136  1  0.35546000  0.01979000  0.54227000  1.0
  C  C137  1  0.01978000  0.62476000  0.54227000  1.0
  C  C138  1  0.62475000  0.35547000  0.54227000  1.0
  C  C139  1  0.37525000  0.98021000  0.95774000  1.0
  C  C140  1  0.64454000  0.37524000  0.95773000  1.0
  C  C141  1  0.98022000  0.64453000  0.95773000  1.0
  C  C142  1  0.64454000  0.98021000  0.45774000  1.0
  C  C143  1  0.98022000  0.37524000  0.45773000  1.0
  C  C144  1  0.37525000  0.64453000  0.45773000  1.0
  C  C145  1  0.62475000  0.01979000  0.04226000  1.0
  C  C146  1  0.35546000  0.62476000  0.04227000  1.0
  C  C147  1  0.01978000  0.35546000  0.04227000  1.0
  C  C148  1  0.37197000  0.88152000  0.47103000  1.0
  C  C149  1  0.88153000  0.74651000  0.47104000  1.0
  C  C150  1  0.74651000  0.37196000  0.47103000  1.0
  C  C151  1  0.25349000  0.11848000  0.02897000  1.0
  C  C152  1  0.62804000  0.25349000  0.02896000  1.0
  C  C153  1  0.11847000  0.62804000  0.02897000  1.0
  C  C154  1  0.62803000  0.11848000  0.52897000  1.0
  C  C155  1  0.11848000  0.25349000  0.52896000  1.0
  C  C156  1  0.25349000  0.62804000  0.52897000  1.0
  C  C157  1  0.74651000  0.88152000  0.97103000  1.0
  C  C158  1  0.37196000  0.74651000  0.97104000  1.0
  C  C159  1  0.88153000  0.37196000  0.97103000  1.0
  C  C160  1  0.31647000  0.97984000  0.49156000  1.0
  C  C161  1  0.97984000  0.70369000  0.49156000  1.0
  C  C162  1  0.70370000  0.31646000  0.49156000  1.0
  C  C163  1  0.29631000  0.02016000  0.00844000  1.0
  C  C164  1  0.68353000  0.29631000  0.00844000  1.0
  C  C165  1  0.02016000  0.68354000  0.00844000  1.0
  C  C166  1  0.68353000  0.02016000  0.50844000  1.0
  C  C167  1  0.02016000  0.29631000  0.50844000  1.0
  C  C168  1  0.29630000  0.68354000  0.50844000  1.0
  C  C169  1  0.70369000  0.97984000  0.99156000  1.0
  C  C170  1  0.31647000  0.70369000  0.99156000  1.0
  C  C171  1  0.97984000  0.31646000  0.99156000  1.0
  C  C172  1  0.48519000  0.01035000  0.62495000  1.0
  C  C173  1  0.01035000  0.50446000  0.62495000  1.0
  C  C174  1  0.50447000  0.48518000  0.62495000  1.0
  C  C175  1  0.49554000  0.98965000  0.87505000  1.0
  C  C176  1  0.51481000  0.49554000  0.87505000  1.0
  C  C177  1  0.98965000  0.51482000  0.87505000  1.0
  C  C178  1  0.51481000  0.98965000  0.37505000  1.0
  C  C179  1  0.98965000  0.49554000  0.37505000  1.0
  C  C180  1  0.49553000  0.51482000  0.37505000  1.0
  C  C181  1  0.50446000  0.01035000  0.12495000  1.0
  C  C182  1  0.48519000  0.50446000  0.12495000  1.0
  C  C183  1  0.01035000  0.48518000  0.12495000  1.0
  C  C184  1  0.61244000  0.01343000  0.70490000  1.0
  C  C185  1  0.01343000  0.37413000  0.70490000  1.0
  C  C186  1  0.37413000  0.61244000  0.70490000  1.0
  C  C187  1  0.62587000  0.98657000  0.79510000  1.0
  C  C188  1  0.38756000  0.62587000  0.79510000  1.0
  C  C189  1  0.98657000  0.38756000  0.79510000  1.0
  C  C190  1  0.38756000  0.98657000  0.29510000  1.0
  C  C191  1  0.98657000  0.62587000  0.29510000  1.0
  C  C192  1  0.62587000  0.38756000  0.29510000  1.0
  C  C193  1  0.37413000  0.01343000  0.20490000  1.0
  C  C194  1  0.61244000  0.37413000  0.20490000  1.0
  C  C195  1  0.01343000  0.61244000  0.20490000  1.0
  N  N196  1  0.57080000  0.96650000  0.65837000  1.0
  N  N197  1  0.96650000  0.46270000  0.65837000  1.0
  N  N198  1  0.46270000  0.57079000  0.65837000  1.0
  N  N199  1  0.53730000  0.03350000  0.84163000  1.0
  N  N200  1  0.42920000  0.53730000  0.84163000  1.0
  N  N201  1  0.03349000  0.42921000  0.84163000  1.0
  N  N202  1  0.42920000  0.03350000  0.34163000  1.0
  N  N203  1  0.03350000  0.53730000  0.34163000  1.0
  N  N204  1  0.53730000  0.42921000  0.34163000  1.0
  N  N205  1  0.46270000  0.96651000  0.15837000  1.0
  N  N206  1  0.57080000  0.46270000  0.15837000  1.0
  N  N207  1  0.96651000  0.57079000  0.15837000  1.0
  N  N208  1  0.79144000  0.72249000  0.76181000  1.0
  N  N209  1  0.72249000  0.48607000  0.76181000  1.0
  N  N210  1  0.48607000  0.79144000  0.76181000  1.0
  N  N211  1  0.51393000  0.27751000  0.73819000  1.0
  N  N212  1  0.20856000  0.51393000  0.73819000  1.0
  N  N213  1  0.27751000  0.20856000  0.73819000  1.0
  N  N214  1  0.20856000  0.27751000  0.23819000  1.0
  N  N215  1  0.27751000  0.51393000  0.23819000  1.0
  N  N216  1  0.51393000  0.20856000  0.23819000  1.0
  N  N217  1  0.48607000  0.72249000  0.26181000  1.0
  N  N218  1  0.79144000  0.48607000  0.26181000  1.0
  N  N219  1  0.72249000  0.79144000  0.26181000  1.0
  O  O220  1  0.59141000  0.80873000  0.58610000  1.0
  O  O221  1  0.80872000  0.59987000  0.58610000  1.0
  O  O222  1  0.59986000  0.59141000  0.58610000  1.0
  O  O223  1  0.40014000  0.19127000  0.91390000  1.0
  O  O224  1  0.40859000  0.40013000  0.91390000  1.0
  O  O225  1  0.19127000  0.40859000  0.91390000  1.0
  O  O226  1  0.40859000  0.19127000  0.41390000  1.0
  O  O227  1  0.19128000  0.40013000  0.41390000  1.0
  O  O228  1  0.40014000  0.40859000  0.41390000  1.0
  O  O229  1  0.59986000  0.80873000  0.08610000  1.0
  O  O230  1  0.59141000  0.59987000  0.08610000  1.0
  O  O231  1  0.80873000  0.59141000  0.08610000  1.0
  O  O232  1  0.74292000  0.77149000  0.69998000  1.0
  O  O233  1  0.77149000  0.48559000  0.69997000  1.0
  O  O234  1  0.48559000  0.74292000  0.69997000  1.0
  O  O235  1  0.51441000  0.22851000  0.80002000  1.0
  O  O236  1  0.25708000  0.51441000  0.80003000  1.0
  O  O237  1  0.22851000  0.25708000  0.80003000  1.0
  O  O238  1  0.25708000  0.22851000  0.30002000  1.0
  O  O239  1  0.22851000  0.51441000  0.30003000  1.0
  O  O240  1  0.51441000  0.25708000  0.30003000  1.0
  O  O241  1  0.48559000  0.77149000  0.19998000  1.0
  O  O242  1  0.74292000  0.48559000  0.19997000  1.0
  O  O243  1  0.77149000  0.74292000  0.19997000  1.0
  O  O244  1  0.78788000  0.64558000  0.77780000  1.0
  O  O245  1  0.64558000  0.56654000  0.77780000  1.0
  O  O246  1  0.56654000  0.78788000  0.77780000  1.0
  O  O247  1  0.43346000  0.35442000  0.72220000  1.0
  O  O248  1  0.21212000  0.43346000  0.72220000  1.0
  O  O249  1  0.35442000  0.21212000  0.72220000  1.0
  O  O250  1  0.21212000  0.35442000  0.22220000  1.0
  O  O251  1  0.35442000  0.43346000  0.22220000  1.0
  O  O252  1  0.43346000  0.21212000  0.22220000  1.0
  O  O253  1  0.56654000  0.64558000  0.27780000  1.0
  O  O254  1  0.78788000  0.56654000  0.27780000  1.0
  O  O255  1  0.64558000  0.78788000  0.27780000  1.0
  O  O256  1  0.83862000  0.74774000  0.80397000  1.0
  O  O257  1  0.74774000  0.41365000  0.80397000  1.0
  O  O258  1  0.41364000  0.83860000  0.80397000  1.0
  O  O259  1  0.58635000  0.25226000  0.69603000  1.0
  O  O260  1  0.16139000  0.58635000  0.69603000  1.0
  O  O261  1  0.25224000  0.16140000  0.69603000  1.0
  O  O262  1  0.16139000  0.25226000  0.19603000  1.0
  O  O263  1  0.25226000  0.58635000  0.19603000  1.0
  O  O264  1  0.58636000  0.16139000  0.19603000  1.0
  O  O265  1  0.41365000  0.74774000  0.30397000  1.0
  O  O266  1  0.83861000  0.41365000  0.30397000  1.0
  O  O267  1  0.74775000  0.83861000  0.30397000  1.0
