# generated using pymatgen
data_Zn4H42C64N4O19
_symmetry_space_group_name_H-M   'P 1'
_cell_length_a   11.14230000
_cell_length_b   13.99480000
_cell_length_c   26.54060000
_cell_angle_alpha   90.09050000
_cell_angle_beta   89.78680000
_cell_angle_gamma   89.94040000
_symmetry_Int_Tables_number   1
_chemical_formula_structural   Zn4H42C64N4O19
_chemical_formula_sum   'Zn4 H42 C64 N4 O19'
_cell_volume   4138.55274318
_cell_formula_units_Z   1
loop_
 _symmetry_equiv_pos_site_id
 _symmetry_equiv_pos_as_xyz
  1  'x, y, z'
loop_
 _atom_site_type_symbol
 _atom_site_label
 _atom_site_symmetry_multiplicity
 _atom_site_fract_x
 _atom_site_fract_y
 _atom_site_fract_z
 _atom_site_occupancy
  Zn  Zn0  1  0.50339000  0.40007000  0.49944000  1.0
  Zn  Zn1  1  0.50201000  0.59874000  0.50069000  1.0
  Zn  Zn2  1  0.50389000  0.60123000  0.07984000  1.0
  Zn  Zn3  1  0.50292000  0.40273000  0.08055000  1.0
  H  H4  1  0.63175000  0.24701000  0.44452000  1.0
  H  H5  1  0.63814000  0.07006000  0.44197000  1.0
  H  H6  1  0.36851000  0.75151000  0.55451000  1.0
  H  H7  1  0.36119000  0.92855000  0.55719000  1.0
  H  H8  1  0.63428000  0.75189000  0.44542000  1.0
  H  H9  1  0.63876000  0.92849000  0.44216000  1.0
  H  H10  1  0.36921000  0.24776000  0.55500000  1.0
  H  H11  1  0.36175000  0.07107000  0.55751000  1.0
  H  H12  1  0.50149000  0.65649000  0.24302000  1.0
  H  H13  1  0.42140000  0.27889000  0.24205000  1.0
  H  H14  1  0.58155000  0.27790000  0.24200000  1.0
  H  H15  1  0.58138000  0.27926000  0.33680000  1.0
  H  H16  1  0.42126000  0.28001000  0.33715000  1.0
  H  H17  1  0.49857000  0.34698000  0.66072000  1.0
  H  H18  1  0.49916000  0.34534000  0.75343000  1.0
  H  H19  1  0.50036000  0.65233000  0.91914000  1.0
  H  H20  1  0.50050000  0.65394000  0.82642000  1.0
  H  H21  1  0.49940000  0.34640000  0.91876000  1.0
  H  H22  1  0.49931000  0.34512000  0.82601000  1.0
  H  H23  1  0.49959000  0.65304000  0.66130000  1.0
  H  H24  1  0.50015000  0.65409000  0.75399000  1.0
  H  H25  1  0.89046000  0.34337000  0.50002000  1.0
  H  H26  1  0.88778000  0.72147000  0.46618000  1.0
  H  H27  1  0.88590000  0.72167000  0.53342000  1.0
  H  H28  1  0.11207000  0.72093000  0.53395000  1.0
  H  H29  1  0.11381000  0.72060000  0.46673000  1.0
  H  H30  1  0.63224000  0.75328000  0.13389000  1.0
  H  H31  1  0.63949000  0.93026000  0.13664000  1.0
  H  H32  1  0.37044000  0.25043000  0.02558000  1.0
  H  H33  1  0.36325000  0.07334000  0.02236000  1.0
  H  H34  1  0.63420000  0.24878000  0.13456000  1.0
  H  H35  1  0.64026000  0.07171000  0.13668000  1.0
  H  H36  1  0.36975000  0.75414000  0.02427000  1.0
  H  H37  1  0.36295000  0.93094000  0.02201000  1.0
  H  H38  1  0.89077000  0.65760000  0.07980000  1.0
  H  H39  1  0.88851000  0.27978000  0.11438000  1.0
  H  H40  1  0.88748000  0.27909000  0.04716000  1.0
  H  H41  1  0.11371000  0.28010000  0.04636000  1.0
  H  H42  1  0.11475000  0.28019000  0.11355000  1.0
  H  H43  1  0.49885000  0.65957000  0.37633000  1.0
  H  H44  1  0.20791000  0.34123000  0.49876000  1.0
  H  H45  1  0.20845000  0.65943000  0.08124000  1.0
  C  C46  1  0.49777000  0.50076000  0.59869000  1.0
  C  C47  1  0.26327000  0.49900000  0.49982000  1.0
  C  C48  1  0.50167000  0.50153000  0.39974000  1.0
  C  C49  1  0.73728000  0.49549000  0.49903000  1.0
  C  C50  1  0.49877000  0.49925000  0.98131000  1.0
  C  C51  1  0.26381000  0.50167000  0.08014000  1.0
  C  C52  1  0.50248000  0.50335000  0.17891000  1.0
  C  C53  1  0.73822000  0.50529000  0.08020000  1.0
  C  C54  1  0.57366000  0.20425000  0.46874000  1.0
  C  C55  1  0.57613000  0.10507000  0.46782000  1.0
  C  C56  1  0.42672000  0.79453000  0.53047000  1.0
  C  C57  1  0.42373000  0.89375000  0.53147000  1.0
  C  C58  1  0.57515000  0.79461000  0.46934000  1.0
  C  C59  1  0.57687000  0.89380000  0.46807000  1.0
  C  C60  1  0.42669000  0.20474000  0.53052000  1.0
  C  C61  1  0.42389000  0.10556000  0.53161000  1.0
  C  C62  1  0.49991000  0.05257000  0.49971000  1.0
  C  C63  1  0.50008000  0.94654000  0.49975000  1.0
  C  C64  1  0.50254000  0.50300000  0.23524000  1.0
  C  C65  1  0.50203000  0.50251000  0.34416000  1.0
  C  C66  1  0.50243000  0.41823000  0.26304000  1.0
  C  C67  1  0.50191000  0.58946000  0.31591000  1.0
  C  C68  1  0.50219000  0.41878000  0.31542000  1.0
  C  C69  1  0.50226000  0.58846000  0.26291000  1.0
  C  C70  1  0.50158000  0.31008000  0.25956000  1.0
  C  C71  1  0.50142000  0.31071000  0.31918000  1.0
  C  C72  1  0.49818000  0.50007000  0.65499000  1.0
  C  C73  1  0.49900000  0.49934000  0.92492000  1.0
  C  C74  1  0.49839000  0.41391000  0.68174000  1.0
  C  C75  1  0.49889000  0.41389000  0.73410000  1.0
  C  C76  1  0.49963000  0.58543000  0.89811000  1.0
  C  C77  1  0.49986000  0.58538000  0.84575000  1.0
  C  C78  1  0.49908000  0.41337000  0.89789000  1.0
  C  C79  1  0.49922000  0.41359000  0.84553000  1.0
  C  C80  1  0.49893000  0.58598000  0.68210000  1.0
  C  C81  1  0.49942000  0.58566000  0.73444000  1.0
  C  C82  1  0.49924000  0.49966000  0.76203000  1.0
  C  C83  1  0.49944000  0.49953000  0.81790000  1.0
  C  C84  1  0.87128000  0.49684000  0.49969000  1.0
  C  C85  1  0.13075000  0.49797000  0.50016000  1.0
  C  C86  1  0.93721000  0.58180000  0.49997000  1.0
  C  C87  1  0.06376000  0.41086000  0.50005000  1.0
  C  C88  1  0.06201000  0.58150000  0.50026000  1.0
  C  C89  1  0.93755000  0.41154000  0.49996000  1.0
  C  C90  1  0.92865000  0.68994000  0.49995000  1.0
  C  C91  1  0.07068000  0.68959000  0.50022000  1.0
  C  C92  1  0.57454000  0.79650000  0.10986000  1.0
  C  C93  1  0.57738000  0.89568000  0.11091000  1.0
  C  C94  1  0.42834000  0.20706000  0.04945000  1.0
  C  C95  1  0.42546000  0.10784000  0.04810000  1.0
  C  C96  1  0.57591000  0.20616000  0.11046000  1.0
  C  C97  1  0.57816000  0.10693000  0.11119000  1.0
  C  C98  1  0.42750000  0.79687000  0.04856000  1.0
  C  C99  1  0.42507000  0.89607000  0.04762000  1.0
  C  C100  1  0.50137000  0.94859000  0.07930000  1.0
  C  C101  1  0.50164000  0.05460000  0.07950000  1.0
  C  C102  1  0.87216000  0.50416000  0.08022000  1.0
  C  C103  1  0.13137000  0.50293000  0.08010000  1.0
  C  C104  1  0.93817000  0.41918000  0.08033000  1.0
  C  C105  1  0.06432000  0.59011000  0.08012000  1.0
  C  C106  1  0.06291000  0.41943000  0.08015000  1.0
  C  C107  1  0.93814000  0.58947000  0.08002000  1.0
  C  C108  1  0.92981000  0.31106000  0.08051000  1.0
  C  C109  1  0.07185000  0.31135000  0.08017000  1.0
  N  N110  1  0.50007000  0.25338000  0.49954000  1.0
  N  N111  1  0.50130000  0.74564000  0.49997000  1.0
  N  N112  1  0.50081000  0.74787000  0.07919000  1.0
  N  N113  1  0.50225000  0.25556000  0.08013000  1.0
  O  O114  1  0.49680000  0.42014000  0.57619000  1.0
  O  O115  1  0.49859000  0.58228000  0.57720000  1.0
  O  O116  1  0.31717000  0.57883000  0.50035000  1.0
  O  O117  1  0.31714000  0.41691000  0.49883000  1.0
  O  O118  1  0.50029000  0.58354000  0.42252000  1.0
  O  O119  1  0.50248000  0.42159000  0.42230000  1.0
  O  O120  1  0.68557000  0.41426000  0.49887000  1.0
  O  O121  1  0.68436000  0.57649000  0.49871000  1.0
  O  O122  1  0.49763000  0.58043000  0.00324000  1.0
  O  O123  1  0.49985000  0.41824000  0.00318000  1.0
  O  O124  1  0.31752000  0.42172000  0.07973000  1.0
  O  O125  1  0.31755000  0.58373000  0.08067000  1.0
  O  O126  1  0.50182000  0.42172000  0.15738000  1.0
  O  O127  1  0.50285000  0.58403000  0.15673000  1.0
  O  O128  1  0.68622000  0.58648000  0.07978000  1.0
  O  O129  1  0.68594000  0.42416000  0.08050000  1.0
  O  O130  1  0.50118000  0.67562000  0.33938000  1.0
  O  O131  1  0.11985000  0.32487000  0.49987000  1.0
  O  O132  1  0.12037000  0.67602000  0.08028000  1.0
