# generated using pymatgen
data_CuH14C16(NO3)2
_symmetry_space_group_name_H-M   'P 1'
_cell_length_a   7.24101000
_cell_length_b   10.70510000
_cell_length_c   10.86210000
_cell_angle_alpha   96.11970000
_cell_angle_beta   103.79200000
_cell_angle_gamma   109.11900000
_symmetry_Int_Tables_number   1
_chemical_formula_structural   CuH14C16(NO3)2
_chemical_formula_sum   'Cu2 H28 C32 N4 O12'
_cell_volume   756.79146842
_cell_formula_units_Z   2
loop_
 _symmetry_equiv_pos_site_id
 _symmetry_equiv_pos_as_xyz
  1  'x, y, z'
loop_
 _atom_site_type_symbol
 _atom_site_label
 _atom_site_symmetry_multiplicity
 _atom_site_fract_x
 _atom_site_fract_y
 _atom_site_fract_z
 _atom_site_occupancy
  Cu  Cu0  1  0.23827000  0.59277000  0.22986000  1.0
  Cu  Cu1  1  0.76173000  0.40723000  0.77014000  1.0
  H  H2  1  0.42842000  0.49927000  0.12079000  1.0
  H  H3  1  0.57158000  0.50073000  0.87922000  1.0
  H  H4  1  0.19131000  0.39247000  0.07094000  1.0
  H  H5  1  0.80869000  0.60753000  0.92906000  1.0
  H  H6  1  0.17022000  0.20399000  0.15995000  1.0
  H  H7  1  0.82978000  0.79601000  0.84005000  1.0
  H  H8  1  0.30129000  0.92244000  0.64843000  1.0
  H  H9  1  0.69870000  0.07755000  0.35157000  1.0
  H  H10  1  0.54681000  0.05202000  0.68735000  1.0
  H  H11  1  0.45319000  0.94798000  0.31264000  1.0
  H  H12  1  0.80634000  0.18177000  0.11807000  1.0
  H  H13  1  0.19366000  0.81823000  0.88193000  1.0
  H  H14  1  0.79303000  0.01605000  0.56683000  1.0
  H  H15  1  0.20696000  0.98395000  0.43317000  1.0
  H  H16  1  0.69431000  0.86691000  0.44098000  1.0
  H  H17  1  0.30568000  0.13309000  0.55901000  1.0
  H  H18  1  0.74889000  0.58577000  0.57508000  1.0
  H  H19  1  0.25110000  0.41423000  0.42492000  1.0
  H  H20  1  0.99992000  0.71914000  0.47089000  1.0
  H  H21  1  0.00008000  0.28086000  0.52910000  1.0
  H  H22  1  0.26265000  0.00191000  0.17329000  1.0
  H  H23  1  0.73735000  0.99809000  0.82671000  1.0
  H  H24  1  0.54288000  0.95873000  0.11174000  1.0
  H  H25  1  0.45712000  0.04127000  0.88826000  1.0
  H  H26  1  0.20157000  0.50672000  0.83404000  1.0
  H  H27  1  0.79842000  0.49328000  0.16596000  1.0
  H  H28  1  0.46854000  0.63427000  0.74025000  1.0
  H  H29  1  0.53146000  0.36573000  0.25975000  1.0
  C  C30  1  0.05309000  0.10669000  0.15348000  1.0
  C  C31  1  0.94691000  0.89331000  0.84652000  1.0
  C  C32  1  0.42177000  0.97724000  0.60842000  1.0
  C  C33  1  0.57823000  0.02276000  0.39157000  1.0
  C  C34  1  0.25561000  0.68769000  0.59744000  1.0
  C  C35  1  0.74439000  0.31231000  0.40256000  1.0
  C  C36  1  0.84923000  0.09455000  0.13179000  1.0
  C  C37  1  0.15077000  0.90545000  0.86821000  1.0
  C  C38  1  0.02728000  0.74841000  0.15553000  1.0
  C  C39  1  0.97273000  0.25159000  0.84448000  1.0
  C  C40  1  0.65770000  0.94669000  0.48972000  1.0
  C  C41  1  0.34230000  0.05331000  0.51027000  1.0
  C  C42  1  0.91035000  0.60078000  0.60982000  1.0
  C  C43  1  0.08965000  0.39922000  0.39018000  1.0
  C  C44  1  0.95717000  0.86641000  0.15305000  1.0
  C  C45  1  0.04284000  0.13359000  0.84696000  1.0
  C  C46  1  0.05128000  0.67566000  0.55263000  1.0
  C  C47  1  0.94872000  0.32434000  0.44737000  1.0
  C  C48  1  0.10520000  0.99316000  0.16236000  1.0
  C  C49  1  0.89480000  0.00684000  0.83764000  1.0
  C  C50  1  0.70215000  0.97008000  0.12635000  1.0
  C  C51  1  0.29785000  0.02992000  0.87365000  1.0
  C  C52  1  0.59575000  0.72638000  0.14494000  1.0
  C  C53  1  0.40425000  0.27362000  0.85507000  1.0
  C  C54  1  0.41634000  0.74803000  0.53227000  1.0
  C  C55  1  0.58366000  0.25197000  0.46773000  1.0
  C  C56  1  0.75417000  0.85593000  0.13972000  1.0
  C  C57  1  0.24584000  0.14407000  0.86029000  1.0
  C  C58  1  0.16337000  0.55645000  0.75464000  1.0
  C  C59  1  0.83663000  0.44355000  0.24535000  1.0
  C  C60  1  0.31197000  0.62878000  0.70199000  1.0
  C  C61  1  0.68803000  0.37122000  0.29800000  1.0
  N  N62  1  0.49833000  0.88363000  0.54873000  1.0
  N  N63  1  0.50167000  0.11637000  0.45126000  1.0
  N  N64  1  0.96547000  0.54000000  0.70728000  1.0
  N  N65  1  0.03453000  0.46000000  0.29272000  1.0
  O  O66  1  0.61375000  0.61628000  0.10797000  1.0
  O  O67  1  0.38626000  0.38372000  0.89205000  1.0
  O  O68  1  0.47361000  0.66945000  0.47085000  1.0
  O  O69  1  0.52638000  0.33055000  0.52915000  1.0
  O  O70  1  0.11880000  0.73521000  0.26788000  1.0
  O  O71  1  0.88120000  0.26479000  0.73212000  1.0
  O  O72  1  0.01071000  0.67528000  0.05171000  1.0
  O  O73  1  0.98929000  0.32472000  0.94829000  1.0
  O  O74  1  0.45290000  0.73905000  0.19081000  1.0
  O  O75  1  0.54710000  0.26095000  0.80920000  1.0
  O  O76  1  0.30857000  0.44442000  0.15105000  1.0
  O  O77  1  0.69143000  0.55558000  0.84896000  1.0
