# generated using pymatgen
data_CoH12C19(NO)4
_symmetry_space_group_name_H-M   'P 1'
_cell_length_a   7.77916000
_cell_length_b   9.28323000
_cell_length_c   12.82940000
_cell_angle_alpha   105.22600000
_cell_angle_beta   100.58300000
_cell_angle_gamma   109.15700000
_symmetry_Int_Tables_number   1
_chemical_formula_structural   CoH12C19(NO)4
_chemical_formula_sum   'Co2 H24 C38 N8 O8'
_cell_volume   806.60140224
_cell_formula_units_Z   2
loop_
 _symmetry_equiv_pos_site_id
 _symmetry_equiv_pos_as_xyz
  1  'x, y, z'
loop_
 _atom_site_type_symbol
 _atom_site_label
 _atom_site_symmetry_multiplicity
 _atom_site_fract_x
 _atom_site_fract_y
 _atom_site_fract_z
 _atom_site_occupancy
  Co  Co0  1  0.77006000  0.06759000  0.22291000  1.0
  Co  Co1  1  0.04704000  0.84509000  0.77689000  1.0
  H  H2  1  0.64921000  0.38732000  0.57481000  1.0
  H  H3  1  0.57384000  0.81083000  0.42513000  1.0
  H  H4  1  0.25555000  0.10170000  0.56830000  1.0
  H  H5  1  0.18723000  0.53167000  0.43189000  1.0
  H  H6  1  0.35523000  0.58772000  0.21600000  1.0
  H  H7  1  0.63983000  0.37298000  0.78434000  1.0
  H  H8  1  0.38223000  0.52713000  0.87566000  1.0
  H  H9  1  0.00726000  0.65067000  0.12464000  1.0
  H  H10  1  0.60413000  0.26664000  0.36617000  1.0
  H  H11  1  0.73726000  0.89917000  0.63373000  1.0
  H  H12  1  0.13259000  0.24479000  0.80860000  1.0
  H  H13  1  0.82437000  0.43483000  0.19117000  1.0
  H  H14  1  0.05043000  0.90541000  0.15210000  1.0
  H  H15  1  0.39835000  0.75434000  0.84807000  1.0
  H  H16  1  0.32947000  0.86704000  0.25180000  1.0
  H  H17  1  0.57826000  0.61624000  0.74867000  1.0
  H  H18  1  0.78376000  0.93784000  0.99843000  1.0
  H  H19  1  0.28479000  0.93923000  0.00097000  1.0
  H  H20  1  0.42775000  0.96381000  0.46625000  1.0
  H  H21  1  0.46159000  0.49656000  0.53422000  1.0
  H  H22  1  0.89961000  0.36176000  0.71287000  1.0
  H  H23  1  0.68823000  0.64905000  0.28701000  1.0
  H  H24  1  0.09169000  0.21010000  0.63807000  1.0
  H  H25  1  0.95590000  0.57317000  0.36168000  1.0
  C  C26  1  0.09793000  0.94685000  0.24418000  1.0
  C  C27  1  0.35403000  0.70330000  0.75601000  1.0
  C  C28  1  0.25314000  0.92427000  0.30025000  1.0
  C  C29  1  0.45334000  0.62450000  0.70011000  1.0
  C  C30  1  0.30844000  0.97935000  0.41821000  1.0
  C  C31  1  0.39055000  0.56069000  0.58215000  1.0
  C  C32  1  0.21182000  0.05827000  0.47620000  1.0
  C  C33  1  0.23590000  0.58117000  0.52398000  1.0
  C  C34  1  0.05900000  0.07752000  0.41352000  1.0
  C  C35  1  0.14592000  0.66378000  0.58649000  1.0
  C  C36  1  0.95043000  0.16323000  0.46454000  1.0
  C  C37  1  0.98657000  0.69851000  0.53533000  1.0
  C  C38  1  0.98282000  0.22647000  0.58126000  1.0
  C  C39  1  0.90308000  0.64562000  0.41860000  1.0
  C  C40  1  0.87527000  0.30874000  0.62233000  1.0
  C  C41  1  0.75405000  0.68628000  0.37754000  1.0
  C  C42  1  0.73643000  0.32439000  0.54533000  1.0
  C  C43  1  0.69112000  0.77804000  0.45454000  1.0
  C  C44  1  0.71041000  0.25814000  0.43009000  1.0
  C  C45  1  0.78007000  0.82708000  0.56977000  1.0
  C  C46  1  0.08004000  0.29634000  0.16991000  1.0
  C  C47  1  0.41015000  0.12705000  0.82986000  1.0
  C  C48  1  0.17107000  0.35589000  0.09000000  1.0
  C  C49  1  0.58126000  0.26614000  0.90984000  1.0
  C  C50  1  0.31093000  0.51430000  0.12672000  1.0
  C  C51  1  0.68469000  0.38825000  0.87348000  1.0
  C  C52  1  0.38692000  0.57614000  0.04979000  1.0
  C  C53  1  0.83771000  0.52664000  0.95055000  1.0
  C  C54  1  0.32013000  0.47828000  0.93445000  1.0
  C  C55  1  0.88626000  0.54336000  0.06572000  1.0
  C  C56  1  0.18179000  0.32218000  0.89701000  1.0
  C  C57  1  0.78520000  0.42431000  0.10287000  1.0
  C  C58  1  0.10753000  0.25842000  0.97438000  1.0
  C  C59  1  0.63335000  0.28362000  0.02533000  1.0
  C  C60  1  0.53682000  0.74489000  0.08462000  1.0
  C  C61  1  0.95245000  0.66096000  0.91588000  1.0
  C  C62  1  0.96578000  0.09293000  0.93734000  1.0
  C  C63  1  0.52837000  0.15498000  0.06217000  1.0
  N  N64  1  0.81493000  0.17887000  0.39005000  1.0
  N  N65  1  0.92489000  0.78823000  0.60978000  1.0
  N  N66  1  0.00135000  0.01955000  0.29917000  1.0
  N  N67  1  0.20240000  0.72063000  0.70084000  1.0
  N  N68  1  0.89214000  0.05125000  0.01699000  1.0
  N  N69  1  0.37495000  0.03407000  0.98247000  1.0
  N  N70  1  0.93756000  0.14605000  0.12770000  1.0
  N  N71  1  0.30956000  0.01890000  0.87195000  1.0
  O  O72  1  0.59989000  0.78951000  0.00935000  1.0
  O  O73  1  0.09065000  0.78079000  0.99117000  1.0
  O  O74  1  0.59280000  0.83523000  0.18979000  1.0
  O  O75  1  0.90309000  0.64646000  0.81078000  1.0
  O  O76  1  0.91096000  0.98958000  0.83631000  1.0
  O  O77  1  0.57427000  0.15209000  0.16302000  1.0
  O  O78  1  0.12197000  0.38272000  0.27227000  1.0
  O  O79  1  0.34972000  0.11164000  0.72764000  1.0
