# generated using pymatgen
data_ZnH20C26(NO4)2
_symmetry_space_group_name_H-M   'P 1'
_cell_length_a   7.62493000
_cell_length_b   8.24259000
_cell_length_c   19.01600000
_cell_angle_alpha   96.68320000
_cell_angle_beta   97.92120000
_cell_angle_gamma   109.25300000
_symmetry_Int_Tables_number   1
_chemical_formula_structural   ZnH20C26(NO4)2
_chemical_formula_sum   'Zn2 H40 C52 N4 O16'
_cell_volume   1100.67021620
_cell_formula_units_Z   2
loop_
 _symmetry_equiv_pos_site_id
 _symmetry_equiv_pos_as_xyz
  1  'x, y, z'
loop_
 _atom_site_type_symbol
 _atom_site_label
 _atom_site_symmetry_multiplicity
 _atom_site_fract_x
 _atom_site_fract_y
 _atom_site_fract_z
 _atom_site_occupancy
  Zn  Zn0  1  0.51291000  0.32051000  0.44787000  1.0
  Zn  Zn1  1  0.48708000  0.67949000  0.55213000  1.0
  H  H2  1  0.13054000  0.94685000  0.54287000  1.0
  H  H3  1  0.86946000  0.05315000  0.45713000  1.0
  H  H4  1  0.87412000  0.91069000  0.73144000  1.0
  H  H5  1  0.12588000  0.08931000  0.26857000  1.0
  H  H6  1  0.21219000  0.41113000  0.69094000  1.0
  H  H7  1  0.78782000  0.58888000  0.30906000  1.0
  H  H8  1  0.90635000  0.18340000  0.81226000  1.0
  H  H9  1  0.09366000  0.81660000  0.18774000  1.0
  H  H10  1  0.15768000  0.27964000  0.83298000  1.0
  H  H11  1  0.84232000  0.72037000  0.16702000  1.0
  H  H12  1  0.06647000  0.74001000  0.76913000  1.0
  H  H13  1  0.93354000  0.25999000  0.23087000  1.0
  H  H14  1  0.16373000  0.99528000  0.86983000  1.0
  H  H15  1  0.83627000  0.00473000  0.13016000  1.0
  H  H16  1  0.17448000  0.65483000  0.02294000  1.0
  H  H17  1  0.82551000  0.34517000  0.97706000  1.0
  H  H18  1  0.08246000  0.40053000  0.92426000  1.0
  H  H19  1  0.91754000  0.59948000  0.07573000  1.0
  H  H20  1  0.63104000  0.26776000  0.30894000  1.0
  H  H21  1  0.36896000  0.73224000  0.69106000  1.0
  H  H22  1  0.60082000  0.02406000  0.21310000  1.0
  H  H23  1  0.39918000  0.97594000  0.78690000  1.0
  H  H24  1  0.30169000  0.66918000  0.34399000  1.0
  H  H25  1  0.69831000  0.33081000  0.65601000  1.0
  H  H26  1  0.34226000  0.92670000  0.43344000  1.0
  H  H27  1  0.65774000  0.07330000  0.56656000  1.0
  H  H28  1  0.46468000  0.82384000  0.12627000  1.0
  H  H29  1  0.53533000  0.17615000  0.87374000  1.0
  H  H30  1  0.43921000  0.57271000  0.03650000  1.0
  H  H31  1  0.56079000  0.42728000  0.96350000  1.0
  H  H32  1  0.34505000  0.23548000  0.18320000  1.0
  H  H33  1  0.65495000  0.76452000  0.81680000  1.0
  H  H34  1  0.38146000  0.47635000  0.28367000  1.0
  H  H35  1  0.61854000  0.52365000  0.71633000  1.0
  H  H36  1  0.33298000  0.24115000  0.04355000  1.0
  H  H37  1  0.66702000  0.75884000  0.95645000  1.0
  H  H38  1  0.84037000  0.43361000  0.54126000  1.0
  H  H39  1  0.15964000  0.56640000  0.45874000  1.0
  H  H40  1  0.84888000  0.31901000  0.47131000  1.0
  H  H41  1  0.15112000  0.68099000  0.52869000  1.0
  C  C42  1  0.29861000  0.30235000  0.56733000  1.0
  C  C43  1  0.70139000  0.69766000  0.43267000  1.0
  C  C44  1  0.18081000  0.19008000  0.61214000  1.0
  C  C45  1  0.81919000  0.80992000  0.38786000  1.0
  C  C46  1  0.10538000  0.00848000  0.59242000  1.0
  C  C47  1  0.89462000  0.99152000  0.40759000  1.0
  C  C48  1  0.99400000  0.90835000  0.63537000  1.0
  C  C49  1  0.00600000  0.09165000  0.36463000  1.0
  C  C50  1  0.96491000  0.99012000  0.69935000  1.0
  C  C51  1  0.03509000  0.00988000  0.30065000  1.0
  C  C52  1  0.04810000  0.17068000  0.72113000  1.0
  C  C53  1  0.95190000  0.82932000  0.27887000  1.0
  C  C54  1  0.15198000  0.26992000  0.67627000  1.0
  C  C55  1  0.84802000  0.73008000  0.32373000  1.0
  C  C56  1  0.89893000  0.71454000  0.61197000  1.0
  C  C57  1  0.10108000  0.28546000  0.38803000  1.0
  C  C58  1  0.03137000  0.26009000  0.79213000  1.0
  C  C59  1  0.96863000  0.73991000  0.20787000  1.0
  C  C60  1  0.07281000  0.55661000  0.84024000  1.0
  C  C61  1  0.92719000  0.44339000  0.15976000  1.0
  C  C62  1  0.09351000  0.72430000  0.82525000  1.0
  C  C63  1  0.90649000  0.27570000  0.17474000  1.0
  C  C64  1  0.14743000  0.86511000  0.88121000  1.0
  C  C65  1  0.85257000  0.13490000  0.11878000  1.0
  C  C66  1  0.17959000  0.84109000  0.95321000  1.0
  C  C67  1  0.82040000  0.15891000  0.04678000  1.0
  C  C68  1  0.15350000  0.67269000  0.96708000  1.0
  C  C69  1  0.84650000  0.32731000  0.03291000  1.0
  C  C70  1  0.10176000  0.53018000  0.91174000  1.0
  C  C71  1  0.89823000  0.46981000  0.08826000  1.0
  C  C72  1  0.24258000  0.98749000  0.01526000  1.0
  C  C73  1  0.75741000  0.01250000  0.98472000  1.0
  C  C74  1  0.55782000  0.13268000  0.31386000  1.0
  C  C75  1  0.44218000  0.86732000  0.68614000  1.0
  C  C76  1  0.54022000  0.99525000  0.26073000  1.0
  C  C77  1  0.45978000  0.00475000  0.73927000  1.0
  C  C78  1  0.44846000  0.82275000  0.26985000  1.0
  C  C79  1  0.55154000  0.17725000  0.73015000  1.0
  C  C80  1  0.37632000  0.79884000  0.33338000  1.0
  C  C81  1  0.62368000  0.20116000  0.66666667  1.0
  C  C82  1  0.39865000  0.94351000  0.38406000  1.0
  C  C83  1  0.60135000  0.05649000  0.61594000  1.0
  C  C84  1  0.43018000  0.67418000  0.21421000  1.0
  C  C85  1  0.56982000  0.32581000  0.78579000  1.0
  C  C86  1  0.44639000  0.69852000  0.14320000  1.0
  C  C87  1  0.55361000  0.30148000  0.85680000  1.0
  C  C88  1  0.42790000  0.55646000  0.09196000  1.0
  C  C89  1  0.57210000  0.44354000  0.90804000  1.0
  C  C90  1  0.37627000  0.37000000  0.17449000  1.0
  C  C91  1  0.62374000  0.63000000  0.82551000  1.0
  C  C92  1  0.39582000  0.50494000  0.22971000  1.0
  C  C93  1  0.60418000  0.49506000  0.77029000  1.0
  N  N94  1  0.48789000  0.10787000  0.37465000  1.0
  N  N95  1  0.51211000  0.89213000  0.62535000  1.0
  N  N96  1  0.39193000  0.39479000  0.10671000  1.0
  N  N97  1  0.60807000  0.60520000  0.89329000  1.0
  O  O98  1  0.34288000  0.22555000  0.51398000  1.0
  O  O99  1  0.65712000  0.77446000  0.48602000  1.0
  O  O100  1  0.34721000  0.46596000  0.58696000  1.0
  O  O101  1  0.65280000  0.53404000  0.41305000  1.0
  O  O102  1  0.98766000  0.63069000  0.58014000  1.0
  O  O103  1  0.01234000  0.36931000  0.41986000  1.0
  O  O104  1  0.73387000  0.64313000  0.62470000  1.0
  O  O105  1  0.26613000  0.35688000  0.37530000  1.0
  O  O106  1  0.28714000  0.14469000  0.99633000  1.0
  O  O107  1  0.71285000  0.85531000  0.00367000  1.0
  O  O108  1  0.25473000  0.96466000  0.07889000  1.0
  O  O109  1  0.74525000  0.03533000  0.92112000  1.0
  O  O110  1  0.02256000  0.42769000  0.78178000  1.0
  O  O111  1  0.97744000  0.57231000  0.21822000  1.0
  O  O112  1  0.76568000  0.31914000  0.50786000  1.0
  O  O113  1  0.23432000  0.68086000  0.49214000  1.0
