# generated using pymatgen
data_AgH10C16N5O3
_symmetry_space_group_name_H-M   'P 1'
_cell_length_a   5.32793000
_cell_length_b   16.10630000
_cell_length_c   17.83440000
_cell_angle_alpha   90.00040000
_cell_angle_beta   90.00030000
_cell_angle_gamma   80.60950000
_symmetry_Int_Tables_number   1
_chemical_formula_structural   AgH10C16N5O3
_chemical_formula_sum   'Ag4 H40 C64 N20 O12'
_cell_volume   1509.91871791
_cell_formula_units_Z   4
loop_
 _symmetry_equiv_pos_site_id
 _symmetry_equiv_pos_as_xyz
  1  'x, y, z'
loop_
 _atom_site_type_symbol
 _atom_site_label
 _atom_site_symmetry_multiplicity
 _atom_site_fract_x
 _atom_site_fract_y
 _atom_site_fract_z
 _atom_site_occupancy
  Ag  Ag0  1  0.99817000  0.41733000  0.77185000  1.0
  Ag  Ag1  1  0.50183000  0.08267000  0.27185000  1.0
  Ag  Ag2  1  0.00183000  0.58267000  0.22814000  1.0
  Ag  Ag3  1  0.49816000  0.91733000  0.72815000  1.0
  H  H4  1  0.85786000  0.42271000  0.60053000  1.0
  H  H5  1  0.64216000  0.07730000  0.10053000  1.0
  H  H6  1  0.14217000  0.57730000  0.39947000  1.0
  H  H7  1  0.35783000  0.92270000  0.89948000  1.0
  H  H8  1  0.23694000  0.54760000  0.79502000  1.0
  H  H9  1  0.26311000  0.95241000  0.29503000  1.0
  H  H10  1  0.76312000  0.45241000  0.20498000  1.0
  H  H11  1  0.73687000  0.04759000  0.70498000  1.0
  H  H12  1  0.52724000  0.65439000  0.80113000  1.0
  H  H13  1  0.97281000  0.84562000  0.30114000  1.0
  H  H14  1  0.47281000  0.34562000  0.19886000  1.0
  H  H15  1  0.02720000  0.15437000  0.69886000  1.0
  H  H16  1  0.68551000  0.71169000  0.68515000  1.0
  H  H17  1  0.81450000  0.78831000  0.18516000  1.0
  H  H18  1  0.31450000  0.28831000  0.31484000  1.0
  H  H19  1  0.18550000  0.21168000  0.81484000  1.0
  H  H20  1  0.54060000  0.66784000  0.55925000  1.0
  H  H21  1  0.95940000  0.83217000  0.05925000  1.0
  H  H22  1  0.45941000  0.33217000  0.44075000  1.0
  H  H23  1  0.04058000  0.16783000  0.94075000  1.0
  H  H24  1  0.59518000  0.50773000  0.87197000  1.0
  H  H25  1  0.90481000  0.99227000  0.37197000  1.0
  H  H26  1  0.40481000  0.49227000  0.12802000  1.0
  H  H27  1  0.09518000  0.00773000  0.62803000  1.0
  H  H28  1  0.36482000  0.32472000  0.87235000  1.0
  H  H29  1  0.13517000  0.17527000  0.37235000  1.0
  H  H30  1  0.63517000  0.67527000  0.12765000  1.0
  H  H31  1  0.86482000  0.82472000  0.62765000  1.0
  H  H32  1  0.60099000  0.23187000  0.97057000  1.0
  H  H33  1  0.89901000  0.26812000  0.47057000  1.0
  H  H34  1  0.39902000  0.76813000  0.02943000  1.0
  H  H35  1  0.10097000  0.73188000  0.52943000  1.0
  H  H36  1  0.42874000  0.22968000  0.10008000  1.0
  H  H37  1  0.07126000  0.27032000  0.60008000  1.0
  H  H38  1  0.57126000  0.77032000  0.89992000  1.0
  H  H39  1  0.92874000  0.72968000  0.39992000  1.0
  H  H40  1  0.02233000  0.31949000  0.13357000  1.0
  H  H41  1  0.47767000  0.18051000  0.63356000  1.0
  H  H42  1  0.97766000  0.68051000  0.86644000  1.0
  H  H43  1  0.52232000  0.81948000  0.36644000  1.0
  C  C44  1  0.05348000  0.50964000  0.53665000  1.0
  C  C45  1  0.44654000  0.99036000  0.03665000  1.0
  C  C46  1  0.94655000  0.49036000  0.46335000  1.0
  C  C47  1  0.55347000  0.00963000  0.96335000  1.0
  C  C48  1  0.98287000  0.46991000  0.60312000  1.0
  C  C49  1  0.51716000  0.03009000  0.10313000  1.0
  C  C50  1  0.01716000  0.53010000  0.39688000  1.0
  C  C51  1  0.48283000  0.96991000  0.89688000  1.0
  C  C52  1  0.22403000  0.54794000  0.67397000  1.0
  C  C53  1  0.27599000  0.95206000  0.17398000  1.0
  C  C54  1  0.77601000  0.45206000  0.32603000  1.0
  C  C55  1  0.72399000  0.04793000  0.82603000  1.0
  C  C56  1  0.30557000  0.57420000  0.74408000  1.0
  C  C57  1  0.19447000  0.92580000  0.24408000  1.0
  C  C58  1  0.69448000  0.42580000  0.25592000  1.0
  C  C59  1  0.80552000  0.07420000  0.75592000  1.0
  C  C60  1  0.46766000  0.63272000  0.74712000  1.0
  C  C61  1  0.03236000  0.86729000  0.24713000  1.0
  C  C62  1  0.53237000  0.36729000  0.25287000  1.0
  C  C63  1  0.96763000  0.13270000  0.75287000  1.0
  C  C64  1  0.55617000  0.66607000  0.68042000  1.0
  C  C65  1  0.94384000  0.83394000  0.18043000  1.0
  C  C66  1  0.44384000  0.33394000  0.31957000  1.0
  C  C67  1  0.05615000  0.16606000  0.81957000  1.0
  C  C68  1  0.47686000  0.64224000  0.61121000  1.0
  C  C69  1  0.02315000  0.85777000  0.11122000  1.0
  C  C70  1  0.52316000  0.35777000  0.38878000  1.0
  C  C71  1  0.97684000  0.14223000  0.88878000  1.0
  C  C72  1  0.30503000  0.58370000  0.60631000  1.0
  C  C73  1  0.19497000  0.91630000  0.10632000  1.0
  C  C74  1  0.69498000  0.41630000  0.39368000  1.0
  C  C75  1  0.80501000  0.08370000  0.89368000  1.0
  C  C76  1  0.61857000  0.47198000  0.98981000  1.0
  C  C77  1  0.88144000  0.02802000  0.48981000  1.0
  C  C78  1  0.38142000  0.52802000  0.01019000  1.0
  C  C79  1  0.11858000  0.97198000  0.51019000  1.0
  C  C80  1  0.70612000  0.46961000  0.91444000  1.0
  C  C81  1  0.79388000  0.03040000  0.41444000  1.0
  C  C82  1  0.29387000  0.53039000  0.08555000  1.0
  C  C83  1  0.20612000  0.96961000  0.58556000  1.0
  C  C84  1  0.05772000  0.37300000  0.94748000  1.0
  C  C85  1  0.44227000  0.12700000  0.44748000  1.0
  C  C86  1  0.94226000  0.62700000  0.05252000  1.0
  C  C87  1  0.55771000  0.87300000  0.55251000  1.0
  C  C88  1  0.29095000  0.32202000  0.92926000  1.0
  C  C89  1  0.20904000  0.17798000  0.42926000  1.0
  C  C90  1  0.70904000  0.67798000  0.07074000  1.0
  C  C91  1  0.79094000  0.82202000  0.57074000  1.0
  C  C92  1  0.42116000  0.27159000  0.98400000  1.0
  C  C93  1  0.07882000  0.22841000  0.48400000  1.0
  C  C94  1  0.57883000  0.72841000  0.01600000  1.0
  C  C95  1  0.92116000  0.77159000  0.51600000  1.0
  C  C96  1  0.32448000  0.27029000  0.05783000  1.0
  C  C97  1  0.17550000  0.22971000  0.55783000  1.0
  C  C98  1  0.67551000  0.72971000  0.94217000  1.0
  C  C99  1  0.82448000  0.77029000  0.44217000  1.0
  C  C100  1  0.09978000  0.32095000  0.07724000  1.0
  C  C101  1  0.40022000  0.17905000  0.57724000  1.0
  C  C102  1  0.90021000  0.67905000  0.92276000  1.0
  C  C103  1  0.59977000  0.82095000  0.42276000  1.0
  C  C104  1  0.96275000  0.37407000  0.02290000  1.0
  C  C105  1  0.53725000  0.12593000  0.52289000  1.0
  C  C106  1  0.03725000  0.62593000  0.97710000  1.0
  C  C107  1  0.46274000  0.87407000  0.47710000  1.0
  N  N108  1  0.21631000  0.56391000  0.53825000  1.0
  N  N109  1  0.28369000  0.93609000  0.03825000  1.0
  N  N110  1  0.78371000  0.43609000  0.46175000  1.0
  N  N111  1  0.71631000  0.06390000  0.96175000  1.0
  N  N112  1  0.06713000  0.48847000  0.66979000  1.0
  N  N113  1  0.43289000  0.01153000  0.16980000  1.0
  N  N114  1  0.93291000  0.51153000  0.33020000  1.0
  N  N115  1  0.56708000  0.98847000  0.83020000  1.0
  N  N116  1  0.74460000  0.42515000  0.04318000  1.0
  N  N117  1  0.75539000  0.07486000  0.54318000  1.0
  N  N118  1  0.25539000  0.57486000  0.95681000  1.0
  N  N119  1  0.24461000  0.92514000  0.45682000  1.0
  N  N120  1  0.92087000  0.42197000  0.89380000  1.0
  N  N121  1  0.57913000  0.07803000  0.39380000  1.0
  N  N122  1  0.07912000  0.57803000  0.10620000  1.0
  N  N123  1  0.42087000  0.92197000  0.60620000  1.0
  N  N124  1  0.53402000  0.32829000  0.72167000  1.0
  N  N125  1  0.96599000  0.17170000  0.22167000  1.0
  N  N126  1  0.46599000  0.67170000  0.27833000  1.0
  N  N127  1  0.03400000  0.82830000  0.77833000  1.0
  O  O128  1  0.55327000  0.38464000  0.77105000  1.0
  O  O129  1  0.94674000  0.11536000  0.27105000  1.0
  O  O130  1  0.44674000  0.61535000  0.22896000  1.0
  O  O131  1  0.05325000  0.88464000  0.72896000  1.0
  O  O132  1  0.70828000  0.30784000  0.67446000  1.0
  O  O133  1  0.79172000  0.19216000  0.17447000  1.0
  O  O134  1  0.29173000  0.69216000  0.32554000  1.0
  O  O135  1  0.20827000  0.80784000  0.82554000  1.0
  O  O136  1  0.33467000  0.29414000  0.72151000  1.0
  O  O137  1  0.16534000  0.20585000  0.22151000  1.0
  O  O138  1  0.66534000  0.70585000  0.27849000  1.0
  O  O139  1  0.83465000  0.79415000  0.77849000  1.0
