# generated using pymatgen
data_Zn2H47C70N9O22
_symmetry_space_group_name_H-M   'P 1'
_cell_length_a   14.58990000
_cell_length_b   15.94620000
_cell_length_c   16.86590000
_cell_angle_alpha   87.89220000
_cell_angle_beta   82.19840000
_cell_angle_gamma   88.89110000
_symmetry_Int_Tables_number   1
_chemical_formula_structural   Zn2H47C70N9O22
_chemical_formula_sum   'Zn2 H47 C70 N9 O22'
_cell_volume   3884.55151437
_cell_formula_units_Z   1
loop_
 _symmetry_equiv_pos_site_id
 _symmetry_equiv_pos_as_xyz
  1  'x, y, z'
loop_
 _atom_site_type_symbol
 _atom_site_label
 _atom_site_symmetry_multiplicity
 _atom_site_fract_x
 _atom_site_fract_y
 _atom_site_fract_z
 _atom_site_occupancy
  Zn  Zn0  1  0.40733000  0.51291000  0.50167000  1.0
  Zn  Zn1  1  0.60082000  0.50340000  0.49287000  1.0
  H  H2  1  0.59859000  0.39533000  0.72328000  1.0
  H  H3  1  0.66166000  0.40118000  0.25181000  1.0
  H  H4  1  0.58895000  0.37809000  0.98575000  1.0
  H  H5  1  0.38201000  0.44953000  0.11857000  1.0
  H  H6  1  0.37587000  0.37645000  0.01915000  1.0
  H  H7  1  0.58124000  0.33646000  0.86308000  1.0
  H  H8  1  0.44627000  0.93659000  0.37742000  1.0
  H  H9  1  0.60468000  0.95439000  0.38165000  1.0
  H  H10  1  0.64080000  0.06847000  0.51214000  1.0
  H  H11  1  0.41741000  0.92990000  0.59678000  1.0
  H  H12  1  0.53575000  0.92846000  0.61070000  1.0
  H  H13  1  0.36703000  0.93705000  0.46586000  1.0
  H  H14  1  0.36310000  0.07816000  0.46699000  1.0
  H  H15  1  0.53490000  0.07530000  0.60909000  1.0
  H  H16  1  0.09000000  0.57786000  0.38528000  1.0
  H  H17  1  0.93927000  0.40335000  0.41688000  1.0
  H  H18  1  0.09952000  0.42075000  0.40345000  1.0
  H  H19  1  0.09844000  0.37425000  0.50098000  1.0
  H  H20  1  0.91581000  0.58188000  0.60354000  1.0
  H  H21  1  0.07187000  0.56851000  0.61690000  1.0
  H  H22  1  0.91497000  0.62689000  0.47770000  1.0
  H  H23  1  0.06819000  0.45785000  0.62092000  1.0
  H  H24  1  0.59980000  0.22956000  0.07360000  1.0
  H  H25  1  0.73549000  0.14902000  0.00999000  1.0
  H  H26  1  0.89455000  0.20429000  0.00764000  1.0
  H  H27  1  0.91641000  0.34098000  0.06899000  1.0
  H  H28  1  0.78025000  0.42143000  0.13271000  1.0
  H  H29  1  0.36527000  0.21279000  0.39927000  1.0
  H  H30  1  0.37049000  0.28791000  0.26819000  1.0
  H  H31  1  0.44104000  0.21866000  0.14358000  1.0
  H  H32  1  0.50733000  0.07361000  0.15324000  1.0
  H  H33  1  0.50387000  0.99992000  0.28364000  1.0
  H  H34  1  0.71840000  0.85779000  0.35693000  1.0
  H  H35  1  0.85983000  0.78441000  0.39048000  1.0
  H  H36  1  0.91187000  0.80248000  0.52422000  1.0
  H  H37  1  0.82051000  0.89476000  0.62247000  1.0
  H  H38  1  0.68267000  0.97089000  0.58750000  1.0
  H  H39  1  0.67871000  0.21183000  0.47242000  1.0
  H  H40  1  0.76800000  0.30139000  0.36989000  1.0
  H  H41  1  0.80754000  0.25201000  0.22948000  1.0
  H  H42  1  0.75421000  0.11226000  0.19575000  1.0
  H  H43  1  0.66239000  0.02393000  0.29747000  1.0
  H  H44  1  0.79014000  0.63868000  0.40413000  1.0
  H  H45  1  0.73071000  0.63199000  0.27486000  1.0
  H  H46  1  0.82239000  0.55935000  0.16089000  1.0
  H  H47  1  0.97312000  0.49017000  0.17983000  1.0
  H  H48  1  0.03263000  0.49510000  0.30863000  1.0
  C  C49  1  0.51297000  0.66937000  0.48768000  1.0
  C  C50  1  0.48218000  0.49406000  0.65243000  1.0
  C  C51  1  0.48943000  0.34594000  0.50466000  1.0
  C  C52  1  0.52937000  0.48604000  0.34353000  1.0
  C  C53  1  0.46925000  0.46226000  0.73801000  1.0
  C  C54  1  0.53711000  0.40931000  0.76528000  1.0
  C  C55  1  0.52675000  0.37632000  0.84307000  1.0
  C  C56  1  0.44766000  0.39407000  0.89784000  1.0
  C  C57  1  0.37669000  0.44217000  0.86794000  1.0
  C  C58  1  0.38861000  0.47773000  0.79053000  1.0
  C  C59  1  0.44300000  0.43543000  0.14764000  1.0
  C  C60  1  0.44702000  0.46584000  0.22270000  1.0
  C  C61  1  0.60151000  0.41219000  0.22069000  1.0
  C  C62  1  0.59973000  0.37963000  0.14480000  1.0
  C  C63  1  0.51978000  0.39357000  0.10623000  1.0
  C  C64  1  0.44420000  0.37796000  0.98382000  1.0
  C  C65  1  0.52051000  0.37871000  0.02128000  1.0
  C  C66  1  0.52677000  0.45658000  0.26054000  1.0
  C  C67  1  0.43387000  0.96155000  0.43769000  1.0
  C  C68  1  0.60467000  0.96433000  0.44576000  1.0
  C  C69  1  0.60529000  0.05960000  0.45951000  1.0
  C  C70  1  0.49077000  0.25577000  0.50293000  1.0
  C  C71  1  0.51029000  0.92684000  0.48590000  1.0
  C  C72  1  0.43035000  0.05860000  0.43516000  1.0
  C  C73  1  0.50282000  0.09079000  0.48766000  1.0
  C  C74  1  0.48338000  0.05060000  0.57486000  1.0
  C  C75  1  0.48575000  0.95457000  0.57310000  1.0
  C  C76  1  0.49712000  0.18069000  0.49428000  1.0
  C  C77  1  0.51327000  0.83598000  0.48508000  1.0
  C  C78  1  0.51552000  0.75984000  0.48523000  1.0
  C  C79  1  0.94757000  0.57119000  0.44849000  1.0
  C  C80  1  0.96356000  0.41456000  0.47420000  1.0
  C  C81  1  0.06852000  0.42478000  0.46624000  1.0
  C  C82  1  0.91408000  0.49484000  0.50887000  1.0
  C  C83  1  0.05291000  0.57993000  0.44614000  1.0
  C  C84  1  0.09165000  0.51008000  0.49964000  1.0
  C  C85  1  0.04740000  0.51428000  0.58824000  1.0
  C  C86  1  0.94211000  0.51804000  0.59061000  1.0
  C  C87  1  0.19105000  0.51621000  0.49601000  1.0
  C  C88  1  0.81462000  0.48983000  0.51044000  1.0
  C  C89  1  0.68049000  0.33178000  0.10645000  1.0
  C  C90  1  0.66908000  0.25476000  0.07124000  1.0
  C  C91  1  0.74557000  0.20914000  0.03621000  1.0
  C  C92  1  0.83478000  0.23983000  0.03524000  1.0
  C  C93  1  0.84700000  0.31642000  0.06995000  1.0
  C  C94  1  0.77059000  0.36172000  0.10559000  1.0
  C  C95  1  0.43594000  0.10122000  0.35227000  1.0
  C  C96  1  0.39763000  0.18235000  0.34548000  1.0
  C  C97  1  0.40027000  0.22476000  0.27141000  1.0
  C  C98  1  0.44000000  0.18610000  0.20172000  1.0
  C  C99  1  0.47680000  0.10502000  0.20717000  1.0
  C  C100  1  0.47473000  0.06329000  0.28169000  1.0
  C  C101  1  0.68971000  0.91943000  0.46939000  1.0
  C  C102  1  0.74090000  0.86600000  0.41530000  1.0
  C  C103  1  0.82019000  0.82409000  0.43456000  1.0
  C  C104  1  0.84924000  0.83404000  0.50918000  1.0
  C  C105  1  0.79833000  0.88632000  0.56409000  1.0
  C  C106  1  0.71983000  0.92898000  0.54406000  1.0
  C  C107  1  0.66077000  0.11167000  0.39286000  1.0
  C  C108  1  0.69369000  0.18980000  0.41156000  1.0
  C  C109  1  0.74506000  0.24048000  0.35339000  1.0
  C  C110  1  0.76699000  0.21313000  0.27529000  1.0
  C  C111  1  0.73695000  0.13471000  0.25633000  1.0
  C  C112  1  0.68441000  0.08476000  0.31452000  1.0
  C  C113  1  0.91537000  0.56683000  0.36687000  1.0
  C  C114  1  0.83076000  0.60573000  0.35536000  1.0
  C  C115  1  0.79714000  0.60234000  0.28198000  1.0
  C  C116  1  0.84808000  0.56087000  0.21862000  1.0
  C  C117  1  0.93242000  0.52209000  0.22916000  1.0
  C  C118  1  0.96575000  0.52491000  0.30284000  1.0
  N  N119  1  0.26999000  0.52000000  0.49606000  1.0
  N  N120  1  0.73731000  0.49230000  0.50192000  1.0
  N  N121  1  0.39256000  0.08334000  0.61912000  1.0
  N  N122  1  0.36483000  0.51493000  0.25723000  1.0
  N  N123  1  0.93059000  0.33732000  0.52684000  1.0
  N  N124  1  0.89477000  0.46633000  0.66288000  1.0
  N  N125  1  0.07774000  0.66582000  0.47491000  1.0
  N  N126  1  0.29161000  0.46197000  0.92215000  1.0
  N  N127  1  0.31478000  0.53410000  0.76542000  1.0
  O  O128  1  0.43311000  0.63749000  0.49349000  1.0
  O  O129  1  0.59043000  0.62976000  0.48413000  1.0
  O  O130  1  0.40840000  0.50846000  0.62165000  1.0
  O  O131  1  0.56464000  0.50043000  0.61807000  1.0
  O  O132  1  0.41104000  0.38281000  0.50967000  1.0
  O  O133  1  0.56875000  0.37964000  0.49978000  1.0
  O  O134  1  0.45022000  0.49921000  0.38316000  1.0
  O  O135  1  0.60724000  0.49301000  0.36806000  1.0
  O  O136  1  0.39822000  0.13792000  0.66832000  1.0
  O  O137  1  0.31949000  0.05449000  0.60247000  1.0
  O  O138  1  0.29227000  0.47544000  0.27731000  1.0
  O  O139  1  0.37267000  0.59166000  0.25858000  1.0
  O  O140  1  0.85944000  0.30515000  0.51128000  1.0
  O  O141  1  0.97590000  0.31487000  0.58091000  1.0
  O  O142  1  0.93156000  0.46800000  0.72416000  1.0
  O  O143  1  0.82193000  0.43125000  0.65524000  1.0
  O  O144  1  0.02566000  0.69607000  0.53130000  1.0
  O  O145  1  0.14990000  0.69656000  0.44122000  1.0
  O  O146  1  0.27094000  0.53699000  0.93121000  1.0
  O  O147  1  0.24779000  0.40179000  0.95576000  1.0
  O  O148  1  0.23994000  0.50147000  0.75931000  1.0
  O  O149  1  0.33391000  0.60881000  0.75455000  1.0
