# generated using pymatgen
data_Cd3H24C38O15
_symmetry_space_group_name_H-M   'P 1'
_cell_length_a   18.48420000
_cell_length_b   19.99150000
_cell_length_c   22.61376297
_cell_angle_alpha   64.60171358
_cell_angle_beta   89.91517962
_cell_angle_gamma   62.46670000
_symmetry_Int_Tables_number   1
_chemical_formula_structural   Cd3H24C38O15
_chemical_formula_sum   'Cd12 H96 C152 O60'
_cell_volume   6488.64451313
_cell_formula_units_Z   4
loop_
 _symmetry_equiv_pos_site_id
 _symmetry_equiv_pos_as_xyz
  1  'x, y, z'
loop_
 _atom_site_type_symbol
 _atom_site_label
 _atom_site_symmetry_multiplicity
 _atom_site_fract_x
 _atom_site_fract_y
 _atom_site_fract_z
 _atom_site_occupancy
  Cd  Cd0  1  0.67827000  0.41257000  0.69842000  1.0
  Cd  Cd1  1  0.09065000  0.58771000  0.80121000  1.0
  Cd  Cd2  1  0.32174000  0.58742000  0.30159000  1.0
  Cd  Cd3  1  0.90935000  0.41229000  0.19879000  1.0
  Cd  Cd4  1  0.55316000  0.64481000  0.67893000  1.0
  Cd  Cd5  1  0.19744000  0.35532000  0.82068000  1.0
  Cd  Cd6  1  0.44684000  0.35519000  0.32108000  1.0
  Cd  Cd7  1  0.80256000  0.64467000  0.17932000  1.0
  Cd  Cd8  1  0.63052000  0.63108000  0.54214000  1.0
  Cd  Cd9  1  0.26133000  0.36903000  0.95721000  1.0
  Cd  Cd10  1  0.36947000  0.36893000  0.45786000  1.0
  Cd  Cd11  1  0.73867000  0.63097000  0.04279000  1.0
  H  H12  1  0.67966000  0.72438000  0.43811000  1.0
  H  H13  1  0.40271000  0.27532000  0.06133000  1.0
  H  H14  1  0.32034000  0.27562000  0.56189000  1.0
  H  H15  1  0.59729000  0.72468000  0.93867000  1.0
  H  H16  1  0.66174000  0.75112000  0.49430000  1.0
  H  H17  1  0.41239000  0.24898000  0.00494000  1.0
  H  H18  1  0.33826000  0.24887000  0.50571000  1.0
  H  H19  1  0.58761000  0.75102000  0.99507000  1.0
  H  H20  1  0.64555000  0.52470000  0.79480000  1.0
  H  H21  1  0.16997000  0.47567000  0.70487000  1.0
  H  H22  1  0.35444000  0.47530000  0.20520000  1.0
  H  H23  1  0.83002000  0.52433000  0.29513000  1.0
  H  H24  1  0.70068000  0.56808000  0.78735000  1.0
  H  H25  1  0.26841000  0.43225000  0.71214000  1.0
  H  H26  1  0.29932000  0.43192000  0.21265000  1.0
  H  H27  1  0.73159000  0.56775000  0.28785000  1.0
  H  H28  1  0.53653000  0.68830000  0.42027000  1.0
  H  H29  1  0.22504000  0.31186000  0.07966000  1.0
  H  H30  1  0.46347000  0.31171000  0.57973000  1.0
  H  H31  1  0.77495000  0.68815000  0.92033000  1.0
  H  H32  1  0.47233000  0.77476000  0.41800000  1.0
  H  H33  1  0.24792000  0.22461000  0.08314000  1.0
  H  H34  1  0.52766000  0.22525000  0.58199000  1.0
  H  H35  1  0.75208000  0.77538000  0.91687000  1.0
  H  H36  1  0.92629000  0.43345000  0.74355000  1.0
  H  H37  1  0.35967000  0.56689000  0.75590000  1.0
  H  H38  1  0.07372000  0.56655000  0.25644000  1.0
  H  H39  1  0.64034000  0.43311000  0.24409000  1.0
  H  H40  1  0.93579000  0.66616333  0.66717000  1.0
  H  H41  1  0.60168000  0.33416000  0.83279000  1.0
  H  H42  1  0.06420000  0.33383667  0.33283000  1.0
  H  H43  1  0.39833000  0.66584000  0.16721000  1.0
  H  H44  1  0.69857000  0.68055000  0.63537000  1.0
  H  H45  1  0.37859000  0.31976000  0.86388000  1.0
  H  H46  1  0.30143000  0.31944000  0.36464000  1.0
  H  H47  1  0.62141000  0.68023000  0.13611000  1.0
  H  H48  1  0.86063000  0.78741000  0.55657000  1.0
  H  H49  1  0.64698000  0.21365000  0.94327000  1.0
  H  H50  1  0.13937000  0.21260000  0.44343000  1.0
  H  H51  1  0.35303000  0.78635000  0.05673000  1.0
  H  H52  1  0.77672000  0.94566000  0.48393000  1.0
  H  H53  1  0.72167000  0.05540000  0.01610000  1.0
  H  H54  1  0.22328000  0.05435000  0.51607000  1.0
  H  H55  1  0.27833000  0.94458000  0.98391000  1.0
  H  H56  1  0.63937000  0.08358000  0.44240000  1.0
  H  H57  1  0.72292000  0.91703000  0.05790000  1.0
  H  H58  1  0.36063000  0.91643000  0.55761000  1.0
  H  H59  1  0.27708000  0.08296000  0.94211000  1.0
  H  H60  1  0.44467000  0.09146000  0.54845000  1.0
  H  H61  1  0.53740000  0.90771000  0.95225000  1.0
  H  H62  1  0.55532000  0.90856000  0.45154000  1.0
  H  H63  1  0.46261000  0.09227000  0.04776000  1.0
  H  H64  1  0.53215000  0.93408000  0.62583000  1.0
  H  H65  1  0.46713000  0.06507000  0.87470000  1.0
  H  H66  1  0.46785000  0.06593000  0.37416000  1.0
  H  H67  1  0.53287000  0.93493000  0.12530000  1.0
  H  H68  1  0.66099000  0.79458000  0.65724000  1.0
  H  H69  1  0.45584000  0.20501000  0.84294000  1.0
  H  H70  1  0.33900000  0.20542000  0.34276000  1.0
  H  H71  1  0.54416000  0.79498000  0.15706000  1.0
  H  H72  1  0.54624000  0.51794000  0.43683000  1.0
  H  H73  1  0.06403000  0.48205000  0.06279000  1.0
  H  H74  1  0.45374000  0.48206000  0.56319000  1.0
  H  H75  1  0.93597000  0.51795000  0.93721000  1.0
  H  H76  1  0.62448000  0.25597000  0.49478000  1.0
  H  H77  1  0.88075000  0.74394000  0.00518000  1.0
  H  H78  1  0.37552000  0.74404000  0.50522000  1.0
  H  H79  1  0.11925000  0.25606000  0.99481000  1.0
  H  H80  1  0.75629000  0.31220000  0.60745000  1.0
  H  H81  1  0.06894000  0.68797000  0.89225000  1.0
  H  H82  1  0.24370000  0.68781000  0.39255000  1.0
  H  H83  1  0.93106000  0.31203000  0.10775000  1.0
  H  H84  1  0.66768000  0.14015000  0.59389000  1.0
  H  H85  1  0.80836000  0.85959000  0.90645000  1.0
  H  H86  1  0.33232000  0.85985000  0.40612000  1.0
  H  H87  1  0.19164000  0.14041000  0.09355000  1.0
  H  H88  1  0.69912000  0.99008000  0.64449000  1.0
  H  H89  1  0.68977000  0.00964000  0.85625000  1.0
  H  H90  1  0.30088000  0.00992000  0.35552000  1.0
  H  H91  1  0.31023000  0.99037000  0.14375000  1.0
  H  H92  1  0.80471000  0.83301000  0.70429000  1.0
  H  H93  1  0.63831000  0.16672000  0.79655000  1.0
  H  H94  1  0.19530000  0.16698000  0.29572000  1.0
  H  H95  1  0.36169000  0.83327000  0.20346000  1.0
  H  H96  1  0.00220000  0.88427000  0.72351000  1.0
  H  H97  1  0.88661000  0.11605000  0.77602000  1.0
  H  H98  1  0.99781000  0.11574000  0.27647000  1.0
  H  H99  1  0.11339000  0.88395000  0.22398000  1.0
  H  H100  1  0.96837000  0.03647000  0.67708000  1.0
  H  H101  1  0.00491000  0.96406000  0.82229000  1.0
  H  H102  1  0.03164000  0.96353000  0.32292000  1.0
  H  H103  1  0.99509000  0.03594000  0.17771000  1.0
  H  H104  1  0.86555000  0.19250000  0.61392000  1.0
  H  H105  1  0.05827000  0.80793000  0.88553000  1.0
  H  H106  1  0.13445000  0.80749000  0.38609000  1.0
  H  H107  1  0.94173000  0.19206000  0.11447000  1.0
  C  C108  1  0.80681000  0.55266000  0.69090000  1.0
  C  C109  1  0.35915000  0.44768000  0.80837000  1.0
  C  C110  1  0.19318000  0.44736000  0.30909000  1.0
  C  C111  1  0.64086000  0.55232000  0.19162000  1.0
  C  C112  1  0.89407000  0.50351000  0.71708000  1.0
  C  C113  1  0.39740000  0.49684000  0.78237000  1.0
  C  C114  1  0.10593000  0.49651000  0.28291000  1.0
  C  C115  1  0.60260000  0.50316000  0.21762000  1.0
  C  C116  1  0.93977000  0.54545000  0.70734000  1.0
  C  C117  1  0.48505000  0.45489000  0.79234000  1.0
  C  C118  1  0.06023000  0.45456000  0.29266000  1.0
  C  C119  1  0.51496000  0.54511000  0.20766000  1.0
  C  C120  1  0.89875000  0.63551000  0.67263000  1.0
  C  C121  1  0.53396000  0.36484000  0.82716000  1.0
  C  C122  1  0.10124000  0.36450000  0.32737000  1.0
  C  C123  1  0.46605000  0.63515000  0.17284000  1.0
  C  C124  1  0.81109000  0.68521333  0.64812000  1.0
  C  C125  1  0.49591000  0.31511000  0.85160000  1.0
  C  C126  1  0.18890000  0.31478667  0.35188000  1.0
  C  C127  1  0.50410000  0.68488000  0.14840000  1.0
  C  C128  1  0.76615000  0.64271000  0.65732000  1.0
  C  C129  1  0.40845000  0.35761000  0.84206000  1.0
  C  C130  1  0.23385000  0.35729000  0.34268000  1.0
  C  C131  1  0.59155000  0.64239000  0.15793000  1.0
  C  C132  1  0.75615000  0.51142000  0.69495000  1.0
  C  C133  1  0.26727000  0.48880000  0.80435000  1.0
  C  C134  1  0.24385000  0.48858000  0.30505000  1.0
  C  C135  1  0.73274000  0.51118000  0.19565000  1.0
  C  C136  1  0.03311000  0.49408000  0.73403000  1.0
  C  C137  1  0.52717000  0.50623000  0.76570000  1.0
  C  C138  1  0.96689000  0.50594000  0.26596000  1.0
  C  C139  1  0.47284000  0.49377000  0.23430000  1.0
  C  C140  1  0.76491000  0.78022000  0.61053000  1.0
  C  C141  1  0.54472000  0.22012000  0.88945000  1.0
  C  C142  1  0.23509000  0.21978000  0.38947000  1.0
  C  C143  1  0.45529000  0.77987000  0.11055000  1.0
  C  C144  1  0.79824000  0.82446000  0.56236000  1.0
  C  C145  1  0.62201000  0.17627000  0.93761000  1.0
  C  C146  1  0.20175000  0.17555000  0.43764000  1.0
  C  C147  1  0.37799000  0.82373000  0.06239000  1.0
  C  C148  1  0.75148000  0.91236000  0.52179000  1.0
  C  C149  1  0.66335000  0.08838000  0.97828000  1.0
  C  C150  1  0.24852000  0.08765000  0.47821000  1.0
  C  C151  1  0.33665000  0.91162000  0.02172000  1.0
  C  C152  1  0.66923000  0.96120000  0.52753000  1.0
  C  C153  1  0.63040000  0.03912000  0.97270000  1.0
  C  C154  1  0.33076000  0.03880000  0.47247000  1.0
  C  C155  1  0.36960000  0.96087000  0.02730000  1.0
  C  C156  1  0.61708000  0.05039000  0.48323000  1.0
  C  C157  1  0.66766000  0.94990000  0.01710000  1.0
  C  C158  1  0.38292000  0.94961000  0.51678000  1.0
  C  C159  1  0.33235000  0.05010000  0.98290000  1.0
  C  C160  1  0.53708000  0.09639000  0.49013000  1.0
  C  C161  1  0.63415000  0.90348000  0.01035000  1.0
  C  C162  1  0.46292000  0.90362000  0.50987000  1.0
  C  C163  1  0.36585000  0.09651000  0.98965000  1.0
  C  C164  1  0.50759000  0.05433000  0.54366000  1.0
  C  C165  1  0.56285000  0.94515000  0.95690000  1.0
  C  C166  1  0.49240000  0.94567000  0.45634000  1.0
  C  C167  1  0.43716000  0.05484000  0.04310000  1.0
  C  C168  1  0.55620000  0.96715000  0.58656000  1.0
  C  C169  1  0.52406000  0.03234000  0.91393000  1.0
  C  C170  1  0.44379000  0.03285000  0.41344000  1.0
  C  C171  1  0.47594000  0.96766000  0.08607000  1.0
  C  C172  1  0.63720000  0.91790000  0.57897000  1.0
  C  C173  1  0.55533000  0.08202000  0.92133000  1.0
  C  C174  1  0.36279000  0.08210000  0.42103000  1.0
  C  C175  1  0.44467000  0.91798000  0.07867000  1.0
  C  C176  1  0.68634000  0.82743000  0.61911000  1.0
  C  C177  1  0.51380000  0.17250000  0.88106000  1.0
  C  C178  1  0.31365000  0.17257000  0.38089000  1.0
  C  C179  1  0.48620000  0.82749000  0.11894000  1.0
  C  C180  1  0.48197000  0.18942000  0.44037000  1.0
  C  C181  1  0.67220000  0.81044000  0.06020000  1.0
  C  C182  1  0.51803000  0.81059000  0.55963000  1.0
  C  C183  1  0.32781000  0.18956000  0.93980000  1.0
  C  C184  1  0.65381000  0.42088000  0.52232000  1.0
  C  C185  1  0.07485000  0.57920000  0.97734000  1.0
  C  C186  1  0.34618000  0.57912000  0.47769000  1.0
  C  C187  1  0.92515000  0.42081000  0.02265000  1.0
  C  C188  1  0.58887000  0.44946000  0.47014000  1.0
  C  C189  1  0.03835000  0.55055000  0.02956000  1.0
  C  C190  1  0.41112000  0.55055000  0.52987000  1.0
  C  C191  1  0.96165000  0.44945000  0.97044000  1.0
  C  C192  1  0.57724000  0.38935000  0.46230000  1.0
  C  C193  1  0.96675000  0.61059000  0.03758000  1.0
  C  C194  1  0.42275000  0.61065000  0.53771000  1.0
  C  C195  1  0.03325000  0.38941000  0.96242000  1.0
  C  C196  1  0.63286000  0.30123000  0.50435000  1.0
  C  C197  1  0.93439000  0.69872000  0.99556000  1.0
  C  C198  1  0.36713000  0.69877000  0.49566000  1.0
  C  C199  1  0.06561000  0.30128000  0.00444000  1.0
  C  C200  1  0.69944000  0.27127000  0.55622000  1.0
  C  C201  1  0.97110000  0.72875000  0.94363000  1.0
  C  C202  1  0.30056000  0.72872000  0.44379000  1.0
  C  C203  1  0.02890000  0.27125000  0.05637000  1.0
  C  C204  1  0.70818000  0.33259000  0.56558000  1.0
  C  C205  1  0.04115000  0.66751000  0.93417000  1.0
  C  C206  1  0.29182000  0.66741000  0.43443000  1.0
  C  C207  1  0.95885000  0.33249000  0.06582000  1.0
  C  C208  1  0.66139000  0.48634000  0.53253000  1.0
  C  C209  1  0.14770000  0.51383000  0.96691000  1.0
  C  C210  1  0.33860000  0.51366000  0.46748000  1.0
  C  C211  1  0.85230000  0.48618000  0.03308000  1.0
  C  C212  1  0.50339000  0.41956000  0.41079000  1.0
  C  C213  1  0.92317000  0.58029000  0.08930000  1.0
  C  C214  1  0.49660000  0.58044000  0.58922000  1.0
  C  C215  1  0.07683000  0.41971000  0.91070000  1.0
  C  C216  1  0.75890000  0.17772000  0.59833000  1.0
  C  C217  1  0.93699000  0.82236000  0.90153000  1.0
  C  C218  1  0.24110000  0.82228000  0.40167000  1.0
  C  C219  1  0.06301000  0.17765000  0.09846000  1.0
  C  C220  1  0.73348000  0.11828000  0.61195000  1.0
  C  C221  1  0.85219000  0.88164000  0.88816000  1.0
  C  C222  1  0.26652000  0.88172000  0.38805000  1.0
  C  C223  1  0.14781000  0.11836000  0.11184000  1.0
  C  C224  1  0.79060000  0.02842000  0.64854000  1.0
  C  C225  1  0.81941000  0.97154000  0.85159000  1.0
  C  C226  1  0.20940000  0.97158000  0.35146000  1.0
  C  C227  1  0.18059000  0.02846000  0.14841000  1.0
  C  C228  1  0.76535000  0.96709000  0.66202000  1.0
  C  C229  1  0.73295000  0.03274000  0.83847000  1.0
  C  C230  1  0.23465000  0.03291000  0.33798000  1.0
  C  C231  1  0.26706000  0.96727000  0.16153000  1.0
  C  C232  1  0.82347000  0.88015000  0.69517000  1.0
  C  C233  1  0.70413000  0.11971000  0.80537000  1.0
  C  C234  1  0.17653000  0.11985000  0.30483000  1.0
  C  C235  1  0.29588000  0.88029000  0.19463000  1.0
  C  C236  1  0.90994000  0.84999000  0.71721000  1.0
  C  C237  1  0.76028000  0.15008000  0.78295000  1.0
  C  C238  1  0.09006000  0.15002000  0.28278000  1.0
  C  C239  1  0.23973000  0.84992000  0.21705000  1.0
  C  C240  1  0.93574000  0.90843000  0.70602000  1.0
  C  C241  1  0.84439000  0.09177000  0.79380000  1.0
  C  C242  1  0.06427000  0.09157000  0.29397000  1.0
  C  C243  1  0.15561000  0.90823000  0.20620000  1.0
  C  C244  1  0.87763000  0.99808000  0.67171000  1.0
  C  C245  1  0.87595000  0.00210000  0.82811000  1.0
  C  C246  1  0.12238000  0.00192000  0.32829000  1.0
  C  C247  1  0.12405000  0.99791000  0.17188000  1.0
  C  C248  1  0.90233000  0.05957000  0.65878000  1.0
  C  C249  1  0.96207000  0.94078000  0.84080000  1.0
  C  C250  1  0.09768000  0.94044000  0.34121000  1.0
  C  C251  1  0.03793000  0.05922000  0.15920000  1.0
  C  C252  1  0.84496000  0.14652000  0.62367000  1.0
  C  C253  1  0.99174000  0.85378000  0.87595000  1.0
  C  C254  1  0.15504000  0.85348000  0.37633000  1.0
  C  C255  1  0.00826000  0.14622000  0.12405000  1.0
  C  C256  1  0.97388000  0.75587000  0.75017000  1.0
  C  C257  1  0.73004000  0.24424000  0.74988000  1.0
  C  C258  1  0.02613000  0.24413000  0.24982000  1.0
  C  C259  1  0.26996000  0.75576000  0.25012000  1.0
  O  O260  1  0.78557000  0.43223000  0.73188000  1.0
  O  O261  1  0.21757000  0.56799000  0.76745000  1.0
  O  O262  1  0.21444000  0.56778000  0.26811000  1.0
  O  O263  1  0.78243000  0.43200000  0.23255000  1.0
  O  O264  1  0.67848000  0.56187000  0.65786000  1.0
  O  O265  1  0.24004000  0.43827000  0.84149000  1.0
  O  O266  1  0.32151000  0.43813000  0.34214000  1.0
  O  O267  1  0.75997000  0.56173000  0.15850000  1.0
  O  O268  1  0.06750000  0.41201000  0.76621000  1.0
  O  O269  1  0.47964000  0.58830000  0.73351000  1.0
  O  O270  1  0.93250000  0.58801000  0.23378000  1.0
  O  O271  1  0.52037000  0.41169000  0.26649000  1.0
  O  O272  1  0.07459000  0.53303000  0.72374000  1.0
  O  O273  1  0.60756000  0.46725000  0.77602000  1.0
  O  O274  1  0.92540000  0.46698000  0.27625000  1.0
  O  O275  1  0.39245000  0.53274000  0.22399000  1.0
  O  O276  1  0.41829000  0.23613000  0.45532000  1.0
  O  O277  1  0.65527000  0.76357000  0.04547000  1.0
  O  O278  1  0.58170000  0.76387000  0.54468000  1.0
  O  O279  1  0.34474000  0.23642000  0.95454000  1.0
  O  O280  1  0.50203000  0.21686000  0.38407000  1.0
  O  O281  1  0.71972000  0.78310000  0.11635000  1.0
  O  O282  1  0.49797000  0.78315000  0.61593000  1.0
  O  O283  1  0.28029000  0.21689000  0.88366000  1.0
  O  O284  1  0.62100000  0.56484000  0.48466000  1.0
  O  O285  1  0.18562000  0.43525000  0.01468000  1.0
  O  O286  1  0.37899000  0.43516000  0.51535000  1.0
  O  O287  1  0.81438000  0.56476000  0.98531000  1.0
  O  O288  1  0.70484000  0.46577000  0.58756000  1.0
  O  O289  1  0.17062000  0.53453000  0.91182000  1.0
  O  O290  1  0.29515000  0.53423000  0.41245000  1.0
  O  O291  1  0.82938000  0.46548000  0.08817000  1.0
  O  O292  1  0.46039000  0.49821000  0.36800000  1.0
  O  O293  1  0.95872000  0.50163000  0.13204000  1.0
  O  O294  1  0.53961000  0.50178000  0.63201000  1.0
  O  O295  1  0.04128000  0.49837000  0.86796000  1.0
  O  O296  1  0.48745000  0.36053000  0.41591000  1.0
  O  O297  1  0.84834000  0.63930000  0.08440000  1.0
  O  O298  1  0.51254000  0.63946000  0.58410000  1.0
  O  O299  1  0.15166000  0.36071000  0.91559000  1.0
  O  O300  1  0.05024000  0.72997000  0.77377000  1.0
  O  O301  1  0.78022000  0.27038000  0.72568000  1.0
  O  O302  1  0.94977000  0.27004000  0.22621000  1.0
  O  O303  1  0.21978000  0.72961000  0.27432000  1.0
  O  O304  1  0.95097000  0.70334000  0.75276000  1.0
  O  O305  1  0.65477000  0.29661000  0.74772000  1.0
  O  O306  1  0.04903000  0.29666000  0.24725000  1.0
  O  O307  1  0.34524000  0.70339000  0.25229000  1.0
  O  O308  1  0.70058000  0.70373000  0.48571000  1.0
  O  O309  1  0.40377000  0.29616000  0.01383000  1.0
  O  O310  1  0.29942000  0.29626000  0.51430000  1.0
  O  O311  1  0.59622000  0.70385000  0.98617000  1.0
  O  O312  1  0.64342000  0.57908000  0.78635000  1.0
  O  O313  1  0.22211000  0.42131000  0.71317000  1.0
  O  O314  1  0.35657000  0.42092000  0.21365000  1.0
  O  O315  1  0.77788000  0.57870000  0.28682000  1.0
  O  O316  1  0.53168000  0.73832000  0.42203000  1.0
  O  O317  1  0.27035000  0.26172000  0.07813000  1.0
  O  O318  1  0.46832000  0.26168000  0.57797000  1.0
  O  O319  1  0.72965000  0.73828000  0.92187000  1.0
