# generated using pymatgen
data_Cd3H24C34(N2Cl)6
_symmetry_space_group_name_H-M   'P 1'
_cell_length_a   8.22269000
_cell_length_b   10.80340000
_cell_length_c   11.52190000
_cell_angle_alpha   70.98150000
_cell_angle_beta   85.02570000
_cell_angle_gamma   82.10520000
_symmetry_Int_Tables_number   1
_chemical_formula_structural   Cd3H24C34(N2Cl)6
_chemical_formula_sum   'Cd3 H24 C34 N12 Cl6'
_cell_volume   957.52067184
_cell_formula_units_Z   1
loop_
 _symmetry_equiv_pos_site_id
 _symmetry_equiv_pos_as_xyz
  1  'x, y, z'
loop_
 _atom_site_type_symbol
 _atom_site_label
 _atom_site_symmetry_multiplicity
 _atom_site_fract_x
 _atom_site_fract_y
 _atom_site_fract_z
 _atom_site_occupancy
  Cd  Cd0  1  0.00000000  0.00000000  0.50000000  1.0
  Cd  Cd1  1  0.09405000  0.22582000  0.65018000  1.0
  Cd  Cd2  1  0.90596000  0.77418000  0.34982000  1.0
  H  H3  1  0.20205000  0.57249000  0.19933000  1.0
  H  H4  1  0.79795000  0.42751000  0.80068000  1.0
  H  H5  1  0.03786000  0.46395000  0.38533000  1.0
  H  H6  1  0.96214000  0.53605000  0.61467000  1.0
  H  H7  1  0.45562000  0.26712000  0.57390000  1.0
  H  H8  1  0.54439000  0.73288000  0.42609000  1.0
  H  H9  1  0.63842000  0.36515000  0.39412000  1.0
  H  H10  1  0.36158000  0.63485000  0.60588000  1.0
  H  H11  1  0.98445000  0.61641000  0.92462000  1.0
  H  H12  1  0.01555000  0.38359000  0.07538000  1.0
  H  H13  1  0.10145000  0.76215000  0.73069000  1.0
  H  H14  1  0.89854000  0.23785000  0.26931000  1.0
  H  H15  1  0.63949000  0.95320000  0.62019000  1.0
  H  H16  1  0.36051000  0.04680000  0.37981000  1.0
  H  H17  1  0.50166000  0.81338000  0.80620000  1.0
  H  H18  1  0.49834000  0.18662000  0.19380000  1.0
  H  H19  1  0.27695000  0.74493000  0.93078000  1.0
  H  H20  1  0.72305000  0.25507000  0.06922000  1.0
  H  H21  1  0.11706000  0.96210000  0.92834000  1.0
  H  H22  1  0.88293000  0.03789000  0.07167000  1.0
  H  H23  1  0.19417000  0.07639000  0.06801000  1.0
  H  H24  1  0.80583000  0.92361000  0.93200000  1.0
  H  H25  1  0.57399000  0.78160000  0.20520000  1.0
  H  H26  1  0.42601000  0.21839000  0.79480000  1.0
  C  C27  1  0.26503000  0.50768000  0.28028000  1.0
  C  C28  1  0.73497000  0.49232000  0.71972000  1.0
  C  C29  1  0.17179000  0.44711000  0.38513000  1.0
  C  C30  1  0.82821000  0.55290000  0.61487000  1.0
  C  C31  1  0.40402000  0.33637000  0.48985000  1.0
  C  C32  1  0.59598000  0.66363000  0.51015000  1.0
  C  C33  1  0.50599000  0.39109000  0.38928000  1.0
  C  C34  1  0.49401000  0.60891000  0.61072000  1.0
  C  C35  1  0.43614000  0.47635000  0.28075000  1.0
  C  C36  1  0.56386000  0.52365000  0.71925000  1.0
  C  C37  1  0.54627000  0.51376000  0.17184000  1.0
  C  C38  1  0.45373000  0.48624000  0.82815000  1.0
  C  C39  1  0.67031000  0.61052000  0.99599000  1.0
  C  C40  1  0.32969000  0.38948000  0.00401000  1.0
  C  C41  1  0.73213000  0.70303000  0.88282000  1.0
  C  C42  1  0.26787000  0.29697000  0.11718000  1.0
  C  C43  1  0.90351000  0.68926000  0.85932000  1.0
  C  C44  1  0.09649000  0.31074000  0.14068000  1.0
  C  C45  1  0.96940000  0.77056000  0.75147000  1.0
  C  C46  1  0.03060000  0.22944000  0.24853000  1.0
  C  C47  1  0.71135000  0.87710000  0.68970000  1.0
  C  C48  1  0.28865000  0.12290000  0.31030000  1.0
  C  C49  1  0.63475000  0.79859000  0.79533000  1.0
  C  C50  1  0.36525000  0.20141000  0.20467000  1.0
  C  C51  1  0.43604000  0.74976000  0.06884000  1.0
  C  C52  1  0.56396000  0.25024000  0.93117000  1.0
  C  C53  1  0.30654000  0.79874000  0.98982000  1.0
  C  C54  1  0.69346000  0.20126000  0.01018000  1.0
  C  C55  1  0.21779000  0.91818000  0.98961000  1.0
  C  C56  1  0.78221000  0.08182000  0.01039000  1.0
  C  C57  1  0.26098000  0.98168000  0.06822000  1.0
  C  C58  1  0.73901000  0.01831000  0.93179000  1.0
  C  C59  1  0.47041000  0.81956000  0.14515000  1.0
  C  C60  1  0.52959000  0.18043000  0.85485000  1.0
  N  N61  1  0.23885000  0.36183000  0.48776000  1.0
  N  N62  1  0.76115000  0.63818000  0.51224000  1.0
  N  N63  1  0.67191000  0.42991000  0.15238000  1.0
  N  N64  1  0.32809000  0.57009000  0.84762000  1.0
  N  N65  1  0.74852000  0.49010000  0.04308000  1.0
  N  N66  1  0.25148000  0.50990000  0.95692000  1.0
  N  N67  1  0.53787000  0.62908000  0.07376000  1.0
  N  N68  1  0.46213000  0.37092000  0.92624000  1.0
  N  N69  1  0.87484000  0.86364000  0.66821000  1.0
  N  N70  1  0.12516000  0.13636000  0.33179000  1.0
  N  N71  1  0.38438000  0.93361000  0.14548000  1.0
  N  N72  1  0.61562000  0.06638000  0.85452000  1.0
  Cl  Cl73  1  0.83799000  0.21378000  0.55574000  1.0
  Cl  Cl74  1  0.16201000  0.78623000  0.44426000  1.0
  Cl  Cl75  1  0.24589000  0.00860000  0.64278000  1.0
  Cl  Cl76  1  0.75411000  0.99140000  0.35721000  1.0
  Cl  Cl77  1  0.09740000  0.29202000  0.82996000  1.0
  Cl  Cl78  1  0.90260000  0.70797000  0.17004000  1.0
