# generated using pymatgen
data_SnH22(C14O)2
_symmetry_space_group_name_H-M   'P 1'
_cell_length_a   9.92520000
_cell_length_b   10.40910000
_cell_length_c   10.98100000
_cell_angle_alpha   90.00000000
_cell_angle_beta   102.95600000
_cell_angle_gamma   90.00000000
_symmetry_Int_Tables_number   1
_chemical_formula_structural   SnH22(C14O)2
_chemical_formula_sum   'Sn2 H44 C56 O4'
_cell_volume   1105.59263006
_cell_formula_units_Z   2
loop_
 _symmetry_equiv_pos_site_id
 _symmetry_equiv_pos_as_xyz
  1  'x, y, z'
loop_
 _atom_site_type_symbol
 _atom_site_label
 _atom_site_symmetry_multiplicity
 _atom_site_fract_x
 _atom_site_fract_y
 _atom_site_fract_z
 _atom_site_occupancy
  Sn  Sn0  1  0.42958000  0.25821000  0.01552000  1.0
  Sn  Sn1  1  0.57042000  0.75821000  0.98449000  1.0
  H  H2  1  0.65864000  0.39083000  0.12433000  1.0
  H  H3  1  0.34136000  0.89083000  0.87567000  1.0
  H  H4  1  0.70342000  0.26819000  0.02587000  1.0
  H  H5  1  0.29658000  0.76819000  0.97413000  1.0
  H  H6  1  0.67735000  0.22756000  0.17798000  1.0
  H  H7  1  0.32265000  0.72756000  0.82202000  1.0
  H  H8  1  0.58555000  0.10255000  0.83397000  1.0
  H  H9  1  0.41444000  0.60254000  0.16603000  1.0
  H  H10  1  0.51646000  0.98120000  0.63725000  1.0
  H  H11  1  0.48355000  0.48120000  0.36276000  1.0
  H  H12  1  0.26748000  0.95819000  0.53340000  1.0
  H  H13  1  0.73253000  0.45819000  0.46660000  1.0
  H  H14  1  0.08841000  0.05800000  0.62850000  1.0
  H  H15  1  0.91159000  0.55801000  0.37150000  1.0
  H  H16  1  0.15624000  0.18154000  0.82582000  1.0
  H  H17  1  0.84376000  0.68155000  0.17418000  1.0
  H  H18  1  0.25766000  0.52409000  0.00325000  1.0
  H  H19  1  0.74235000  0.02409000  0.99674000  1.0
  H  H20  1  0.03779000  0.59226000  0.05437000  1.0
  H  H21  1  0.96221000  0.09226000  0.94562000  1.0
  H  H22  1  0.89254000  0.43379000  0.13625000  1.0
  H  H23  1  0.10745000  0.93378000  0.86373000  1.0
  H  H24  1  0.96950000  0.20596000  0.16769000  1.0
  H  H25  1  0.03049000  0.70596000  0.83230000  1.0
  H  H26  1  0.19340000  0.13964000  0.12507000  1.0
  H  H27  1  0.80659000  0.63963000  0.87493000  1.0
  H  H28  1  0.24196000  0.92645000  0.13345000  1.0
  H  H29  1  0.75804000  0.42645000  0.86656000  1.0
  H  H30  1  0.03795000  0.82262000  0.18015000  1.0
  H  H31  1  0.96204000  0.32262000  0.81987000  1.0
  H  H32  1  0.05829000  0.69177000  0.37503000  1.0
  H  H33  1  0.94172000  0.19177000  0.62498000  1.0
  H  H34  1  0.28514000  0.66431000  0.52115000  1.0
  H  H35  1  0.71487000  0.16432000  0.47886000  1.0
  H  H36  1  0.53342000  0.71361000  0.58215000  1.0
  H  H37  1  0.46658000  0.21361000  0.41785000  1.0
  H  H38  1  0.78031000  0.75919000  0.64318000  1.0
  H  H39  1  0.21969000  0.25919000  0.35682000  1.0
  H  H40  1  0.99222000  0.85322000  0.59661000  1.0
  H  H41  1  0.00778000  0.35322000  0.40339000  1.0
  H  H42  1  0.97893000  0.97547000  0.39800000  1.0
  H  H43  1  0.02107000  0.47547000  0.60200000  1.0
  H  H44  1  0.75681000  0.00330000  0.24787000  1.0
  H  H45  1  0.24318000  0.50331000  0.75213000  1.0
  C  C46  1  0.64424000  0.28998000  0.09655000  1.0
  C  C47  1  0.35575000  0.78998000  0.90345000  1.0
  C  C48  1  0.37573000  0.15005000  0.84507000  1.0
  C  C49  1  0.62427000  0.65005000  0.15494000  1.0
  C  C50  1  0.47594000  0.09335000  0.79041000  1.0
  C  C51  1  0.52407000  0.59334000  0.20959000  1.0
  C  C52  1  0.43740000  0.02439000  0.67893000  1.0
  C  C53  1  0.56260000  0.52438000  0.32107000  1.0
  C  C54  1  0.29773000  0.01156000  0.62060000  1.0
  C  C55  1  0.70228000  0.51156000  0.37940000  1.0
  C  C56  1  0.19733000  0.06814000  0.67387000  1.0
  C  C57  1  0.80268000  0.56814000  0.32614000  1.0
  C  C58  1  0.23596000  0.13729000  0.78541000  1.0
  C  C59  1  0.76405000  0.63729000  0.21459000  1.0
  C  C60  1  0.24288000  0.32729000  0.06223000  1.0
  C  C61  1  0.75712000  0.82728000  0.93777000  1.0
  C  C62  1  0.19624000  0.45433000  0.04131000  1.0
  C  C63  1  0.80376000  0.95433000  0.95869000  1.0
  C  C64  1  0.07125000  0.49256000  0.06870000  1.0
  C  C65  1  0.92874000  0.99255000  0.93128000  1.0
  C  C66  1  0.98945000  0.40368000  0.11430000  1.0
  C  C67  1  0.01054000  0.90367000  0.88568000  1.0
  C  C68  1  0.03292000  0.27627000  0.13226000  1.0
  C  C69  1  0.96707000  0.77626000  0.86773000  1.0
  C  C70  1  0.15924000  0.23868000  0.10738000  1.0
  C  C71  1  0.84076000  0.73868000  0.89262000  1.0
  C  C72  1  0.49556000  0.99571000  0.16195000  1.0
  C  C73  1  0.50444000  0.49572000  0.83805000  1.0
  C  C74  1  0.50539000  0.91506000  0.27666000  1.0
  C  C75  1  0.49460000  0.41506000  0.72334000  1.0
  C  C76  1  0.38508000  0.85936000  0.30212000  1.0
  C  C77  1  0.61492000  0.35936000  0.69788000  1.0
  C  C78  1  0.25236000  0.87098000  0.21922000  1.0
  C  C79  1  0.74764000  0.37098000  0.78079000  1.0
  C  C80  1  0.13811000  0.81197000  0.24508000  1.0
  C  C81  1  0.86188000  0.31197000  0.75493000  1.0
  C  C82  1  0.14983000  0.73696000  0.35524000  1.0
  C  C83  1  0.85017000  0.23696000  0.64478000  1.0
  C  C84  1  0.27565000  0.72248000  0.43692000  1.0
  C  C85  1  0.72435000  0.22248000  0.56309000  1.0
  C  C86  1  0.39651000  0.78319000  0.41403000  1.0
  C  C87  1  0.60349000  0.28319000  0.58597000  1.0
  C  C88  1  0.52533000  0.77010000  0.49689000  1.0
  C  C89  1  0.47467000  0.27010000  0.50312000  1.0
  C  C90  1  0.64469000  0.82617000  0.47222000  1.0
  C  C91  1  0.35531000  0.32617000  0.52778000  1.0
  C  C92  1  0.77567000  0.81201000  0.55664000  1.0
  C  C93  1  0.22433000  0.31201000  0.44336000  1.0
  C  C94  1  0.89289000  0.86490000  0.53088000  1.0
  C  C95  1  0.10711000  0.36490000  0.46912000  1.0
  C  C96  1  0.88503000  0.93517000  0.41853000  1.0
  C  C97  1  0.11497000  0.43516000  0.58147000  1.0
  C  C98  1  0.76055000  0.95152000  0.33483000  1.0
  C  C99  1  0.23945000  0.45153000  0.66517000  1.0
  C  C100  1  0.63597000  0.89847000  0.35834000  1.0
  C  C101  1  0.36403000  0.39848000  0.64166000  1.0
  O  O102  1  0.42907000  0.10147000  0.15892000  1.0
  O  O103  1  0.57093000  0.60148000  0.84108000  1.0
  O  O104  1  0.55433000  0.96076000  0.07596000  1.0
  O  O105  1  0.44567000  0.46077000  0.92405000  1.0
