# generated using pymatgen
data_CuH5C10N3O4
_symmetry_space_group_name_H-M   'P 1'
_cell_length_a   12.08490000
_cell_length_b   14.58710000
_cell_length_c   20.42760000
_cell_angle_alpha   90.00000000
_cell_angle_beta   90.00000000
_cell_angle_gamma   89.99990000
_symmetry_Int_Tables_number   1
_chemical_formula_structural   CuH5C10N3O4
_chemical_formula_sum   'Cu8 H40 C80 N24 O32'
_cell_volume   3601.05178231
_cell_formula_units_Z   8
loop_
 _symmetry_equiv_pos_site_id
 _symmetry_equiv_pos_as_xyz
  1  'x, y, z'
loop_
 _atom_site_type_symbol
 _atom_site_label
 _atom_site_symmetry_multiplicity
 _atom_site_fract_x
 _atom_site_fract_y
 _atom_site_fract_z
 _atom_site_occupancy
  Cu  Cu0  1  0.57216000  0.36643000  0.29764000  1.0
  Cu  Cu1  1  0.92784000  0.13357000  0.79764000  1.0
  Cu  Cu2  1  0.07216000  0.13357000  0.70236000  1.0
  Cu  Cu3  1  0.42784000  0.36643000  0.20236000  1.0
  Cu  Cu4  1  0.42785000  0.63357000  0.70236000  1.0
  Cu  Cu5  1  0.07216000  0.86643000  0.20236000  1.0
  Cu  Cu6  1  0.92784000  0.86643000  0.29764000  1.0
  Cu  Cu7  1  0.57216000  0.63357000  0.79764000  1.0
  H  H8  1  0.86900000  0.72888000  0.05872000  1.0
  H  H9  1  0.63101000  0.77112000  0.55872000  1.0
  H  H10  1  0.36899000  0.77112000  0.94128000  1.0
  H  H11  1  0.13101000  0.72888000  0.44128000  1.0
  H  H12  1  0.13101000  0.27112000  0.94128000  1.0
  H  H13  1  0.36899000  0.22888000  0.44128000  1.0
  H  H14  1  0.63101000  0.22888000  0.05872000  1.0
  H  H15  1  0.86899000  0.27112000  0.55872000  1.0
  H  H16  1  0.62264000  0.51356000  0.05646000  1.0
  H  H17  1  0.87736000  0.98643000  0.55645000  1.0
  H  H18  1  0.12264000  0.98644000  0.94354000  1.0
  H  H19  1  0.37736000  0.51357000  0.44355000  1.0
  H  H20  1  0.37736000  0.48643000  0.94354000  1.0
  H  H21  1  0.12264000  0.01357000  0.44354000  1.0
  H  H22  1  0.87736000  0.01357000  0.05645000  1.0
  H  H23  1  0.62264000  0.48643000  0.55646000  1.0
  H  H24  1  0.75095000  0.61345000  0.23953000  1.0
  H  H25  1  0.74905000  0.88655000  0.73953000  1.0
  H  H26  1  0.25095000  0.88655000  0.76047000  1.0
  H  H27  1  0.24905000  0.61345000  0.26047000  1.0
  H  H28  1  0.24905000  0.38655000  0.76047000  1.0
  H  H29  1  0.25095000  0.11345000  0.26047000  1.0
  H  H30  1  0.74905000  0.11345000  0.23953000  1.0
  H  H31  1  0.75095000  0.38655000  0.73953000  1.0
  H  H32  1  0.92018000  0.63431000  0.95595000  1.0
  H  H33  1  0.57982000  0.86569000  0.45595000  1.0
  H  H34  1  0.42018000  0.86570000  0.04404000  1.0
  H  H35  1  0.07982000  0.63431000  0.54405000  1.0
  H  H36  1  0.07982000  0.36569000  0.04404000  1.0
  H  H37  1  0.42018000  0.13430000  0.54405000  1.0
  H  H38  1  0.57982000  0.13431000  0.95595000  1.0
  H  H39  1  0.92018000  0.36569000  0.45595000  1.0
  H  H40  1  0.57088000  0.61880000  0.95549000  1.0
  H  H41  1  0.92912000  0.88120000  0.45549000  1.0
  H  H42  1  0.07088000  0.88120000  0.04451000  1.0
  H  H43  1  0.42912000  0.61880000  0.54451000  1.0
  H  H44  1  0.42912000  0.38120000  0.04451000  1.0
  H  H45  1  0.07088000  0.11880000  0.54451000  1.0
  H  H46  1  0.92912000  0.11880000  0.95549000  1.0
  H  H47  1  0.57088000  0.38120000  0.45549000  1.0
  C  C48  1  0.60939000  0.48877000  0.18718000  1.0
  C  C49  1  0.89061000  0.01123000  0.68718000  1.0
  C  C50  1  0.10939000  0.01123000  0.81282000  1.0
  C  C51  1  0.39061000  0.48877000  0.31282000  1.0
  C  C52  1  0.39061000  0.51123000  0.81282000  1.0
  C  C53  1  0.10939000  0.98877000  0.31282000  1.0
  C  C54  1  0.89061000  0.98877000  0.18718000  1.0
  C  C55  1  0.60940000  0.51123000  0.68718000  1.0
  C  C56  1  0.67983000  0.55710000  0.15137000  1.0
  C  C57  1  0.82017000  0.94290000  0.65137000  1.0
  C  C58  1  0.17983000  0.94290000  0.84863000  1.0
  C  C59  1  0.32018000  0.55710000  0.34863000  1.0
  C  C60  1  0.32018000  0.44290000  0.84863000  1.0
  C  C61  1  0.17982000  0.05710000  0.34863000  1.0
  C  C62  1  0.82017000  0.05710000  0.15137000  1.0
  C  C63  1  0.67983000  0.44290000  0.65137000  1.0
  C  C64  1  0.88856000  0.74447000  0.18892000  1.0
  C  C65  1  0.61144000  0.75553000  0.68892000  1.0
  C  C66  1  0.38857000  0.75553000  0.81108000  1.0
  C  C67  1  0.11144000  0.74447000  0.31108000  1.0
  C  C68  1  0.11144000  0.25553000  0.81108000  1.0
  C  C69  1  0.38856000  0.24447000  0.31108000  1.0
  C  C70  1  0.61144000  0.24447000  0.18892000  1.0
  C  C71  1  0.88856000  0.25553000  0.68892000  1.0
  C  C72  1  0.74618000  0.62125000  0.04986000  1.0
  C  C73  1  0.75382000  0.87875000  0.54986000  1.0
  C  C74  1  0.24618000  0.87875000  0.95014000  1.0
  C  C75  1  0.25382000  0.62125000  0.45014000  1.0
  C  C76  1  0.25382000  0.37875000  0.95014000  1.0
  C  C77  1  0.24618000  0.12125000  0.45014000  1.0
  C  C78  1  0.75382000  0.12125000  0.04986000  1.0
  C  C79  1  0.74618000  0.37875000  0.54986000  1.0
  C  C80  1  0.81633000  0.67995000  0.08424000  1.0
  C  C81  1  0.68367000  0.82005000  0.58423000  1.0
  C  C82  1  0.31633000  0.82005000  0.91577000  1.0
  C  C83  1  0.18367000  0.67995000  0.41577000  1.0
  C  C84  1  0.18367000  0.32005000  0.91576000  1.0
  C  C85  1  0.31633000  0.17995000  0.41576000  1.0
  C  C86  1  0.68367000  0.17995000  0.08423000  1.0
  C  C87  1  0.81633000  0.32005000  0.58423000  1.0
  C  C88  1  0.67708000  0.56014000  0.08291000  1.0
  C  C89  1  0.82292000  0.93986000  0.58291000  1.0
  C  C90  1  0.17708000  0.93986000  0.91709000  1.0
  C  C91  1  0.32292000  0.56014000  0.41709000  1.0
  C  C92  1  0.32292000  0.43986000  0.91709000  1.0
  C  C93  1  0.17708000  0.06014000  0.41709000  1.0
  C  C94  1  0.82292000  0.06014000  0.08291000  1.0
  C  C95  1  0.67708000  0.43986000  0.58291000  1.0
  C  C96  1  0.74942000  0.61596000  0.18630000  1.0
  C  C97  1  0.75058000  0.88405000  0.68630000  1.0
  C  C98  1  0.24942000  0.88404000  0.81370000  1.0
  C  C99  1  0.25058000  0.61595000  0.31370000  1.0
  C  C100  1  0.25058000  0.38405000  0.81370000  1.0
  C  C101  1  0.24942000  0.11595000  0.31370000  1.0
  C  C102  1  0.75058000  0.11595000  0.18630000  1.0
  C  C103  1  0.74942000  0.38405000  0.68630000  1.0
  C  C104  1  0.81694000  0.67774000  0.15260000  1.0
  C  C105  1  0.68306000  0.82226000  0.65260000  1.0
  C  C106  1  0.31695000  0.82227000  0.84740000  1.0
  C  C107  1  0.18305000  0.67774000  0.34740000  1.0
  C  C108  1  0.18306000  0.32227000  0.84740000  1.0
  C  C109  1  0.31695000  0.17773000  0.34740000  1.0
  C  C110  1  0.68305000  0.17774000  0.15260000  1.0
  C  C111  1  0.81695000  0.32226000  0.65260000  1.0
  C  C112  1  0.83530000  0.63291000  0.93877000  1.0
  C  C113  1  0.66471000  0.86709000  0.43877000  1.0
  C  C114  1  0.33529000  0.86709000  0.06123000  1.0
  C  C115  1  0.16471000  0.63291000  0.56123000  1.0
  C  C116  1  0.16470000  0.36709000  0.06123000  1.0
  C  C117  1  0.33530000  0.13291000  0.56123000  1.0
  C  C118  1  0.66471000  0.13291000  0.93877000  1.0
  C  C119  1  0.83529000  0.36709000  0.43877000  1.0
  C  C120  1  0.65607000  0.62346000  0.93933000  1.0
  C  C121  1  0.84393000  0.87654000  0.43933000  1.0
  C  C122  1  0.15607000  0.87654000  0.06067000  1.0
  C  C123  1  0.34393000  0.62346000  0.56067000  1.0
  C  C124  1  0.34393000  0.37654000  0.06067000  1.0
  C  C125  1  0.15607000  0.12346000  0.56067000  1.0
  C  C126  1  0.84393000  0.12346000  0.93933000  1.0
  C  C127  1  0.65607000  0.37654000  0.43933000  1.0
  N  N128  1  0.68918000  0.63062000  0.87808000  1.0
  N  N129  1  0.81082000  0.86938000  0.37808000  1.0
  N  N130  1  0.18918000  0.86938000  0.12192000  1.0
  N  N131  1  0.31082000  0.63062000  0.62192000  1.0
  N  N132  1  0.31082000  0.36938000  0.12192000  1.0
  N  N133  1  0.18918000  0.13062000  0.62192000  1.0
  N  N134  1  0.81082000  0.13062000  0.87808000  1.0
  N  N135  1  0.68918000  0.36938000  0.37808000  1.0
  N  N136  1  0.74570000  0.62469000  0.98014000  1.0
  N  N137  1  0.75430000  0.87531000  0.48014000  1.0
  N  N138  1  0.24570000  0.87531000  0.01986000  1.0
  N  N139  1  0.25430000  0.62469000  0.51986000  1.0
  N  N140  1  0.25430000  0.37531000  0.01986000  1.0
  N  N141  1  0.24570000  0.12469000  0.51986000  1.0
  N  N142  1  0.75430000  0.12469000  0.98014000  1.0
  N  N143  1  0.74570000  0.37531000  0.48014000  1.0
  N  N144  1  0.80306000  0.63623000  0.87731000  1.0
  N  N145  1  0.69694000  0.86377000  0.37731000  1.0
  N  N146  1  0.30306000  0.86377000  0.12269000  1.0
  N  N147  1  0.19694000  0.63623000  0.62269000  1.0
  N  N148  1  0.19694000  0.36377000  0.12269000  1.0
  N  N149  1  0.30306000  0.13623000  0.62269000  1.0
  N  N150  1  0.69694000  0.13623000  0.87731000  1.0
  N  N151  1  0.80306000  0.36377000  0.37731000  1.0
  O  O152  1  0.64175000  0.46600000  0.24409000  1.0
  O  O153  1  0.85825000  0.03399000  0.74409000  1.0
  O  O154  1  0.14174000  0.03399000  0.75591000  1.0
  O  O155  1  0.35826000  0.46601000  0.25591000  1.0
  O  O156  1  0.35825000  0.53399000  0.75591000  1.0
  O  O157  1  0.14174000  0.96601000  0.25591000  1.0
  O  O158  1  0.85825000  0.96601000  0.24409000  1.0
  O  O159  1  0.64174000  0.53399000  0.74409000  1.0
  O  O160  1  0.52413000  0.45904000  0.15704000  1.0
  O  O161  1  0.97587000  0.04096000  0.65704000  1.0
  O  O162  1  0.02413000  0.04096000  0.84296000  1.0
  O  O163  1  0.47587000  0.45904000  0.34297000  1.0
  O  O164  1  0.47587000  0.54096000  0.84296000  1.0
  O  O165  1  0.02413000  0.95904000  0.34296000  1.0
  O  O166  1  0.97587000  0.95904000  0.15704000  1.0
  O  O167  1  0.52413000  0.54096000  0.65703000  1.0
  O  O168  1  0.85456000  0.76887000  0.24518000  1.0
  O  O169  1  0.64543000  0.73113000  0.74517000  1.0
  O  O170  1  0.35456000  0.73113000  0.75482000  1.0
  O  O171  1  0.14544000  0.76887000  0.25483000  1.0
  O  O172  1  0.14544000  0.23113000  0.75482000  1.0
  O  O173  1  0.35456000  0.26887000  0.25482000  1.0
  O  O174  1  0.64544000  0.26887000  0.24518000  1.0
  O  O175  1  0.85456000  0.23113000  0.74518000  1.0
  O  O176  1  0.97565000  0.77169000  0.15950000  1.0
  O  O177  1  0.52435000  0.72831000  0.65950000  1.0
  O  O178  1  0.47564000  0.72831000  0.84050000  1.0
  O  O179  1  0.02435000  0.77169000  0.34050000  1.0
  O  O180  1  0.02435000  0.22831000  0.84050000  1.0
  O  O181  1  0.47565000  0.27169000  0.34050000  1.0
  O  O182  1  0.52436000  0.27169000  0.15950000  1.0
  O  O183  1  0.97564000  0.22831000  0.65950000  1.0
