# generated using pymatgen
data_CoH7C10SN2
_symmetry_space_group_name_H-M   'P 1'
_cell_length_a   5.60394000
_cell_length_b   12.93150000
_cell_length_c   13.57620000
_cell_angle_alpha   70.78470000
_cell_angle_beta   78.12880000
_cell_angle_gamma   77.57420000
_symmetry_Int_Tables_number   1
_chemical_formula_structural   CoH7C10SN2
_chemical_formula_sum   'Co4 H28 C40 S4 N8'
_cell_volume   897.49961931
_cell_formula_units_Z   4
loop_
 _symmetry_equiv_pos_site_id
 _symmetry_equiv_pos_as_xyz
  1  'x, y, z'
loop_
 _atom_site_type_symbol
 _atom_site_label
 _atom_site_symmetry_multiplicity
 _atom_site_fract_x
 _atom_site_fract_y
 _atom_site_fract_z
 _atom_site_occupancy
  Co  Co0  1  0.62955000  0.92034000  0.98279000  1.0
  Co  Co1  1  0.53249000  0.58014000  0.51722000  1.0
  Co  Co2  1  0.37054000  0.07965000  0.01719000  1.0
  Co  Co3  1  0.46751000  0.41990000  0.48278000  1.0
  H  H4  1  0.25985000  0.83154000  0.16113000  1.0
  H  H5  1  0.25487000  0.66905000  0.33824000  1.0
  H  H6  1  0.74025000  0.16845000  0.83888000  1.0
  H  H7  1  0.74503000  0.33093000  0.66178000  1.0
  H  H8  1  0.94544000  0.70826000  0.19623000  1.0
  H  H9  1  0.85305000  0.79215000  0.30274000  1.0
  H  H10  1  0.05463000  0.29174000  0.80379000  1.0
  H  H11  1  0.14685000  0.20783000  0.69727000  1.0
  H  H12  1  0.96730000  0.59647000  0.07585000  1.0
  H  H13  1  0.64164000  0.90330000  0.42337000  1.0
  H  H14  1  0.03273000  0.40354000  0.92417000  1.0
  H  H15  1  0.35829000  0.09670000  0.57663000  1.0
  H  H16  1  0.19333000  0.53755000  0.91951000  1.0
  H  H17  1  0.65138000  0.96207000  0.58020000  1.0
  H  H18  1  0.80671000  0.46245000  0.08050000  1.0
  H  H19  1  0.34857000  0.03793000  0.41980000  1.0
  H  H20  1  0.55184000  0.54307000  0.77623000  1.0
  H  H21  1  0.87119000  0.95663000  0.72388000  1.0
  H  H22  1  0.44818000  0.45694000  0.22377000  1.0
  H  H23  1  0.12875000  0.04338000  0.27611000  1.0
  H  H24  1  0.86605000  0.66225000  0.75490000  1.0
  H  H25  1  0.28314000  0.83805000  0.74523000  1.0
  H  H26  1  0.13397000  0.33775000  0.24510000  1.0
  H  H27  1  0.71681000  0.16196000  0.25475000  1.0
  H  H28  1  0.81969000  0.77699000  0.87457000  1.0
  H  H29  1  0.47184000  0.72379000  0.62536000  1.0
  H  H30  1  0.18035000  0.22301000  0.12543000  1.0
  H  H31  1  0.52809000  0.27621000  0.37464000  1.0
  C  C32  1  0.13405000  0.98598000  0.88640000  1.0
  C  C33  1  0.00623000  0.51398000  0.61355000  1.0
  C  C34  1  0.86605000  0.01402000  0.11359000  1.0
  C  C35  1  0.99375000  0.48602000  0.38645000  1.0
  C  C36  1  0.27161000  0.77963000  0.11080000  1.0
  C  C37  1  0.16420000  0.72084000  0.38862000  1.0
  C  C38  1  0.72845000  0.22037000  0.88920000  1.0
  C  C39  1  0.83570000  0.27916000  0.61139000  1.0
  C  C40  1  0.09334000  0.71103000  0.12999000  1.0
  C  C41  1  0.93699000  0.78933000  0.36920000  1.0
  C  C42  1  0.90672000  0.28897000  0.87003000  1.0
  C  C43  1  0.06294000  0.21067000  0.63080000  1.0
  C  C44  1  0.10586000  0.64870000  0.06368000  1.0
  C  C45  1  0.82012000  0.85125000  0.43571000  1.0
  C  C46  1  0.89419000  0.35130000  0.93633000  1.0
  C  C47  1  0.17979000  0.14875000  0.56428000  1.0
  C  C48  1  0.30247000  0.65295000  0.97912000  1.0
  C  C49  1  0.93572000  0.84702000  0.52057000  1.0
  C  C50  1  0.69756000  0.34706000  0.02089000  1.0
  C  C51  1  0.06424000  0.15298000  0.47943000  1.0
  C  C52  1  0.33165000  0.58958000  0.90875000  1.0
  C  C53  1  0.83079000  0.91022000  0.59103000  1.0
  C  C54  1  0.66837000  0.41043000  0.09125000  1.0
  C  C55  1  0.16916000  0.08978000  0.40896000  1.0
  C  C56  1  0.53066000  0.59258000  0.82960000  1.0
  C  C57  1  0.95310000  0.90729000  0.67041000  1.0
  C  C58  1  0.46937000  0.40742000  0.17040000  1.0
  C  C59  1  0.04686000  0.09272000  0.32958000  1.0
  C  C60  1  0.70835000  0.66018000  0.81746000  1.0
  C  C61  1  0.18613000  0.84002000  0.68260000  1.0
  C  C62  1  0.29167000  0.33983000  0.18254000  1.0
  C  C63  1  0.81382000  0.15999000  0.31739000  1.0
  C  C64  1  0.68323000  0.72450000  0.88378000  1.0
  C  C65  1  0.29208000  0.77592000  0.61616000  1.0
  C  C66  1  0.31680000  0.27550000  0.11622000  1.0
  C  C67  1  0.70787000  0.22408000  0.38383000  1.0
  C  C68  1  0.48073000  0.72277000  0.96545000  1.0
  C  C69  1  0.16999000  0.77746000  0.53434000  1.0
  C  C70  1  0.51930000  0.27724000  0.03454000  1.0
  C  C71  1  0.82995000  0.22255000  0.46565000  1.0
  S  S72  1  0.39502000  0.03543000  0.85981000  1.0
  S  S73  1  0.29011000  0.46439000  0.63980000  1.0
  S  S74  1  0.60507000  0.96456000  0.14018000  1.0
  S  S75  1  0.70990000  0.53562000  0.36020000  1.0
  N  N76  1  0.94713000  0.94839000  0.91382000  1.0
  N  N77  1  0.80936000  0.55151000  0.58617000  1.0
  N  N78  1  0.05294000  0.05161000  0.08617000  1.0
  N  N79  1  0.19067000  0.44846000  0.41384000  1.0
  N  N80  1  0.45799000  0.78867000  0.03050000  1.0
  N  N81  1  0.27855000  0.71165000  0.46928000  1.0
  N  N82  1  0.54206000  0.21133000  0.96950000  1.0
  N  N83  1  0.72138000  0.28835000  0.53071000  1.0
