# generated using pymatgen
data_Cu3H12C17(IN2)3
_symmetry_space_group_name_H-M   'P 1'
_cell_length_a   7.57265000
_cell_length_b   9.63252000
_cell_length_c   15.60560000
_cell_angle_alpha   87.41070000
_cell_angle_beta   78.60970000
_cell_angle_gamma   84.39210000
_symmetry_Int_Tables_number   1
_chemical_formula_structural   Cu3H12C17(IN2)3
_chemical_formula_sum   'Cu6 H24 C34 I6 N12'
_cell_volume   1110.17884709
_cell_formula_units_Z   2
loop_
 _symmetry_equiv_pos_site_id
 _symmetry_equiv_pos_as_xyz
  1  'x, y, z'
loop_
 _atom_site_type_symbol
 _atom_site_label
 _atom_site_symmetry_multiplicity
 _atom_site_fract_x
 _atom_site_fract_y
 _atom_site_fract_z
 _atom_site_occupancy
  Cu  Cu0  1  0.46295000  0.42363000  0.44452000  1.0
  Cu  Cu1  1  0.53704000  0.57635000  0.55548000  1.0
  Cu  Cu2  1  0.30334000  0.52703000  0.03409000  1.0
  Cu  Cu3  1  0.69665000  0.47298000  0.96591000  1.0
  Cu  Cu4  1  0.04235000  0.62407000  0.96330000  1.0
  Cu  Cu5  1  0.95766000  0.37596000  0.03670000  1.0
  H  H6  1  0.81491000  0.88488000  0.93193000  1.0
  H  H7  1  0.18516000  0.11517000  0.06807000  1.0
  H  H8  1  0.72007000  0.01299000  0.80651000  1.0
  H  H9  1  0.27995000  0.98704000  0.19349000  1.0
  H  H10  1  0.05228000  0.69700000  0.64118000  1.0
  H  H11  1  0.94768000  0.30299000  0.35883000  1.0
  H  H12  1  0.12751000  0.58210000  0.77356000  1.0
  H  H13  1  0.87248000  0.41790000  0.22645000  1.0
  H  H14  1  0.70871000  0.13198000  0.68893000  1.0
  H  H15  1  0.29127000  0.86803000  0.31107000  1.0
  H  H16  1  0.61382000  0.23566000  0.55592000  1.0
  H  H17  1  0.38617000  0.76435000  0.44407000  1.0
  H  H18  1  0.82704000  0.85519000  0.42017000  1.0
  H  H19  1  0.17294000  0.14478000  0.57983000  1.0
  H  H20  1  0.91472000  0.75337000  0.55007000  1.0
  H  H21  1  0.08524000  0.24661000  0.44995000  1.0
  H  H22  1  0.48927000  0.29861000  0.13417000  1.0
  H  H23  1  0.51076000  0.70137000  0.86582000  1.0
  H  H24  1  0.15559000  0.66503000  0.19524000  1.0
  H  H25  1  0.84446000  0.33496000  0.80476000  1.0
  H  H26  1  0.19137000  0.63487000  0.35325000  1.0
  H  H27  1  0.80864000  0.36512000  0.64675000  1.0
  H  H28  1  0.73708000  0.94579000  0.30755000  1.0
  H  H29  1  0.26291000  0.05420000  0.69244000  1.0
  C  C30  1  0.86460000  0.84707000  0.86593000  1.0
  C  C31  1  0.13544000  0.15296000  0.13407000  1.0
  C  C32  1  0.81340000  0.91944000  0.79424000  1.0
  C  C33  1  0.18662000  0.08058000  0.20576000  1.0
  C  C34  1  0.87676000  0.86830000  0.70961000  1.0
  C  C35  1  0.12323000  0.13171000  0.29038000  1.0
  C  C36  1  0.99376000  0.74480000  0.70347000  1.0
  C  C37  1  0.00622000  0.25521000  0.29652000  1.0
  C  C38  1  0.03848000  0.67888000  0.77790000  1.0
  C  C39  1  0.96151000  0.32113000  0.22210000  1.0
  C  C40  1  0.82281000  0.93500000  0.63056000  1.0
  C  C41  1  0.17718000  0.06500000  0.36945000  1.0
  C  C42  1  0.73639000  0.07136000  0.62967000  1.0
  C  C43  1  0.26359000  0.92863000  0.37033000  1.0
  C  C44  1  0.68317000  0.13071000  0.55478000  1.0
  C  C45  1  0.31682000  0.86927000  0.44522000  1.0
  C  C46  1  0.71527000  0.05454000  0.47749000  1.0
  C  C47  1  0.28471000  0.94545000  0.52250000  1.0
  C  C48  1  0.80302000  0.91943000  0.47773000  1.0
  C  C49  1  0.19697000  0.08055000  0.52228000  1.0
  C  C50  1  0.85428000  0.86072000  0.55256000  1.0
  C  C51  1  0.14569000  0.13927000  0.44746000  1.0
  C  C52  1  0.65522000  0.11119000  0.39926000  1.0
  C  C53  1  0.34477000  0.88881000  0.60074000  1.0
  C  C54  1  0.53998000  0.23696000  0.30373000  1.0
  C  C55  1  0.46003000  0.76298000  0.69629000  1.0
  C  C56  1  0.43847000  0.35626000  0.27040000  1.0
  C  C57  1  0.56155000  0.64371000  0.72960000  1.0
  C  C58  1  0.42049000  0.37331000  0.18321000  1.0
  C  C59  1  0.57951000  0.62668000  0.81679000  1.0
  C  C60  1  0.23710000  0.57640000  0.21785000  1.0
  C  C61  1  0.76292000  0.42360000  0.78215000  1.0
  C  C62  1  0.25857000  0.56025000  0.30411000  1.0
  C  C63  1  0.74144000  0.43975000  0.69588000  1.0
  I  I64  1  0.74782000  0.57341000  0.40645000  1.0
  I  I65  1  0.25217000  0.42658000  0.59355000  1.0
  I  I66  1  0.26284000  0.79656000  0.01308000  1.0
  I  I67  1  0.73716000  0.20345000  0.98691000  1.0
  I  I68  1  0.75548000  0.61756000  0.08969000  1.0
  I  I69  1  0.24454000  0.38246000  0.91031000  1.0
  N  N70  1  0.97430000  0.72727000  0.85889000  1.0
  N  N71  1  0.02573000  0.27274000  0.14112000  1.0
  N  N72  1  0.67906000  0.04364000  0.32205000  1.0
  N  N73  1  0.32094000  0.95635000  0.67794000  1.0
  N  N74  1  0.60750000  0.12074000  0.26101000  1.0
  N  N75  1  0.39251000  0.87922000  0.73897000  1.0
  N  N76  1  0.56610000  0.23564000  0.38819000  1.0
  N  N77  1  0.43389000  0.76436000  0.61183000  1.0
  N  N78  1  0.36122000  0.45170000  0.33123000  1.0
  N  N79  1  0.63877000  0.54829000  0.66878000  1.0
  N  N80  1  0.32099000  0.48429000  0.15654000  1.0
  N  N81  1  0.67902000  0.51574000  0.84345000  1.0
