# generated using pymatgen
data_CoH16C20(NO2)2
_symmetry_space_group_name_H-M   'P 1'
_cell_length_a   9.41916000
_cell_length_b   10.26650000
_cell_length_c   10.43150000
_cell_angle_alpha   113.54400000
_cell_angle_beta   104.32700000
_cell_angle_gamma   97.32620000
_symmetry_Int_Tables_number   1
_chemical_formula_structural   CoH16C20(NO2)2
_chemical_formula_sum   'Co2 H32 C40 N4 O8'
_cell_volume   866.42461014
_cell_formula_units_Z   2
loop_
 _symmetry_equiv_pos_site_id
 _symmetry_equiv_pos_as_xyz
  1  'x, y, z'
loop_
 _atom_site_type_symbol
 _atom_site_label
 _atom_site_symmetry_multiplicity
 _atom_site_fract_x
 _atom_site_fract_y
 _atom_site_fract_z
 _atom_site_occupancy
  Co  Co0  1  0.86880000  0.04394000  0.33209000  1.0
  Co  Co1  1  0.13120000  0.95606000  0.66791000  1.0
  H  H2  1  0.62082000  0.83732000  0.60111000  1.0
  H  H3  1  0.37918000  0.16267000  0.39890000  1.0
  H  H4  1  0.56747000  0.86359000  0.43732000  1.0
  H  H5  1  0.43253000  0.13640000  0.56268000  1.0
  H  H6  1  0.67653000  0.60182000  0.58448000  1.0
  H  H7  1  0.32347000  0.39817000  0.41552000  1.0
  H  H8  1  0.64185000  0.33799000  0.42912000  1.0
  H  H9  1  0.35815000  0.66200000  0.57088000  1.0
  H  H10  1  0.51423000  0.40281000  0.03816000  1.0
  H  H11  1  0.48577000  0.59720000  0.96184000  1.0
  H  H12  1  0.54816000  0.66874000  0.19532000  1.0
  H  H13  1  0.45184000  0.33126000  0.80468000  1.0
  H  H14  1  0.55344000  0.16814000  0.01658000  1.0
  H  H15  1  0.44656000  0.83186000  0.98341000  1.0
  H  H16  1  0.43560000  0.12979000  0.11267000  1.0
  H  H17  1  0.56440000  0.87020000  0.88732000  1.0
  H  H18  1  0.06367000  0.36883000  0.51404000  1.0
  H  H19  1  0.93633000  0.63118000  0.48596000  1.0
  H  H20  1  0.06317000  0.59789000  0.72370000  1.0
  H  H21  1  0.93683000  0.40212000  0.27630000  1.0
  H  H22  1  0.69854000  0.33686000  0.76983000  1.0
  H  H23  1  0.30146000  0.66314000  0.23018000  1.0
  H  H24  1  0.71069000  0.12110000  0.55527000  1.0
  H  H25  1  0.28931000  0.87890000  0.44473000  1.0
  H  H26  1  0.90575000  0.77533000  0.80568000  1.0
  H  H27  1  0.09425000  0.22467000  0.19432000  1.0
  H  H28  1  0.88161000  0.97996000  0.02365000  1.0
  H  H29  1  0.11838000  0.02004000  0.97635000  1.0
  H  H30  1  0.82711000  0.71605000  0.22930000  1.0
  H  H31  1  0.17288000  0.28395000  0.77071000  1.0
  H  H32  1  0.83686000  0.49653000  0.01742000  1.0
  H  H33  1  0.16314000  0.50347000  0.98259000  1.0
  C  C34  1  0.80557000  0.88453000  0.52422000  1.0
  C  C35  1  0.19443000  0.11547000  0.47578000  1.0
  C  C36  1  0.64049000  0.81576000  0.49598000  1.0
  C  C37  1  0.35951000  0.18424000  0.50403000  1.0
  C  C38  1  0.61227000  0.65326000  0.40053000  1.0
  C  C39  1  0.38773000  0.34674000  0.59947000  1.0
  C  C40  1  0.64123000  0.55877000  0.46451000  1.0
  C  C41  1  0.35877000  0.44123000  0.53549000  1.0
  C  C42  1  0.62208000  0.40990000  0.37663000  1.0
  C  C43  1  0.37792000  0.59010000  0.62337000  1.0
  C  C44  1  0.57524000  0.35108000  0.22208000  1.0
  C  C45  1  0.42476000  0.64892000  0.77792000  1.0
  C  C46  1  0.54971000  0.44632000  0.15821000  1.0
  C  C47  1  0.45029000  0.55368000  0.84178000  1.0
  C  C48  1  0.56743000  0.59517000  0.24612000  1.0
  C  C49  1  0.43257000  0.40484000  0.75388000  1.0
  C  C50  1  0.54901000  0.18839000  0.12702000  1.0
  C  C51  1  0.45099000  0.81161000  0.87297000  1.0
  C  C52  1  0.66552000  0.12624000  0.19700000  1.0
  C  C53  1  0.33449000  0.87376000  0.80299000  1.0
  C  C54  1  0.98324000  0.36638000  0.57276000  1.0
  C  C55  1  0.01677000  0.63362000  0.42724000  1.0
  C  C56  1  0.98239000  0.49427000  0.68978000  1.0
  C  C57  1  0.01762000  0.50574000  0.31023000  1.0
  C  C58  1  0.87960000  0.48673000  0.76525000  1.0
  C  C59  1  0.12041000  0.51327000  0.23475000  1.0
  C  C60  1  0.78261000  0.34875000  0.71737000  1.0
  C  C61  1  0.21740000  0.65125000  0.28264000  1.0
  C  C62  1  0.78911000  0.22777000  0.59789000  1.0
  C  C63  1  0.21090000  0.77223000  0.40212000  1.0
  C  C64  1  0.87246000  0.61576000  0.89164000  1.0
  C  C65  1  0.12754000  0.38424000  0.10837000  1.0
  C  C66  1  0.88745000  0.75559000  0.89636000  1.0
  C  C67  1  0.11254000  0.24441000  0.10364000  1.0
  C  C68  1  0.87524000  0.87107000  0.01822000  1.0
  C  C69  1  0.12476000  0.12893000  0.98177000  1.0
  C  C70  1  0.84186000  0.72353000  0.13212000  1.0
  C  C71  1  0.15814000  0.27647000  0.86788000  1.0
  C  C72  1  0.84782000  0.60153000  0.01313000  1.0
  C  C73  1  0.15218000  0.39847000  0.98687000  1.0
  N  N74  1  0.88783000  0.23446000  0.52535000  1.0
  N  N75  1  0.11217000  0.76554000  0.47465000  1.0
  N  N76  1  0.85410000  0.85732000  0.13600000  1.0
  N  N77  1  0.14590000  0.14268000  0.86400000  1.0
  O  O78  1  0.83507000  0.91469000  0.42542000  1.0
  O  O79  1  0.16493000  0.08531000  0.57459000  1.0
  O  O80  1  0.90520000  0.89703000  0.63915000  1.0
  O  O81  1  0.09481000  0.10297000  0.36085000  1.0
  O  O82  1  0.80227000  0.15740000  0.19866000  1.0
  O  O83  1  0.19773000  0.84260000  0.80134000  1.0
  O  O84  1  0.62880000  0.04792000  0.25833000  1.0
  O  O85  1  0.37121000  0.95208000  0.74166000  1.0
