# generated using pymatgen
data_ZnH10(C7N2)2
_symmetry_space_group_name_H-M   'P 1'
_cell_length_a   16.42730000
_cell_length_b   16.58870000
_cell_length_c   20.55710000
_cell_angle_alpha   90.00050000
_cell_angle_beta   90.00170000
_cell_angle_gamma   89.99200000
_symmetry_Int_Tables_number   1
_chemical_formula_structural   ZnH10(C7N2)2
_chemical_formula_sum   'Zn8 H80 C112 N32'
_cell_volume   5601.96492986
_cell_formula_units_Z   8
loop_
 _symmetry_equiv_pos_site_id
 _symmetry_equiv_pos_as_xyz
  1  'x, y, z'
loop_
 _atom_site_type_symbol
 _atom_site_label
 _atom_site_symmetry_multiplicity
 _atom_site_fract_x
 _atom_site_fract_y
 _atom_site_fract_z
 _atom_site_occupancy
  Zn  Zn0  1  0.48963000  0.64664000  0.00134000  1.0
  Zn  Zn1  1  0.64713000  0.48909000  0.99886000  1.0
  Zn  Zn2  1  0.51039000  0.35336000  0.00137000  1.0
  Zn  Zn3  1  0.35287000  0.51091000  0.99887000  1.0
  Zn  Zn4  1  0.01038000  0.14665000  0.49864000  1.0
  Zn  Zn5  1  0.14713000  0.01093000  0.50112000  1.0
  Zn  Zn6  1  0.98960000  0.85336000  0.49864000  1.0
  Zn  Zn7  1  0.85286000  0.98909000  0.50111000  1.0
  H  H8  1  0.41034000  0.74236000  0.12801000  1.0
  H  H9  1  0.24307000  0.09093000  0.62853000  1.0
  H  H10  1  0.99980000  0.83159000  0.65094000  1.0
  H  H11  1  0.75686000  0.90900000  0.62850000  1.0
  H  H12  1  0.91034000  0.75764000  0.37196000  1.0
  H  H13  1  0.16836000  0.99983000  0.34813000  1.0
  H  H14  1  0.08961000  0.24235000  0.37196000  1.0
  H  H15  1  0.83166000  0.00016000  0.34810000  1.0
  H  H16  1  0.89909000  0.66717000  0.27762000  1.0
  H  H17  1  0.70429000  0.01632000  0.24708000  1.0
  H  H18  1  0.10084000  0.33267000  0.27750000  1.0
  H  H19  1  0.66834000  0.50016000  0.15188000  1.0
  H  H20  1  0.29564000  0.98373000  0.24703000  1.0
  H  H21  1  0.98498000  0.29526000  0.75214000  1.0
  H  H22  1  0.66732000  0.89724000  0.72261000  1.0
  H  H23  1  0.01500000  0.70473000  0.75215000  1.0
  H  H24  1  0.33236000  0.10267000  0.72286000  1.0
  H  H25  1  0.48500000  0.20468000  0.74784000  1.0
  H  H26  1  0.16767000  0.60271000  0.77713000  1.0
  H  H27  1  0.51482000  0.79501000  0.74756000  1.0
  H  H28  1  0.83233000  0.39731000  0.77712000  1.0
  H  H29  1  0.39909000  0.83273000  0.22238000  1.0
  H  H30  1  0.58965000  0.25765000  0.12803000  1.0
  H  H31  1  0.20421000  0.48369000  0.25289000  1.0
  H  H32  1  0.60090000  0.16737000  0.22244000  1.0
  H  H33  1  0.79562000  0.51621000  0.25300000  1.0
  H  H34  1  0.87027000  0.59518000  0.33819000  1.0
  H  H35  1  0.67308000  0.08756000  0.30732000  1.0
  H  H36  1  0.12956000  0.40472000  0.33806000  1.0
  H  H37  1  0.32694000  0.91253000  0.30727000  1.0
  H  H38  1  0.91295000  0.32640000  0.69203000  1.0
  H  H39  1  0.59443000  0.86877000  0.66220000  1.0
  H  H40  1  0.08702000  0.67360000  0.69203000  1.0
  H  H41  1  0.33162000  0.49983000  0.15186000  1.0
  H  H42  1  0.40539000  0.13089000  0.66249000  1.0
  H  H43  1  0.41300000  0.17356000  0.80796000  1.0
  H  H44  1  0.09463000  0.63093000  0.83749000  1.0
  H  H45  1  0.58671000  0.82633000  0.80770000  1.0
  H  H46  1  0.90538000  0.36907000  0.83749000  1.0
  H  H47  1  0.37027000  0.90476000  0.16183000  1.0
  H  H48  1  0.17300000  0.41247000  0.19264000  1.0
  H  H49  1  0.62963000  0.09530000  0.16190000  1.0
  H  H50  1  0.82691000  0.58738000  0.19275000  1.0
  H  H51  1  0.44730000  0.26660000  0.13496000  1.0
  H  H52  1  0.50018000  0.33156000  0.84906000  1.0
  H  H53  1  0.19028000  0.61162000  0.07948000  1.0
  H  H54  1  0.55269000  0.73340000  0.13494000  1.0
  H  H55  1  0.80973000  0.38834000  0.07947000  1.0
  H  H56  1  0.38897000  0.80852000  0.92115000  1.0
  H  H57  1  0.26562000  0.44825000  0.86448000  1.0
  H  H58  1  0.61106000  0.19148000  0.92116000  1.0
  H  H59  1  0.73442000  0.55177000  0.86450000  1.0
  H  H60  1  0.88902000  0.69145000  0.57882000  1.0
  H  H61  1  0.76566000  0.05170000  0.63552000  1.0
  H  H62  1  0.11102000  0.30852000  0.57883000  1.0
  H  H63  1  0.74306000  0.40908000  0.87145000  1.0
  H  H64  1  0.23435000  0.94826000  0.63554000  1.0
  H  H65  1  0.94731000  0.23338000  0.36503000  1.0
  H  H66  1  0.69027000  0.88839000  0.42050000  1.0
  H  H67  1  0.05269000  0.76662000  0.36504000  1.0
  H  H68  1  0.30971000  0.11165000  0.42051000  1.0
  H  H69  1  0.19697000  0.38146000  0.65225000  1.0
  H  H70  1  0.22867000  0.94969000  0.76146000  1.0
  H  H71  1  0.80321000  0.61850000  0.65236000  1.0
  H  H72  1  0.77130000  0.05032000  0.76143000  1.0
  H  H73  1  0.04891000  0.77148000  0.23897000  1.0
  H  H74  1  0.49980000  0.66835000  0.84901000  1.0
  H  H75  1  0.38241000  0.19742000  0.34716000  1.0
  H  H76  1  0.95113000  0.22844000  0.23892000  1.0
  H  H77  1  0.61758000  0.80266000  0.34709000  1.0
  H  H78  1  0.54890000  0.72857000  0.26101000  1.0
  H  H79  1  0.88244000  0.30254000  0.15282000  1.0
  H  H80  1  0.45107000  0.27152000  0.26108000  1.0
  H  H81  1  0.11759000  0.69737000  0.15288000  1.0
  H  H82  1  0.69701000  0.11854000  0.84774000  1.0
  H  H83  1  0.72890000  0.55033000  0.73865000  1.0
  H  H84  1  0.30298000  0.88148000  0.84777000  1.0
  H  H85  1  0.25690000  0.59095000  0.87148000  1.0
  H  H86  1  0.27127000  0.44966000  0.73855000  1.0
  H  H87  1  0.00017000  0.16844000  0.65093000  1.0
  C  C88  1  0.36434000  0.70129000  0.10970000  1.0
  C  C89  1  0.20179000  0.13642000  0.60983000  1.0
  C  C90  1  0.78704000  0.11276000  0.77272000  1.0
  C  C91  1  0.11181000  0.78727000  0.22737000  1.0
  C  C92  1  0.34875000  0.24491000  0.32209000  1.0
  C  C93  1  0.88822000  0.21268000  0.22734000  1.0
  C  C94  1  0.65122000  0.75514000  0.32205000  1.0
  C  C95  1  0.61179000  0.71275000  0.27262000  1.0
  C  C96  1  0.84879000  0.25507000  0.17789000  1.0
  C  C97  1  0.38816000  0.28728000  0.27265000  1.0
  C  C98  1  0.15122000  0.74488000  0.17792000  1.0
  C  C99  1  0.74464000  0.15190000  0.82233000  1.0
  C  C100  1  0.05411000  0.86423000  0.63652000  1.0
  C  C101  1  0.71307000  0.61273000  0.72731000  1.0
  C  C102  1  0.25535000  0.84812000  0.82235000  1.0
  C  C103  1  0.28701000  0.38723000  0.72727000  1.0
  C  C104  1  0.79817000  0.86352000  0.60982000  1.0
  C  C105  1  0.86434000  0.79871000  0.39027000  1.0
  C  C106  1  0.13609000  0.94579000  0.36288000  1.0
  C  C107  1  0.13562000  0.20129000  0.39027000  1.0
  C  C108  1  0.86393000  0.05420000  0.36287000  1.0
  C  C109  1  0.84839000  0.63062000  0.29646000  1.0
  C  C110  1  0.69759000  0.08095000  0.25779000  1.0
  C  C111  1  0.15150000  0.36926000  0.29636000  1.0
  C  C112  1  0.63607000  0.55421000  0.13712000  1.0
  C  C113  1  0.30238000  0.91911000  0.25776000  1.0
  C  C114  1  0.91972000  0.30182000  0.74144000  1.0
  C  C115  1  0.63020000  0.84706000  0.70394000  1.0
  C  C116  1  0.08026000  0.69818000  0.74144000  1.0
  C  C117  1  0.36961000  0.15274000  0.70418000  1.0
  C  C118  1  0.41973000  0.19815000  0.75855000  1.0
  C  C119  1  0.13040000  0.65278000  0.79582000  1.0
  C  C120  1  0.58006000  0.80167000  0.75831000  1.0
  C  C121  1  0.86959000  0.34723000  0.79581000  1.0
  C  C122  1  0.34840000  0.86932000  0.20355000  1.0
  C  C123  1  0.63565000  0.29872000  0.10971000  1.0
  C  C124  1  0.19753000  0.41906000  0.24216000  1.0
  C  C125  1  0.65156000  0.13074000  0.20360000  1.0
  C  C126  1  0.80235000  0.58083000  0.24226000  1.0
  C  C127  1  0.42385000  0.32726000  0.12853000  1.0
  C  C128  1  0.25152000  0.63506000  0.08534000  1.0
  C  C129  1  0.57613000  0.67273000  0.12851000  1.0
  C  C130  1  0.74848000  0.36492000  0.08533000  1.0
  C  C131  1  0.36518000  0.74792000  0.91515000  1.0
  C  C132  1  0.32667000  0.42467000  0.87123000  1.0
  C  C133  1  0.63483000  0.25208000  0.91515000  1.0
  C  C134  1  0.36389000  0.44577000  0.13712000  1.0
  C  C135  1  0.67335000  0.57533000  0.87122000  1.0
  C  C136  1  0.86522000  0.75204000  0.58484000  1.0
  C  C137  1  0.82670000  0.07529000  0.62876000  1.0
  C  C138  1  0.13481000  0.24792000  0.58484000  1.0
  C  C139  1  0.17330000  0.92469000  0.62877000  1.0
  C  C140  1  0.92387000  0.17272000  0.37147000  1.0
  C  C141  1  0.75152000  0.86495000  0.41464000  1.0
  C  C142  1  0.07613000  0.82728000  0.37148000  1.0
  C  C143  1  0.24846000  0.13508000  0.41465000  1.0
  C  C144  1  0.27945000  0.70299000  0.11989000  1.0
  C  C145  1  0.44587000  0.36420000  0.86347000  1.0
  C  C146  1  0.61951000  0.62475000  0.17276000  1.0
  C  C147  1  0.72055000  0.29699000  0.11988000  1.0
  C  C148  1  0.38044000  0.37523000  0.17276000  1.0
  C  C149  1  0.37484000  0.38041000  0.82757000  1.0
  C  C150  1  0.70309000  0.27946000  0.88012000  1.0
  C  C151  1  0.62516000  0.61954000  0.82755000  1.0
  C  C152  1  0.29690000  0.72055000  0.88013000  1.0
  C  C153  1  0.87486000  0.11956000  0.67241000  1.0
  C  C154  1  0.20308000  0.22054000  0.61987000  1.0
  C  C155  1  0.12513000  0.88044000  0.67242000  1.0
  C  C156  1  0.70179000  0.36359000  0.89016000  1.0
  C  C157  1  0.79692000  0.77940000  0.61986000  1.0
  C  C158  1  0.77946000  0.79701000  0.38009000  1.0
  C  C159  1  0.11952000  0.87525000  0.32724000  1.0
  C  C160  1  0.22050000  0.20301000  0.38009000  1.0
  C  C161  1  0.88050000  0.12474000  0.32722000  1.0
  C  C162  1  0.72872000  0.63262000  0.25784000  1.0
  C  C163  1  0.73117000  0.17606000  0.19359000  1.0
  C  C164  1  0.27118000  0.36733000  0.25779000  1.0
  C  C165  1  0.26881000  0.82396000  0.19358000  1.0
  C  C166  1  0.82419000  0.26832000  0.80587000  1.0
  C  C167  1  0.55412000  0.63574000  0.86343000  1.0
  C  C168  1  0.63231000  0.72858000  0.74285000  1.0
  C  C169  1  0.17579000  0.73170000  0.80588000  1.0
  C  C170  1  0.36762000  0.27129000  0.74295000  1.0
  C  C171  1  0.32419000  0.23167000  0.69412000  1.0
  C  C172  1  0.13235000  0.77133000  0.75704000  1.0
  C  C173  1  0.67575000  0.76819000  0.69403000  1.0
  C  C174  1  0.86762000  0.22868000  0.75703000  1.0
  C  C175  1  0.22874000  0.86736000  0.24217000  1.0
  C  C176  1  0.23112000  0.32394000  0.30638000  1.0
  C  C177  1  0.77125000  0.13265000  0.24217000  1.0
  C  C178  1  0.29819000  0.63643000  0.89017000  1.0
  C  C179  1  0.76880000  0.67602000  0.30642000  1.0
  C  C180  1  0.65108000  0.65233000  0.23534000  1.0
  C  C181  1  0.76602000  0.24197000  0.16147000  1.0
  C  C182  1  0.34885000  0.34766000  0.23533000  1.0
  C  C183  1  0.23398000  0.75801000  0.16149000  1.0
  C  C184  1  0.75797000  0.23394000  0.83839000  1.0
  C  C185  1  0.65249000  0.65159000  0.76508000  1.0
  C  C186  1  0.24202000  0.76608000  0.83840000  1.0
  C  C187  1  0.34751000  0.34834000  0.76512000  1.0
  C  C188  1  0.25796000  0.26606000  0.66160000  1.0
  C  C189  1  0.94588000  0.13579000  0.63652000  1.0
  C  C190  1  0.15245000  0.84837000  0.73489000  1.0
  C  C191  1  0.74207000  0.73385000  0.66158000  1.0
  C  C192  1  0.84753000  0.15164000  0.73487000  1.0
  C  C193  1  0.15110000  0.84768000  0.26466000  1.0
  C  C194  1  0.26597000  0.25802000  0.33850000  1.0
  C  C195  1  0.84891000  0.15231000  0.26464000  1.0
  C  C196  1  0.73398000  0.74200000  0.33850000  1.0
  C  C197  1  0.24461000  0.34810000  0.67766000  1.0
  C  C198  1  0.21294000  0.88725000  0.77274000  1.0
  C  C199  1  0.75549000  0.65184000  0.67771000  1.0
  N  N200  1  0.38527000  0.63773000  0.07251000  1.0
  N  N201  1  0.13817000  0.11544000  0.57217000  1.0
  N  N202  1  0.05997000  0.89593000  0.57611000  1.0
  N  N203  1  0.86178000  0.88453000  0.57216000  1.0
  N  N204  1  0.88527000  0.86227000  0.42746000  1.0
  N  N205  1  0.10531000  0.93980000  0.42371000  1.0
  N  N206  1  0.11471000  0.13774000  0.42746000  1.0
  N  N207  1  0.89469000  0.06020000  0.42370000  1.0
  N  N208  1  0.43088000  0.36558000  0.07117000  1.0
  N  N209  1  0.31525000  0.59745000  0.05762000  1.0
  N  N210  1  0.56912000  0.63441000  0.07115000  1.0
  N  N211  1  0.60530000  0.56020000  0.07629000  1.0
  N  N212  1  0.68475000  0.40255000  0.05762000  1.0
  N  N213  1  0.40256000  0.68463000  0.94304000  1.0
  N  N214  1  0.36541000  0.43251000  0.92854000  1.0
  N  N215  1  0.59744000  0.31537000  0.94306000  1.0
  N  N216  1  0.63461000  0.56750000  0.92853000  1.0
  N  N217  1  0.90256000  0.81533000  0.55693000  1.0
  N  N218  1  0.86545000  0.06746000  0.57145000  1.0
  N  N219  1  0.09743000  0.18465000  0.55694000  1.0
  N  N220  1  0.13456000  0.93253000  0.57145000  1.0
  N  N221  1  0.93087000  0.13440000  0.42883000  1.0
  N  N222  1  0.61473000  0.36228000  0.07252000  1.0
  N  N223  1  0.81523000  0.90256000  0.44235000  1.0
  N  N224  1  0.06912000  0.86561000  0.42884000  1.0
  N  N225  1  0.18475000  0.09746000  0.44236000  1.0
  N  N226  1  0.39468000  0.43979000  0.07630000  1.0
  N  N227  1  0.44001000  0.39590000  0.92388000  1.0
  N  N228  1  0.63816000  0.38457000  0.92782000  1.0
  N  N229  1  0.55999000  0.60407000  0.92386000  1.0
  N  N230  1  0.36183000  0.61543000  0.92782000  1.0
  N  N231  1  0.94003000  0.10408000  0.57610000  1.0
