# generated using pymatgen
data_MnH6C9N2O5
_symmetry_space_group_name_H-M   'P 1'
_cell_length_a   6.97760000
_cell_length_b   9.40917000
_cell_length_c   14.51930000
_cell_angle_alpha   104.19900000
_cell_angle_beta   89.99990000
_cell_angle_gamma   89.99990000
_symmetry_Int_Tables_number   1
_chemical_formula_structural   MnH6C9N2O5
_chemical_formula_sum   'Mn4 H24 C36 N8 O20'
_cell_volume   924.11988009
_cell_formula_units_Z   4
loop_
 _symmetry_equiv_pos_site_id
 _symmetry_equiv_pos_as_xyz
  1  'x, y, z'
loop_
 _atom_site_type_symbol
 _atom_site_label
 _atom_site_symmetry_multiplicity
 _atom_site_fract_x
 _atom_site_fract_y
 _atom_site_fract_z
 _atom_site_occupancy
  Mn  Mn0  1  0.81119000  0.61106000  0.97121000  1.0
  Mn  Mn1  1  0.31119000  0.38894000  0.52879000  1.0
  Mn  Mn2  1  0.18881000  0.38895000  0.02879000  1.0
  Mn  Mn3  1  0.68881000  0.61105000  0.47121000  1.0
  H  H4  1  0.09825000  0.45621000  0.84854000  1.0
  H  H5  1  0.59825000  0.54379000  0.65146000  1.0
  H  H6  1  0.90174000  0.54379000  0.15146000  1.0
  H  H7  1  0.40175000  0.45621000  0.34854000  1.0
  H  H8  1  0.98869000  0.56843000  0.79771000  1.0
  H  H9  1  0.48869000  0.43157000  0.70229000  1.0
  H  H10  1  0.01131000  0.43158000  0.20229000  1.0
  H  H11  1  0.51131000  0.56842000  0.29771000  1.0
  H  H12  1  0.77461000  0.26516000  0.21016000  1.0
  H  H13  1  0.27462000  0.73484000  0.28984000  1.0
  H  H14  1  0.22538000  0.73484000  0.78984000  1.0
  H  H15  1  0.72539000  0.26515000  0.71016000  1.0
  H  H16  1  0.75414000  0.95928000  0.20317000  1.0
  H  H17  1  0.25414000  0.04072000  0.29683000  1.0
  H  H18  1  0.24586000  0.04072000  0.79683000  1.0
  H  H19  1  0.74586000  0.95927000  0.70317000  1.0
  H  H20  1  0.13293000  0.00709000  0.03601000  1.0
  H  H21  1  0.63294000  0.99291000  0.46399000  1.0
  H  H22  1  0.86707000  0.99291000  0.96399000  1.0
  H  H23  1  0.36707000  0.00709000  0.53601000  1.0
  H  H24  1  0.57459000  0.44239000  0.14075000  1.0
  H  H25  1  0.07460000  0.55761000  0.35925000  1.0
  H  H26  1  0.42541000  0.55761000  0.85925000  1.0
  H  H27  1  0.92541000  0.44239000  0.64075000  1.0
  C  C28  1  0.56101000  0.71239000  0.16188000  1.0
  C  C29  1  0.06101000  0.28761000  0.33812000  1.0
  C  C30  1  0.43899000  0.28761000  0.83812000  1.0
  C  C31  1  0.93899000  0.71238000  0.66188000  1.0
  C  C32  1  0.49808000  0.85050000  0.13629000  1.0
  C  C33  1  0.99809000  0.14950000  0.36371000  1.0
  C  C34  1  0.50191000  0.14950000  0.86371000  1.0
  C  C35  1  0.00192000  0.85050000  0.63629000  1.0
  C  C36  1  0.61910000  0.97022000  0.16781000  1.0
  C  C37  1  0.11911000  0.02978000  0.33219000  1.0
  C  C38  1  0.38089000  0.02979000  0.83219000  1.0
  C  C39  1  0.88089000  0.97021000  0.66781000  1.0
  C  C40  1  0.56054000  0.10311000  0.15123000  1.0
  C  C41  1  0.06055000  0.89690000  0.34877000  1.0
  C  C42  1  0.43945000  0.89690000  0.84878000  1.0
  C  C43  1  0.93945000  0.10310000  0.65123000  1.0
  C  C44  1  0.38686000  0.11946000  0.10390000  1.0
  C  C45  1  0.88687000  0.88055000  0.39610000  1.0
  C  C46  1  0.61313000  0.88055000  0.89610000  1.0
  C  C47  1  0.11314000  0.11945000  0.60390000  1.0
  C  C48  1  0.26622000  0.99887000  0.07330000  1.0
  C  C49  1  0.76622000  0.00113000  0.42670000  1.0
  C  C50  1  0.73378000  0.00113000  0.92671000  1.0
  C  C51  1  0.23378000  0.99887000  0.57330000  1.0
  C  C52  1  0.32273000  0.86378000  0.08936000  1.0
  C  C53  1  0.82272000  0.13622000  0.41064000  1.0
  C  C54  1  0.67728000  0.13622000  0.91064000  1.0
  C  C55  1  0.17728000  0.86378000  0.58936000  1.0
  C  C56  1  0.20151000  0.73108000  0.05153000  1.0
  C  C57  1  0.70151000  0.26892000  0.44847000  1.0
  C  C58  1  0.79849000  0.26892000  0.94847000  1.0
  C  C59  1  0.29849000  0.73107000  0.55153000  1.0
  C  C60  1  0.53540000  0.32957000  0.13680000  1.0
  C  C61  1  0.03540000  0.67043000  0.36320000  1.0
  C  C62  1  0.46460000  0.67043000  0.86320000  1.0
  C  C63  1  0.96460000  0.32957000  0.63680000  1.0
  N  N64  1  0.64862000  0.23781000  0.17092000  1.0
  N  N65  1  0.14862000  0.76219000  0.32908000  1.0
  N  N66  1  0.35138000  0.76219000  0.82908000  1.0
  N  N67  1  0.85138000  0.23780000  0.67092000  1.0
  N  N68  1  0.37633000  0.26467000  0.09567000  1.0
  N  N69  1  0.87634000  0.73533000  0.40433000  1.0
  N  N70  1  0.62366000  0.73533000  0.90433000  1.0
  N  N71  1  0.12366000  0.26466000  0.59567000  1.0
  O  O72  1  0.70431000  0.64179000  0.11859000  1.0
  O  O73  1  0.20430000  0.35822000  0.38141000  1.0
  O  O74  1  0.29570000  0.35822000  0.88141000  1.0
  O  O75  1  0.79570000  0.64178000  0.61859000  1.0
  O  O76  1  0.47861000  0.68083000  0.23216000  1.0
  O  O77  1  0.97861000  0.31917000  0.26784000  1.0
  O  O78  1  0.52139000  0.31917000  0.76784000  1.0
  O  O79  1  0.02139000  0.68083000  0.73216000  1.0
  O  O80  1  0.28051000  0.60581000  0.04099000  1.0
  O  O81  1  0.78051000  0.39419000  0.45901000  1.0
  O  O82  1  0.71949000  0.39419000  0.95901000  1.0
  O  O83  1  0.21948000  0.60581000  0.54099000  1.0
  O  O84  1  0.02828000  0.75240000  0.03034000  1.0
  O  O85  1  0.52828000  0.24760000  0.46966000  1.0
  O  O86  1  0.97172000  0.24760000  0.96966000  1.0
  O  O87  1  0.47172000  0.75239000  0.53034000  1.0
  O  O88  1  0.97665000  0.50936000  0.84624000  1.0
  O  O89  1  0.47665000  0.49064000  0.65376000  1.0
  O  O90  1  0.02335000  0.49064000  0.15376000  1.0
  O  O91  1  0.52335000  0.50936000  0.34624000  1.0
