# generated using pymatgen
data_CaH6C6SO6
_symmetry_space_group_name_H-M   'P 1'
_cell_length_a   7.52949000
_cell_length_b   8.00334000
_cell_length_c   15.17740000
_cell_angle_alpha   90.00000000
_cell_angle_beta   102.97000000
_cell_angle_gamma   89.99990000
_symmetry_Int_Tables_number   1
_chemical_formula_structural   CaH6C6SO6
_chemical_formula_sum   'Ca4 H24 C24 S4 O24'
_cell_volume   891.27264365
_cell_formula_units_Z   4
loop_
 _symmetry_equiv_pos_site_id
 _symmetry_equiv_pos_as_xyz
  1  'x, y, z'
loop_
 _atom_site_type_symbol
 _atom_site_label
 _atom_site_symmetry_multiplicity
 _atom_site_fract_x
 _atom_site_fract_y
 _atom_site_fract_z
 _atom_site_occupancy
  Ca  Ca0  1  0.97255000  0.39860000  0.87695000  1.0
  Ca  Ca1  1  0.52745000  0.89860000  0.12305000  1.0
  Ca  Ca2  1  0.02745000  0.60140000  0.12305000  1.0
  Ca  Ca3  1  0.47255000  0.10140000  0.87695000  1.0
  H  H4  1  0.93253000  0.14515000  0.06768000  1.0
  H  H5  1  0.56747000  0.64515000  0.93232000  1.0
  H  H6  1  0.06747000  0.85486000  0.93232000  1.0
  H  H7  1  0.43253000  0.35486000  0.06768000  1.0
  H  H8  1  0.05032000  0.70388000  0.78268000  1.0
  H  H9  1  0.44968000  0.20388000  0.21732000  1.0
  H  H10  1  0.94968000  0.29612000  0.21732000  1.0
  H  H11  1  0.55032000  0.79612000  0.78268000  1.0
  H  H12  1  0.23214000  0.60161000  0.78784000  1.0
  H  H13  1  0.26786000  0.10161000  0.21216000  1.0
  H  H14  1  0.76786000  0.39839000  0.21216000  1.0
  H  H15  1  0.73214000  0.89839000  0.78784000  1.0
  H  H16  1  0.33829000  0.07476000  0.47793000  1.0
  H  H17  1  0.16171000  0.57476000  0.52207000  1.0
  H  H18  1  0.66171000  0.92524000  0.52207000  1.0
  H  H19  1  0.83830000  0.42524000  0.47793000  1.0
  H  H20  1  0.62327000  0.72838000  0.63964000  1.0
  H  H21  1  0.87673000  0.22838000  0.36036000  1.0
  H  H22  1  0.37673000  0.27162000  0.36036000  1.0
  H  H23  1  0.12328000  0.77162000  0.63964000  1.0
  H  H24  1  0.40540000  0.16077000  0.63993000  1.0
  H  H25  1  0.09460000  0.66077000  0.36007000  1.0
  H  H26  1  0.59460000  0.83923000  0.36007000  1.0
  H  H27  1  0.90540000  0.33923000  0.63993000  1.0
  C  C28  1  0.80277000  0.14421000  0.01610000  1.0
  C  C29  1  0.69723000  0.64421000  0.98390000  1.0
  C  C30  1  0.19723000  0.85579000  0.98390000  1.0
  C  C31  1  0.30277000  0.35579000  0.01610000  1.0
  C  C32  1  0.48968000  0.40749000  0.61243000  1.0
  C  C33  1  0.01032000  0.90749000  0.38757000  1.0
  C  C34  1  0.51032000  0.59251000  0.38757000  1.0
  C  C35  1  0.98967000  0.09251000  0.61243000  1.0
  C  C36  1  0.52091000  0.52554000  0.54675000  1.0
  C  C37  1  0.97909000  0.02555000  0.45325000  1.0
  C  C38  1  0.47909000  0.47446000  0.45324000  1.0
  C  C39  1  0.02091000  0.97445000  0.54676000  1.0
  C  C40  1  0.38841000  0.20023000  0.49662000  1.0
  C  C41  1  0.11159000  0.70023000  0.50338000  1.0
  C  C42  1  0.61159000  0.79977000  0.50338000  1.0
  C  C43  1  0.88841000  0.29977000  0.49662000  1.0
  C  C44  1  0.58843000  0.68925000  0.56936000  1.0
  C  C45  1  0.91157000  0.18925000  0.43064000  1.0
  C  C46  1  0.41157000  0.31075000  0.43064000  1.0
  C  C47  1  0.08843000  0.81075000  0.56936000  1.0
  C  C48  1  0.42662000  0.24817000  0.58827000  1.0
  C  C49  1  0.07339000  0.74818000  0.41173000  1.0
  C  C50  1  0.57338000  0.75182000  0.41173000  1.0
  C  C51  1  0.92662000  0.25182000  0.58827000  1.0
  S  S52  1  0.53334000  0.46082000  0.72930000  1.0
  S  S53  1  0.96666000  0.96082000  0.27070000  1.0
  S  S54  1  0.46666000  0.53918000  0.27070000  1.0
  S  S55  1  0.03334000  0.03918000  0.72930000  1.0
  O  O56  1  0.42426000  0.61162000  0.73777000  1.0
  O  O57  1  0.07574000  0.11162000  0.26223000  1.0
  O  O58  1  0.57574000  0.38838000  0.26223000  1.0
  O  O59  1  0.92426000  0.88838000  0.73777000  1.0
  O  O60  1  0.66137000  0.08423000  0.03639000  1.0
  O  O61  1  0.83864000  0.58423000  0.96360000  1.0
  O  O62  1  0.33864000  0.91577000  0.96360000  1.0
  O  O63  1  0.16137000  0.41577000  0.03640000  1.0
  O  O64  1  0.72977000  0.49483000  0.75737000  1.0
  O  O65  1  0.77023000  0.99483000  0.24264000  1.0
  O  O66  1  0.27023000  0.50518000  0.24263000  1.0
  O  O67  1  0.22977000  0.00517000  0.75737000  1.0
  O  O68  1  0.11977000  0.60568000  0.81115000  1.0
  O  O69  1  0.38023000  0.10568000  0.18885000  1.0
  O  O70  1  0.88023000  0.39432000  0.18885000  1.0
  O  O71  1  0.61976000  0.89432000  0.81115000  1.0
  O  O72  1  0.80027000  0.20209000  0.93785000  1.0
  O  O73  1  0.69973000  0.70209000  0.06215000  1.0
  O  O74  1  0.19973000  0.79791000  0.06215000  1.0
  O  O75  1  0.30027000  0.29791000  0.93785000  1.0
  O  O76  1  0.47492000  0.31652000  0.77480000  1.0
  O  O77  1  0.02508000  0.81652000  0.22520000  1.0
  O  O78  1  0.52508000  0.68348000  0.22520000  1.0
  O  O79  1  0.97492000  0.18348000  0.77480000  1.0
