# generated using pymatgen
data_SmCuH14C16N2O13
_symmetry_space_group_name_H-M   'P 1'
_cell_length_a   8.12036000
_cell_length_b   10.93010000
_cell_length_c   12.18060000
_cell_angle_alpha   108.66300000
_cell_angle_beta   101.12900000
_cell_angle_gamma   98.54830000
_symmetry_Int_Tables_number   1
_chemical_formula_structural   SmCuH14C16N2O13
_chemical_formula_sum   'Sm2 Cu2 H28 C32 N4 O26'
_cell_volume   978.91467376
_cell_formula_units_Z   2
loop_
 _symmetry_equiv_pos_site_id
 _symmetry_equiv_pos_as_xyz
  1  'x, y, z'
loop_
 _atom_site_type_symbol
 _atom_site_label
 _atom_site_symmetry_multiplicity
 _atom_site_fract_x
 _atom_site_fract_y
 _atom_site_fract_z
 _atom_site_occupancy
  Sm  Sm0  1  0.04702000  0.26338000  0.07640000  1.0
  Sm  Sm1  1  0.95298000  0.73662000  0.92360000  1.0
  Cu  Cu2  1  0.98836000  0.76050000  0.45671000  1.0
  Cu  Cu3  1  0.01164000  0.23950000  0.54329000  1.0
  H  H4  1  0.03900000  0.34292000  0.84622000  1.0
  H  H5  1  0.96100000  0.65708000  0.15379000  1.0
  H  H6  1  0.88478000  0.38161000  0.89620000  1.0
  H  H7  1  0.11522000  0.61839000  0.10380000  1.0
  H  H8  1  0.75373000  0.02800000  0.92697000  1.0
  H  H9  1  0.24627000  0.97200000  0.07303000  1.0
  H  H10  1  0.77631000  0.12592000  0.86131000  1.0
  H  H11  1  0.22369000  0.87408000  0.13869000  1.0
  H  H12  1  0.37221000  0.21442000  0.20687000  1.0
  H  H13  1  0.62779000  0.78558000  0.79313000  1.0
  H  H14  1  0.23564000  0.11996000  0.23918000  1.0
  H  H15  1  0.76436000  0.88004000  0.76082000  1.0
  H  H16  1  0.54065000  0.46486000  0.28772000  1.0
  H  H17  1  0.45935000  0.53514000  0.71228000  1.0
  H  H18  1  0.44163000  0.36617000  0.42919000  1.0
  H  H19  1  0.55837000  0.63383000  0.57081000  1.0
  H  H20  1  0.65295000  0.27366000  0.54525000  1.0
  H  H21  1  0.34705000  0.72633000  0.45475000  1.0
  H  H22  1  0.55847000  0.00167000  0.19272000  1.0
  H  H23  1  0.44153000  0.99833000  0.80728000  1.0
  H  H24  1  0.43822000  0.91185000  0.33316000  1.0
  H  H25  1  0.56178000  0.08816000  0.66684000  1.0
  H  H26  1  0.62853000  0.81386000  0.45617000  1.0
  H  H27  1  0.37147000  0.18614000  0.54383000  1.0
  H  H28  1  0.56959000  0.59364000  0.13177000  1.0
  H  H29  1  0.43041000  0.40635000  0.86823000  1.0
  H  H30  1  0.40692000  0.61604000  0.02580000  1.0
  H  H31  1  0.59308000  0.38396000  0.97420000  1.0
  C  C32  1  0.89688000  0.36206000  0.38387000  1.0
  C  C33  1  0.10312000  0.63793000  0.61612000  1.0
  C  C34  1  0.79157000  0.41870000  0.31862000  1.0
  C  C35  1  0.20843000  0.58130000  0.68138000  1.0
  C  C36  1  0.62625000  0.42109000  0.33654000  1.0
  C  C37  1  0.37375000  0.57891000  0.66346000  1.0
  C  C38  1  0.57084000  0.36708000  0.41591000  1.0
  C  C39  1  0.42916000  0.63291000  0.58409000  1.0
  C  C40  1  0.68447000  0.31470000  0.47941000  1.0
  C  C41  1  0.31553000  0.68530000  0.52059000  1.0
  C  C42  1  0.07737000  0.34967000  0.37611000  1.0
  C  C43  1  0.92263000  0.65033000  0.62389000  1.0
  C  C44  1  0.84597000  0.47609000  0.22996000  1.0
  C  C45  1  0.15403000  0.52392000  0.77004000  1.0
  C  C46  1  0.90888000  0.91680000  0.32415000  1.0
  C  C47  1  0.09112000  0.08320000  0.67585000  1.0
  C  C48  1  0.81047000  0.96557000  0.24761000  1.0
  C  C49  1  0.18953000  0.03443000  0.75239000  1.0
  C  C50  1  0.63883000  0.96420000  0.25123000  1.0
  C  C51  1  0.36117000  0.03580000  0.74877000  1.0
  C  C52  1  0.57057000  0.91202000  0.32744000  1.0
  C  C53  1  0.42943000  0.08798000  0.67256000  1.0
  C  C54  1  0.67424000  0.85873000  0.39647000  1.0
  C  C55  1  0.32575000  0.14126000  0.60353000  1.0
  C  C56  1  0.09854000  0.92192000  0.33902000  1.0
  C  C57  1  0.90146000  0.07808000  0.66098000  1.0
  C  C58  1  0.88131000  0.01123000  0.15825000  1.0
  C  C59  1  0.11869000  0.98877000  0.84175000  1.0
  C  C60  1  0.33218000  0.45434000  0.08132000  1.0
  C  C61  1  0.66782000  0.54566000  0.91868000  1.0
  C  C62  1  0.46402000  0.54042000  0.04989000  1.0
  C  C63  1  0.53598000  0.45958000  0.95011000  1.0
  N  N64  1  0.84246000  0.31339000  0.46287000  1.0
  N  N65  1  0.15754000  0.68661000  0.53713000  1.0
  N  N66  1  0.83878000  0.86177000  0.39414000  1.0
  N  N67  1  0.16121000  0.13822000  0.60586000  1.0
  O  O68  1  0.15771000  0.30294000  0.45002000  1.0
  O  O69  1  0.84229000  0.69706000  0.54999000  1.0
  O  O70  1  0.96317000  0.31820000  0.89439000  1.0
  O  O71  1  0.03683000  0.68180000  0.10561000  1.0
  O  O72  1  0.14190000  0.38492000  0.30229000  1.0
  O  O73  1  0.85810000  0.61508000  0.69771000  1.0
  O  O74  1  0.76145000  0.12241000  0.93844000  1.0
  O  O75  1  0.23855000  0.87759000  0.06156000  1.0
  O  O76  1  0.87364000  0.60090000  0.25992000  1.0
  O  O77  1  0.12637000  0.39910000  0.74008000  1.0
  O  O78  1  0.26127000  0.15119000  0.17518000  1.0
  O  O79  1  0.73873000  0.84881000  0.82482000  1.0
  O  O80  1  0.84818000  0.39519000  0.12954000  1.0
  O  O81  1  0.15182000  0.60481000  0.87046000  1.0
  O  O82  1  0.16074000  0.85329000  0.39844000  1.0
  O  O83  1  0.83926000  0.14671000  0.60156000  1.0
  O  O84  1  0.18803000  0.99225000  0.29892000  1.0
  O  O85  1  0.81197000  0.00775000  0.70108000  1.0
  O  O86  1  0.90457000  0.13392000  0.17576000  1.0
  O  O87  1  0.09543000  0.86608000  0.82424000  1.0
  O  O88  1  0.90478000  0.92308000  0.07030000  1.0
  O  O89  1  0.09523000  0.07693000  0.92970000  1.0
  O  O90  1  0.34067000  0.33429000  0.06629000  1.0
  O  O91  1  0.65933000  0.66571000  0.93371000  1.0
  O  O92  1  0.21130000  0.49998000  0.12257000  1.0
  O  O93  1  0.78870000  0.50002000  0.87743000  1.0
