# generated using pymatgen
data_HgH9C8N(ClO)2
_symmetry_space_group_name_H-M   'P 1'
_cell_length_a   7.64288000
_cell_length_b   9.40663000
_cell_length_c   15.38700000
_cell_angle_alpha   89.99950000
_cell_angle_beta   81.44640000
_cell_angle_gamma   89.99920000
_symmetry_Int_Tables_number   1
_chemical_formula_structural   HgH9C8N(ClO)2
_chemical_formula_sum   'Hg4 H36 C32 N4 Cl8 O8'
_cell_volume   1093.92462962
_cell_formula_units_Z   4
loop_
 _symmetry_equiv_pos_site_id
 _symmetry_equiv_pos_as_xyz
  1  'x, y, z'
loop_
 _atom_site_type_symbol
 _atom_site_label
 _atom_site_symmetry_multiplicity
 _atom_site_fract_x
 _atom_site_fract_y
 _atom_site_fract_z
 _atom_site_occupancy
  Hg  Hg0  1  0.87544000  0.79938000  0.27316000  1.0
  Hg  Hg1  1  0.62456000  0.29938000  0.72684000  1.0
  Hg  Hg2  1  0.12456000  0.20062000  0.72684000  1.0
  Hg  Hg3  1  0.37544000  0.70062000  0.27316000  1.0
  H  H4  1  0.87472000  0.37027000  0.24643000  1.0
  H  H5  1  0.62528000  0.87027000  0.75358000  1.0
  H  H6  1  0.12528000  0.62973000  0.75357000  1.0
  H  H7  1  0.37471000  0.12973000  0.24642000  1.0
  H  H8  1  0.69293000  0.41611000  0.39281000  1.0
  H  H9  1  0.80708000  0.91611000  0.60720000  1.0
  H  H10  1  0.30708000  0.58389000  0.60720000  1.0
  H  H11  1  0.19292000  0.08390000  0.39280000  1.0
  H  H12  1  0.59179000  0.20716000  0.49012000  1.0
  H  H13  1  0.90820000  0.70716000  0.50988000  1.0
  H  H14  1  0.40821000  0.79283000  0.50987000  1.0
  H  H15  1  0.09180000  0.29284000  0.49012000  1.0
  H  H16  1  0.67552000  0.96017000  0.43426000  1.0
  H  H17  1  0.82447000  0.46017000  0.56574000  1.0
  H  H18  1  0.32448000  0.03984000  0.56574000  1.0
  H  H19  1  0.17553000  0.53984000  0.43426000  1.0
  H  H20  1  0.06789000  0.13005000  0.00520000  1.0
  H  H21  1  0.43211000  0.63004000  0.99480000  1.0
  H  H22  1  0.93211000  0.86995000  0.99481000  1.0
  H  H23  1  0.56789000  0.36995000  0.00520000  1.0
  H  H24  1  0.25685000  0.14024000  0.06023000  1.0
  H  H25  1  0.24314000  0.64024000  0.93977000  1.0
  H  H26  1  0.74314000  0.85976000  0.93977000  1.0
  H  H27  1  0.75686000  0.35976000  0.06023000  1.0
  H  H28  1  0.27782000  0.32757000  0.94414000  1.0
  H  H29  1  0.22218000  0.82756000  0.05585000  1.0
  H  H30  1  0.72217000  0.67244000  0.05586000  1.0
  H  H31  1  0.77782000  0.17244000  0.94414000  1.0
  H  H32  1  0.24229000  0.41159000  0.04936000  1.0
  H  H33  1  0.25771000  0.91159000  0.95064000  1.0
  H  H34  1  0.75771000  0.58841000  0.95064000  1.0
  H  H35  1  0.74229000  0.08841000  0.04936000  1.0
  H  H36  1  0.06553000  0.39270000  0.98663000  1.0
  H  H37  1  0.43448000  0.89270000  0.01337000  1.0
  H  H38  1  0.93447000  0.60729000  0.01337000  1.0
  H  H39  1  0.56552000  0.10730000  0.98663000  1.0
  C  C40  1  0.86541000  0.14247000  0.26373000  1.0
  C  C41  1  0.63457000  0.64247000  0.73628000  1.0
  C  C42  1  0.13459000  0.85752000  0.73627000  1.0
  C  C43  1  0.36542000  0.35753000  0.26373000  1.0
  C  C44  1  0.82611000  0.28254000  0.28970000  1.0
  C  C45  1  0.67389000  0.78255000  0.71030000  1.0
  C  C46  1  0.17389000  0.71745000  0.71029000  1.0
  C  C47  1  0.32611000  0.21746000  0.28970000  1.0
  C  C48  1  0.72636000  0.30720000  0.37189000  1.0
  C  C49  1  0.77364000  0.80720000  0.62812000  1.0
  C  C50  1  0.27364000  0.69280000  0.62811000  1.0
  C  C51  1  0.22635000  0.19281000  0.37189000  1.0
  C  C52  1  0.67011000  0.19179000  0.42562000  1.0
  C  C53  1  0.82989000  0.69179000  0.57438000  1.0
  C  C54  1  0.32989000  0.80821000  0.57438000  1.0
  C  C55  1  0.17012000  0.30822000  0.42562000  1.0
  C  C56  1  0.71559000  0.05496000  0.39543000  1.0
  C  C57  1  0.78440000  0.55496000  0.60457000  1.0
  C  C58  1  0.28441000  0.94504000  0.60457000  1.0
  C  C59  1  0.21561000  0.44504000  0.39543000  1.0
  C  C60  1  0.97267000  0.10682000  0.17679000  1.0
  C  C61  1  0.52733000  0.60683000  0.82321000  1.0
  C  C62  1  0.02733000  0.89319000  0.82321000  1.0
  C  C63  1  0.47267000  0.39318000  0.17679000  1.0
  C  C64  1  0.13972000  0.19817000  0.04585000  1.0
  C  C65  1  0.36028000  0.69817000  0.95415000  1.0
  C  C66  1  0.86028000  0.80183000  0.95415000  1.0
  C  C67  1  0.63972000  0.30183000  0.04585000  1.0
  C  C68  1  0.18364000  0.34122000  0.00467000  1.0
  C  C69  1  0.31636000  0.84122000  0.99533000  1.0
  C  C70  1  0.81636000  0.65877000  0.99534000  1.0
  C  C71  1  0.68364000  0.15878000  0.00467000  1.0
  N  N72  1  0.81032000  0.03177000  0.31634000  1.0
  N  N73  1  0.68967000  0.53177000  0.68366000  1.0
  N  N74  1  0.18968000  0.96823000  0.68366000  1.0
  N  N75  1  0.31033000  0.46823000  0.31634000  1.0
  Cl  Cl76  1  0.13372000  0.81771000  0.38948000  1.0
  Cl  Cl77  1  0.36628000  0.31771000  0.61053000  1.0
  Cl  Cl78  1  0.86629000  0.18229000  0.61052000  1.0
  Cl  Cl79  1  0.63372000  0.68229000  0.38948000  1.0
  Cl  Cl80  1  0.04293000  0.61770000  0.18476000  1.0
  Cl  Cl81  1  0.45707000  0.11770000  0.81524000  1.0
  Cl  Cl82  1  0.95707000  0.38230000  0.81524000  1.0
  Cl  Cl83  1  0.54293000  0.88230000  0.18476000  1.0
  O  O84  1  0.00899000  0.98487000  0.15145000  1.0
  O  O85  1  0.49101000  0.48486000  0.84855000  1.0
  O  O86  1  0.99101000  0.01513000  0.84855000  1.0
  O  O87  1  0.50898000  0.51514000  0.15145000  1.0
  O  O88  1  0.02535000  0.22277000  0.13029000  1.0
  O  O89  1  0.47463000  0.72276000  0.86971000  1.0
  O  O90  1  0.97465000  0.77724000  0.86971000  1.0
  O  O91  1  0.52536000  0.27724000  0.13029000  1.0
