# generated using pymatgen
data_ErH9C10(N2O5)2
_symmetry_space_group_name_H-M   'P 1'
_cell_length_a   9.21215000
_cell_length_b   10.84950000
_cell_length_c   14.14780000
_cell_angle_alpha   104.78100000
_cell_angle_beta   90.00000000
_cell_angle_gamma   90.00000000
_symmetry_Int_Tables_number   1
_chemical_formula_structural   ErH9C10(N2O5)2
_chemical_formula_sum   'Er4 H36 C40 N16 O40'
_cell_volume   1367.24017221
_cell_formula_units_Z   4
loop_
 _symmetry_equiv_pos_site_id
 _symmetry_equiv_pos_as_xyz
  1  'x, y, z'
loop_
 _atom_site_type_symbol
 _atom_site_label
 _atom_site_symmetry_multiplicity
 _atom_site_fract_x
 _atom_site_fract_y
 _atom_site_fract_z
 _atom_site_occupancy
  Er  Er0  1  0.12850000  0.95755000  0.23510000  1.0
  Er  Er1  1  0.37150000  0.45756000  0.73510000  1.0
  Er  Er2  1  0.87150000  0.04244000  0.76490000  1.0
  Er  Er3  1  0.62850000  0.54245000  0.26490000  1.0
  H  H4  1  0.39709000  0.22164000  0.51761000  1.0
  H  H5  1  0.10291000  0.72164000  0.01761000  1.0
  H  H6  1  0.60291000  0.77836000  0.48239000  1.0
  H  H7  1  0.89709000  0.27837000  0.98239000  1.0
  H  H8  1  0.94411000  0.92748000  0.06525000  1.0
  H  H9  1  0.55588000  0.42748000  0.56525000  1.0
  H  H10  1  0.05588000  0.07252000  0.93475000  1.0
  H  H11  1  0.44411000  0.57252000  0.43475000  1.0
  H  H12  1  0.91643000  0.07177000  0.12728000  1.0
  H  H13  1  0.58357000  0.57177000  0.62728000  1.0
  H  H14  1  0.08358000  0.92823000  0.87272000  1.0
  H  H15  1  0.41643000  0.42823000  0.37272000  1.0
  H  H16  1  0.15845000  0.11066000  0.43885000  1.0
  H  H17  1  0.34155000  0.61066000  0.93885000  1.0
  H  H18  1  0.84155000  0.88934000  0.56115000  1.0
  H  H19  1  0.65845000  0.38934000  0.06115000  1.0
  H  H20  1  0.30109000  0.02522000  0.41368000  1.0
  H  H21  1  0.19891000  0.52522000  0.91368000  1.0
  H  H22  1  0.69891000  0.97478000  0.58632000  1.0
  H  H23  1  0.80109000  0.47478000  0.08632000  1.0
  H  H24  1  0.40507000  0.19456000  0.26969000  1.0
  H  H25  1  0.09493000  0.69455000  0.76969000  1.0
  H  H26  1  0.59493000  0.80544000  0.73031000  1.0
  H  H27  1  0.90507000  0.30544000  0.23031000  1.0
  H  H28  1  0.89555000  0.18534000  0.42678000  1.0
  H  H29  1  0.60445000  0.68534000  0.92678000  1.0
  H  H30  1  0.10445000  0.81466000  0.57322000  1.0
  H  H31  1  0.39555000  0.31466000  0.07322000  1.0
  H  H32  1  0.66046000  0.94107000  0.05038000  1.0
  H  H33  1  0.83954000  0.44107000  0.55038000  1.0
  H  H34  1  0.33954000  0.05893000  0.94962000  1.0
  H  H35  1  0.16046000  0.55893000  0.44962000  1.0
  H  H36  1  0.55840000  0.91091000  0.34353000  1.0
  H  H37  1  0.94160000  0.41090000  0.84353000  1.0
  H  H38  1  0.44160000  0.08909000  0.65647000  1.0
  H  H39  1  0.05840000  0.58910000  0.15647000  1.0
  C  C40  1  0.35898000  0.81778000  0.05892000  1.0
  C  C41  1  0.14102000  0.31778000  0.55892000  1.0
  C  C42  1  0.64102000  0.18222000  0.94108000  1.0
  C  C43  1  0.85898000  0.68222000  0.44108000  1.0
  C  C44  1  0.43906000  0.93211000  0.11363000  1.0
  C  C45  1  0.06094000  0.43210000  0.61363000  1.0
  C  C46  1  0.56094000  0.06790000  0.88637000  1.0
  C  C47  1  0.93906000  0.56789000  0.38637000  1.0
  C  C48  1  0.57579000  0.98380000  0.10144000  1.0
  C  C49  1  0.92422000  0.48379000  0.60144000  1.0
  C  C50  1  0.42421000  0.01621000  0.89856000  1.0
  C  C51  1  0.07579000  0.51620000  0.39856000  1.0
  C  C52  1  0.57540000  0.10415000  0.16747000  1.0
  C  C53  1  0.92460000  0.60415000  0.66747000  1.0
  C  C54  1  0.42460000  0.89585000  0.83253000  1.0
  C  C55  1  0.07540000  0.39585000  0.33253000  1.0
  C  C56  1  0.67622000  0.21440000  0.18800000  1.0
  C  C57  1  0.82378000  0.71439000  0.68800000  1.0
  C  C58  1  0.32378000  0.78560000  0.81200000  1.0
  C  C59  1  0.17622000  0.28560000  0.31200000  1.0
  C  C60  1  0.83842000  0.79438000  0.23984000  1.0
  C  C61  1  0.66158000  0.29438000  0.73984000  1.0
  C  C62  1  0.16158000  0.20561000  0.76016000  1.0
  C  C63  1  0.33842000  0.70561000  0.26016000  1.0
  C  C64  1  0.79214000  0.91851000  0.30547000  1.0
  C  C65  1  0.70786000  0.41851000  0.80547000  1.0
  C  C66  1  0.20786000  0.08149000  0.69453000  1.0
  C  C67  1  0.29214000  0.58149000  0.19453000  1.0
  C  C68  1  0.65967000  0.96342000  0.35045000  1.0
  C  C69  1  0.84033000  0.46342000  0.85045000  1.0
  C  C70  1  0.34033000  0.03658000  0.64954000  1.0
  C  C71  1  0.15967000  0.53659000  0.14955000  1.0
  C  C72  1  0.68911000  0.08773000  0.40409000  1.0
  C  C73  1  0.81089000  0.58773000  0.90409000  1.0
  C  C74  1  0.31089000  0.91227000  0.59591000  1.0
  C  C75  1  0.18910000  0.41227000  0.09591000  1.0
  C  C76  1  0.59763000  0.18951000  0.46378000  1.0
  C  C77  1  0.90237000  0.68951000  0.96379000  1.0
  C  C78  1  0.40237000  0.81049000  0.53621000  1.0
  C  C79  1  0.09762000  0.31051000  0.03622000  1.0
  N  N80  1  0.36355000  0.01421000  0.18446000  1.0
  N  N81  1  0.13645000  0.51421000  0.68446000  1.0
  N  N82  1  0.63645000  0.98579000  0.81554000  1.0
  N  N83  1  0.86355000  0.48579000  0.31554000  1.0
  N  N84  1  0.44641000  0.11650000  0.21542000  1.0
  N  N85  1  0.05359000  0.61650000  0.71543000  1.0
  N  N86  1  0.55359000  0.88350000  0.78458000  1.0
  N  N87  1  0.94642000  0.38350000  0.28458000  1.0
  N  N88  1  0.89578000  0.00958000  0.33036000  1.0
  N  N89  1  0.60422000  0.50958000  0.83036000  1.0
  N  N90  1  0.10422000  0.99042000  0.66964000  1.0
  N  N91  1  0.39578000  0.49042000  0.16965000  1.0
  N  N92  1  0.83218000  0.11044000  0.38914000  1.0
  N  N93  1  0.66782000  0.61044000  0.88914000  1.0
  N  N94  1  0.16782000  0.88956000  0.61086000  1.0
  N  N95  1  0.33218000  0.38956000  0.11086000  1.0
  O  O96  1  0.22325000  0.81424000  0.08105000  1.0
  O  O97  1  0.27675000  0.31424000  0.58104000  1.0
  O  O98  1  0.77675000  0.18576000  0.91895000  1.0
  O  O99  1  0.72325000  0.68576000  0.41895000  1.0
  O  O100  1  0.42486000  0.73473000  0.99445000  1.0
  O  O101  1  0.07514000  0.23473000  0.49445000  1.0
  O  O102  1  0.57514000  0.26528000  0.00555000  1.0
  O  O103  1  0.92486000  0.76527000  0.50555000  1.0
  O  O104  1  0.62222000  0.32036000  0.23480000  1.0
  O  O105  1  0.87778000  0.82036000  0.73480000  1.0
  O  O106  1  0.37778000  0.67964000  0.76520000  1.0
  O  O107  1  0.12222000  0.17964000  0.26520000  1.0
  O  O108  1  0.80695000  0.19684000  0.15879000  1.0
  O  O109  1  0.69305000  0.69683000  0.65878000  1.0
  O  O110  1  0.19305000  0.80316000  0.84122000  1.0
  O  O111  1  0.30695000  0.30316000  0.34122000  1.0
  O  O112  1  0.96652000  0.79128000  0.20525000  1.0
  O  O113  1  0.53348000  0.29128000  0.70526000  1.0
  O  O114  1  0.03348000  0.20871000  0.79474000  1.0
  O  O115  1  0.46652000  0.70871000  0.29475000  1.0
  O  O116  1  0.75449000  0.69951000  0.22256000  1.0
  O  O117  1  0.74551000  0.19950000  0.72256000  1.0
  O  O118  1  0.24551000  0.30049000  0.77744000  1.0
  O  O119  1  0.25449000  0.80049000  0.27745000  1.0
  O  O120  1  0.46398000  0.15126000  0.47737000  1.0
  O  O121  1  0.03603000  0.65126000  0.97737000  1.0
  O  O122  1  0.53602000  0.84874000  0.52263000  1.0
  O  O123  1  0.96398000  0.34874000  0.02263000  1.0
  O  O124  1  0.64525000  0.29881000  0.49549000  1.0
  O  O125  1  0.85476000  0.79881000  0.99549000  1.0
  O  O126  1  0.35475000  0.70119000  0.50451000  1.0
  O  O127  1  0.14525000  0.20119000  0.00451000  1.0
  O  O128  1  0.98829000  0.00044000  0.11398000  1.0
  O  O129  1  0.51171000  0.50044000  0.61398000  1.0
  O  O130  1  0.01171000  0.99955000  0.88602000  1.0
  O  O131  1  0.48829000  0.49955000  0.38602000  1.0
  O  O132  1  0.19828000  0.02698000  0.39766000  1.0
  O  O133  1  0.30172000  0.52699000  0.89765000  1.0
  O  O134  1  0.80172000  0.97302000  0.60234000  1.0
  O  O135  1  0.69828000  0.47302000  0.10235000  1.0
