# generated using pymatgen
data_Cu2H15C17N5O7
_symmetry_space_group_name_H-M   'P 1'
_cell_length_a   9.88725000
_cell_length_b   12.53720000
_cell_length_c   18.31980000
_cell_angle_alpha   74.94700000
_cell_angle_beta   89.99980000
_cell_angle_gamma   89.99990000
_symmetry_Int_Tables_number   1
_chemical_formula_structural   Cu2H15C17N5O7
_chemical_formula_sum   'Cu8 H60 C68 N20 O28'
_cell_volume   2192.97021169
_cell_formula_units_Z   4
loop_
 _symmetry_equiv_pos_site_id
 _symmetry_equiv_pos_as_xyz
  1  'x, y, z'
loop_
 _atom_site_type_symbol
 _atom_site_label
 _atom_site_symmetry_multiplicity
 _atom_site_fract_x
 _atom_site_fract_y
 _atom_site_fract_z
 _atom_site_occupancy
  Cu  Cu0  1  0.33535000  0.98643000  0.50055000  1.0
  Cu  Cu1  1  0.83535000  0.01357000  0.99945000  1.0
  Cu  Cu2  1  0.66465000  0.01357000  0.49945000  1.0
  Cu  Cu3  1  0.16465000  0.98643000  0.00055000  1.0
  Cu  Cu4  1  0.55465000  0.75175000  0.57687000  1.0
  Cu  Cu5  1  0.05465000  0.24825000  0.92313000  1.0
  Cu  Cu6  1  0.44535000  0.24825000  0.42312000  1.0
  Cu  Cu7  1  0.94535000  0.75175000  0.07687000  1.0
  H  H8  1  0.52705000  0.91957000  0.61585000  1.0
  H  H9  1  0.02705000  0.08043000  0.88415000  1.0
  H  H10  1  0.47295000  0.08043000  0.38415000  1.0
  H  H11  1  0.97295000  0.91957000  0.11585000  1.0
  H  H12  1  0.15180000  0.21227000  0.71969000  1.0
  H  H13  1  0.65180000  0.78773000  0.78031000  1.0
  H  H14  1  0.84820000  0.78773000  0.28031000  1.0
  H  H15  1  0.34820000  0.21227000  0.21969000  1.0
  H  H16  1  0.26473000  0.32615000  0.69924000  1.0
  H  H17  1  0.76473000  0.67385000  0.80076000  1.0
  H  H18  1  0.73527000  0.67385000  0.30076000  1.0
  H  H19  1  0.23527000  0.32615000  0.19924000  1.0
  H  H20  1  0.27490000  0.18161000  0.82949000  1.0
  H  H21  1  0.77491000  0.81839000  0.67051000  1.0
  H  H22  1  0.72510000  0.81839000  0.17051000  1.0
  H  H23  1  0.22510000  0.18161000  0.32949000  1.0
  H  H24  1  0.35735000  0.09218000  0.78339000  1.0
  H  H25  1  0.85735000  0.90782000  0.71661000  1.0
  H  H26  1  0.64265000  0.90782000  0.21661000  1.0
  H  H27  1  0.14265000  0.09218000  0.28339000  1.0
  H  H28  1  0.54620000  0.23198000  0.74494000  1.0
  H  H29  1  0.04621000  0.76801000  0.75506000  1.0
  H  H30  1  0.45379000  0.76802000  0.25506000  1.0
  H  H31  1  0.95380000  0.23198000  0.24494000  1.0
  H  H32  1  0.45179000  0.32569000  0.78416000  1.0
  H  H33  1  0.95179000  0.67431000  0.71584000  1.0
  H  H34  1  0.54821000  0.67431000  0.21584000  1.0
  H  H35  1  0.04821000  0.32569000  0.28416000  1.0
  H  H36  1  0.28327000  0.02678000  0.67834000  1.0
  H  H37  1  0.78327000  0.97322000  0.82165000  1.0
  H  H38  1  0.71673000  0.97322000  0.32166000  1.0
  H  H39  1  0.21673000  0.02678000  0.17835000  1.0
  H  H40  1  0.34619000  0.36074000  0.55965000  1.0
  H  H41  1  0.84618000  0.63926000  0.94035000  1.0
  H  H42  1  0.65382000  0.63926000  0.44035000  1.0
  H  H43  1  0.15382000  0.36074000  0.05965000  1.0
  H  H44  1  0.71870000  0.12605000  0.82876000  1.0
  H  H45  1  0.21870000  0.87395000  0.67124000  1.0
  H  H46  1  0.28130000  0.87395000  0.17124000  1.0
  H  H47  1  0.78131000  0.12605000  0.32876000  1.0
  H  H48  1  0.55970000  0.10436000  0.04560000  1.0
  H  H49  1  0.05970000  0.89563000  0.45440000  1.0
  H  H50  1  0.44030000  0.89564000  0.95440000  1.0
  H  H51  1  0.94029000  0.10436000  0.54561000  1.0
  H  H52  1  0.38286000  0.22749000  0.93594000  1.0
  H  H53  1  0.88286000  0.77250000  0.56407000  1.0
  H  H54  1  0.61714000  0.77251000  0.06406000  1.0
  H  H55  1  0.11714000  0.22750000  0.43594000  1.0
  H  H56  1  0.38081000  0.58120000  0.45474000  1.0
  H  H57  1  0.88081000  0.41880000  0.04526000  1.0
  H  H58  1  0.61919000  0.41880000  0.54526000  1.0
  H  H59  1  0.11919000  0.58120000  0.95474000  1.0
  H  H60  1  0.14630000  0.56145000  0.26026000  1.0
  H  H61  1  0.64630000  0.43855000  0.23974000  1.0
  H  H62  1  0.85370000  0.43855000  0.73974000  1.0
  H  H63  1  0.35370000  0.56145000  0.76026000  1.0
  H  H64  1  0.17538000  0.86915000  0.32239000  1.0
  H  H65  1  0.67539000  0.13085000  0.17761000  1.0
  H  H66  1  0.82462000  0.13085000  0.67761000  1.0
  H  H67  1  0.32462000  0.86916000  0.82239000  1.0
  C  C68  1  0.25841000  0.23596000  0.71070000  1.0
  C  C69  1  0.75841000  0.76404000  0.78930000  1.0
  C  C70  1  0.74159000  0.76404000  0.28930000  1.0
  C  C71  1  0.24159000  0.23596000  0.21070000  1.0
  C  C72  1  0.33924000  0.17970000  0.78102000  1.0
  C  C73  1  0.83924000  0.82030000  0.71898000  1.0
  C  C74  1  0.66076000  0.82031000  0.21898000  1.0
  C  C75  1  0.16077000  0.17970000  0.28102000  1.0
  C  C76  1  0.47220000  0.23824000  0.78835000  1.0
  C  C77  1  0.97220000  0.76176000  0.71165000  1.0
  C  C78  1  0.52780000  0.76176000  0.21165000  1.0
  C  C79  1  0.02780000  0.23824000  0.28835000  1.0
  C  C80  1  0.30076000  0.10028000  0.63304000  1.0
  C  C81  1  0.80076000  0.89972000  0.86696000  1.0
  C  C82  1  0.69924000  0.89971000  0.36696000  1.0
  C  C83  1  0.19924000  0.10028000  0.13304000  1.0
  C  C84  1  0.33518000  0.27172000  0.57303000  1.0
  C  C85  1  0.83517000  0.72828000  0.92697000  1.0
  C  C86  1  0.66483000  0.72828000  0.42697000  1.0
  C  C87  1  0.16483000  0.27172000  0.07303000  1.0
  C  C88  1  0.65139000  0.13239000  0.87399000  1.0
  C  C89  1  0.15139000  0.86760000  0.62601000  1.0
  C  C90  1  0.34861000  0.86761000  0.12600000  1.0
  C  C91  1  0.84861000  0.13239000  0.37399000  1.0
  C  C92  1  0.56563000  0.12566000  0.98448000  1.0
  C  C93  1  0.06562000  0.87434000  0.51552000  1.0
  C  C94  1  0.43438000  0.87435000  0.01551000  1.0
  C  C95  1  0.93438000  0.12566000  0.48449000  1.0
  C  C96  1  0.47755000  0.18596000  0.93167000  1.0
  C  C97  1  0.97756000  0.81404000  0.56833000  1.0
  C  C98  1  0.52245000  0.81404000  0.06833000  1.0
  C  C99  1  0.02245000  0.18596000  0.43167000  1.0
  C  C100  1  0.28263000  0.73148000  0.39424000  1.0
  C  C101  1  0.78263000  0.26853000  0.10575000  1.0
  C  C102  1  0.71737000  0.26853000  0.60576000  1.0
  C  C103  1  0.21737000  0.73148000  0.89425000  1.0
  C  C104  1  0.31769000  0.62003000  0.40639000  1.0
  C  C105  1  0.81769000  0.37997000  0.09361000  1.0
  C  C106  1  0.68231000  0.37997000  0.59361000  1.0
  C  C107  1  0.18231000  0.62003000  0.90639000  1.0
  C  C108  1  0.26980000  0.55866000  0.35796000  1.0
  C  C109  1  0.76979000  0.44134000  0.14203000  1.0
  C  C110  1  0.73020000  0.44134000  0.64204000  1.0
  C  C111  1  0.23020000  0.55866000  0.85796000  1.0
  C  C112  1  0.18574000  0.60911000  0.29746000  1.0
  C  C113  1  0.68574000  0.39089000  0.20254000  1.0
  C  C114  1  0.81426000  0.39089000  0.70255000  1.0
  C  C115  1  0.31426000  0.60911000  0.79746000  1.0
  C  C116  1  0.15258000  0.72112000  0.28406000  1.0
  C  C117  1  0.65259000  0.27888000  0.21594000  1.0
  C  C118  1  0.84742000  0.27888000  0.71594000  1.0
  C  C119  1  0.34742000  0.72112000  0.78406000  1.0
  C  C120  1  0.20173000  0.78218000  0.33241000  1.0
  C  C121  1  0.70173000  0.21782000  0.16759000  1.0
  C  C122  1  0.79827000  0.21782000  0.66760000  1.0
  C  C123  1  0.29827000  0.78218000  0.83241000  1.0
  C  C124  1  0.32735000  0.79267000  0.45034000  1.0
  C  C125  1  0.82734000  0.20733000  0.04966000  1.0
  C  C126  1  0.67266000  0.20733000  0.54966000  1.0
  C  C127  1  0.17266000  0.79267000  0.95034000  1.0
  C  C128  1  0.30409000  0.43830000  0.37175000  1.0
  C  C129  1  0.80409000  0.56171000  0.12825000  1.0
  C  C130  1  0.69591000  0.56171000  0.62825000  1.0
  C  C131  1  0.19591000  0.43829000  0.87175000  1.0
  C  C132  1  0.06727000  0.77710000  0.21717000  1.0
  C  C133  1  0.56727000  0.22290000  0.28284000  1.0
  C  C134  1  0.93273000  0.22290000  0.78283000  1.0
  C  C135  1  0.43273000  0.77710000  0.71717000  1.0
  N  N136  1  0.33150000  0.10300000  0.56245000  1.0
  N  N137  1  0.83150000  0.89700000  0.93755000  1.0
  N  N138  1  0.66850000  0.89700000  0.43755000  1.0
  N  N139  1  0.16850000  0.10300000  0.06245000  1.0
  N  N140  1  0.35329000  0.21032000  0.52498000  1.0
  N  N141  1  0.85329000  0.78968000  0.97502000  1.0
  N  N142  1  0.64671000  0.78968000  0.47502000  1.0
  N  N143  1  0.14671000  0.21032000  0.02498000  1.0
  N  N144  1  0.30164000  0.20486000  0.64194000  1.0
  N  N145  1  0.80163000  0.79514000  0.85806000  1.0
  N  N146  1  0.69837000  0.79514000  0.35806000  1.0
  N  N147  1  0.19837000  0.20486000  0.14194000  1.0
  N  N148  1  0.53361000  0.18916000  0.86196000  1.0
  N  N149  1  0.03361000  0.81084000  0.63804000  1.0
  N  N150  1  0.46639000  0.81084000  0.13804000  1.0
  N  N151  1  0.96639000  0.18916000  0.36196000  1.0
  N  N152  1  0.67375000  0.09267000  0.94777000  1.0
  N  N153  1  0.17375000  0.90732000  0.55223000  1.0
  N  N154  1  0.32625000  0.90733000  0.05223000  1.0
  N  N155  1  0.82625000  0.09267000  0.44778000  1.0
  O  O156  1  0.32927000  0.89960000  0.42518000  1.0
  O  O157  1  0.82927000  0.10040000  0.07482000  1.0
  O  O158  1  0.67074000  0.10040000  0.57482000  1.0
  O  O159  1  0.17073000  0.89960000  0.92518000  1.0
  O  O160  1  0.35705000  0.73795000  0.51570000  1.0
  O  O161  1  0.85705000  0.26206000  0.98430000  1.0
  O  O162  1  0.64294000  0.26205000  0.48430000  1.0
  O  O163  1  0.14295000  0.73794000  0.01570000  1.0
  O  O164  1  0.40722000  0.40538000  0.41549000  1.0
  O  O165  1  0.90722000  0.59462000  0.08451000  1.0
  O  O166  1  0.59278000  0.59462000  0.58451000  1.0
  O  O167  1  0.09278000  0.40538000  0.91549000  1.0
  O  O168  1  0.23368000  0.37738000  0.34241000  1.0
  O  O169  1  0.73368000  0.62262000  0.15759000  1.0
  O  O170  1  0.76632000  0.62262000  0.65759000  1.0
  O  O171  1  0.26632000  0.37738000  0.84241000  1.0
  O  O172  1  0.02386000  0.71325000  0.17788000  1.0
  O  O173  1  0.52386000  0.28675000  0.32213000  1.0
  O  O174  1  0.97614000  0.28675000  0.82213000  1.0
  O  O175  1  0.47614000  0.71325000  0.67787000  1.0
  O  O176  1  0.04599000  0.88014000  0.20454000  1.0
  O  O177  1  0.54599000  0.11986000  0.29547000  1.0
  O  O178  1  0.95400000  0.11986000  0.79546000  1.0
  O  O179  1  0.45401000  0.88014000  0.70454000  1.0
  O  O180  1  0.54483000  0.90890000  0.56454000  1.0
  O  O181  1  0.04483000  0.09110000  0.93546000  1.0
  O  O182  1  0.45517000  0.09110000  0.43546000  1.0
  O  O183  1  0.95517000  0.90890000  0.06454000  1.0
