# generated using pymatgen
data_ZnH6C12Br2(NO2)2
_symmetry_space_group_name_H-M   'P 1'
_cell_length_a   7.75420000
_cell_length_b   7.79470000
_cell_length_c   26.31970000
_cell_angle_alpha   97.29240000
_cell_angle_beta   90.00040000
_cell_angle_gamma   89.99950000
_symmetry_Int_Tables_number   1
_chemical_formula_structural   ZnH6C12Br2(NO2)2
_chemical_formula_sum   'Zn4 H24 C48 Br8 N8 O16'
_cell_volume   1577.93885622
_cell_formula_units_Z   4
loop_
 _symmetry_equiv_pos_site_id
 _symmetry_equiv_pos_as_xyz
  1  'x, y, z'
loop_
 _atom_site_type_symbol
 _atom_site_label
 _atom_site_symmetry_multiplicity
 _atom_site_fract_x
 _atom_site_fract_y
 _atom_site_fract_z
 _atom_site_occupancy
  Zn  Zn0  1  0.88040000  0.88325000  0.90306000  1.0
  Zn  Zn1  1  0.88041000  0.11675000  0.59694000  1.0
  Zn  Zn2  1  0.11960000  0.11675000  0.09694000  1.0
  Zn  Zn3  1  0.11960000  0.88324000  0.40306000  1.0
  H  H4  1  0.49343000  0.88670000  0.91580000  1.0
  H  H5  1  0.49344000  0.11331000  0.58420000  1.0
  H  H6  1  0.50657000  0.11331000  0.08420000  1.0
  H  H7  1  0.50657000  0.88669000  0.41580000  1.0
  H  H8  1  0.81919000  0.78793000  0.79040000  1.0
  H  H9  1  0.81919000  0.21206000  0.70960000  1.0
  H  H10  1  0.18081000  0.21207000  0.20960000  1.0
  H  H11  1  0.18081000  0.78793000  0.29040000  1.0
  H  H12  1  0.26509000  0.75254000  0.76691000  1.0
  H  H13  1  0.26509000  0.24745000  0.73309000  1.0
  H  H14  1  0.73491000  0.24746000  0.23309000  1.0
  H  H15  1  0.73490000  0.75255000  0.26691000  1.0
  H  H16  1  0.89376000  0.50114000  0.88859000  1.0
  H  H17  1  0.89375000  0.49886000  0.61141000  1.0
  H  H18  1  0.10625000  0.49886000  0.11141000  1.0
  H  H19  1  0.10625000  0.50114000  0.38859000  1.0
  H  H20  1  0.76767000  0.86411000  0.01341000  1.0
  H  H21  1  0.76767000  0.13590000  0.48659000  1.0
  H  H22  1  0.23233000  0.13589000  0.98659000  1.0
  H  H23  1  0.23233000  0.86411000  0.51341000  1.0
  H  H24  1  0.73129000  0.31512000  0.02795000  1.0
  H  H25  1  0.73128000  0.68488000  0.47204000  1.0
  H  H26  1  0.26871000  0.68488000  0.97204000  1.0
  H  H27  1  0.26871000  0.31512000  0.52796000  1.0
  C  C28  1  0.18491000  0.83635000  0.86922000  1.0
  C  C29  1  0.18491000  0.16364000  0.63078000  1.0
  C  C30  1  0.81510000  0.16365000  0.13079000  1.0
  C  C31  1  0.81509000  0.83635000  0.36921000  1.0
  C  C32  1  0.35864000  0.81985000  0.84421000  1.0
  C  C33  1  0.35864000  0.18014000  0.65579000  1.0
  C  C34  1  0.64136000  0.18015000  0.15579000  1.0
  C  C35  1  0.64136000  0.81985000  0.34421000  1.0
  C  C36  1  0.50560000  0.85009000  0.87460000  1.0
  C  C37  1  0.50561000  0.14991000  0.62539000  1.0
  C  C38  1  0.49440000  0.14991000  0.12540000  1.0
  C  C39  1  0.49439000  0.85009000  0.37460000  1.0
  C  C40  1  0.68669000  0.79615000  0.80422000  1.0
  C  C41  1  0.68669000  0.20385000  0.69578000  1.0
  C  C42  1  0.31332000  0.20385000  0.19578000  1.0
  C  C43  1  0.31331000  0.79615000  0.30422000  1.0
  C  C44  1  0.54541000  0.76634000  0.77155000  1.0
  C  C45  1  0.54541000  0.23366000  0.72845000  1.0
  C  C46  1  0.45459000  0.23367000  0.22845000  1.0
  C  C47  1  0.45459000  0.76634000  0.27155000  1.0
  C  C48  1  0.37840000  0.77648000  0.79126000  1.0
  C  C49  1  0.37841000  0.22352000  0.70874000  1.0
  C  C50  1  0.62160000  0.22353000  0.20875000  1.0
  C  C51  1  0.62159000  0.77648000  0.29126000  1.0
  C  C52  1  0.83748000  0.20651000  0.92966000  1.0
  C  C53  1  0.83747000  0.79349000  0.57033000  1.0
  C  C54  1  0.16253000  0.79349000  0.07033000  1.0
  C  C55  1  0.16253000  0.20651000  0.42967000  1.0
  C  C56  1  0.81170000  0.38758000  0.95518000  1.0
  C  C57  1  0.81169000  0.61242000  0.54482000  1.0
  C  C58  1  0.18830000  0.61242000  0.04482000  1.0
  C  C59  1  0.18830000  0.38758000  0.45518000  1.0
  C  C60  1  0.84796000  0.52560000  0.92803000  1.0
  C  C61  1  0.84795000  0.47440000  0.57197000  1.0
  C  C62  1  0.15205000  0.47440000  0.07197000  1.0
  C  C63  1  0.15204000  0.52560000  0.42803000  1.0
  C  C64  1  0.77703000  0.72770000  0.99790000  1.0
  C  C65  1  0.77703000  0.27230000  0.50210000  1.0
  C  C66  1  0.22297000  0.27230000  0.00210000  1.0
  C  C67  1  0.22297000  0.72770000  0.49790000  1.0
  C  C68  1  0.73836000  0.59471000  0.02693000  1.0
  C  C69  1  0.73836000  0.40530000  0.47307000  1.0
  C  C70  1  0.26163000  0.40529000  0.97307000  1.0
  C  C71  1  0.26164000  0.59471000  0.52693000  1.0
  C  C72  1  0.75592000  0.42214000  0.00592000  1.0
  C  C73  1  0.75591000  0.57785000  0.49407000  1.0
  C  C74  1  0.24408000  0.57785000  0.99408000  1.0
  C  C75  1  0.24408000  0.42215000  0.50593000  1.0
  Br  Br76  1  0.59167000  0.71490000  0.70051000  1.0
  Br  Br77  1  0.59167000  0.28509000  0.79949000  1.0
  Br  Br78  1  0.40832000  0.28510000  0.29949000  1.0
  Br  Br79  1  0.40833000  0.71490000  0.20051000  1.0
  Br  Br80  1  0.66311000  0.65001000  0.09556000  1.0
  Br  Br81  1  0.66311000  0.34999000  0.40444000  1.0
  Br  Br82  1  0.33689000  0.34999000  0.90445000  1.0
  Br  Br83  1  0.33689000  0.65001000  0.59556000  1.0
  N  N84  1  0.66531000  0.83671000  0.85495000  1.0
  N  N85  1  0.66532000  0.16329000  0.64505000  1.0
  N  N86  1  0.33469000  0.16329000  0.14505000  1.0
  N  N87  1  0.33469000  0.83671000  0.35495000  1.0
  N  N88  1  0.83085000  0.69087000  0.94899000  1.0
  N  N89  1  0.83085000  0.30914000  0.55102000  1.0
  N  N90  1  0.16916000  0.30913000  0.05101000  1.0
  N  N91  1  0.16915000  0.69086000  0.44899000  1.0
  O  O92  1  0.17494000  0.89288000  0.91644000  1.0
  O  O93  1  0.17494000  0.10712000  0.58356000  1.0
  O  O94  1  0.82506000  0.10713000  0.08357000  1.0
  O  O95  1  0.82506000  0.89287000  0.41643000  1.0
  O  O96  1  0.05129000  0.79341000  0.84193000  1.0
  O  O97  1  0.05129000  0.20658000  0.65808000  1.0
  O  O98  1  0.94871000  0.20659000  0.15808000  1.0
  O  O99  1  0.94871000  0.79341000  0.34192000  1.0
  O  O100  1  0.79948000  0.08292000  0.95589000  1.0
  O  O101  1  0.79948000  0.91708000  0.54411000  1.0
  O  O102  1  0.20052000  0.91708000  0.04411000  1.0
  O  O103  1  0.20052000  0.08291000  0.45589000  1.0
  O  O104  1  0.89607000  0.18183000  0.88475000  1.0
  O  O105  1  0.89606000  0.81817000  0.61525000  1.0
  O  O106  1  0.10394000  0.81817000  0.11525000  1.0
  O  O107  1  0.10394000  0.18183000  0.38475000  1.0
