# generated using pymatgen
data_CuH9C12N3O4
_symmetry_space_group_name_H-M   'P 1'
_cell_length_a   13.21090000
_cell_length_b   13.56610000
_cell_length_c   20.16240000
_cell_angle_alpha   90.00010000
_cell_angle_beta   89.99980000
_cell_angle_gamma   89.99990000
_symmetry_Int_Tables_number   1
_chemical_formula_structural   CuH9C12N3O4
_chemical_formula_sum   'Cu8 H72 C96 N24 O32'
_cell_volume   3613.51320118
_cell_formula_units_Z   8
loop_
 _symmetry_equiv_pos_site_id
 _symmetry_equiv_pos_as_xyz
  1  'x, y, z'
loop_
 _atom_site_type_symbol
 _atom_site_label
 _atom_site_symmetry_multiplicity
 _atom_site_fract_x
 _atom_site_fract_y
 _atom_site_fract_z
 _atom_site_occupancy
  Cu  Cu0  1  0.16531000  0.43916000  0.30176000  1.0
  Cu  Cu1  1  0.33469000  0.06083000  0.80175000  1.0
  Cu  Cu2  1  0.33469000  0.93917000  0.69825000  1.0
  Cu  Cu3  1  0.16531000  0.56083000  0.19825000  1.0
  Cu  Cu4  1  0.83469000  0.56084000  0.69825000  1.0
  Cu  Cu5  1  0.66531000  0.93917000  0.19825000  1.0
  Cu  Cu6  1  0.66531000  0.06084000  0.30175000  1.0
  Cu  Cu7  1  0.83469000  0.43917000  0.80175000  1.0
  H  H8  1  0.42206000  0.74892000  0.25769000  1.0
  H  H9  1  0.07796000  0.75108000  0.75770000  1.0
  H  H10  1  0.07794000  0.24892000  0.74231000  1.0
  H  H11  1  0.42204000  0.25107000  0.24230000  1.0
  H  H12  1  0.57794000  0.25107000  0.74230000  1.0
  H  H13  1  0.92205000  0.24893000  0.24230000  1.0
  H  H14  1  0.92206000  0.75107000  0.25769000  1.0
  H  H15  1  0.57795000  0.74893000  0.75770000  1.0
  H  H16  1  0.49706000  0.88946000  0.44226000  1.0
  H  H17  1  0.00294000  0.61055000  0.94227000  1.0
  H  H18  1  0.00294000  0.38946000  0.55774000  1.0
  H  H19  1  0.49706000  0.11054000  0.05773000  1.0
  H  H20  1  0.50294000  0.11054000  0.55774000  1.0
  H  H21  1  0.99706000  0.38946000  0.05773000  1.0
  H  H22  1  0.99705000  0.61054000  0.44226000  1.0
  H  H23  1  0.50294000  0.88946000  0.94227000  1.0
  H  H24  1  0.29813000  0.63657000  0.44052000  1.0
  H  H25  1  0.20187000  0.86344000  0.94054000  1.0
  H  H26  1  0.20187000  0.13656000  0.55948000  1.0
  H  H27  1  0.29813000  0.36343000  0.05947000  1.0
  H  H28  1  0.70187000  0.36343000  0.55947000  1.0
  H  H29  1  0.79814000  0.13657000  0.05946000  1.0
  H  H30  1  0.79812000  0.86343000  0.44052000  1.0
  H  H31  1  0.70186000  0.63656000  0.94053000  1.0
  H  H32  1  0.25111000  0.97674000  0.55638000  1.0
  H  H33  1  0.24888000  0.52326000  0.05638000  1.0
  H  H34  1  0.24889000  0.47674000  0.44362000  1.0
  H  H35  1  0.25112000  0.02326000  0.94362000  1.0
  H  H36  1  0.74888000  0.02326000  0.44362000  1.0
  H  H37  1  0.75112000  0.47673000  0.94362000  1.0
  H  H38  1  0.75111000  0.52326000  0.55638000  1.0
  H  H39  1  0.74888000  0.97673000  0.05638000  1.0
  H  H40  1  0.25998000  0.92114000  0.47547000  1.0
  H  H41  1  0.24001000  0.57886000  0.97548000  1.0
  H  H42  1  0.24002000  0.42114000  0.52453000  1.0
  H  H43  1  0.25999000  0.07886000  0.02452000  1.0
  H  H44  1  0.74002000  0.07886000  0.52452000  1.0
  H  H45  1  0.75999000  0.42113000  0.02452000  1.0
  H  H46  1  0.75998000  0.57886000  0.47548000  1.0
  H  H47  1  0.74002000  0.92114000  0.97548000  1.0
  H  H48  1  0.36124000  0.99313000  0.50691000  1.0
  H  H49  1  0.13875000  0.50687000  0.00691000  1.0
  H  H50  1  0.13876000  0.49313000  0.49309000  1.0
  H  H51  1  0.36125000  0.00688000  0.99309000  1.0
  H  H52  1  0.63876000  0.00687000  0.49309000  1.0
  H  H53  1  0.86124000  0.49313000  0.99309000  1.0
  H  H54  1  0.86124000  0.50687000  0.50691000  1.0
  H  H55  1  0.63876000  0.99313000  0.00691000  1.0
  H  H56  1  0.50944000  0.58706000  0.59665000  1.0
  H  H57  1  0.99055000  0.91295000  0.09665000  1.0
  H  H58  1  0.99056000  0.08705000  0.40335000  1.0
  H  H59  1  0.50944000  0.41295000  0.90335000  1.0
  H  H60  1  0.49056000  0.41295000  0.40335000  1.0
  H  H61  1  0.00944000  0.08705000  0.90335000  1.0
  H  H62  1  0.00944000  0.91295000  0.59665000  1.0
  H  H63  1  0.49056000  0.58704000  0.09665000  1.0
  H  H64  1  0.51290000  0.61402000  0.50979000  1.0
  H  H65  1  0.98711000  0.88597000  0.00980000  1.0
  H  H66  1  0.98711000  0.11402000  0.49021000  1.0
  H  H67  1  0.51289000  0.38598000  0.99020000  1.0
  H  H68  1  0.48711000  0.38598000  0.49020000  1.0
  H  H69  1  0.01289000  0.11402000  0.99020000  1.0
  H  H70  1  0.01289000  0.88598000  0.50980000  1.0
  H  H71  1  0.48711000  0.61403000  0.00980000  1.0
  H  H72  1  0.40745000  0.55141000  0.54418000  1.0
  H  H73  1  0.09254000  0.94859000  0.04418000  1.0
  H  H74  1  0.09255000  0.05141000  0.45582000  1.0
  H  H75  1  0.40746000  0.44860000  0.95582000  1.0
  H  H76  1  0.59255000  0.44859000  0.45582000  1.0
  H  H77  1  0.90745000  0.05141000  0.95582000  1.0
  H  H78  1  0.90745000  0.94859000  0.54418000  1.0
  H  H79  1  0.59255000  0.55141000  0.04418000  1.0
  C  C80  1  0.29450000  0.60959000  0.30785000  1.0
  C  C81  1  0.20551000  0.89041000  0.80785000  1.0
  C  C82  1  0.20551000  0.10960000  0.69215000  1.0
  C  C83  1  0.29448000  0.39040000  0.19215000  1.0
  C  C84  1  0.70551000  0.39041000  0.69215000  1.0
  C  C85  1  0.79450000  0.10959000  0.19215000  1.0
  C  C86  1  0.79449000  0.89041000  0.30784000  1.0
  C  C87  1  0.70551000  0.60959000  0.80785000  1.0
  C  C88  1  0.35512000  0.68423000  0.34547000  1.0
  C  C89  1  0.14489000  0.81577000  0.84548000  1.0
  C  C90  1  0.14488000  0.18423000  0.65453000  1.0
  C  C91  1  0.35510000  0.31576000  0.15453000  1.0
  C  C92  1  0.64489000  0.31577000  0.65453000  1.0
  C  C93  1  0.85512000  0.18423000  0.15452000  1.0
  C  C94  1  0.85511000  0.81576000  0.34547000  1.0
  C  C95  1  0.64489000  0.68424000  0.84547000  1.0
  C  C96  1  0.41499000  0.75246000  0.31145000  1.0
  C  C97  1  0.08502000  0.74754000  0.81146000  1.0
  C  C98  1  0.08501000  0.25246000  0.68855000  1.0
  C  C99  1  0.41498000  0.24754000  0.18854000  1.0
  C  C100  1  0.58501000  0.24753000  0.68855000  1.0
  C  C101  1  0.91498000  0.25246000  0.18854000  1.0
  C  C102  1  0.91499000  0.74753000  0.31145000  1.0
  C  C103  1  0.58502000  0.75247000  0.81146000  1.0
  C  C104  1  0.46644000  0.82558000  0.34664000  1.0
  C  C105  1  0.03357000  0.67442000  0.84665000  1.0
  C  C106  1  0.03356000  0.32558000  0.65336000  1.0
  C  C107  1  0.46643000  0.17442000  0.15335000  1.0
  C  C108  1  0.53357000  0.17442000  0.65335000  1.0
  C  C109  1  0.96644000  0.32559000  0.15335000  1.0
  C  C110  1  0.96643000  0.67441000  0.34665000  1.0
  C  C111  1  0.53357000  0.82559000  0.84665000  1.0
  C  C112  1  0.45675000  0.83176000  0.41558000  1.0
  C  C113  1  0.04325000  0.66825000  0.91559000  1.0
  C  C114  1  0.04326000  0.33176000  0.58442000  1.0
  C  C115  1  0.45674000  0.16824000  0.08441000  1.0
  C  C116  1  0.54326000  0.16824000  0.58441000  1.0
  C  C117  1  0.95675000  0.33176000  0.08441000  1.0
  C  C118  1  0.95674000  0.66824000  0.41558000  1.0
  C  C119  1  0.54325000  0.83176000  0.91559000  1.0
  C  C120  1  0.39636000  0.76369000  0.44910000  1.0
  C  C121  1  0.10364000  0.73632000  0.94910000  1.0
  C  C122  1  0.10364000  0.26369000  0.55090000  1.0
  C  C123  1  0.39636000  0.23631000  0.05090000  1.0
  C  C124  1  0.60364000  0.23631000  0.55090000  1.0
  C  C125  1  0.89637000  0.26369000  0.05089000  1.0
  C  C126  1  0.89636000  0.73631000  0.44910000  1.0
  C  C127  1  0.60364000  0.76369000  0.94911000  1.0
  C  C128  1  0.34622000  0.68910000  0.41452000  1.0
  C  C129  1  0.15378000  0.81090000  0.91454000  1.0
  C  C130  1  0.15378000  0.18910000  0.58547000  1.0
  C  C131  1  0.34621000  0.31090000  0.08546000  1.0
  C  C132  1  0.65378000  0.31090000  0.58547000  1.0
  C  C133  1  0.84622000  0.18910000  0.08546000  1.0
  C  C134  1  0.84621000  0.81090000  0.41453000  1.0
  C  C135  1  0.65378000  0.68910000  0.91454000  1.0
  C  C136  1  0.53428000  0.89635000  0.31081000  1.0
  C  C137  1  0.96572000  0.60365000  0.81082000  1.0
  C  C138  1  0.96572000  0.39635000  0.68919000  1.0
  C  C139  1  0.53428000  0.10366000  0.18918000  1.0
  C  C140  1  0.46572000  0.10365000  0.68919000  1.0
  C  C141  1  0.03428000  0.39634000  0.18919000  1.0
  C  C142  1  0.03428000  0.60365000  0.31081000  1.0
  C  C143  1  0.46572000  0.89635000  0.81082000  1.0
  C  C144  1  0.34458000  0.85125000  0.55277000  1.0
  C  C145  1  0.15541000  0.64876000  0.05278000  1.0
  C  C146  1  0.15542000  0.35124000  0.44723000  1.0
  C  C147  1  0.34459000  0.14876000  0.94722000  1.0
  C  C148  1  0.65541000  0.14876000  0.44722000  1.0
  C  C149  1  0.84459000  0.35124000  0.94722000  1.0
  C  C150  1  0.84458000  0.64875000  0.55278000  1.0
  C  C151  1  0.65541000  0.85124000  0.05278000  1.0
  C  C152  1  0.41499000  0.70572000  0.56768000  1.0
  C  C153  1  0.08501000  0.79428000  0.06769000  1.0
  C  C154  1  0.08502000  0.20572000  0.43232000  1.0
  C  C155  1  0.41499000  0.29428000  0.93231000  1.0
  C  C156  1  0.58501000  0.29428000  0.43231000  1.0
  C  C157  1  0.91499000  0.20572000  0.93231000  1.0
  C  C158  1  0.91498000  0.79428000  0.56768000  1.0
  C  C159  1  0.58501000  0.70572000  0.06769000  1.0
  C  C160  1  0.30159000  0.94046000  0.52081000  1.0
  C  C161  1  0.19840000  0.55954000  0.02081000  1.0
  C  C162  1  0.19841000  0.44045000  0.47919000  1.0
  C  C163  1  0.30160000  0.05955000  0.97919000  1.0
  C  C164  1  0.69841000  0.05954000  0.47919000  1.0
  C  C165  1  0.80160000  0.44045000  0.97919000  1.0
  C  C166  1  0.80159000  0.55954000  0.52081000  1.0
  C  C167  1  0.69841000  0.94045000  0.02081000  1.0
  C  C168  1  0.46394000  0.60931000  0.55370000  1.0
  C  C169  1  0.03606000  0.89069000  0.05371000  1.0
  C  C170  1  0.03607000  0.10931000  0.44630000  1.0
  C  C171  1  0.46394000  0.39069000  0.94629000  1.0
  C  C172  1  0.53606000  0.39069000  0.44629000  1.0
  C  C173  1  0.96394000  0.10931000  0.94629000  1.0
  C  C174  1  0.96393000  0.89069000  0.55370000  1.0
  C  C175  1  0.53606000  0.60931000  0.05370000  1.0
  N  N176  1  0.34983000  0.83315000  0.61712000  1.0
  N  N177  1  0.15016000  0.66685000  0.11713000  1.0
  N  N178  1  0.15017000  0.33315000  0.38288000  1.0
  N  N179  1  0.34983000  0.16685000  0.88287000  1.0
  N  N180  1  0.65017000  0.16685000  0.38287000  1.0
  N  N181  1  0.84983000  0.33315000  0.88287000  1.0
  N  N182  1  0.84983000  0.66685000  0.61712000  1.0
  N  N183  1  0.65017000  0.83315000  0.11713000  1.0
  N  N184  1  0.39447000  0.74225000  0.62671000  1.0
  N  N185  1  0.10553000  0.75775000  0.12672000  1.0
  N  N186  1  0.10554000  0.24224000  0.37329000  1.0
  N  N187  1  0.39447000  0.25776000  0.87328000  1.0
  N  N188  1  0.60553000  0.25775000  0.37328000  1.0
  N  N189  1  0.89447000  0.24225000  0.87328000  1.0
  N  N190  1  0.89447000  0.75775000  0.62672000  1.0
  N  N191  1  0.60553000  0.74225000  0.12672000  1.0
  N  N192  1  0.38491000  0.77204000  0.51921000  1.0
  N  N193  1  0.11508000  0.72796000  0.01922000  1.0
  N  N194  1  0.11509000  0.27204000  0.48079000  1.0
  N  N195  1  0.38492000  0.22796000  0.98078000  1.0
  N  N196  1  0.61508000  0.22796000  0.48078000  1.0
  N  N197  1  0.88492000  0.27204000  0.98078000  1.0
  N  N198  1  0.88491000  0.72796000  0.51921000  1.0
  N  N199  1  0.61508000  0.77204000  0.01922000  1.0
  O  O200  1  0.27677000  0.52772000  0.33669000  1.0
  O  O201  1  0.22323000  0.97228000  0.83669000  1.0
  O  O202  1  0.22323000  0.02772000  0.66331000  1.0
  O  O203  1  0.27676000  0.47227000  0.16331000  1.0
  O  O204  1  0.72323000  0.47228000  0.66331000  1.0
  O  O205  1  0.77677000  0.02772000  0.16331000  1.0
  O  O206  1  0.77677000  0.97228000  0.33668000  1.0
  O  O207  1  0.72323000  0.52772000  0.83669000  1.0
  O  O208  1  0.26377000  0.63715000  0.25103000  1.0
  O  O209  1  0.23623000  0.86285000  0.75104000  1.0
  O  O210  1  0.23623000  0.13715000  0.74897000  1.0
  O  O211  1  0.26376000  0.36284000  0.24897000  1.0
  O  O212  1  0.73623000  0.36285000  0.74897000  1.0
  O  O213  1  0.76377000  0.13716000  0.24896000  1.0
  O  O214  1  0.76377000  0.86285000  0.25103000  1.0
  O  O215  1  0.73623000  0.63716000  0.75104000  1.0
  O  O216  1  0.57005000  0.96750000  0.34512000  1.0
  O  O217  1  0.92995000  0.53251000  0.84514000  1.0
  O  O218  1  0.92996000  0.46750000  0.65487000  1.0
  O  O219  1  0.57005000  0.03251000  0.15487000  1.0
  O  O220  1  0.42996000  0.03250000  0.65487000  1.0
  O  O221  1  0.07005000  0.46749000  0.15488000  1.0
  O  O222  1  0.07005000  0.53250000  0.34513000  1.0
  O  O223  1  0.42995000  0.96750000  0.84514000  1.0
  O  O224  1  0.55152000  0.87813000  0.25018000  1.0
  O  O225  1  0.94848000  0.62187000  0.75019000  1.0
  O  O226  1  0.94847000  0.37813000  0.74982000  1.0
  O  O227  1  0.55153000  0.12188000  0.24981000  1.0
  O  O228  1  0.44848000  0.12186000  0.74981000  1.0
  O  O229  1  0.05152000  0.37812000  0.24982000  1.0
  O  O230  1  0.05152000  0.62186000  0.25018000  1.0
  O  O231  1  0.44847000  0.87814000  0.75020000  1.0
