# generated using pymatgen
data_ZnH16C18(N2O)4
_symmetry_space_group_name_H-M   'P 1'
_cell_length_a   11.07820000
_cell_length_b   16.03930000
_cell_length_c   17.37680000
_cell_angle_alpha   95.15090000
_cell_angle_beta   90.05730000
_cell_angle_gamma   92.39440000
_symmetry_Int_Tables_number   1
_chemical_formula_structural   ZnH16C18(N2O)4
_chemical_formula_sum   'Zn2 H32 C36 N16 O8'
_cell_volume   3072.43541834
_cell_formula_units_Z   2
loop_
 _symmetry_equiv_pos_site_id
 _symmetry_equiv_pos_as_xyz
  1  'x, y, z'
loop_
 _atom_site_type_symbol
 _atom_site_label
 _atom_site_symmetry_multiplicity
 _atom_site_fract_x
 _atom_site_fract_y
 _atom_site_fract_z
 _atom_site_occupancy
  Zn  Zn0  1  0.50153000  0.40816000  0.49969000  1.0
  Zn  Zn1  1  0.51028000  0.58940000  0.50305000  1.0
  H  H2  1  0.39001000  0.71332000  0.42619000  1.0
  H  H3  1  0.37790000  0.87027000  0.43038000  1.0
  H  H4  1  0.32778000  0.11028000  0.40643000  1.0
  H  H5  1  0.61178000  0.11690000  0.57658000  1.0
  H  H6  1  0.50883000  0.61573000  0.26471000  1.0
  H  H7  1  0.51220000  0.61524000  0.12002000  1.0
  H  H8  1  0.53069000  0.65861000  0.90207000  1.0
  H  H9  1  0.48599000  0.39106000  0.89509000  1.0
  H  H10  1  0.77909000  0.59346000  0.39196000  1.0
  H  H11  1  0.88907000  0.67912000  0.30229000  1.0
  H  H12  1  0.22809000  0.60554000  0.39003000  1.0
  H  H13  1  0.11539000  0.68447000  0.30090000  1.0
  H  H14  1  0.70344000  0.66395000  0.58010000  1.0
  H  H15  1  0.71005000  0.74897000  0.64902000  1.0
  H  H16  1  0.68729000  0.96138000  0.60539000  1.0
  H  H17  1  0.76674000  0.87345000  0.61668000  1.0
  H  H18  1  0.30633000  0.33905000  0.42887000  1.0
  H  H19  1  0.25744000  0.24475000  0.37808000  1.0
  H  H20  1  0.60152000  0.34188000  0.61672000  1.0
  H  H21  1  0.66743000  0.25145000  0.63697000  1.0
  H  H22  1  0.50004000  0.33083000  0.30700000  1.0
  H  H23  1  0.53905000  0.28165000  0.21857000  1.0
  H  H24  1  0.48634000  0.33414000  0.03512000  1.0
  H  H25  1  0.44177000  0.28194000  0.11256000  1.0
  H  H26  1  0.50741000  0.66364000  0.69524000  1.0
  H  H27  1  0.51168000  0.72067000  0.78573000  1.0
  H  H28  1  0.45417000  0.35797000  0.68972000  1.0
  H  H29  1  0.44221000  0.31686000  0.77814000  1.0
  H  H30  1  0.21350000  0.39127000  0.57867000  1.0
  H  H31  1  0.07446000  0.35007000  0.60223000  1.0
  H  H32  1  0.79503000  0.38149000  0.57977000  1.0
  H  H33  1  0.90874000  0.40046000  0.64585000  1.0
  C  C34  1  0.50549000  0.48744000  0.34990000  1.0
  C  C35  1  0.26815000  0.50795000  0.49810000  1.0
  C  C36  1  0.50281000  0.50892000  0.65697000  1.0
  C  C37  1  0.74305000  0.49652000  0.50151000  1.0
  C  C38  1  0.44967000  0.75572000  0.46268000  1.0
  C  C39  1  0.44256000  0.84110000  0.46541000  1.0
  C  C40  1  0.52267000  0.89183000  0.51485000  1.0
  C  C41  1  0.60584000  0.85371000  0.56045000  1.0
  C  C42  1  0.60738000  0.76397000  0.55367000  1.0
  C  C43  1  0.39269000  0.14564000  0.44500000  1.0
  C  C44  1  0.47134000  0.10370000  0.48912000  1.0
  C  C45  1  0.55213000  0.14898000  0.54049000  1.0
  C  C46  1  0.55134000  0.23640000  0.54639000  1.0
  C  C47  1  0.39620000  0.23399000  0.45362000  1.0
  C  C48  1  0.50177000  0.48158000  0.26412000  1.0
  C  C49  1  0.50608000  0.55728000  0.22750000  1.0
  C  C50  1  0.50833000  0.55742000  0.14839000  1.0
  C  C51  1  0.50400000  0.48024000  0.10190000  1.0
  C  C52  1  0.49825000  0.40376000  0.13660000  1.0
  C  C53  1  0.49823000  0.40390000  0.21872000  1.0
  C  C54  1  0.52008000  0.59833000  0.86783000  1.0
  C  C55  1  0.50886000  0.52563000  0.90613000  1.0
  C  C56  1  0.49502000  0.44720000  0.86430000  1.0
  C  C57  1  0.49272000  0.44058000  0.78362000  1.0
  C  C58  1  0.50546000  0.51437000  0.74222000  1.0
  C  C59  1  0.51800000  0.59420000  0.78675000  1.0
  C  C60  1  0.87753000  0.49787000  0.49597000  1.0
  C  C61  1  0.93994000  0.55046000  0.44503000  1.0
  C  C62  1  0.94064000  0.44810000  0.54225000  1.0
  C  C63  1  0.87746000  0.59654000  0.39262000  1.0
  C  C64  1  0.93914000  0.64466000  0.34226000  1.0
  C  C65  1  0.13357000  0.50505000  0.49558000  1.0
  C  C66  1  0.07047000  0.45140000  0.54199000  1.0
  C  C67  1  0.06970000  0.55429000  0.44514000  1.0
  C  C68  1  0.12989000  0.60350000  0.39168000  1.0
  C  C69  1  0.06644000  0.64779000  0.34166000  1.0
  N  N70  1  0.52973000  0.71769000  0.50648000  1.0
  N  N71  1  0.53207000  0.97919000  0.52122000  1.0
  N  N72  1  0.45847000  0.01502000  0.48018000  1.0
  N  N73  1  0.47678000  0.27888000  0.50222000  1.0
  N  N74  1  0.50128000  0.47119000  0.02140000  1.0
  N  N75  1  0.51298000  0.53833000  0.98777000  1.0
  N  N76  1  0.69387000  0.72689000  0.59325000  1.0
  N  N77  1  0.68495000  0.89868000  0.61068000  1.0
  N  N78  1  0.31888000  0.27700000  0.41337000  1.0
  N  N79  1  0.62737000  0.28326000  0.59689000  1.0
  N  N80  1  0.49093000  0.32656000  0.24821000  1.0
  N  N81  1  0.49699000  0.32737000  0.09245000  1.0
  N  N82  1  0.53148000  0.66807000  0.75225000  1.0
  N  N83  1  0.47943000  0.36093000  0.74612000  1.0
  N  N84  1  0.12564000  0.40195000  0.59182000  1.0
  N  N85  1  0.88560000  0.39090000  0.58892000  1.0
  O  O86  1  0.49782000  0.41897000  0.38328000  1.0
  O  O87  1  0.51675000  0.56015000  0.38608000  1.0
  O  O88  1  0.32556000  0.57796000  0.49849000  1.0
  O  O89  1  0.31951000  0.43740000  0.50083000  1.0
  O  O90  1  0.49880000  0.57579000  0.62210000  1.0
  O  O91  1  0.50464000  0.43573000  0.61894000  1.0
  O  O92  1  0.68673000  0.42525000  0.49672000  1.0
  O  O93  1  0.69232000  0.56663000  0.51262000  1.0
