# generated using pymatgen
data_Al4H20C36I5N3O26
_symmetry_space_group_name_H-M   'P 1'
_cell_length_a   6.79238000
_cell_length_b   16.52720000
_cell_length_c   18.49490000
_cell_angle_alpha   73.48100000
_cell_angle_beta   89.76940000
_cell_angle_gamma   89.44990000
_symmetry_Int_Tables_number   1
_chemical_formula_structural   Al4H20C36I5N3O26
_chemical_formula_sum   'Al4 H20 C36 I5 N3 O26'
_cell_volume   1990.43092169
_cell_formula_units_Z   1
loop_
 _symmetry_equiv_pos_site_id
 _symmetry_equiv_pos_as_xyz
  1  'x, y, z'
loop_
 _atom_site_type_symbol
 _atom_site_label
 _atom_site_symmetry_multiplicity
 _atom_site_fract_x
 _atom_site_fract_y
 _atom_site_fract_z
 _atom_site_occupancy
  Al  Al0  1  0.87034000  0.50242000  0.50002000  1.0
  Al  Al1  1  0.36815000  0.50395000  0.49772000  1.0
  Al  Al2  1  0.35554000  0.00141000  0.00353000  1.0
  Al  Al3  1  0.85778000  0.00021000  0.00287000  1.0
  H  H4  1  0.34964000  0.85112000  0.24605000  1.0
  H  H5  1  0.02907000  0.78137000  0.36011000  1.0
  H  H6  1  0.28405000  0.75673000  0.36562000  1.0
  H  H7  1  0.38378000  0.76787000  0.15393000  1.0
  H  H8  1  0.41531000  0.67511000  0.27704000  1.0
  H  H9  1  0.82375000  0.77160000  0.15799000  1.0
  H  H10  1  0.80989000  0.82512000  0.22736000  1.0
  H  H11  1  0.79320000  0.69130000  0.31470000  1.0
  H  H12  1  0.17293000  0.71476000  0.13511000  1.0
  H  H13  1  0.26049000  0.60879000  0.24387000  1.0
  H  H14  1  0.35507000  0.26201000  0.66324000  1.0
  H  H15  1  0.32008000  0.16173000  0.78094000  1.0
  H  H16  1  0.33177000  0.23799000  0.82806000  1.0
  H  H17  1  0.88970000  0.26283000  0.67099000  1.0
  H  H18  1  0.68636000  0.22944000  0.62753000  1.0
  H  H19  1  0.87797000  0.34194000  0.74274000  1.0
  H  H20  1  0.61671000  0.59912000  0.51742000  1.0
  H  H21  1  0.12300000  0.40173000  0.55590000  1.0
  H  H22  1  0.60668000  0.90401000  0.98634000  1.0
  H  H23  1  0.10180000  0.11209000  0.98785000  1.0
  C  C24  1  0.62004000  0.39108000  0.61684000  1.0
  C  C25  1  0.62397000  0.41733000  0.41495000  1.0
  C  C26  1  0.11599000  0.61218000  0.38223000  1.0
  C  C27  1  0.11571000  0.59102000  0.58409000  1.0
  C  C28  1  0.11546000  0.63876000  0.63807000  1.0
  C  C29  1  0.11506000  0.68153000  0.68245000  1.0
  C  C30  1  0.11465000  0.72877000  0.73051000  1.0
  C  C31  1  0.11443000  0.77291000  0.77422000  1.0
  C  C32  1  0.11404000  0.82057000  0.82192000  1.0
  C  C33  1  0.11334000  0.86399000  0.86577000  1.0
  C  C34  1  0.19277000  0.83735000  0.25582000  1.0
  C  C35  1  0.15474000  0.76616000  0.32858000  1.0
  C  C36  1  0.24213000  0.74097000  0.17713000  1.0
  C  C37  1  0.89737000  0.77848000  0.20840000  1.0
  C  C38  1  0.10605000  0.81268000  0.18834000  1.0
  C  C39  1  0.11085000  0.68243000  0.30833000  1.0
  C  C40  1  0.27002000  0.67166000  0.25245000  1.0
  C  C41  1  0.90637000  0.69494000  0.27170000  1.0
  C  C42  1  0.40671000  0.28504000  0.70970000  1.0
  C  C43  1  0.40577000  0.21577000  0.78484000  1.0
  C  C44  1  0.72187000  0.34124000  0.75762000  1.0
  C  C45  1  0.73547000  0.24405000  0.67886000  1.0
  C  C46  1  0.61502000  0.31954000  0.69163000  1.0
  C  C47  1  0.61368000  0.18840000  0.81386000  1.0
  C  C48  1  0.69753000  0.26959000  0.83237000  1.0
  C  C49  1  0.71377000  0.16530000  0.74531000  1.0
  C  C50  1  0.62551000  0.36820000  0.36197000  1.0
  C  C51  1  0.62279000  0.32413000  0.31869000  1.0
  C  C52  1  0.61928000  0.27561000  0.27166000  1.0
  C  C53  1  0.61498000  0.23045000  0.22883000  1.0
  C  C54  1  0.61066000  0.18174000  0.18199000  1.0
  C  C55  1  0.60678000  0.13764000  0.13874000  1.0
  C  C56  1  0.60560000  0.08711000  0.08701000  1.0
  C  C57  1  0.60592000  0.11419000  0.88699000  1.0
  C  C58  1  0.11007000  0.91340000  0.91840000  1.0
  C  C59  1  0.10800000  0.88657000  0.11687000  1.0
  I  I60  1  0.82466000  0.58750000  0.23016000  1.0
  I  I61  1  0.69899000  0.47037000  0.76269000  1.0
  I  I62  1  0.51817000  0.29934000  0.92054000  1.0
  I  I63  1  0.07603000  0.95724000  0.26691000  1.0
  I  I64  1  0.98101000  0.08798000  0.75452000  1.0
  N  N65  1  0.25623000  0.35142000  0.71330000  1.0
  N  N66  1  0.56524000  0.10103000  0.72476000  1.0
  N  N67  1  0.90553000  0.24813000  0.86847000  1.0
  O  O68  1  0.45503000  0.43620000  0.43577000  1.0
  O  O69  1  0.78722000  0.41429000  0.58884000  1.0
  O  O70  1  0.94720000  0.57164000  0.56430000  1.0
  O  O71  1  0.79066000  0.43561000  0.43682000  1.0
  O  O72  1  0.95202000  0.58752000  0.41362000  1.0
  O  O73  1  0.45358000  0.41696000  0.58820000  1.0
  O  O74  1  0.61823000  0.55359000  0.49380000  1.0
  O  O75  1  0.28492000  0.58650000  0.40900000  1.0
  O  O76  1  0.28453000  0.57436000  0.56104000  1.0
  O  O77  1  0.12120000  0.45133000  0.51206000  1.0
  O  O78  1  0.77347000  0.08789000  0.91400000  1.0
  O  O79  1  0.43752000  0.06857000  0.06625000  1.0
  O  O80  1  0.27566000  0.91479000  0.09126000  1.0
  O  O81  1  0.43821000  0.09002000  0.91381000  1.0
  O  O82  1  0.27687000  0.93291000  0.93957000  1.0
  O  O83  1  0.77331000  0.06648000  0.06657000  1.0
  O  O84  1  0.60685000  0.95103000  0.00807000  1.0
  O  O85  1  0.94040000  0.93206000  0.93882000  1.0
  O  O86  1  0.94198000  0.91268000  0.08764000  1.0
  O  O87  1  0.10538000  0.05188000  0.99305000  1.0
  O  O88  1  0.27996000  0.39207000  0.75883000  1.0
  O  O89  1  0.11034000  0.35839000  0.67155000  1.0
  O  O90  1  0.50236000  0.11756000  0.65976000  1.0
  O  O91  1  0.52226000  0.03825000  0.77665000  1.0
  O  O92  1  0.93577000  0.24051000  0.93539000  1.0
  O  O93  1  0.02918000  0.23738000  0.82307000  1.0
