# generated using pymatgen
data_Er2CuH16C32(N2O13)2
_symmetry_space_group_name_H-M   'P 1'
_cell_length_a   9.79046000
_cell_length_b   10.22780000
_cell_length_c   10.99130000
_cell_angle_alpha   69.90620000
_cell_angle_beta   86.07520000
_cell_angle_gamma   71.31380000
_symmetry_Int_Tables_number   1
_chemical_formula_structural   Er2CuH16C32(N2O13)2
_chemical_formula_sum   'Er2 Cu1 H16 C32 N4 O26'
_cell_volume   978.06266282
_cell_formula_units_Z   1
loop_
 _symmetry_equiv_pos_site_id
 _symmetry_equiv_pos_as_xyz
  1  'x, y, z'
loop_
 _atom_site_type_symbol
 _atom_site_label
 _atom_site_symmetry_multiplicity
 _atom_site_fract_x
 _atom_site_fract_y
 _atom_site_fract_z
 _atom_site_occupancy
  Er  Er0  1  0.40289000  0.40776000  0.41705000  1.0
  Er  Er1  1  0.59710000  0.59224000  0.58295000  1.0
  Cu  Cu2  1  0.50000000  0.00000000  0.50000000  1.0
  H  H3  1  0.91702000  0.36644000  0.48172000  1.0
  H  H4  1  0.08298000  0.63355000  0.51829000  1.0
  H  H5  1  0.81164000  0.96591000  0.66496000  1.0
  H  H6  1  0.18836000  0.03409000  0.33505000  1.0
  H  H7  1  0.25460000  0.95485000  0.65123000  1.0
  H  H8  1  0.74541000  0.04515000  0.34878000  1.0
  H  H9  1  0.45742000  0.37876000  0.97582000  1.0
  H  H10  1  0.54258000  0.62125000  0.02417000  1.0
  H  H11  1  0.34630000  0.99260000  0.20163000  1.0
  H  H12  1  0.65370000  0.00741000  0.79836000  1.0
  H  H13  1  0.29451000  0.15103000  0.78500000  1.0
  H  H14  1  0.70549000  0.84897000  0.21499000  1.0
  H  H15  1  0.22489000  0.67519000  0.18624000  1.0
  H  H16  1  0.77511000  0.32482000  0.81376000  1.0
  H  H17  1  0.13000000  0.57042000  0.25243000  1.0
  H  H18  1  0.86999000  0.42959000  0.74757000  1.0
  C  C19  1  0.09689000  0.16880000  0.55824000  1.0
  C  C20  1  0.90311000  0.83120000  0.44177000  1.0
  C  C21  1  0.94964000  0.24858000  0.53372000  1.0
  C  C22  1  0.05036000  0.75142000  0.46629000  1.0
  C  C23  1  0.84677000  0.17578000  0.56989000  1.0
  C  C24  1  0.15322000  0.82422000  0.43012000  1.0
  C  C25  1  0.88974000  0.02506000  0.63838000  1.0
  C  C26  1  0.11026000  0.97494000  0.36163000  1.0
  C  C27  1  0.03537000  0.95041000  0.67148000  1.0
  C  C28  1  0.96462000  0.04959000  0.32853000  1.0
  C  C29  1  0.14108000  0.01843000  0.62934000  1.0
  C  C30  1  0.85892000  0.98156000  0.37066000  1.0
  C  C31  1  0.20287000  0.24780000  0.50252000  1.0
  C  C32  1  0.79713000  0.75220000  0.49748000  1.0
  C  C33  1  0.69245000  0.25697000  0.52772000  1.0
  C  C34  1  0.30755000  0.74303000  0.47229000  1.0
  C  C35  1  0.38102000  0.27287000  0.86785000  1.0
  C  C36  1  0.61898000  0.72713000  0.13214000  1.0
  C  C37  1  0.41536000  0.29008000  0.98231000  1.0
  C  C38  1  0.58465000  0.70992000  0.01768000  1.0
  C  C39  1  0.40176000  0.18970000  0.10301000  1.0
  C  C40  1  0.59825000  0.81030000  0.89698000  1.0
  C  C41  1  0.34997000  0.07536000  0.10910000  1.0
  C  C42  1  0.65004000  0.92464000  0.89089000  1.0
  C  C43  1  0.30489000  0.06785000  0.99530000  1.0
  C  C44  1  0.69512000  0.93215000  0.00469000  1.0
  C  C45  1  0.32136000  0.16368000  0.87382000  1.0
  C  C46  1  0.67864000  0.83632000  0.12617000  1.0
  C  C47  1  0.41722000  0.36340000  0.73694000  1.0
  C  C48  1  0.58278000  0.63660000  0.26305000  1.0
  C  C49  1  0.44375000  0.19360000  0.23069000  1.0
  C  C50  1  0.55625000  0.80640000  0.76931000  1.0
  N  N51  1  0.07846000  0.79236000  0.74854000  1.0
  N  N52  1  0.92154000  0.20764000  0.25148000  1.0
  N  N53  1  0.24385000  0.95154000  0.00533000  1.0
  N  N54  1  0.75615000  0.04846000  0.99466000  1.0
  O  O55  1  0.33667000  0.17837000  0.49425000  1.0
  O  O56  1  0.66332000  0.82163000  0.50576000  1.0
  O  O57  1  0.16246000  0.38667000  0.46060000  1.0
  O  O58  1  0.83754000  0.61333000  0.53941000  1.0
  O  O59  1  0.63988000  0.39082000  0.52091000  1.0
  O  O60  1  0.36012000  0.60918000  0.47909000  1.0
  O  O61  1  0.61554000  0.19523000  0.49367000  1.0
  O  O62  1  0.38445000  0.80477000  0.50633000  1.0
  O  O63  1  0.98035000  0.73815000  0.79067000  1.0
  O  O64  1  0.01964000  0.26185000  0.20934000  1.0
  O  O65  1  0.20892000  0.72293000  0.76571000  1.0
  O  O66  1  0.79107000  0.27706000  0.23431000  1.0
  O  O67  1  0.38502000  0.33639000  0.64025000  1.0
  O  O68  1  0.61498000  0.66361000  0.35974000  1.0
  O  O69  1  0.48144000  0.45403000  0.73518000  1.0
  O  O70  1  0.51856000  0.54598000  0.26482000  1.0
  O  O71  1  0.42562000  0.31384000  0.24640000  1.0
  O  O72  1  0.57439000  0.68616000  0.75360000  1.0
  O  O73  1  0.49419000  0.06378000  0.31451000  1.0
  O  O74  1  0.50581000  0.93622000  0.68548000  1.0
  O  O75  1  0.24584000  0.85941000  0.11563000  1.0
  O  O76  1  0.75416000  0.14059000  0.88436000  1.0
  O  O77  1  0.19307000  0.94993000  0.90616000  1.0
  O  O78  1  0.80693000  0.05007000  0.09383000  1.0
  O  O79  1  0.22071000  0.58774000  0.25855000  1.0
  O  O80  1  0.77930000  0.41226000  0.74145000  1.0
