# generated using pymatgen
data_AlH8C12NO7
_symmetry_space_group_name_H-M   'P 1'
_cell_length_a   6.84347000
_cell_length_b   11.08572344
_cell_length_c   15.13155887
_cell_angle_alpha   83.52556547
_cell_angle_beta   78.67277646
_cell_angle_gamma   73.20306348
_symmetry_Int_Tables_number   1
_chemical_formula_structural   AlH8C12NO7
_chemical_formula_sum   'Al2 H16 C24 N2 O14'
_cell_volume   1075.64969365
_cell_formula_units_Z   2
loop_
 _symmetry_equiv_pos_site_id
 _symmetry_equiv_pos_as_xyz
  1  'x, y, z'
loop_
 _atom_site_type_symbol
 _atom_site_label
 _atom_site_symmetry_multiplicity
 _atom_site_fract_x
 _atom_site_fract_y
 _atom_site_fract_z
 _atom_site_occupancy
  Al  Al0  1  0.49480000  0.51174000  0.49933000  1.0
  Al  Al1  1  0.99525000  0.51114000  0.49954000  1.0
  H  H2  1  0.27614000  0.37941000  0.57974000  1.0
  H  H3  1  0.71190000  0.64730000  0.42334000  1.0
  H  H4  1  0.34791000  0.89962000  0.53012000  1.0
  H  H5  1  0.64114000  0.12307000  0.47007000  1.0
  H  H6  1  0.21726000  0.43316000  0.05227000  1.0
  H  H7  1  0.84099000  0.44250000  0.95157000  1.0
  H  H8  1  0.30627000  0.59827000  0.75696000  1.0
  H  H9  1  0.20221000  0.60568000  0.92400000  1.0
  H  H10  1  0.60252000  0.59224000  0.23574000  1.0
  H  H11  1  0.69536000  0.60666000  0.06820000  1.0
  H  H12  1  0.02903000  0.35903000  0.17367000  1.0
  H  H13  1  0.13806000  0.31577000  0.27435000  1.0
  H  H14  1  0.94463000  0.45837000  0.26654000  1.0
  H  H15  1  0.09769000  0.37559000  0.83291000  1.0
  H  H16  1  0.02792000  0.33857000  0.73413000  1.0
  H  H17  1  0.08369000  0.48319000  0.73596000  1.0
  C  C18  1  0.67912000  0.51574000  0.66027000  1.0
  C  C19  1  0.84611000  0.28649000  0.49456000  1.0
  C  C20  1  0.31012000  0.50700000  0.33877000  1.0
  C  C21  1  0.14328000  0.73630000  0.50515000  1.0
  C  C22  1  0.92473000  0.14530000  0.49455000  1.0
  C  C23  1  0.06427000  0.87745000  0.50550000  1.0
  C  C24  1  0.12385000  0.07987000  0.51015000  1.0
  C  C25  1  0.86513000  0.94286000  0.48998000  1.0
  C  C26  1  0.19370000  0.94924000  0.51655000  1.0
  C  C27  1  0.79530000  0.07347000  0.48358000  1.0
  C  C28  1  0.35748000  0.50654000  0.23849000  1.0
  C  C29  1  0.63059000  0.51865000  0.76044000  1.0
  C  C30  1  0.24519000  0.46011000  0.18706000  1.0
  C  C31  1  0.29922000  0.47057000  0.09290000  1.0
  C  C32  1  0.78632000  0.47436000  0.81483000  1.0
  C  C33  1  0.72390000  0.47971000  0.90840000  1.0
  C  C34  1  0.42238000  0.56468000  0.80066000  1.0
  C  C35  1  0.36435000  0.56810000  0.89383000  1.0
  C  C36  1  0.51905000  0.55761000  0.19442000  1.0
  C  C37  1  0.57127000  0.56508000  0.10102000  1.0
  C  C38  1  0.46017000  0.52173000  0.04864000  1.0
  C  C39  1  0.51593000  0.52486000  0.94924000  1.0
  C  C40  1  0.07980000  0.39524000  0.22728000  1.0
  C  C41  1  0.01088000  0.41523000  0.77773000  1.0
  N  N42  1  0.27603000  0.14912000  0.51287000  1.0
  N  N43  1  0.71316000  0.87342000  0.48737000  1.0
  O  O44  1  0.54015000  0.49913000  0.62106000  1.0
  O  O45  1  0.97525000  0.34197000  0.50807000  1.0
  O  O46  1  0.13489000  0.49265000  0.37828000  1.0
  O  O47  1  0.32925000  0.68622000  0.51541000  1.0
  O  O48  1  0.44665000  0.52613000  0.37839000  1.0
  O  O49  1  0.01468000  0.68053000  0.49153000  1.0
  O  O50  1  0.85534000  0.52882000  0.62112000  1.0
  O  O51  1  0.66039000  0.33705000  0.48417000  1.0
  O  O52  1  0.25439000  0.45565000  0.54016000  1.0
  O  O53  1  0.73608000  0.56713000  0.45861000  1.0
  O  O54  1  0.36384000  0.18122000  0.43820000  1.0
  O  O55  1  0.31411000  0.16356000  0.58702000  1.0
  O  O56  1  0.67554000  0.85838000  0.41324000  1.0
  O  O57  1  0.62541000  0.84149000  0.56207000  1.0
