# generated using pymatgen
data_CdH40Pd2C56(N6Cl)2
_symmetry_space_group_name_H-M   'P 1'
_cell_length_a   9.11895000
_cell_length_b   11.75710000
_cell_length_c   15.50040000
_cell_angle_alpha   87.62560000
_cell_angle_beta   86.19680000
_cell_angle_gamma   80.01560000
_symmetry_Int_Tables_number   1
_chemical_formula_structural   CdH40Pd2C56(N6Cl)2
_chemical_formula_sum   'Cd1 H40 Pd2 C56 N12 Cl2'
_cell_volume   1632.30478937
_cell_formula_units_Z   1
loop_
 _symmetry_equiv_pos_site_id
 _symmetry_equiv_pos_as_xyz
  1  'x, y, z'
loop_
 _atom_site_type_symbol
 _atom_site_label
 _atom_site_symmetry_multiplicity
 _atom_site_fract_x
 _atom_site_fract_y
 _atom_site_fract_z
 _atom_site_occupancy
  Cd  Cd0  1  0.00000000  0.50000000  0.00000000  1.0
  H  H1  1  0.06925000  0.03115000  0.79274000  1.0
  H  H2  1  0.93074000  0.96885000  0.20727000  1.0
  H  H3  1  0.32454000  0.92072000  0.71117000  1.0
  H  H4  1  0.67546000  0.07928000  0.28883000  1.0
  H  H5  1  0.49183000  0.81007000  0.83705000  1.0
  H  H6  1  0.50817000  0.18993000  0.16295000  1.0
  H  H7  1  0.47206000  0.90537000  0.17769000  1.0
  H  H8  1  0.52794000  0.09463000  0.82231000  1.0
  H  H9  1  0.29230000  0.07725000  0.26258000  1.0
  H  H10  1  0.70770000  0.92275000  0.73742000  1.0
  H  H11  1  0.05304000  0.14499000  0.16328000  1.0
  H  H12  1  0.94696000  0.85502000  0.83672000  1.0
  H  H13  1  0.40834000  0.65052000  0.96314000  1.0
  H  H14  1  0.59167000  0.34948000  0.03685000  1.0
  H  H15  1  0.65357000  0.51332000  0.96620000  1.0
  H  H16  1  0.34643000  0.48668000  0.03380000  1.0
  H  H17  1  0.86911000  0.76801000  0.04759000  1.0
  H  H18  1  0.13088000  0.23199000  0.95241000  1.0
  H  H19  1  0.63371000  0.91099000  0.05689000  1.0
  H  H20  1  0.36629000  0.08901000  0.94311000  1.0
  H  H21  1  0.64451000  0.99374000  0.51487000  1.0
  H  H22  1  0.35550000  0.00626000  0.48513000  1.0
  H  H23  1  0.51202000  0.88426000  0.39662000  1.0
  H  H24  1  0.48798000  0.11574000  0.60338000  1.0
  H  H25  1  0.73621000  0.77508000  0.29212000  1.0
  H  H26  1  0.26380000  0.22492000  0.70788000  1.0
  H  H27  1  0.31677000  0.64033000  0.35276000  1.0
  H  H28  1  0.68323000  0.35966000  0.64724000  1.0
  H  H29  1  0.46276000  0.66732000  0.49573000  1.0
  H  H30  1  0.53725000  0.33268000  0.50427000  1.0
  H  H31  1  0.29116000  0.84530000  0.58169000  1.0
  H  H32  1  0.70885000  0.15471000  0.41831000  1.0
  H  H33  1  0.92605000  0.58274000  0.34118000  1.0
  H  H34  1  0.07395000  0.41726000  0.65882000  1.0
  H  H35  1  0.94536000  0.47041000  0.20418000  1.0
  H  H36  1  0.05464000  0.52959000  0.79582000  1.0
  H  H37  1  0.17268000  0.70272000  0.06923000  1.0
  H  H38  1  0.82732000  0.29728000  0.93077000  1.0
  H  H39  1  0.17086000  0.82193000  0.20074000  1.0
  H  H40  1  0.82914000  0.17807000  0.79926000  1.0
  Pd  Pd41  1  0.00000000  0.00000000  0.00000000  1.0
  Pd  Pd42  1  0.00000000  0.00000000  0.50000000  1.0
  C  C43  1  0.16319000  0.97777000  0.82203000  1.0
  C  C44  1  0.83680000  0.02223000  0.17797000  1.0
  C  C45  1  0.29549000  0.91780000  0.78012000  1.0
  C  C46  1  0.70451000  0.08220000  0.21988000  1.0
  C  C47  1  0.38092000  0.86106000  0.84445000  1.0
  C  C48  1  0.61908000  0.13894000  0.15555000  1.0
  C  C49  1  0.30066000  0.88997000  0.92539000  1.0
  C  C50  1  0.69934000  0.11003000  0.07461000  1.0
  C  C51  1  0.35819000  0.87332000  0.00764000  1.0
  C  C52  1  0.64181000  0.12668000  0.99236000  1.0
  C  C53  1  0.29634000  0.93654000  0.08052000  1.0
  C  C54  1  0.70366000  0.06346000  0.91948000  1.0
  C  C55  1  0.36499000  0.95139000  0.15865000  1.0
  C  C56  1  0.63501000  0.04860000  0.84135000  1.0
  C  C57  1  0.27274000  0.04028000  0.20223000  1.0
  C  C58  1  0.72725000  0.95972000  0.79777000  1.0
  C  C59  1  0.14786000  0.07616000  0.15186000  1.0
  C  C60  1  0.85214000  0.92384000  0.84814000  1.0
  C  C61  1  0.50072000  0.79120000  0.01244000  1.0
  C  C62  1  0.49928000  0.20880000  0.98756000  1.0
  C  C63  1  0.50783000  0.67772000  0.98535000  1.0
  C  C64  1  0.49217000  0.32228000  0.01465000  1.0
  C  C65  1  0.64348000  0.60253000  0.98566000  1.0
  C  C66  1  0.35652000  0.39747000  0.01434000  1.0
  C  C67  1  0.76359000  0.74342000  0.03310000  1.0
  C  C68  1  0.23641000  0.25658000  0.96691000  1.0
  C  C69  1  0.63186000  0.82344000  0.03770000  1.0
  C  C70  1  0.36814000  0.17656000  0.96230000  1.0
  C  C71  1  0.69805000  0.94073000  0.46219000  1.0
  C  C72  1  0.30195000  0.05927000  0.53781000  1.0
  C  C73  1  0.63042000  0.88447000  0.40027000  1.0
  C  C74  1  0.36959000  0.11553000  0.59973000  1.0
  C  C75  1  0.74544000  0.82749000  0.34678000  1.0
  C  C76  1  0.25456000  0.17251000  0.65323000  1.0
  C  C77  1  0.88197000  0.84738000  0.37881000  1.0
  C  C78  1  0.11803000  0.15261000  0.62119000  1.0
  C  C79  1  0.02639000  0.78880000  0.35656000  1.0
  C  C80  1  0.97362000  0.21120000  0.64344000  1.0
  C  C81  1  0.15061000  0.78801000  0.40520000  1.0
  C  C82  1  0.84939000  0.21199000  0.59480000  1.0
  C  C83  1  0.28482000  0.70437000  0.40207000  1.0
  C  C84  1  0.71519000  0.29564000  0.59793000  1.0
  C  C85  1  0.35853000  0.71745000  0.47552000  1.0
  C  C86  1  0.64147000  0.28255000  0.52448000  1.0
  C  C87  1  0.27028000  0.81018000  0.52093000  1.0
  C  C88  1  0.72973000  0.18982000  0.47907000  1.0
  C  C89  1  0.04420000  0.71308000  0.28085000  1.0
  C  C90  1  0.95581000  0.28692000  0.71915000  1.0
  C  C91  1  0.98301000  0.61163000  0.28246000  1.0
  C  C92  1  0.01699000  0.38837000  0.71754000  1.0
  C  C93  1  0.99398000  0.54881000  0.20746000  1.0
  C  C94  1  0.00602000  0.45119000  0.79254000  1.0
  C  C95  1  0.12284000  0.67816000  0.13184000  1.0
  C  C96  1  0.87717000  0.32184000  0.86816000  1.0
  C  C97  1  0.11901000  0.74494000  0.20435000  1.0
  C  C98  1  0.88100000  0.25506000  0.79565000  1.0
  N  N99  1  0.16526000  0.96063000  0.90830000  1.0
  N  N100  1  0.83474000  0.03937000  0.09170000  1.0
  N  N101  1  0.16023000  0.01280000  0.08045000  1.0
  N  N102  1  0.83977000  0.98720000  0.91955000  1.0
  N  N103  1  0.76962000  0.63465000  0.00832000  1.0
  N  N104  1  0.23038000  0.36535000  0.99168000  1.0
  N  N105  1  0.84772000  0.92095000  0.44860000  1.0
  N  N106  1  0.15229000  0.07905000  0.55140000  1.0
  N  N107  1  0.14796000  0.85386000  0.47853000  1.0
  N  N108  1  0.85204000  0.14615000  0.52147000  1.0
  N  N109  1  0.06035000  0.58258000  0.13301000  1.0
  N  N110  1  0.93965000  0.41741000  0.86699000  1.0
  Cl  Cl111  1  0.86953000  0.34948000  0.08707000  1.0
  Cl  Cl112  1  0.13047000  0.65052000  0.91293000  1.0
