# generated using pymatgen
data_ZnH28C18(NO)4
_symmetry_space_group_name_H-M   'P 1'
_cell_length_a   8.88523000
_cell_length_b   11.42730000
_cell_length_c   11.50950000
_cell_angle_alpha   89.52140000
_cell_angle_beta   69.42680000
_cell_angle_gamma   69.61450000
_symmetry_Int_Tables_number   1
_chemical_formula_structural   ZnH28C18(NO)4
_chemical_formula_sum   'Zn2 H56 C36 N8 O8'
_cell_volume   1016.85890403
_cell_formula_units_Z   2
loop_
 _symmetry_equiv_pos_site_id
 _symmetry_equiv_pos_as_xyz
  1  'x, y, z'
loop_
 _atom_site_type_symbol
 _atom_site_label
 _atom_site_symmetry_multiplicity
 _atom_site_fract_x
 _atom_site_fract_y
 _atom_site_fract_z
 _atom_site_occupancy
  Zn  Zn0  1  0.50000000  0.00000000  0.50000000  1.0
  Zn  Zn1  1  0.00000000  0.50000000  0.00000000  1.0
  H  H2  1  0.49358000  0.21039000  0.57405000  1.0
  H  H3  1  0.00638000  0.42547000  0.79106000  1.0
  H  H4  1  0.50642000  0.78961000  0.42595000  1.0
  H  H5  1  0.99362000  0.57454000  0.20894000  1.0
  H  H6  1  0.82830000  0.88837000  0.34850000  1.0
  H  H7  1  0.67176000  0.65202000  0.11130000  1.0
  H  H8  1  0.17170000  0.11163000  0.65150000  1.0
  H  H9  1  0.32824000  0.34798000  0.88870000  1.0
  H  H10  1  0.74381000  0.23265000  0.41272000  1.0
  H  H11  1  0.75574000  0.58693000  0.76939000  1.0
  H  H12  1  0.25620000  0.76735000  0.58727000  1.0
  H  H13  1  0.24426000  0.41307000  0.23061000  1.0
  H  H14  1  0.72838000  0.12639000  0.30912000  1.0
  H  H15  1  0.77109000  0.69181000  0.87442000  1.0
  H  H16  1  0.27162000  0.87361000  0.69088000  1.0
  H  H17  1  0.22891000  0.30819000  0.12558000  1.0
  H  H18  1  0.95528000  0.02305000  0.40059000  1.0
  H  H19  1  0.54479000  0.59904000  0.97803000  1.0
  H  H20  1  0.04472000  0.97695000  0.59941000  1.0
  H  H21  1  0.45521000  0.40096000  0.02197000  1.0
  H  H22  1  0.79007000  0.06420000  0.55241000  1.0
  H  H23  1  0.70995000  0.44653000  0.93693000  1.0
  H  H24  1  0.20993000  0.93580000  0.44759000  1.0
  H  H25  1  0.29005000  0.55347000  0.06307000  1.0
  H  H26  1  0.78489000  0.86697000  0.61195000  1.0
  H  H27  1  0.71500000  0.38688000  0.13289000  1.0
  H  H28  1  0.21511000  0.13303000  0.38804000  1.0
  H  H29  1  0.28500000  0.61312000  0.86711000  1.0
  H  H30  1  0.98233000  0.79231000  0.48152000  1.0
  H  H31  1  0.51774000  0.51803000  0.20743000  1.0
  H  H32  1  0.01767000  0.20769000  0.51848000  1.0
  H  H33  1  0.48226000  0.48197000  0.79257000  1.0
  H  H34  1  0.86593000  0.63459000  0.53178000  1.0
  H  H35  1  0.63369000  0.46802000  0.36369000  1.0
  H  H36  1  0.13408000  0.36541000  0.46822000  1.0
  H  H37  1  0.36631000  0.53198000  0.63631000  1.0
  H  H38  1  0.82346000  0.68736000  0.39813000  1.0
  H  H39  1  0.67706000  0.60235000  0.31075000  1.0
  H  H40  1  0.17654000  0.31264000  0.60187000  1.0
  H  H41  1  0.32294000  0.39765000  0.68925000  1.0
  H  H42  1  0.41528000  0.36040000  0.42881000  1.0
  H  H43  1  0.08537000  0.57099000  0.64127000  1.0
  H  H44  1  0.58472000  0.63960000  0.57119000  1.0
  H  H45  1  0.91463000  0.42901000  0.35873000  1.0
  H  H46  1  0.44260000  0.22817000  0.33201000  1.0
  H  H47  1  0.05765000  0.66928000  0.77209000  1.0
  H  H48  1  0.55740000  0.77182000  0.66799000  1.0
  H  H49  1  0.94235000  0.33072000  0.22791000  1.0
  H  H50  1  0.55665000  0.19383000  0.93792000  1.0
  H  H51  1  0.94423000  0.06131000  0.80698000  1.0
  H  H52  1  0.44335000  0.80616000  0.06208000  1.0
  H  H53  1  0.05577000  0.93869000  0.19302000  1.0
  H  H54  1  0.42251000  0.88523000  0.86184000  1.0
  H  H55  1  0.07776000  0.13998000  0.11280000  1.0
  H  H56  1  0.57749000  0.11477000  0.13816000  1.0
  H  H57  1  0.92224000  0.86002000  0.88720000  1.0
  C  C58  1  0.70559000  0.15103000  0.40767000  1.0
  C  C59  1  0.79424000  0.59247000  0.85015000  1.0
  C  C60  1  0.29441000  0.84897000  0.59233000  1.0
  C  C61  1  0.20577000  0.40753000  0.14985000  1.0
  C  C62  1  0.81756000  0.03982000  0.45285000  1.0
  C  C63  1  0.68249000  0.54677000  0.96107000  1.0
  C  C64  1  0.18244000  0.96018000  0.54715000  1.0
  C  C65  1  0.31751000  0.45323000  0.03893000  1.0
  C  C66  1  0.83969000  0.82665000  0.51290000  1.0
  C  C67  1  0.66040000  0.48658000  0.17287000  1.0
  C  C68  1  0.16031000  0.17335000  0.48710000  1.0
  C  C69  1  0.33960000  0.51342000  0.82713000  1.0
  C  C70  1  0.78693000  0.71485000  0.49853000  1.0
  C  C71  1  0.71320000  0.50128000  0.28374000  1.0
  C  C72  1  0.21307000  0.28515000  0.50147000  1.0
  C  C73  1  0.28680000  0.49873000  0.71626000  1.0
  C  C74  1  0.40287000  0.26707000  0.42988000  1.0
  C  C75  1  0.09720000  0.57059000  0.73409000  1.0
  C  C76  1  0.59713000  0.73293000  0.57012000  1.0
  C  C77  1  0.90280000  0.42941000  0.26591000  1.0
  C  C78  1  0.48733000  0.04466000  0.88840000  1.0
  C  C79  1  0.01343000  0.11159000  0.95483000  1.0
  C  C80  1  0.51267000  0.95534000  0.11160000  1.0
  C  C81  1  0.98656000  0.88841000  0.04517000  1.0
  C  C82  1  0.52958000  0.10990000  0.96687000  1.0
  C  C83  1  0.97096000  0.03247000  0.89045000  1.0
  C  C84  1  0.47042000  0.89010000  0.03313000  1.0
  C  C85  1  0.02903000  0.96753000  0.10955000  1.0
  C  C86  1  0.45821000  0.93408000  0.92255000  1.0
  C  C87  1  0.04200000  0.07834000  0.06493000  1.0
  C  C88  1  0.54178000  0.06592000  0.07745000  1.0
  C  C89  1  0.95800000  0.92166000  0.93507000  1.0
  C  C90  1  0.47590000  0.09050000  0.76759000  1.0
  C  C91  1  0.02525000  0.23268000  0.90879000  1.0
  C  C92  1  0.52409000  0.90951000  0.23241000  1.0
  C  C93  1  0.97474000  0.76732000  0.09121000  1.0
  N  N94  1  0.52165000  0.17996000  0.48152000  1.0
  N  N95  1  0.97813000  0.51877000  0.82102000  1.0
  N  N96  1  0.47835000  0.82004000  0.51848000  1.0
  N  N97  1  0.02187000  0.48123000  0.17898000  1.0
  N  N98  1  0.77684000  0.92714000  0.44119000  1.0
  N  N99  1  0.72316000  0.55875000  0.07280000  1.0
  N  N100  1  0.22316000  0.07286000  0.55881000  1.0
  N  N101  1  0.27684000  0.44125000  0.92720000  1.0
  O  O102  1  0.46943000  0.01145000  0.69338000  1.0
  O  O103  1  0.03145000  0.30730000  0.98746000  1.0
  O  O104  1  0.53057000  0.98856000  0.30662000  1.0
  O  O105  1  0.96855000  0.69270000  0.01254000  1.0
  O  O106  1  0.47656000  0.19966000  0.74668000  1.0
  O  O107  1  0.02502000  0.25352000  0.80028000  1.0
  O  O108  1  0.52343000  0.80035000  0.25333000  1.0
  O  O109  1  0.97498000  0.74648000  0.19972000  1.0
