# generated using pymatgen
data_NiH14C16(N2O3)2
_symmetry_space_group_name_H-M   'P 1'
_cell_length_a   8.64375000
_cell_length_b   8.87344574
_cell_length_c   12.97006849
_cell_angle_alpha   77.90135621
_cell_angle_beta   70.53664376
_cell_angle_gamma   60.86286474
_symmetry_Int_Tables_number   1
_chemical_formula_structural   NiH14C16(N2O3)2
_chemical_formula_sum   'Ni2 H28 C32 N8 O12'
_cell_volume   817.90668973
_cell_formula_units_Z   2
loop_
 _symmetry_equiv_pos_site_id
 _symmetry_equiv_pos_as_xyz
  1  'x, y, z'
loop_
 _atom_site_type_symbol
 _atom_site_label
 _atom_site_symmetry_multiplicity
 _atom_site_fract_x
 _atom_site_fract_y
 _atom_site_fract_z
 _atom_site_occupancy
  Ni  Ni0  1  0.00000000  0.00000000  0.00000000  1.0
  Ni  Ni1  1  0.00000000  0.50000000  0.50000000  1.0
  H  H2  1  0.93691000  0.77276000  0.96981000  1.0
  H  H3  1  0.67963000  0.72697000  0.53020000  1.0
  H  H4  1  0.06308000  0.22725000  0.03019000  1.0
  H  H5  1  0.32037000  0.27303000  0.46980000  1.0
  H  H6  1  0.07758000  0.67400000  0.04264000  1.0
  H  H7  1  0.79420000  0.82581000  0.45733000  1.0
  H  H8  1  0.92242000  0.32600000  0.95736000  1.0
  H  H9  1  0.20579000  0.17420000  0.54266000  1.0
  H  H10  1  0.99361000  0.82503000  0.32509000  1.0
  H  H11  1  0.14385000  0.67507000  0.17510000  1.0
  H  H12  1  0.00638000  0.17498000  0.67491000  1.0
  H  H13  1  0.85614000  0.32494000  0.82490000  1.0
  H  H14  1  0.41229000  0.96398000  0.43662000  1.0
  H  H15  1  0.81291000  0.53636000  0.06308000  1.0
  H  H16  1  0.58772000  0.03601000  0.56338000  1.0
  H  H17  1  0.18709000  0.46363000  0.93693000  1.0
  H  H18  1  0.22950000  0.50083000  0.65119000  1.0
  H  H19  1  0.38114000  0.99960000  0.84891000  1.0
  H  H20  1  0.77051000  0.49917000  0.34881000  1.0
  H  H21  1  0.61886000  0.00039000  0.15109000  1.0
  H  H22  1  0.26867000  0.13576000  0.28671000  1.0
  H  H23  1  0.69151000  0.36415000  0.21291000  1.0
  H  H24  1  0.73134000  0.86423000  0.71329000  1.0
  H  H25  1  0.30849000  0.63585000  0.78709000  1.0
  H  H26  1  0.39543000  0.69253000  0.60617000  1.0
  H  H27  1  0.69390000  0.80785000  0.89379000  1.0
  H  H28  1  0.60457000  0.30747000  0.39383000  1.0
  H  H29  1  0.30609000  0.19216000  0.10620000  1.0
  C  C30  1  0.05743000  0.07575000  0.19771000  1.0
  C  C31  1  0.33106000  0.42428000  0.30222000  1.0
  C  C32  1  0.94257000  0.92426000  0.80229000  1.0
  C  C33  1  0.66895000  0.57571000  0.69777000  1.0
  C  C34  1  0.07578000  0.85898000  0.35471000  1.0
  C  C35  1  0.28958000  0.64120000  0.14539000  1.0
  C  C36  1  0.92423000  0.14102000  0.64529000  1.0
  C  C37  1  0.71042000  0.35880000  0.85461000  1.0
  C  C38  1  0.12217000  0.98993000  0.29811000  1.0
  C  C39  1  0.41047000  0.51013000  0.20184000  1.0
  C  C40  1  0.87783000  0.01007000  0.70189000  1.0
  C  C41  1  0.58954000  0.48986000  0.79816000  1.0
  C  C42  1  0.14472000  0.77085000  0.44417000  1.0
  C  C43  1  0.35975000  0.72939000  0.05590000  1.0
  C  C44  1  0.85527000  0.22915000  0.55583000  1.0
  C  C45  1  0.64026000  0.27060000  0.94410000  1.0
  C  C46  1  0.26328000  0.81055000  0.47478000  1.0
  C  C47  1  0.54855000  0.68981000  0.02522000  1.0
  C  C48  1  0.73672000  0.18945000  0.52522000  1.0
  C  C49  1  0.45146000  0.31019000  0.97478000  1.0
  C  C50  1  0.31419000  0.93877000  0.41689000  1.0
  C  C51  1  0.66994000  0.56147000  0.08293000  1.0
  C  C52  1  0.68582000  0.06122000  0.58311000  1.0
  C  C53  1  0.33006000  0.43853000  0.91707000  1.0
  C  C54  1  0.21910000  0.60013000  0.58509000  1.0
  C  C55  1  0.40410000  0.90025000  0.91499000  1.0
  C  C56  1  0.78090000  0.39987000  0.41491000  1.0
  C  C57  1  0.59589000  0.09975000  0.08501000  1.0
  C  C58  1  0.23871000  0.02994000  0.33021000  1.0
  C  C59  1  0.59911000  0.47015000  0.16959000  1.0
  C  C60  1  0.76129000  0.97006000  0.66979000  1.0
  C  C61  1  0.40088000  0.52985000  0.83042000  1.0
  N  N62  1  0.12148000  0.63723000  0.51484000  1.0
  N  N63  1  0.27341000  0.86306000  0.98530000  1.0
  N  N64  1  0.87853000  0.36277000  0.48516000  1.0
  N  N65  1  0.72660000  0.13694000  0.01470000  1.0
  N  N66  1  0.30669000  0.70004000  0.56432000  1.0
  N  N67  1  0.57086000  0.80037000  0.93568000  1.0
  N  N68  1  0.69331000  0.29996000  0.43568000  1.0
  N  N69  1  0.42915000  0.19963000  0.06431000  1.0
  O  O70  1  0.96459000  0.02401000  0.16931000  1.0
  O  O71  1  0.15813000  0.47598000  0.33064000  1.0
  O  O72  1  0.03540000  0.97600000  0.83069000  1.0
  O  O73  1  0.84187000  0.52402000  0.66936000  1.0
  O  O74  1  0.10264000  0.19429000  0.14358000  1.0
  O  O75  1  0.44060000  0.30573000  0.35636000  1.0
  O  O76  1  0.89734000  0.80572000  0.85643000  1.0
  O  O77  1  0.55939000  0.69427000  0.64364000  1.0
  O  O78  1  0.95721000  0.77160000  0.04363000  1.0
  O  O79  1  0.77265000  0.72803000  0.45643000  1.0
  O  O80  1  0.04278000  0.22840000  0.95637000  1.0
  O  O81  1  0.22734000  0.27197000  0.54357000  1.0
