# generated using pymatgen
data_AgH5C6SNO4F3
_symmetry_space_group_name_H-M   'P 1'
_cell_length_a   8.23186000
_cell_length_b   10.28400000
_cell_length_c   11.76580000
_cell_angle_alpha   86.53820000
_cell_angle_beta   81.46150000
_cell_angle_gamma   88.60830000
_symmetry_Int_Tables_number   1
_chemical_formula_structural   AgH5C6SNO4F3
_chemical_formula_sum   'Ag4 H20 C24 S4 N4 O16 F12'
_cell_volume   983.09510602
_cell_formula_units_Z   4
loop_
 _symmetry_equiv_pos_site_id
 _symmetry_equiv_pos_as_xyz
  1  'x, y, z'
loop_
 _atom_site_type_symbol
 _atom_site_label
 _atom_site_symmetry_multiplicity
 _atom_site_fract_x
 _atom_site_fract_y
 _atom_site_fract_z
 _atom_site_occupancy
  Ag  Ag0  1  0.11622000  0.88861000  0.08779000  1.0
  Ag  Ag1  1  0.88378000  0.11139000  0.91221000  1.0
  Ag  Ag2  1  0.38727000  0.06569000  0.91946000  1.0
  Ag  Ag3  1  0.61273000  0.93431000  0.08054000  1.0
  H  H4  1  0.03690000  0.07060000  0.23175000  1.0
  H  H5  1  0.96310000  0.92940000  0.76825000  1.0
  H  H6  1  0.01491000  0.23874000  0.37845000  1.0
  H  H7  1  0.98509000  0.76126000  0.62155000  1.0
  H  H8  1  0.05888000  0.47535000  0.31087000  1.0
  H  H9  1  0.94112000  0.52465000  0.68913000  1.0
  H  H10  1  0.12547000  0.53034000  0.09839000  1.0
  H  H11  1  0.87453000  0.46966000  0.90161000  1.0
  H  H12  1  0.14607000  0.34754000  0.96202000  1.0
  H  H13  1  0.85393000  0.65245000  0.03798000  1.0
  H  H14  1  0.67124000  0.94582000  0.64143000  1.0
  H  H15  1  0.32877000  0.05418000  0.35857000  1.0
  H  H16  1  0.69179000  0.04575000  0.43766000  1.0
  H  H17  1  0.30821000  0.95425000  0.56234000  1.0
  H  H18  1  0.69430000  0.29049000  0.40816000  1.0
  H  H19  1  0.30570000  0.70951000  0.59184000  1.0
  H  H20  1  0.68397000  0.42353000  0.58190000  1.0
  H  H21  1  0.31603000  0.57647000  0.41810000  1.0
  H  H22  1  0.66890000  0.30627000  0.77832000  1.0
  H  H23  1  0.33110000  0.69373000  0.22168000  1.0
  C  C24  1  0.05703000  0.17366000  0.20849000  1.0
  C  C25  1  0.94297000  0.82634000  0.79151000  1.0
  C  C26  1  0.04480000  0.26881000  0.28769000  1.0
  C  C27  1  0.95520000  0.73119000  0.71231000  1.0
  C  C28  1  0.06935000  0.39895000  0.25004000  1.0
  C  C29  1  0.93065000  0.60105000  0.74996000  1.0
  C  C30  1  0.10513000  0.43036000  0.13206000  1.0
  C  C31  1  0.89487000  0.56964000  0.86794000  1.0
  C  C32  1  0.11790000  0.33282000  0.05514000  1.0
  C  C33  1  0.88209000  0.66718000  0.94486000  1.0
  C  C34  1  0.67544000  0.05008000  0.62014000  1.0
  C  C35  1  0.32456000  0.94992000  0.37986000  1.0
  C  C36  1  0.68501000  0.10791000  0.51001000  1.0
  C  C37  1  0.31499000  0.89209000  0.48999000  1.0
  C  C38  1  0.68806000  0.24347000  0.49394000  1.0
  C  C39  1  0.31194000  0.75653000  0.50606000  1.0
  C  C40  1  0.68262000  0.31761000  0.59006000  1.0
  C  C41  1  0.31738000  0.68239000  0.40994000  1.0
  C  C42  1  0.67387000  0.25672000  0.69874000  1.0
  C  C43  1  0.32613000  0.74328000  0.30125000  1.0
  C  C44  1  0.78838000  0.68154000  0.42695000  1.0
  C  C45  1  0.21162000  0.31847000  0.57305000  1.0
  C  C46  1  0.43291000  0.60758000  0.81956000  1.0
  C  C47  1  0.56709000  0.39242000  0.18045000  1.0
  S  S48  1  0.84916000  0.79738000  0.30048000  1.0
  S  S49  1  0.15084000  0.20263000  0.69952000  1.0
  S  S50  1  0.39138000  0.74499000  0.91656000  1.0
  S  S51  1  0.60862000  0.25501000  0.08344000  1.0
  N  N52  1  0.09469000  0.20697000  0.09466000  1.0
  N  N53  1  0.90531000  0.79303000  0.90533000  1.0
  N  N54  1  0.67020000  0.12467000  0.71194000  1.0
  N  N55  1  0.32980000  0.87533000  0.28806000  1.0
  O  O56  1  0.10967000  0.11397000  0.01794000  1.0
  O  O57  1  0.89033000  0.88603000  0.98206000  1.0
  O  O58  1  0.66109000  0.06604000  0.81704000  1.0
  O  O59  1  0.33891000  0.93395000  0.18296000  1.0
  O  O60  1  0.69073000  0.83718000  0.26681000  1.0
  O  O61  1  0.30927000  0.16282000  0.73319000  1.0
  O  O62  1  0.93605000  0.89813000  0.34802000  1.0
  O  O63  1  0.06395000  0.10188000  0.65198000  1.0
  O  O64  1  0.95300000  0.71655000  0.21921000  1.0
  O  O65  1  0.04700000  0.28345000  0.78079000  1.0
  O  O66  1  0.54969000  0.76485000  0.95418000  1.0
  O  O67  1  0.45031000  0.23515000  0.04582000  1.0
  O  O68  1  0.33555000  0.85114000  0.84195000  1.0
  O  O69  1  0.66445000  0.14886000  0.15805000  1.0
  O  O70  1  0.26319000  0.69328000  0.00668000  1.0
  O  O71  1  0.73681000  0.30672000  0.99332000  1.0
  F  F72  1  0.70432000  0.74517000  0.51580000  1.0
  F  F73  1  0.29569000  0.25484000  0.48420000  1.0
  F  F74  1  0.69146000  0.58571000  0.40162000  1.0
  F  F75  1  0.30853000  0.41430000  0.59838000  1.0
  F  F76  1  0.92300000  0.62307000  0.46432000  1.0
  F  F77  1  0.07700000  0.37693000  0.53568000  1.0
  F  F78  1  0.29172000  0.57312000  0.78366000  1.0
  F  F79  1  0.70828000  0.42688000  0.21634000  1.0
  F  F80  1  0.49421000  0.50213000  0.87414000  1.0
  F  F81  1  0.50579000  0.49787000  0.12586000  1.0
  F  F82  1  0.54250000  0.64262000  0.72523000  1.0
  F  F83  1  0.45750000  0.35738000  0.27477000  1.0
