# generated using pymatgen
data_CdH8C14S2N2O9
_symmetry_space_group_name_H-M   'P 1'
_cell_length_a   7.49431000
_cell_length_b   10.72750000
_cell_length_c   21.86290000
_cell_angle_alpha   85.38960000
_cell_angle_beta   89.99960000
_cell_angle_gamma   89.99990000
_symmetry_Int_Tables_number   1
_chemical_formula_structural   CdH8C14S2N2O9
_chemical_formula_sum   'Cd4 H32 C56 S8 N8 O36'
_cell_volume   1751.98515582
_cell_formula_units_Z   4
loop_
 _symmetry_equiv_pos_site_id
 _symmetry_equiv_pos_as_xyz
  1  'x, y, z'
loop_
 _atom_site_type_symbol
 _atom_site_label
 _atom_site_symmetry_multiplicity
 _atom_site_fract_x
 _atom_site_fract_y
 _atom_site_fract_z
 _atom_site_occupancy
  Cd  Cd0  1  0.29322000  0.05355000  0.76870000  1.0
  Cd  Cd1  1  0.79322000  0.94645000  0.73130000  1.0
  Cd  Cd2  1  0.70678000  0.94645000  0.23130000  1.0
  Cd  Cd3  1  0.20678000  0.05355000  0.26870000  1.0
  H  H4  1  0.91634000  0.63179000  0.20004000  1.0
  H  H5  1  0.41633000  0.36820000  0.29996000  1.0
  H  H6  1  0.08366000  0.36820000  0.79996000  1.0
  H  H7  1  0.58366000  0.63180000  0.70004000  1.0
  H  H8  1  0.91419000  0.66901000  0.31135000  1.0
  H  H9  1  0.41418000  0.33099000  0.18865000  1.0
  H  H10  1  0.08580000  0.33100000  0.68865000  1.0
  H  H11  1  0.58582000  0.66901000  0.81135000  1.0
  H  H12  1  0.83923000  0.27163000  0.35609000  1.0
  H  H13  1  0.33923000  0.72836000  0.14391000  1.0
  H  H14  1  0.16077000  0.72837000  0.64391000  1.0
  H  H15  1  0.66077000  0.27164000  0.85609000  1.0
  H  H16  1  0.82489000  0.18670000  0.56960000  1.0
  H  H17  1  0.32489000  0.81330000  0.93040000  1.0
  H  H18  1  0.17511000  0.81331000  0.43040000  1.0
  H  H19  1  0.67511000  0.18670000  0.06960000  1.0
  H  H20  1  0.16100000  0.34697000  0.42278000  1.0
  H  H21  1  0.66100000  0.65303000  0.07722000  1.0
  H  H22  1  0.83900000  0.65303000  0.57722000  1.0
  H  H23  1  0.33901000  0.34697000  0.92278000  1.0
  H  H24  1  0.41512000  0.21986000  0.46600000  1.0
  H  H25  1  0.91512000  0.78014000  0.03400000  1.0
  H  H26  1  0.58488000  0.78014000  0.53400000  1.0
  H  H27  1  0.08489000  0.21987000  0.96600000  1.0
  H  H28  1  0.06009000  0.11444000  0.86045000  1.0
  H  H29  1  0.56010000  0.88556000  0.63955000  1.0
  H  H30  1  0.93991000  0.88556000  0.13955000  1.0
  H  H31  1  0.43991000  0.11444000  0.36045000  1.0
  H  H32  1  0.99364000  0.17325000  0.79731000  1.0
  H  H33  1  0.49364000  0.82675000  0.70269000  1.0
  H  H34  1  0.00636000  0.82675000  0.20269000  1.0
  H  H35  1  0.50636000  0.17325000  0.29731000  1.0
  C  C36  1  0.83077000  0.19925000  0.24239000  1.0
  C  C37  1  0.33076000  0.80075000  0.25761000  1.0
  C  C38  1  0.16923000  0.80075000  0.75761000  1.0
  C  C39  1  0.66924000  0.19925000  0.74239000  1.0
  C  C40  1  0.85677000  0.33064000  0.25974000  1.0
  C  C41  1  0.35677000  0.66936000  0.24026000  1.0
  C  C42  1  0.14323000  0.66936000  0.74026000  1.0
  C  C43  1  0.64323000  0.33064000  0.75974000  1.0
  C  C44  1  0.88031000  0.43380000  0.21682000  1.0
  C  C45  1  0.38031000  0.56620000  0.28318000  1.0
  C  C46  1  0.11969000  0.56620000  0.78318000  1.0
  C  C47  1  0.61969000  0.43380000  0.71682000  1.0
  C  C48  1  0.90417000  0.55433000  0.23510000  1.0
  C  C49  1  0.40417000  0.44567000  0.26490000  1.0
  C  C50  1  0.09582000  0.44567000  0.76490000  1.0
  C  C51  1  0.59583000  0.55433000  0.73510000  1.0
  C  C52  1  0.90215000  0.57426000  0.29693000  1.0
  C  C53  1  0.40215000  0.42574000  0.20307000  1.0
  C  C54  1  0.09784000  0.42574000  0.70307000  1.0
  C  C55  1  0.59785000  0.57426000  0.79693000  1.0
  C  C56  1  0.87857000  0.47177000  0.34061000  1.0
  C  C57  1  0.37856000  0.52823000  0.15938000  1.0
  C  C58  1  0.12143000  0.52823000  0.65939000  1.0
  C  C59  1  0.62144000  0.47177000  0.84062000  1.0
  C  C60  1  0.85765000  0.35062000  0.32199000  1.0
  C  C61  1  0.35765000  0.64938000  0.17801000  1.0
  C  C62  1  0.14234000  0.64938000  0.67801000  1.0
  C  C63  1  0.64235000  0.35063000  0.82199000  1.0
  C  C64  1  0.07303000  0.06487000  0.63693000  1.0
  C  C65  1  0.57304000  0.93512000  0.86307000  1.0
  C  C66  1  0.92697000  0.93513000  0.36307000  1.0
  C  C67  1  0.42697000  0.06488000  0.13693000  1.0
  C  C68  1  0.09717000  0.12555000  0.57250000  1.0
  C  C69  1  0.59717000  0.87445000  0.92750000  1.0
  C  C70  1  0.90283000  0.87445000  0.42750000  1.0
  C  C71  1  0.40283000  0.12556000  0.07250000  1.0
  C  C72  1  0.95313000  0.19180000  0.54633000  1.0
  C  C73  1  0.45313000  0.80820000  0.95367000  1.0
  C  C74  1  0.04687000  0.80820000  0.45367000  1.0
  C  C75  1  0.54687000  0.19180000  0.04633000  1.0
  C  C76  1  0.97486000  0.27131000  0.49250000  1.0
  C  C77  1  0.47486000  0.72869000  0.00750000  1.0
  C  C78  1  0.02514000  0.72869000  0.50750000  1.0
  C  C79  1  0.52515000  0.27132000  0.99250000  1.0
  C  C80  1  0.14183000  0.28369000  0.46373000  1.0
  C  C81  1  0.64183000  0.71631000  0.03627000  1.0
  C  C82  1  0.85817000  0.71631000  0.53627000  1.0
  C  C83  1  0.35818000  0.28370000  0.96373000  1.0
  C  C84  1  0.28515000  0.21477000  0.48829000  1.0
  C  C85  1  0.78515000  0.78523000  0.01171000  1.0
  C  C86  1  0.71485000  0.78523000  0.51171000  1.0
  C  C87  1  0.21485000  0.21478000  0.98829000  1.0
  C  C88  1  0.26223000  0.13574000  0.54175000  1.0
  C  C89  1  0.76223000  0.86426000  0.95825000  1.0
  C  C90  1  0.73777000  0.86426000  0.45825000  1.0
  C  C91  1  0.23777000  0.13574000  0.04175000  1.0
  S  S92  1  0.87505000  0.50862000  0.41764000  1.0
  S  S93  1  0.37504000  0.49138000  0.08236000  1.0
  S  S94  1  0.12495000  0.49138000  0.58236000  1.0
  S  S95  1  0.62496000  0.50862000  0.91764000  1.0
  S  S96  1  0.78118000  0.35431000  0.46718000  1.0
  S  S97  1  0.28118000  0.64568000  0.03282000  1.0
  S  S98  1  0.21882000  0.64569000  0.53282000  1.0
  S  S99  1  0.71883000  0.35432000  0.96719000  1.0
  N  N100  1  0.86667000  0.41914000  0.15141000  1.0
  N  N101  1  0.36668000  0.58086000  0.34859000  1.0
  N  N102  1  0.13332000  0.58086000  0.84859000  1.0
  N  N103  1  0.63332000  0.41914000  0.65141000  1.0
  N  N104  1  0.41108000  0.05969000  0.56358000  1.0
  N  N105  1  0.91108000  0.94031000  0.93643000  1.0
  N  N106  1  0.58892000  0.94030000  0.43642000  1.0
  N  N107  1  0.08892000  0.05970000  0.06357000  1.0
  O  O108  1  0.95805000  0.13894000  0.22092000  1.0
  O  O109  1  0.45805000  0.86107000  0.27908000  1.0
  O  O110  1  0.04195000  0.86107000  0.77908000  1.0
  O  O111  1  0.54195000  0.13893000  0.72092000  1.0
  O  O112  1  0.67740000  0.15062000  0.25357000  1.0
  O  O113  1  0.17739000  0.84938000  0.24643000  1.0
  O  O114  1  0.32260000  0.84938000  0.74643000  1.0
  O  O115  1  0.82261000  0.15063000  0.75357000  1.0
  O  O116  1  0.79386000  0.32226000  0.13576000  1.0
  O  O117  1  0.29387000  0.67774000  0.36424000  1.0
  O  O118  1  0.20613000  0.67774000  0.86424000  1.0
  O  O119  1  0.70612000  0.32226000  0.63576000  1.0
  O  O120  1  0.92429000  0.50434000  0.11477000  1.0
  O  O121  1  0.42430000  0.49566000  0.38523000  1.0
  O  O122  1  0.07571000  0.49566000  0.88523000  1.0
  O  O123  1  0.57570000  0.50434000  0.61477000  1.0
  O  O124  1  0.16259000  0.11552000  0.67759000  1.0
  O  O125  1  0.66260000  0.88448000  0.82241000  1.0
  O  O126  1  0.83741000  0.88448000  0.32241000  1.0
  O  O127  1  0.33741000  0.11553000  0.17759000  1.0
  O  O128  1  0.95784000  0.97846000  0.64444000  1.0
  O  O129  1  0.45783000  0.02153000  0.85556000  1.0
  O  O130  1  0.04217000  0.02153000  0.35556000  1.0
  O  O131  1  0.54217000  0.97847000  0.14444000  1.0
  O  O132  1  0.37743000  0.96287000  0.59793000  1.0
  O  O133  1  0.87742000  0.03713000  0.90207000  1.0
  O  O134  1  0.62257000  0.03713000  0.40207000  1.0
  O  O135  1  0.12258000  0.96287000  0.09793000  1.0
  O  O136  1  0.56439000  0.08937000  0.54672000  1.0
  O  O137  1  0.06439000  0.91063000  0.95328000  1.0
  O  O138  1  0.43561000  0.91063000  0.45328000  1.0
  O  O139  1  0.93561000  0.08937000  0.04672000  1.0
  O  O140  1  0.10358000  0.16505000  0.82348000  1.0
  O  O141  1  0.60358000  0.83495000  0.67652000  1.0
  O  O142  1  0.89642000  0.83495000  0.17652000  1.0
  O  O143  1  0.39642000  0.16505000  0.32348000  1.0
