# generated using pymatgen
data_Zn2H11C38N8O5F6
_symmetry_space_group_name_H-M   'P 1'
_cell_length_a   19.59670000
_cell_length_b   19.64590000
_cell_length_c   19.75870000
_cell_angle_alpha   112.60000000
_cell_angle_beta   97.01050000
_cell_angle_gamma   116.17600000
_symmetry_Int_Tables_number   1
_chemical_formula_structural   Zn2H11C38N8O5F6
_chemical_formula_sum   'Zn4 H22 C76 N16 O10 F12'
_cell_volume   5899.43910223
_cell_formula_units_Z   2
loop_
 _symmetry_equiv_pos_site_id
 _symmetry_equiv_pos_as_xyz
  1  'x, y, z'
loop_
 _atom_site_type_symbol
 _atom_site_label
 _atom_site_symmetry_multiplicity
 _atom_site_fract_x
 _atom_site_fract_y
 _atom_site_fract_z
 _atom_site_occupancy
  Zn  Zn0  1  0.62848000  0.63016000  0.50048000  1.0
  Zn  Zn1  1  0.37688000  0.38151000  0.50751000  1.0
  Zn  Zn2  1  0.50129000  0.60251000  0.61660000  1.0
  Zn  Zn3  1  0.50718000  0.40943000  0.39853000  1.0
  H  H4  1  0.03730000  0.97087000  0.87406000  1.0
  H  H5  1  0.99501000  0.04496000  0.13041000  1.0
  H  H6  1  0.35408000  0.18745000  0.47523000  1.0
  H  H7  1  0.51939000  0.64313000  0.37826000  1.0
  H  H8  1  0.59722000  0.36456000  0.50328000  1.0
  H  H9  1  0.37356000  0.65408000  0.69005000  1.0
  H  H10  1  0.45579000  0.33291000  0.62357000  1.0
  H  H11  1  0.70057000  0.65328000  0.35937000  1.0
  H  H12  1  0.76763000  0.64388000  0.62413000  1.0
  H  H13  1  0.21140000  0.37838000  0.52478000  1.0
  H  H14  1  0.49311000  0.21826000  0.32285000  1.0
  H  H15  1  0.37450000  0.62150000  0.52700000  1.0
  H  H16  1  0.84634000  0.83759000  0.64338000  1.0
  H  H17  1  0.16345000  0.19427000  0.34387000  1.0
  H  H18  1  0.06480000  0.71178000  0.63611000  1.0
  H  H19  1  0.90661000  0.30081000  0.60216000  1.0
  H  H20  1  0.28426000  0.74779000  0.45788000  1.0
  H  H21  1  0.50158000  0.00561000  0.30623000  1.0
  H  H22  1  0.75748000  0.65324000  0.17912000  1.0
  H  H23  1  0.54881000  0.31222000  0.79445000  1.0
  H  H24  1  0.98387000  0.62547000  0.81440000  1.0
  H  H25  1  0.00059000  0.40310000  0.45231000  1.0
  C  C26  1  0.72964000  0.77932000  0.66089000  1.0
  C  C27  1  0.27470000  0.29906000  0.34978000  1.0
  C  C28  1  0.42177000  0.16801000  0.39228000  1.0
  C  C29  1  0.42871000  0.64573000  0.43803000  1.0
  C  C30  1  0.56309000  0.46779000  0.71000000  1.0
  C  C31  1  0.63020000  0.51138000  0.26619000  1.0
  C  C32  1  0.70822000  0.50003000  0.58022000  1.0
  C  C33  1  0.26264000  0.51911000  0.61173000  1.0
  C  C34  1  0.01673000  0.50291000  0.68859000  1.0
  C  C35  1  0.95496000  0.51752000  0.57139000  1.0
  C  C36  1  0.99729000  0.57464000  0.69927000  1.0
  C  C37  1  0.97434000  0.44537000  0.56085000  1.0
  C  C38  1  0.77319000  0.49312000  0.60766000  1.0
  C  C39  1  0.19466000  0.52367000  0.62094000  1.0
  C  C40  1  0.93238000  0.42882000  0.62043000  1.0
  C  C41  1  0.03824000  0.59099000  0.63860000  1.0
  C  C42  1  0.91014000  0.49901000  0.62944000  1.0
  C  C43  1  0.06069000  0.52047000  0.62993000  1.0
  C  C44  1  0.83512000  0.49316000  0.62522000  1.0
  C  C45  1  0.13427000  0.52567000  0.62677000  1.0
  C  C46  1  0.33769000  0.84061000  0.41697000  1.0
  C  C47  1  0.44232000  0.90739000  0.34019000  1.0
  C  C48  1  0.38955000  0.20941000  0.44160000  1.0
  C  C49  1  0.49119000  0.63284000  0.42030000  1.0
  C  C50  1  0.38173000  0.80184000  0.38664000  1.0
  C  C51  1  0.40060000  0.94806000  0.37304000  1.0
  C  C52  1  0.43121000  0.83558000  0.34748000  1.0
  C  C53  1  0.34846000  0.91213000  0.40930000  1.0
  C  C54  1  0.38289000  0.73593000  0.39846000  1.0
  C  C55  1  0.41043000  0.02335000  0.37282000  1.0
  C  C56  1  0.41616000  0.09022000  0.37927000  1.0
  C  C57  1  0.39850000  0.68829000  0.41326000  1.0
  C  C58  1  0.69400000  0.55408000  0.97635000  1.0
  C  C59  1  0.60788000  0.41266000  0.99683000  1.0
  C  C60  1  0.63934000  0.47209000  0.90944000  1.0
  C  C61  1  0.65802000  0.49571000  0.06374000  1.0
  C  C62  1  0.59746000  0.39869000  0.92046000  1.0
  C  C63  1  0.70454000  0.56808000  0.05282000  1.0
  C  C64  1  0.62158000  0.46605000  0.83524000  1.0
  C  C65  1  0.65678000  0.50433000  0.13766000  1.0
  C  C66  1  0.64593000  0.50712000  0.19803000  1.0
  C  C67  1  0.59760000  0.46537000  0.77474000  1.0
  C  C68  1  0.09301000  0.04482000  0.99906000  1.0
  C  C69  1  0.93938000  0.97066000  0.00553000  1.0
  C  C70  1  0.58328000  0.54211000  0.70255000  1.0
  C  C71  1  0.57785000  0.44262000  0.27712000  1.0
  C  C72  1  0.08422000  0.07059000  0.07310000  1.0
  C  C73  1  0.94778000  0.95032000  0.93140000  1.0
  C  C74  1  0.00492000  0.02908000  0.07481000  1.0
  C  C75  1  0.02742000  0.98672000  0.92969000  1.0
  C  C76  1  0.15089000  0.13922000  0.14201000  1.0
  C  C77  1  0.87863000  0.90003000  0.86324000  1.0
  C  C78  1  0.81722000  0.86117000  0.80641000  1.0
  C  C79  1  0.20640000  0.20329000  0.20153000  1.0
  C  C80  1  0.62865000  0.43452000  0.52677000  1.0
  C  C81  1  0.34549000  0.58574000  0.64761000  1.0
  C  C82  1  0.49242000  0.40198000  0.64296000  1.0
  C  C83  1  0.65813000  0.58508000  0.34005000  1.0
  C  C84  1  0.71563000  0.57775000  0.58835000  1.0
  C  C85  1  0.26257000  0.44463000  0.56246000  1.0
  C  C86  1  0.46037000  0.22430000  0.36315000  1.0
  C  C87  1  0.41708000  0.62200000  0.49654000  1.0
  C  C88  1  0.66536000  0.77008000  0.74364000  1.0
  C  C89  1  0.34727000  0.33833000  0.28048000  1.0
  C  C90  1  0.74467000  0.81136000  0.74298000  1.0
  C  C91  1  0.26967000  0.27485000  0.27045000  1.0
  C  C92  1  0.78057000  0.78838000  0.61440000  1.0
  C  C93  1  0.22450000  0.25223000  0.38266000  1.0
  C  C94  1  0.09456000  0.68008000  0.65141000  1.0
  C  C95  1  0.87970000  0.34180000  0.61283000  1.0
  C  C96  1  0.28326000  0.80330000  0.45573000  1.0
  C  C97  1  0.49729000  0.94549000  0.30213000  1.0
  C  C98  1  0.76047000  0.65468000  0.12360000  1.0
  C  C99  1  0.54405000  0.31135000  0.84984000  1.0
  C  C100  1  0.00542000  0.64468000  0.77127000  1.0
  C  C101  1  0.96441000  0.37774000  0.48581000  1.0
  N  N102  1  0.64903000  0.72376000  0.61996000  1.0
  N  N103  1  0.34897000  0.37101000  0.39907000  1.0
  N  N104  1  0.40787000  0.28369000  0.44211000  1.0
  N  N105  1  0.51569000  0.60649000  0.46629000  1.0
  N  N106  1  0.52993000  0.52440000  0.63979000  1.0
  N  N107  1  0.57406000  0.47130000  0.34875000  1.0
  N  N108  1  0.59319000  0.47130000  0.50413000  1.0
  N  N109  1  0.39003000  0.55257000  0.62138000  1.0
  N  N110  1  0.47344000  0.43636000  0.60260000  1.0
  N  N111  1  0.62475000  0.56092000  0.38830000  1.0
  N  N112  1  0.64693000  0.55919000  0.54215000  1.0
  N  N113  1  0.33878000  0.46538000  0.56835000  1.0
  N  N114  1  0.45123000  0.29266000  0.39318000  1.0
  N  N115  1  0.47021000  0.59976000  0.51340000  1.0
  N  N116  1  0.60959000  0.71753000  0.67058000  1.0
  N  N117  1  0.39447000  0.39433000  0.35691000  1.0
  O  O118  1  0.75164000  0.74051000  0.54135000  1.0
  O  O119  1  0.24980000  0.27341000  0.45341000  1.0
  O  O120  1  0.16824000  0.71558000  0.67617000  1.0
  O  O121  1  0.81319000  0.31740000  0.61969000  1.0
  O  O122  1  0.24028000  0.82773000  0.48277000  1.0
  O  O123  1  0.53511000  0.91683000  0.26919000  1.0
  O  O124  1  0.80661000  0.72208000  0.12442000  1.0
  O  O125  1  0.49896000  0.24378000  0.84923000  1.0
  O  O126  1  0.03145000  0.71860000  0.78202000  1.0
  O  O127  1  0.92040000  0.29956000  0.46131000  1.0
  F  F128  1  0.04808000  0.49564000  0.74896000  1.0
  F  F129  1  0.92234000  0.52351000  0.51061000  1.0
  F  F130  1  0.30884000  0.95092000  0.43882000  1.0
  F  F131  1  0.47145000  0.79739000  0.31842000  1.0
  F  F132  1  0.73478000  0.62194000  0.96459000  1.0
  F  F133  1  0.56724000  0.34491000  0.00871000  1.0
  F  F134  1  0.16885000  0.08093000  0.99622000  1.0
  F  F135  1  0.86368000  0.93377000  0.00840000  1.0
  F  F136  1  0.64672000  0.62295000  0.75115000  1.0
  F  F137  1  0.53501000  0.35723000  0.22609000  1.0
  F  F138  1  0.64231000  0.77639000  0.80526000  1.0
  F  F139  1  0.37693000  0.34612000  0.22487000  1.0
