# generated using pymatgen
data_EuH16C27N2O7
_symmetry_space_group_name_H-M   'P 1'
_cell_length_a   10.50970000
_cell_length_b   10.79780000
_cell_length_c   11.74490000
_cell_angle_alpha   76.86130000
_cell_angle_beta   83.96930000
_cell_angle_gamma   66.04170000
_symmetry_Int_Tables_number   1
_chemical_formula_structural   EuH16C27N2O7
_chemical_formula_sum   'Eu2 H32 C54 N4 O14'
_cell_volume   1185.98970176
_cell_formula_units_Z   2
loop_
 _symmetry_equiv_pos_site_id
 _symmetry_equiv_pos_as_xyz
  1  'x, y, z'
loop_
 _atom_site_type_symbol
 _atom_site_label
 _atom_site_symmetry_multiplicity
 _atom_site_fract_x
 _atom_site_fract_y
 _atom_site_fract_z
 _atom_site_occupancy
  Eu  Eu0  1  0.98791000  0.25224000  0.09975000  1.0
  Eu  Eu1  1  0.01209000  0.74777000  0.90025000  1.0
  H  H2  1  0.21098000  0.40736000  0.96816000  1.0
  H  H3  1  0.78901000  0.59264000  0.03184000  1.0
  H  H4  1  0.45935000  0.36203000  0.92971000  1.0
  H  H5  1  0.54065000  0.63797000  0.07029000  1.0
  H  H6  1  0.64203000  0.13924000  0.03658000  1.0
  H  H7  1  0.35797000  0.86075000  0.96342000  1.0
  H  H8  1  0.69423000  0.91340000  0.17291000  1.0
  H  H9  1  0.30577000  0.08660000  0.82709000  1.0
  H  H10  1  0.61143000  0.74874000  0.31046000  1.0
  H  H11  1  0.38857000  0.25126000  0.68954000  1.0
  H  H12  1  0.41188000  0.69328000  0.41100000  1.0
  H  H13  1  0.58812000  0.30672000  0.58900000  1.0
  H  H14  1  0.15382000  0.76959000  0.44624000  1.0
  H  H15  1  0.84618000  0.23041000  0.55376000  1.0
  H  H16  1  0.99456000  0.00078000  0.33342000  1.0
  H  H17  1  0.00544000  0.99922000  0.66658000  1.0
  H  H18  1  0.69951000  0.13066000  0.40460000  1.0
  H  H19  1  0.30049000  0.86933000  0.59540000  1.0
  H  H20  1  0.47430000  0.11508000  0.48744000  1.0
  H  H21  1  0.52569000  0.88492000  0.51256000  1.0
  H  H22  1  0.24856000  0.46643000  0.22334000  1.0
  H  H23  1  0.75144000  0.53357000  0.77666000  1.0
  H  H24  1  0.47237000  0.47936000  0.14092000  1.0
  H  H25  1  0.52763000  0.52064000  0.85908000  1.0
  H  H26  1  0.23290000  0.49635000  0.46884000  1.0
  H  H27  1  0.76710000  0.50365000  0.53116000  1.0
  H  H28  1  0.13014000  0.57177000  0.65615000  1.0
  H  H29  1  0.86986000  0.42823000  0.34385000  1.0
  H  H30  1  0.01373000  0.22355000  0.75694000  1.0
  H  H31  1  0.98626000  0.77645000  0.24306000  1.0
  H  H32  1  0.11370000  0.14938000  0.56688000  1.0
  H  H33  1  0.88631000  0.85062000  0.43313000  1.0
  C  C34  1  0.28996000  0.31048000  0.01180000  1.0
  C  C35  1  0.71004000  0.68953000  0.98820000  1.0
  C  C36  1  0.43180000  0.28418000  0.99053000  1.0
  C  C37  1  0.56820000  0.71582000  0.00948000  1.0
  C  C38  1  0.53093000  0.16272000  0.04849000  1.0
  C  C39  1  0.46908000  0.83728000  0.95151000  1.0
  C  C40  1  0.48693000  0.06735000  0.12756000  1.0
  C  C41  1  0.51307000  0.93264000  0.87244000  1.0
  C  C42  1  0.58343000  0.93818000  0.18958000  1.0
  C  C43  1  0.41657000  0.06182000  0.81042000  1.0
  C  C44  1  0.53746000  0.84781000  0.26468000  1.0
  C  C45  1  0.46254000  0.15219000  0.73532000  1.0
  C  C46  1  0.39159000  0.88108000  0.28526000  1.0
  C  C47  1  0.60841000  0.11892000  0.71474000  1.0
  C  C48  1  0.33911000  0.79253000  0.36425000  1.0
  C  C49  1  0.66089000  0.20747000  0.63575000  1.0
  C  C50  1  0.19709000  0.83389000  0.38345000  1.0
  C  C51  1  0.80291000  0.16611000  0.61655000  1.0
  C  C52  1  0.10750000  0.96284000  0.32123000  1.0
  C  C53  1  0.89250000  0.03716000  0.67877000  1.0
  C  C54  1  0.29291000  0.00918000  0.22568000  1.0
  C  C55  1  0.70709000  0.99082000  0.77432000  1.0
  C  C56  1  0.34146000  0.10267000  0.14386000  1.0
  C  C57  1  0.65854000  0.89733000  0.85614000  1.0
  C  C58  1  0.92667000  0.00965000  0.02648000  1.0
  C  C59  1  0.07333000  0.99033000  0.97351000  1.0
  C  C60  1  0.73369000  0.31255000  0.21883000  1.0
  C  C61  1  0.26630000  0.68745000  0.78118000  1.0
  C  C62  1  0.59921000  0.30801000  0.26986000  1.0
  C  C63  1  0.40079000  0.69199000  0.73014000  1.0
  C  C64  1  0.60002000  0.20424000  0.36672000  1.0
  C  C65  1  0.39998000  0.79576000  0.63328000  1.0
  C  C66  1  0.47592000  0.19490000  0.41217000  1.0
  C  C67  1  0.52409000  0.80510000  0.58783000  1.0
  C  C68  1  0.35049000  0.29010000  0.36010000  1.0
  C  C69  1  0.64951000  0.70990000  0.63990000  1.0
  C  C70  1  0.34706000  0.39399000  0.26351000  1.0
  C  C71  1  0.65294000  0.60601000  0.73649000  1.0
  C  C72  1  0.47230000  0.40172000  0.21847000  1.0
  C  C73  1  0.52770000  0.59828000  0.78153000  1.0
  C  C74  1  0.17746000  0.31902000  0.50811000  1.0
  C  C75  1  0.82254000  0.68098000  0.49189000  1.0
  C  C76  1  0.18479000  0.43715000  0.53234000  1.0
  C  C77  1  0.81521000  0.56284000  0.46766000  1.0
  C  C78  1  0.12769000  0.47882000  0.63639000  1.0
  C  C79  1  0.87231000  0.52118000  0.36360000  1.0
  C  C80  1  0.06535000  0.40230000  0.71762000  1.0
  C  C81  1  0.93465000  0.59770000  0.28238000  1.0
  C  C82  1  0.06005000  0.28354000  0.69239000  1.0
  C  C83  1  0.93995000  0.71646000  0.30761000  1.0
  C  C84  1  0.11513000  0.24207000  0.58785000  1.0
  C  C85  1  0.88487000  0.75793000  0.41215000  1.0
  C  C86  1  0.00867000  0.44566000  0.83051000  1.0
  C  C87  1  0.99133000  0.55435000  0.16949000  1.0
  N  N88  1  0.24520000  0.22269000  0.08562000  1.0
  N  N89  1  0.75480000  0.77731000  0.91438000  1.0
  N  N90  1  0.15328000  0.04734000  0.24384000  1.0
  N  N91  1  0.84672000  0.95266000  0.75616000  1.0
  O  O92  1  0.84658000  0.23660000  0.27578000  1.0
  O  O93  1  0.15342000  0.76340000  0.72422000  1.0
  O  O94  1  0.73567000  0.38713000  0.11784000  1.0
  O  O95  1  0.26433000  0.61287000  0.88216000  1.0
  O  O96  1  0.22768000  0.27550000  0.40447000  1.0
  O  O97  1  0.77232000  0.72450000  0.59553000  1.0
  O  O98  1  0.01126000  0.55684000  0.84681000  1.0
  O  O99  1  0.98874000  0.44315000  0.15319000  1.0
  O  O100  1  0.96091000  0.36918000  0.90607000  1.0
  O  O101  1  0.03909000  0.63082000  0.09393000  1.0
  O  O102  1  0.87509000  0.92822000  0.00942000  1.0
  O  O103  1  0.12492000  0.07180000  0.99058000  1.0
  O  O104  1  0.86991000  0.10611000  0.08291000  1.0
  O  O105  1  0.13008000  0.89391000  0.91710000  1.0
