# generated using pymatgen
data_CuH6C4BrN4O
_symmetry_space_group_name_H-M   'P 1'
_cell_length_a   6.95993000
_cell_length_b   8.94112000
_cell_length_c   12.10260000
_cell_angle_alpha   89.99960000
_cell_angle_beta   89.99820000
_cell_angle_gamma   89.99980000
_symmetry_Int_Tables_number   1
_chemical_formula_structural   CuH6C4BrN4O
_chemical_formula_sum   'Cu4 H24 C16 Br4 N16 O4'
_cell_volume   753.13958528
_cell_formula_units_Z   4
loop_
 _symmetry_equiv_pos_site_id
 _symmetry_equiv_pos_as_xyz
  1  'x, y, z'
loop_
 _atom_site_type_symbol
 _atom_site_label
 _atom_site_symmetry_multiplicity
 _atom_site_fract_x
 _atom_site_fract_y
 _atom_site_fract_z
 _atom_site_occupancy
  Cu  Cu0  1  0.00002000  0.19142000  0.50000000  1.0
  Cu  Cu1  1  0.50001000  0.80858000  0.00000000  1.0
  Cu  Cu2  1  0.00003000  0.80859000  0.50000000  1.0
  Cu  Cu3  1  0.50000000  0.19142000  0.00000000  1.0
  H  H4  1  0.33436000  0.86163000  0.60372000  1.0
  H  H5  1  0.66566000  0.86164000  0.39629000  1.0
  H  H6  1  0.16564000  0.13836000  0.10370000  1.0
  H  H7  1  0.83435000  0.13837000  0.89626000  1.0
  H  H8  1  0.66568000  0.13835000  0.39630000  1.0
  H  H9  1  0.33438000  0.13837000  0.60371000  1.0
  H  H10  1  0.83437000  0.86163000  0.89629000  1.0
  H  H11  1  0.16565000  0.86164000  0.10371000  1.0
  H  H12  1  0.41079000  0.78437000  0.73316000  1.0
  H  H13  1  0.58916000  0.78436000  0.26686000  1.0
  H  H14  1  0.08915000  0.21561000  0.23314000  1.0
  H  H15  1  0.91081000  0.21563000  0.76683000  1.0
  H  H16  1  0.58918000  0.21562000  0.26686000  1.0
  H  H17  1  0.41081000  0.21562000  0.73315000  1.0
  H  H18  1  0.91084000  0.78437000  0.76685000  1.0
  H  H19  1  0.08916000  0.78439000  0.23315000  1.0
  H  H20  1  0.56913000  0.78087000  0.61735000  1.0
  H  H21  1  0.43088000  0.78086000  0.38269000  1.0
  H  H22  1  0.93086000  0.21913000  0.11732000  1.0
  H  H23  1  0.06912000  0.21913000  0.88265000  1.0
  H  H24  1  0.43089000  0.21913000  0.38269000  1.0
  H  H25  1  0.56915000  0.21913000  0.61734000  1.0
  H  H26  1  0.06914000  0.78086000  0.88268000  1.0
  H  H27  1  0.93086000  0.78088000  0.11733000  1.0
  C  C28  1  0.90927000  0.50000000  0.46961000  1.0
  C  C29  1  0.09077000  0.50000000  0.53041000  1.0
  C  C30  1  0.59075000  0.50000000  0.96959000  1.0
  C  C31  1  0.40924000  0.50000000  0.03039000  1.0
  C  C32  1  0.41852000  0.77286000  0.64295000  1.0
  C  C33  1  0.58146000  0.77285000  0.35707000  1.0
  C  C34  1  0.08144000  0.22714000  0.14293000  1.0
  C  C35  1  0.91852000  0.22714000  0.85704000  1.0
  C  C36  1  0.58147000  0.22714000  0.35707000  1.0
  C  C37  1  0.41854000  0.22713000  0.64294000  1.0
  C  C38  1  0.91854000  0.77287000  0.85706000  1.0
  C  C39  1  0.08145000  0.77287000  0.14295000  1.0
  C  C40  1  0.42971000  0.50000000  0.63871000  1.0
  C  C41  1  0.57030000  0.49999000  0.36130000  1.0
  C  C42  1  0.07029000  0.50000000  0.13870000  1.0
  C  C43  1  0.92971000  0.50000000  0.86126000  1.0
  Br  Br44  1  0.15285000  0.00001000  0.38636000  1.0
  Br  Br45  1  0.84720000  0.00000000  0.61364000  1.0
  Br  Br46  1  0.34718000  0.00000000  0.88637000  1.0
  Br  Br47  1  0.65284000  0.00000000  0.11364000  1.0
  N  N48  1  0.33770000  0.63123000  0.60781000  1.0
  N  N49  1  0.66232000  0.63120000  0.39218000  1.0
  N  N50  1  0.16228000  0.36880000  0.10782000  1.0
  N  N51  1  0.83767000  0.36877000  0.89218000  1.0
  N  N52  1  0.66232000  0.36879000  0.39219000  1.0
  N  N53  1  0.33770000  0.36877000  0.60781000  1.0
  N  N54  1  0.83769000  0.63123000  0.89219000  1.0
  N  N55  1  0.16229000  0.63121000  0.10783000  1.0
  N  N56  1  0.16358000  0.36604000  0.55506000  1.0
  N  N57  1  0.83644000  0.36601000  0.44494000  1.0
  N  N58  1  0.33641000  0.63399000  0.05506000  1.0
  N  N59  1  0.66356000  0.63397000  0.94494000  1.0
  N  N60  1  0.83644000  0.63399000  0.44494000  1.0
  N  N61  1  0.16357000  0.63397000  0.55506000  1.0
  N  N62  1  0.66355000  0.36603000  0.94494000  1.0
  N  N63  1  0.33641000  0.36601000  0.05506000  1.0
  O  O64  1  0.41577000  0.49999000  0.31159000  1.0
  O  O65  1  0.58427000  0.50000000  0.68842000  1.0
  O  O66  1  0.08420000  0.50000000  0.81154000  1.0
  O  O67  1  0.91571000  0.50000000  0.18843000  1.0
