# generated using pymatgen
data_CuH8C9N4O
_symmetry_space_group_name_H-M   'P 1'
_cell_length_a   7.58162000
_cell_length_b   8.33830000
_cell_length_c   15.40320000
_cell_angle_alpha   89.99970000
_cell_angle_beta   89.99850000
_cell_angle_gamma   97.31120000
_symmetry_Int_Tables_number   1
_chemical_formula_structural   CuH8C9N4O
_chemical_formula_sum   'Cu4 H32 C36 N16 O4'
_cell_volume   965.83971007
_cell_formula_units_Z   4
loop_
 _symmetry_equiv_pos_site_id
 _symmetry_equiv_pos_as_xyz
  1  'x, y, z'
loop_
 _atom_site_type_symbol
 _atom_site_label
 _atom_site_symmetry_multiplicity
 _atom_site_fract_x
 _atom_site_fract_y
 _atom_site_fract_z
 _atom_site_occupancy
  Cu  Cu0  1  0.92277000  0.79879000  0.07438000  1.0
  Cu  Cu1  1  0.07720000  0.20123000  0.57438000  1.0
  Cu  Cu2  1  0.58769000  0.70237000  0.96680000  1.0
  Cu  Cu3  1  0.41228000  0.29767000  0.46679000  1.0
  H  H4  1  0.29614000  0.94779000  0.12493000  1.0
  H  H5  1  0.70383000  0.05216000  0.62493000  1.0
  H  H6  1  0.52448000  0.15450000  0.05717000  1.0
  H  H7  1  0.47552000  0.84546000  0.55716000  1.0
  H  H8  1  0.45109000  0.27944000  0.91503000  1.0
  H  H9  1  0.54894000  0.72056000  0.41501000  1.0
  H  H10  1  0.16625000  0.17594000  0.84112000  1.0
  H  H11  1  0.83379000  0.82409000  0.34110000  1.0
  H  H12  1  0.82172000  0.03033000  0.89830000  1.0
  H  H13  1  0.17834000  0.96971000  0.39835000  1.0
  H  H14  1  0.80822000  0.81628000  0.78587000  1.0
  H  H15  1  0.19185000  0.18365000  0.28586000  1.0
  H  H16  1  0.02421000  0.77220000  0.81529000  1.0
  H  H17  1  0.97584000  0.22773000  0.31525000  1.0
  H  H18  1  0.99612000  0.96236000  0.76720000  1.0
  H  H19  1  0.00399000  0.03754000  0.26720000  1.0
  H  H20  1  0.19931000  0.60905000  0.92519000  1.0
  H  H21  1  0.80067000  0.39095000  0.42518000  1.0
  H  H22  1  0.95058000  0.42604000  0.99486000  1.0
  H  H23  1  0.04941000  0.57393000  0.49486000  1.0
  H  H24  1  0.01006000  0.29443000  0.13703000  1.0
  H  H25  1  0.98993000  0.70553000  0.63704000  1.0
  H  H26  1  0.30707000  0.36799000  0.20809000  1.0
  H  H27  1  0.69291000  0.63201000  0.70809000  1.0
  H  H28  1  0.57515000  0.68464000  0.18575000  1.0
  H  H29  1  0.42478000  0.31535000  0.68573000  1.0
  H  H30  1  0.79895000  0.49727000  0.21760000  1.0
  H  H31  1  0.20102000  0.50274000  0.71761000  1.0
  H  H32  1  0.67300000  0.34220000  0.15622000  1.0
  H  H33  1  0.32700000  0.65783000  0.65625000  1.0
  H  H34  1  0.58275000  0.41891000  0.25332000  1.0
  H  H35  1  0.41723000  0.58106000  0.75335000  1.0
  C  C36  1  0.27476000  0.00101000  0.06178000  1.0
  C  C37  1  0.72523000  0.99896000  0.56178000  1.0
  C  C38  1  0.39877000  0.11762000  0.02443000  1.0
  C  C39  1  0.60124000  0.88235000  0.52442000  1.0
  C  C40  1  0.35897000  0.18426000  0.94486000  1.0
  C  C41  1  0.64105000  0.81573000  0.44485000  1.0
  C  C42  1  0.19961000  0.12802000  0.90392000  1.0
  C  C43  1  0.80042000  0.87199000  0.40391000  1.0
  C  C44  1  0.08245000  0.00758000  0.94349000  1.0
  C  C45  1  0.91756000  0.99243000  0.44349000  1.0
  C  C46  1  0.90949000  0.93411000  0.90282000  1.0
  C  C47  1  0.09054000  0.06590000  0.40284000  1.0
  C  C48  1  0.93743000  0.86804000  0.81190000  1.0
  C  C49  1  0.06264000  0.13190000  0.31189000  1.0
  C  C50  1  0.53200000  0.09779000  0.31520000  1.0
  C  C51  1  0.46800000  0.90222000  0.81520000  1.0
  C  C52  1  0.25903000  0.58233000  0.34491000  1.0
  C  C53  1  0.74099000  0.41770000  0.84491000  1.0
  C  C54  1  0.21533000  0.55325000  0.98821000  1.0
  C  C55  1  0.78465000  0.44675000  0.48821000  1.0
  C  C56  1  0.07896000  0.45056000  0.02693000  1.0
  C  C57  1  0.92103000  0.54942000  0.52693000  1.0
  C  C58  1  0.11192000  0.38038000  0.10655000  1.0
  C  C59  1  0.88807000  0.61960000  0.60655000  1.0
  C  C60  1  0.27731000  0.41976000  0.14580000  1.0
  C  C61  1  0.72267000  0.58023000  0.64579000  1.0
  C  C62  1  0.40771000  0.52639000  0.10460000  1.0
  C  C63  1  0.59225000  0.47363000  0.60459000  1.0
  C  C64  1  0.59049000  0.58111000  0.14220000  1.0
  C  C65  1  0.40948000  0.41891000  0.64219000  1.0
  C  C66  1  0.66474000  0.45074000  0.19562000  1.0
  C  C67  1  0.33524000  0.54927000  0.69564000  1.0
  C  C68  1  0.08705000  0.70819000  0.24758000  1.0
  C  C69  1  0.91294000  0.29181000  0.74758000  1.0
  C  C70  1  0.66205000  0.01124000  0.19076000  1.0
  C  C71  1  0.33799000  0.98880000  0.69076000  1.0
  N  N72  1  0.11981000  0.94865000  0.02234000  1.0
  N  N73  1  0.88019000  0.05133000  0.52234000  1.0
  N  N74  1  0.37574000  0.58890000  0.02577000  1.0
  N  N75  1  0.62423000  0.41111000  0.52576000  1.0
  N  N76  1  0.76579000  0.00608000  0.13384000  1.0
  N  N77  1  0.23427000  0.99399000  0.63382000  1.0
  N  N78  1  0.53627000  0.00521000  0.24855000  1.0
  N  N79  1  0.46375000  0.99481000  0.74855000  1.0
  N  N80  1  0.02559000  0.75309000  0.18305000  1.0
  N  N81  1  0.97437000  0.24689000  0.68306000  1.0
  N  N82  1  0.51387000  0.17329000  0.37859000  1.0
  N  N83  1  0.48610000  0.82671000  0.87858000  1.0
  N  N84  1  0.36708000  0.50605000  0.37291000  1.0
  N  N85  1  0.63293000  0.49398000  0.87292000  1.0
  N  N86  1  0.13671000  0.67044000  0.32374000  1.0
  N  N87  1  0.86331000  0.32961000  0.82375000  1.0
  O  O88  1  0.83267000  0.80823000  0.95774000  1.0
  O  O89  1  0.16728000  0.19184000  0.45773000  1.0
  O  O90  1  0.70533000  0.63451000  0.07228000  1.0
  O  O91  1  0.29462000  0.36557000  0.57227000  1.0
