# generated using pymatgen
data_SrH8C4N12O5
_symmetry_space_group_name_H-M   'P 1'
_cell_length_a   6.95084000
_cell_length_b   8.40473000
_cell_length_c   10.90290000
_cell_angle_alpha   84.58380000
_cell_angle_beta   71.42100000
_cell_angle_gamma   89.99890000
_symmetry_Int_Tables_number   1
_chemical_formula_structural   SrH8C4N12O5
_chemical_formula_sum   'Sr2 H16 C8 N24 O10'
_cell_volume   600.75188922
_cell_formula_units_Z   2
loop_
 _symmetry_equiv_pos_site_id
 _symmetry_equiv_pos_as_xyz
  1  'x, y, z'
loop_
 _atom_site_type_symbol
 _atom_site_label
 _atom_site_symmetry_multiplicity
 _atom_site_fract_x
 _atom_site_fract_y
 _atom_site_fract_z
 _atom_site_occupancy
  Sr  Sr0  1  0.88722000  0.25001000  0.99999000  1.0
  Sr  Sr1  1  0.11277000  0.74999000  0.00001000  1.0
  H  H2  1  0.79552000  0.10679000  0.53227000  1.0
  H  H3  1  0.32817000  0.39314000  0.46761000  1.0
  H  H4  1  0.20448000  0.89320000  0.46773000  1.0
  H  H5  1  0.67183000  0.60686000  0.53238000  1.0
  H  H6  1  0.74661000  0.31470000  0.54631000  1.0
  H  H7  1  0.29336000  0.18523000  0.45353000  1.0
  H  H8  1  0.25338000  0.68529000  0.45369000  1.0
  H  H9  1  0.70664000  0.81477000  0.54647000  1.0
  H  H10  1  0.63732000  0.20741000  0.44846000  1.0
  H  H11  1  0.08626000  0.29244000  0.55150000  1.0
  H  H12  1  0.36268000  0.79259000  0.55154000  1.0
  H  H13  1  0.91374000  0.70755000  0.44850000  1.0
  H  H14  1  0.44083000  0.33643000  0.96891000  1.0
  H  H15  1  0.40989000  0.16396000  0.03103000  1.0
  H  H16  1  0.55917000  0.66357000  0.03109000  1.0
  H  H17  1  0.59011000  0.83604000  0.96897000  1.0
  C  C18  1  0.68371000  0.19938000  0.53597000  1.0
  C  C19  1  0.22005000  0.30054000  0.46392000  1.0
  C  C20  1  0.31629000  0.80062000  0.46403000  1.0
  C  C21  1  0.77995000  0.69946000  0.53608000  1.0
  C  C22  1  0.38501000  0.25764000  0.73088000  1.0
  C  C23  1  0.11587000  0.24230000  0.26913000  1.0
  C  C24  1  0.61499000  0.74236000  0.26913000  1.0
  C  C25  1  0.88413000  0.75770000  0.73087000  1.0
  N  N26  1  0.40604000  0.41857000  0.69607000  1.0
  N  N27  1  0.10212000  0.08138000  0.30392000  1.0
  N  N28  1  0.59396000  0.58143000  0.30393000  1.0
  N  N29  1  0.89788000  0.91862000  0.69608000  1.0
  N  N30  1  0.51088000  0.15857000  0.65186000  1.0
  N  N31  1  0.16289000  0.34137000  0.34812000  1.0
  N  N32  1  0.48911000  0.84143000  0.34814000  1.0
  N  N33  1  0.83711000  0.65863000  0.65188000  1.0
  N  N34  1  0.30208000  0.01193000  0.80580000  1.0
  N  N35  1  0.10787000  0.48804000  0.19423000  1.0
  N  N36  1  0.69792000  0.98807000  0.19421000  1.0
  N  N37  1  0.89213000  0.51196000  0.80577000  1.0
  N  N38  1  0.45663000  0.00624000  0.70027000  1.0
  N  N39  1  0.15701000  0.49370000  0.29974000  1.0
  N  N40  1  0.54337000  0.99376000  0.29973000  1.0
  N  N41  1  0.84299000  0.50631000  0.70026000  1.0
  N  N42  1  0.25245000  0.16485000  0.82810000  1.0
  N  N43  1  0.08049000  0.33513000  0.17193000  1.0
  N  N44  1  0.74755000  0.83515000  0.17190000  1.0
  N  N45  1  0.91951000  0.66487000  0.82808000  1.0
  N  N46  1  0.33405000  0.51346000  0.78733000  1.0
  N  N47  1  0.12140000  0.98652000  0.21264000  1.0
  N  N48  1  0.66595000  0.48654000  0.21267000  1.0
  N  N49  1  0.87860000  0.01348000  0.78736000  1.0
  O  O50  1  0.51444000  0.25022000  0.99995000  1.0
  O  O51  1  0.48556000  0.74978000  0.00005000  1.0
  O  O52  1  0.35254000  0.66200000  0.75604000  1.0
  O  O53  1  0.10848000  0.83797000  0.24392000  1.0
  O  O54  1  0.64746000  0.33800000  0.24396000  1.0
  O  O55  1  0.89152000  0.16203000  0.75608000  1.0
  O  O56  1  0.24706000  0.46248000  0.90888000  1.0
  O  O57  1  0.15610000  0.03755000  0.09109000  1.0
  O  O58  1  0.75294000  0.53753000  0.09112000  1.0
  O  O59  1  0.84390000  0.96245000  0.90891000  1.0
