# generated using pymatgen
data_CdH10C6(SN2)2
_symmetry_space_group_name_H-M   'P 1'
_cell_length_a   7.65158000
_cell_length_b   7.72619000
_cell_length_c   16.59640000
_cell_angle_alpha   89.99960000
_cell_angle_beta   89.99930000
_cell_angle_gamma   89.99990000
_symmetry_Int_Tables_number   1
_chemical_formula_structural   CdH10C6(SN2)2
_chemical_formula_sum   'Cd4 H40 C24 S8 N16'
_cell_volume   981.13868729
_cell_formula_units_Z   4
loop_
 _symmetry_equiv_pos_site_id
 _symmetry_equiv_pos_as_xyz
  1  'x, y, z'
loop_
 _atom_site_type_symbol
 _atom_site_label
 _atom_site_symmetry_multiplicity
 _atom_site_fract_x
 _atom_site_fract_y
 _atom_site_fract_z
 _atom_site_occupancy
  Cd  Cd0  1  0.08969000  0.33060000  0.87772000  1.0
  Cd  Cd1  1  0.41031000  0.66941000  0.37772000  1.0
  Cd  Cd2  1  0.91029000  0.83059000  0.62228000  1.0
  Cd  Cd3  1  0.58969000  0.16942000  0.12229000  1.0
  H  H4  1  0.43894000  0.98277000  0.89006000  1.0
  H  H5  1  0.06105000  0.01723000  0.39007000  1.0
  H  H6  1  0.56104000  0.48276000  0.60993000  1.0
  H  H7  1  0.93897000  0.51724000  0.10993000  1.0
  H  H8  1  0.51855000  0.18045000  0.85238000  1.0
  H  H9  1  0.98145000  0.81956000  0.35239000  1.0
  H  H10  1  0.48144000  0.68044000  0.64762000  1.0
  H  H11  1  0.01856000  0.31955000  0.14761000  1.0
  H  H12  1  0.88903000  0.95462000  0.86230000  1.0
  H  H13  1  0.61098000  0.04538000  0.36228000  1.0
  H  H14  1  0.11097000  0.45460000  0.63771000  1.0
  H  H15  1  0.38903000  0.54538000  0.13771000  1.0
  H  H16  1  0.66261000  0.73291000  0.06719000  1.0
  H  H17  1  0.83740000  0.26711000  0.56717000  1.0
  H  H18  1  0.33741000  0.23291000  0.43282000  1.0
  H  H19  1  0.16260000  0.76712000  0.93282000  1.0
  H  H20  1  0.88842000  0.77887000  0.07795000  1.0
  H  H21  1  0.61158000  0.22114000  0.57793000  1.0
  H  H22  1  0.11161000  0.27885000  0.42206000  1.0
  H  H23  1  0.38842000  0.72114000  0.92206000  1.0
  H  H24  1  0.54738000  0.06581000  0.71593000  1.0
  H  H25  1  0.95261000  0.93419000  0.21594000  1.0
  H  H26  1  0.45261000  0.56579000  0.78406000  1.0
  H  H27  1  0.04739000  0.43418000  0.28406000  1.0
  H  H28  1  0.56882000  0.86582000  0.76835000  1.0
  H  H29  1  0.93117000  0.13418000  0.26836000  1.0
  H  H30  1  0.43117000  0.36581000  0.73165000  1.0
  H  H31  1  0.06884000  0.63417000  0.23165000  1.0
  H  H32  1  0.28777000  0.86973000  0.67533000  1.0
  H  H33  1  0.21222000  0.13026000  0.17533000  1.0
  H  H34  1  0.71222000  0.36972000  0.82467000  1.0
  H  H35  1  0.78779000  0.63026000  0.32468000  1.0
  H  H36  1  0.90302000  0.65937000  0.94371000  1.0
  H  H37  1  0.59701000  0.34064000  0.44369000  1.0
  H  H38  1  0.09700000  0.15935000  0.55629000  1.0
  H  H39  1  0.40299000  0.84064000  0.05631000  1.0
  H  H40  1  0.68489000  0.72259000  0.92051000  1.0
  H  H41  1  0.81514000  0.27740000  0.42048000  1.0
  H  H42  1  0.31513000  0.22258000  0.57950000  1.0
  H  H43  1  0.18486000  0.77741000  0.07951000  1.0
  C  C44  1  0.80493000  0.05558000  0.97252000  1.0
  C  C45  1  0.69507000  0.94442000  0.47251000  1.0
  C  C46  1  0.19506000  0.55556000  0.52749000  1.0
  C  C47  1  0.30492000  0.44443000  0.02749000  1.0
  C  C48  1  0.43337000  0.07098000  0.83791000  1.0
  C  C49  1  0.06661000  0.92903000  0.33793000  1.0
  C  C50  1  0.56661000  0.57097000  0.66208000  1.0
  C  C51  1  0.93340000  0.42903000  0.16208000  1.0
  C  C52  1  0.18804000  0.03371000  0.76378000  1.0
  C  C53  1  0.31195000  0.96631000  0.26378000  1.0
  C  C54  1  0.81195000  0.53369000  0.73621000  1.0
  C  C55  1  0.68806000  0.46631000  0.23622000  1.0
  C  C56  1  0.77144000  0.80584000  0.04092000  1.0
  C  C57  1  0.72856000  0.19420000  0.54090000  1.0
  C  C58  1  0.22855000  0.30579000  0.45908000  1.0
  C  C59  1  0.27143000  0.69419000  0.95909000  1.0
  C  C60  1  0.48271000  0.97761000  0.75915000  1.0
  C  C61  1  0.01729000  0.02241000  0.25916000  1.0
  C  C62  1  0.51727000  0.47760000  0.74085000  1.0
  C  C63  1  0.98273000  0.52238000  0.24085000  1.0
  C  C64  1  0.80588000  0.76204000  0.95194000  1.0
  C  C65  1  0.69414000  0.23797000  0.45192000  1.0
  C  C66  1  0.19411000  0.26204000  0.54806000  1.0
  C  C67  1  0.30586000  0.73797000  0.04807000  1.0
  S  S68  1  0.80446000  0.27575000  0.95275000  1.0
  S  S69  1  0.69553000  0.72426000  0.45275000  1.0
  S  S70  1  0.19552000  0.77574000  0.54725000  1.0
  S  S71  1  0.30447000  0.22426000  0.04725000  1.0
  S  S72  1  0.97363000  0.05577000  0.73363000  1.0
  S  S73  1  0.52635000  0.94422000  0.23363000  1.0
  S  S74  1  0.02636000  0.55575000  0.76636000  1.0
  S  S75  1  0.47365000  0.44423000  0.26638000  1.0
  N  N76  1  0.25153000  0.12596000  0.82431000  1.0
  N  N77  1  0.24846000  0.87405000  0.32432000  1.0
  N  N78  1  0.74846000  0.62594000  0.67568000  1.0
  N  N79  1  0.75154000  0.37405000  0.17568000  1.0
  N  N80  1  0.74075000  0.99402000  0.04058000  1.0
  N  N81  1  0.75926000  0.00598000  0.54056000  1.0
  N  N82  1  0.25925000  0.49403000  0.45943000  1.0
  N  N83  1  0.24073000  0.50599000  0.95943000  1.0
  N  N84  1  0.86807000  0.93005000  0.92233000  1.0
  N  N85  1  0.63194000  0.06995000  0.42232000  1.0
  N  N86  1  0.13193000  0.43003000  0.57768000  1.0
  N  N87  1  0.36806000  0.56995000  0.07768000  1.0
  N  N88  1  0.30914000  0.92632000  0.73025000  1.0
  N  N89  1  0.19086000  0.07368000  0.23026000  1.0
  N  N90  1  0.69085000  0.42631000  0.76975000  1.0
  N  N91  1  0.80916000  0.57368000  0.26975000  1.0
