# generated using pymatgen
data_SrP2H12(CO2)4
_symmetry_space_group_name_H-M   'P 1'
_cell_length_a   5.20605000
_cell_length_b   9.93219000
_cell_length_c   9.93220000
_cell_angle_alpha   89.99980000
_cell_angle_beta   90.00000000
_cell_angle_gamma   90.00000000
_symmetry_Int_Tables_number   1
_chemical_formula_structural   SrP2H12(CO2)4
_chemical_formula_sum   'Sr2 P4 H24 C8 O16'
_cell_volume   513.56901050
_cell_formula_units_Z   2
loop_
 _symmetry_equiv_pos_site_id
 _symmetry_equiv_pos_as_xyz
  1  'x, y, z'
loop_
 _atom_site_type_symbol
 _atom_site_label
 _atom_site_symmetry_multiplicity
 _atom_site_fract_x
 _atom_site_fract_y
 _atom_site_fract_z
 _atom_site_occupancy
  Sr  Sr0  1  0.83063000  0.50000000  0.00000000  1.0
  Sr  Sr1  1  0.16936000  0.00000000  0.50000000  1.0
  P  P2  1  0.39496000  0.27146000  0.77146000  1.0
  P  P3  1  0.60506000  0.77145000  0.72855000  1.0
  P  P4  1  0.39495000  0.72854000  0.22854000  1.0
  P  P5  1  0.60505000  0.22855000  0.27146000  1.0
  H  H6  1  0.31310000  0.56054000  0.80099000  1.0
  H  H7  1  0.68691000  0.80098000  0.43947000  1.0
  H  H8  1  0.68691000  0.06054000  0.69901000  1.0
  H  H9  1  0.31310000  0.43947000  0.19901000  1.0
  H  H10  1  0.31310000  0.69902000  0.93947000  1.0
  H  H11  1  0.68691000  0.19902000  0.56053000  1.0
  H  H12  1  0.68691000  0.93947000  0.30099000  1.0
  H  H13  1  0.31310000  0.30099000  0.06054000  1.0
  H  H14  1  0.29098000  0.43907000  0.60364000  1.0
  H  H15  1  0.70902000  0.60364000  0.56094000  1.0
  H  H16  1  0.70903000  0.93906000  0.89636000  1.0
  H  H17  1  0.29098000  0.56094000  0.39636000  1.0
  H  H18  1  0.29097000  0.89636000  0.06094000  1.0
  H  H19  1  0.70902000  0.39636000  0.43906000  1.0
  H  H20  1  0.70902000  0.06094000  0.10364000  1.0
  H  H21  1  0.29098000  0.10364000  0.93906000  1.0
  H  H22  1  0.00979000  0.35884000  0.66666667  1.0
  H  H23  1  0.99022000  0.66666667  0.64116000  1.0
  H  H24  1  0.99021000  0.85884000  0.83334000  1.0
  H  H25  1  0.00978000  0.64116000  0.33333333  1.0
  H  H26  1  0.00978000  0.83334000  0.14116000  1.0
  H  H27  1  0.99021000  0.33333333  0.35884000  1.0
  H  H28  1  0.99021000  0.14116000  0.16666000  1.0
  H  H29  1  0.00979000  0.16666000  0.85884000  1.0
  C  C30  1  0.19483000  0.40253000  0.69596000  1.0
  C  C31  1  0.80518000  0.69596000  0.59747000  1.0
  C  C32  1  0.80518000  0.90253000  0.80404000  1.0
  C  C33  1  0.19482000  0.59747000  0.30404000  1.0
  C  C34  1  0.19481000  0.80404000  0.09747000  1.0
  C  C35  1  0.80517000  0.30404000  0.40253000  1.0
  C  C36  1  0.80517000  0.09747000  0.19596000  1.0
  C  C37  1  0.19482000  0.19596000  0.90253000  1.0
  O  O38  1  0.62933000  0.33553000  0.83553000  1.0
  O  O39  1  0.37067000  0.83553000  0.66447000  1.0
  O  O40  1  0.62932000  0.66447000  0.16447000  1.0
  O  O41  1  0.37067000  0.16447000  0.33553000  1.0
  O  O42  1  0.44312000  0.16260000  0.66260000  1.0
  O  O43  1  0.55688000  0.66260000  0.83740000  1.0
  O  O44  1  0.44311000  0.83740000  0.33740000  1.0
  O  O45  1  0.55688000  0.33740000  0.16260000  1.0
  O  O46  1  0.14871000  0.50942000  0.78910000  1.0
  O  O47  1  0.85129000  0.78909000  0.49058000  1.0
  O  O48  1  0.85130000  0.00942000  0.71090000  1.0
  O  O49  1  0.14870000  0.49058000  0.21091000  1.0
  O  O50  1  0.14870000  0.71091000  0.99058000  1.0
  O  O51  1  0.85130000  0.21091000  0.50942000  1.0
  O  O52  1  0.85129000  0.99058000  0.28910000  1.0
  O  O53  1  0.14871000  0.28910000  0.00942000  1.0
