# generated using pymatgen
data_ZnH11C22NCl2O4F
_symmetry_space_group_name_H-M   'P 1'
_cell_length_a   16.56870000
_cell_length_b   17.94710000
_cell_length_c   17.96330000
_cell_angle_alpha   90.45480000
_cell_angle_beta   95.26440000
_cell_angle_gamma   92.22750000
_symmetry_Int_Tables_number   1
_chemical_formula_structural   ZnH11C22NCl2O4F
_chemical_formula_sum   'Zn2 H22 C44 N2 Cl4 O8 F2'
_cell_volume   5314.66327744
_cell_formula_units_Z   2
loop_
 _symmetry_equiv_pos_site_id
 _symmetry_equiv_pos_as_xyz
  1  'x, y, z'
loop_
 _atom_site_type_symbol
 _atom_site_label
 _atom_site_symmetry_multiplicity
 _atom_site_fract_x
 _atom_site_fract_y
 _atom_site_fract_z
 _atom_site_occupancy
  Zn  Zn0  1  0.58487000  0.50323000  0.50352000  1.0
  Zn  Zn1  1  0.41512000  0.49678000  0.49646000  1.0
  H  H2  1  0.29019000  0.57440000  0.57385000  1.0
  H  H3  1  0.14313000  0.57448000  0.57370000  1.0
  H  H4  1  0.12947000  0.40156000  0.40279000  1.0
  H  H5  1  0.27830000  0.40973000  0.41077000  1.0
  H  H6  1  0.87052000  0.59847000  0.59718000  1.0
  H  H7  1  0.85686000  0.42554000  0.42627000  1.0
  H  H8  1  0.70980000  0.42562000  0.42612000  1.0
  H  H9  1  0.72169000  0.59028000  0.58921000  1.0
  H  H10  1  0.38389000  0.49580000  0.73359000  1.0
  H  H11  1  0.38781000  0.49548000  0.86871000  1.0
  H  H12  1  0.64968000  0.50539000  0.88261000  1.0
  H  H13  1  0.64327000  0.50557000  0.74642000  1.0
  H  H14  1  0.35030000  0.49454000  0.11738000  1.0
  H  H15  1  0.61216000  0.50444000  0.13126000  1.0
  H  H16  1  0.61610000  0.50413000  0.26637000  1.0
  H  H17  1  0.35673000  0.49440000  0.25356000  1.0
  H  H18  1  0.62996000  0.26652000  0.50521000  1.0
  H  H19  1  0.63016000  0.12671000  0.50525000  1.0
  H  H20  1  0.36949000  0.25683000  0.49561000  1.0
  H  H21  1  0.63054000  0.74318000  0.50448000  1.0
  H  H22  1  0.37008000  0.73348000  0.49502000  1.0
  H  H23  1  0.36987000  0.87330000  0.49509000  1.0
  C  C24  1  0.50923000  0.50157000  0.64654000  1.0
  C  C25  1  0.50010000  0.64637000  0.50063000  1.0
  C  C26  1  0.49076000  0.49841000  0.35344000  1.0
  C  C27  1  0.49992000  0.35365000  0.49942000  1.0
  C  C28  1  0.25186000  0.53674000  0.53659000  1.0
  C  C29  1  0.16792000  0.53625000  0.53599000  1.0
  C  C30  1  0.11830000  0.48742000  0.48767000  1.0
  C  C31  1  0.16117000  0.44127000  0.44208000  1.0
  C  C32  1  0.24523000  0.44518000  0.44597000  1.0
  C  C33  1  0.02784000  0.48123000  0.48145000  1.0
  C  C34  1  0.97215000  0.51881000  0.51851000  1.0
  C  C35  1  0.83882000  0.55875000  0.55788000  1.0
  C  C36  1  0.88169000  0.51262000  0.51228000  1.0
  C  C37  1  0.83207000  0.46377000  0.46398000  1.0
  C  C38  1  0.74814000  0.46327000  0.46338000  1.0
  C  C39  1  0.75476000  0.55483000  0.55401000  1.0
  C  C40  1  0.51305000  0.50124000  0.73014000  1.0
  C  C41  1  0.44231000  0.49821000  0.76693000  1.0
  C  C42  1  0.44504000  0.49795000  0.84449000  1.0
  C  C43  1  0.51948000  0.50071000  0.89042000  1.0
  C  C44  1  0.59033000  0.50342000  0.85148000  1.0
  C  C45  1  0.58733000  0.50366000  0.77399000  1.0
  C  C46  1  0.52810000  0.50096000  0.97381000  1.0
  C  C47  1  0.47187000  0.49898000  0.02616000  1.0
  C  C48  1  0.40965000  0.49652000  0.14850000  1.0
  C  C49  1  0.48050000  0.49922000  0.10955000  1.0
  C  C50  1  0.55494000  0.50198000  0.15548000  1.0
  C  C51  1  0.55768000  0.50174000  0.23304000  1.0
  C  C52  1  0.48694000  0.49873000  0.26984000  1.0
  C  C53  1  0.41266000  0.49631000  0.22598000  1.0
  C  C54  1  0.50014000  0.27006000  0.49991000  1.0
  C  C55  1  0.57346000  0.23316000  0.50290000  1.0
  C  C56  1  0.57354000  0.15586000  0.50305000  1.0
  C  C57  1  0.50015000  0.11254000  0.50029000  1.0
  C  C58  1  0.42772000  0.15152000  0.49767000  1.0
  C  C59  1  0.42656000  0.22851000  0.49745000  1.0
  C  C60  1  0.49947000  0.03398000  0.50021000  1.0
  C  C61  1  0.50057000  0.96603000  0.50016000  1.0
  C  C62  1  0.49988000  0.88747000  0.50006000  1.0
  C  C63  1  0.57231000  0.84849000  0.50260000  1.0
  C  C64  1  0.57347000  0.77150000  0.50272000  1.0
  C  C65  1  0.49989000  0.72995000  0.50025000  1.0
  C  C66  1  0.42658000  0.76685000  0.49735000  1.0
  C  C67  1  0.42649000  0.84415000  0.49729000  1.0
  N  N68  1  0.29057000  0.49224000  0.49257000  1.0
  N  N69  1  0.70942000  0.50777000  0.50740000  1.0
  Cl  Cl70  1  0.99018000  0.41421000  0.41527000  1.0
  Cl  Cl71  1  0.00980000  0.58582000  0.58469000  1.0
  Cl  Cl72  1  0.63018000  0.50451000  0.00941000  1.0
  Cl  Cl73  1  0.36979000  0.49543000  0.99056000  1.0
  O  O74  1  0.57647000  0.50426000  0.61720000  1.0
  O  O75  1  0.43888000  0.49904000  0.61109000  1.0
  O  O76  1  0.43136000  0.61160000  0.49799000  1.0
  O  O77  1  0.56896000  0.61678000  0.50354000  1.0
  O  O78  1  0.42353000  0.49590000  0.38279000  1.0
  O  O79  1  0.56111000  0.50078000  0.38888000  1.0
  O  O80  1  0.56865000  0.38842000  0.50219000  1.0
  O  O81  1  0.43103000  0.38322000  0.49630000  1.0
  F  F82  1  0.35600000  0.11140000  0.49529000  1.0
  F  F83  1  0.64401000  0.88863000  0.50500000  1.0
