# generated using pymatgen
data_CdH24C30(N3O4)2
_symmetry_space_group_name_H-M   'P 1'
_cell_length_a   10.02500000
_cell_length_b   17.30920000
_cell_length_c   17.98780000
_cell_angle_alpha   90.00130000
_cell_angle_beta   89.99840000
_cell_angle_gamma   90.00040000
_symmetry_Int_Tables_number   1
_chemical_formula_structural   CdH24C30(N3O4)2
_chemical_formula_sum   'Cd4 H96 C120 N24 O32'
_cell_volume   3121.32813620
_cell_formula_units_Z   4
loop_
 _symmetry_equiv_pos_site_id
 _symmetry_equiv_pos_as_xyz
  1  'x, y, z'
loop_
 _atom_site_type_symbol
 _atom_site_label
 _atom_site_symmetry_multiplicity
 _atom_site_fract_x
 _atom_site_fract_y
 _atom_site_fract_z
 _atom_site_occupancy
  Cd  Cd0  1  0.50002000  0.70517000  0.24999000  1.0
  Cd  Cd1  1  0.00001000  0.79483000  0.75001000  1.0
  Cd  Cd2  1  0.49999000  0.29483000  0.75000000  1.0
  Cd  Cd3  1  1.00000000  0.20517000  0.25000000  1.0
  H  H4  1  0.94861000  0.83573000  0.97367000  1.0
  H  H5  1  0.55140000  0.66427000  0.47365000  1.0
  H  H6  1  0.05140000  0.83573000  0.52634000  1.0
  H  H7  1  0.44858000  0.66427000  0.02635000  1.0
  H  H8  1  0.05140000  0.16428000  0.02634000  1.0
  H  H9  1  0.44859000  0.33573000  0.52634000  1.0
  H  H10  1  0.94860000  0.16427000  0.47366000  1.0
  H  H11  1  0.55141000  0.33572000  0.97365000  1.0
  H  H12  1  0.82278000  0.71683000  0.94251000  1.0
  H  H13  1  0.67722000  0.78317000  0.44250000  1.0
  H  H14  1  0.17719000  0.71683000  0.55750000  1.0
  H  H15  1  0.32276000  0.78317000  0.05750000  1.0
  H  H16  1  0.17724000  0.28318000  0.05748000  1.0
  H  H17  1  0.32278000  0.21683000  0.55749000  1.0
  H  H18  1  0.82279000  0.28317000  0.44251000  1.0
  H  H19  1  0.67723000  0.21682000  0.94250000  1.0
  H  H20  1  0.81001000  0.60913000  0.03571000  1.0
  H  H21  1  0.68999000  0.89087000  0.53569000  1.0
  H  H22  1  0.18997000  0.60913000  0.46431000  1.0
  H  H23  1  0.31000000  0.89086000  0.96431000  1.0
  H  H24  1  0.19001000  0.39087000  0.96429000  1.0
  H  H25  1  0.31001000  0.10914000  0.46430000  1.0
  H  H26  1  0.81002000  0.39087000  0.53571000  1.0
  H  H27  1  0.68999000  0.10913000  0.03569000  1.0
  H  H28  1  0.92122000  0.62365000  0.15849000  1.0
  H  H29  1  0.57880000  0.87635000  0.65849000  1.0
  H  H30  1  0.07878000  0.62365000  0.34151000  1.0
  H  H31  1  0.42120000  0.87635000  0.84152000  1.0
  H  H32  1  0.07880000  0.37635000  0.84151000  1.0
  H  H33  1  0.42121000  0.12365000  0.34151000  1.0
  H  H34  1  0.92121000  0.37634000  0.65850000  1.0
  H  H35  1  0.57880000  0.12366000  0.15849000  1.0
  H  H36  1  0.14839000  0.84626000  0.27319000  1.0
  H  H37  1  0.35162000  0.65375000  0.77319000  1.0
  H  H38  1  0.85163000  0.84626000  0.22681000  1.0
  H  H39  1  0.64840000  0.65374000  0.72681000  1.0
  H  H40  1  0.85161000  0.15374000  0.72682000  1.0
  H  H41  1  0.64839000  0.34626000  0.22681000  1.0
  H  H42  1  0.14838000  0.15374000  0.77319000  1.0
  H  H43  1  0.35161000  0.34625000  0.27318000  1.0
  H  H44  1  0.37198000  0.86335000  0.21072000  1.0
  H  H45  1  0.12801000  0.63665000  0.71072000  1.0
  H  H46  1  0.62801000  0.86335000  0.28928000  1.0
  H  H47  1  0.87197000  0.63665000  0.78929000  1.0
  H  H48  1  0.62801000  0.13665000  0.78928000  1.0
  H  H49  1  0.87199000  0.36335000  0.28928000  1.0
  H  H50  1  0.37196000  0.13665000  0.71071000  1.0
  H  H51  1  0.12804000  0.36334000  0.21070000  1.0
  H  H52  1  0.37835000  0.97712000  0.12486000  1.0
  H  H53  1  0.12162000  0.52288000  0.62485000  1.0
  H  H54  1  0.62162000  0.97712000  0.37515000  1.0
  H  H55  1  0.87835000  0.52288000  0.87516000  1.0
  H  H56  1  0.62165000  0.02288000  0.87515000  1.0
  H  H57  1  0.87834000  0.47713000  0.37515000  1.0
  H  H58  1  0.37832000  0.02288000  0.62485000  1.0
  H  H59  1  0.12168000  0.47712000  0.12485000  1.0
  H  H60  1  0.72537000  0.87401000  0.02230000  1.0
  H  H61  1  0.77462000  0.62602000  0.52231000  1.0
  H  H62  1  0.27461000  0.87398000  0.47770000  1.0
  H  H63  1  0.22538000  0.62600000  0.97769000  1.0
  H  H64  1  0.27462000  0.12600000  0.97769000  1.0
  H  H65  1  0.22536000  0.37401000  0.47769000  1.0
  H  H66  1  0.72537000  0.12598000  0.52231000  1.0
  H  H67  1  0.77463000  0.37401000  0.02231000  1.0
  H  H68  1  0.70673000  0.76494000  0.11444000  1.0
  H  H69  1  0.79329000  0.73508000  0.61445000  1.0
  H  H70  1  0.29328000  0.76492000  0.38555000  1.0
  H  H71  1  0.20672000  0.73507000  0.88555000  1.0
  H  H72  1  0.29328000  0.23506000  0.88556000  1.0
  H  H73  1  0.20672000  0.26494000  0.38555000  1.0
  H  H74  1  0.70672000  0.23506000  0.61444000  1.0
  H  H75  1  0.79329000  0.26494000  0.11444000  1.0
  H  H76  1  0.06045000  0.91017000  0.06006000  1.0
  H  H77  1  0.43958000  0.58983000  0.56005000  1.0
  H  H78  1  0.93956000  0.91017000  0.43995000  1.0
  H  H79  1  0.56044000  0.58984000  0.93994000  1.0
  H  H80  1  0.93954000  0.08984000  0.93995000  1.0
  H  H81  1  0.56042000  0.41017000  0.43994000  1.0
  H  H82  1  0.06043000  0.08982000  0.56006000  1.0
  H  H83  1  0.43955000  0.41016000  0.06005000  1.0
  H  H84  1  0.56937000  0.55198000  0.19977000  1.0
  H  H85  1  0.93067000  0.94801000  0.69976000  1.0
  H  H86  1  0.43069000  0.55198000  0.30023000  1.0
  H  H87  1  0.06936000  0.94802000  0.80022000  1.0
  H  H88  1  0.43064000  0.44802000  0.80022000  1.0
  H  H89  1  0.06935000  0.05198000  0.30023000  1.0
  H  H90  1  0.56935000  0.44802000  0.69977000  1.0
  H  H91  1  0.93064000  0.05198000  0.19978000  1.0
  H  H92  1  0.69679000  0.60100000  0.22439000  1.0
  H  H93  1  0.80325000  0.89900000  0.72440000  1.0
  H  H94  1  0.30326000  0.60098000  0.27560000  1.0
  H  H95  1  0.19678000  0.89900000  0.77560000  1.0
  H  H96  1  0.30322000  0.39900000  0.77560000  1.0
  H  H97  1  0.19677000  0.10099000  0.27560000  1.0
  H  H98  1  0.69677000  0.39901000  0.72440000  1.0
  H  H99  1  0.80323000  0.10100000  0.22440000  1.0
  C  C100  1  0.99460000  0.79895000  0.08547000  1.0
  C  C101  1  0.50542000  0.70105000  0.58547000  1.0
  C  C102  1  0.00542000  0.79896000  0.41453000  1.0
  C  C103  1  0.49458000  0.70104000  0.91453000  1.0
  C  C104  1  0.00541000  0.20105000  0.91453000  1.0
  C  C105  1  0.49458000  0.29896000  0.41453000  1.0
  C  C106  1  0.99458000  0.20105000  0.58547000  1.0
  C  C107  1  0.50542000  0.29895000  0.08547000  1.0
  C  C108  1  0.93875000  0.78944000  0.01463000  1.0
  C  C109  1  0.56125000  0.71056000  0.51463000  1.0
  C  C110  1  0.06125000  0.78944000  0.48537000  1.0
  C  C111  1  0.43874000  0.71055000  0.98537000  1.0
  C  C112  1  0.06125000  0.21056000  0.98537000  1.0
  C  C113  1  0.43874000  0.28945000  0.48537000  1.0
  C  C114  1  0.93875000  0.21055000  0.51463000  1.0
  C  C115  1  0.56125000  0.28943000  0.01463000  1.0
  C  C116  1  0.86933000  0.72230000  0.99701000  1.0
  C  C117  1  0.63067000  0.77771000  0.49700000  1.0
  C  C118  1  0.13065000  0.72229000  0.50300000  1.0
  C  C119  1  0.36932000  0.77770000  0.00300000  1.0
  C  C120  1  0.13067000  0.27771000  0.00299000  1.0
  C  C121  1  0.36933000  0.22230000  0.50300000  1.0
  C  C122  1  0.86934000  0.27770000  0.49701000  1.0
  C  C123  1  0.63067000  0.22228000  0.99700000  1.0
  C  C124  1  0.86185000  0.66270000  0.04909000  1.0
  C  C125  1  0.63816000  0.83731000  0.54908000  1.0
  C  C126  1  0.13814000  0.66269000  0.45092000  1.0
  C  C127  1  0.36183000  0.83730000  0.95092000  1.0
  C  C128  1  0.13816000  0.33731000  0.95091000  1.0
  C  C129  1  0.36184000  0.16269000  0.45091000  1.0
  C  C130  1  0.86185000  0.33731000  0.54909000  1.0
  C  C131  1  0.63816000  0.16268000  0.04908000  1.0
  C  C132  1  0.92352000  0.67060000  0.11832000  1.0
  C  C133  1  0.57650000  0.82939000  0.61831000  1.0
  C  C134  1  0.07648000  0.67060000  0.38169000  1.0
  C  C135  1  0.42350000  0.82939000  0.88169000  1.0
  C  C136  1  0.07649000  0.32940000  0.88168000  1.0
  C  C137  1  0.42351000  0.17061000  0.38168000  1.0
  C  C138  1  0.92352000  0.32939000  0.61832000  1.0
  C  C139  1  0.57650000  0.17060000  0.11831000  1.0
  C  C140  1  0.98668000  0.73948000  0.13922000  1.0
  C  C141  1  0.51335000  0.76052000  0.63922000  1.0
  C  C142  1  0.01334000  0.73948000  0.36078000  1.0
  C  C143  1  0.48665000  0.76051000  0.86079000  1.0
  C  C144  1  0.01333000  0.26052000  0.86078000  1.0
  C  C145  1  0.48666000  0.23949000  0.36078000  1.0
  C  C146  1  0.98666000  0.26051000  0.63922000  1.0
  C  C147  1  0.51335000  0.23948000  0.13921000  1.0
  C  C148  1  0.05099000  0.75006000  0.21521000  1.0
  C  C149  1  0.44903000  0.74994000  0.71520000  1.0
  C  C150  1  0.94902000  0.75006000  0.28480000  1.0
  C  C151  1  0.55099000  0.74994000  0.78480000  1.0
  C  C152  1  0.94901000  0.24994000  0.78480000  1.0
  C  C153  1  0.55100000  0.25006000  0.28479000  1.0
  C  C154  1  0.05098000  0.24994000  0.71520000  1.0
  C  C155  1  0.44902000  0.25006000  0.21521000  1.0
  C  C156  1  0.17807000  0.69978000  0.21946000  1.0
  C  C157  1  0.32196000  0.80022000  0.71945000  1.0
  C  C158  1  0.82195000  0.69978000  0.28055000  1.0
  C  C159  1  0.67806000  0.80022000  0.78055000  1.0
  C  C160  1  0.82194000  0.30022000  0.78055000  1.0
  C  C161  1  0.67806000  0.19978000  0.28055000  1.0
  C  C162  1  0.17805000  0.30023000  0.71945000  1.0
  C  C163  1  0.32196000  0.19978000  0.21945000  1.0
  C  C164  1  0.07018000  0.83747000  0.23143000  1.0
  C  C165  1  0.42985000  0.66253000  0.73143000  1.0
  C  C166  1  0.92985000  0.83747000  0.26858000  1.0
  C  C167  1  0.57016000  0.66254000  0.76857000  1.0
  C  C168  1  0.92984000  0.16253000  0.76858000  1.0
  C  C169  1  0.57016000  0.33747000  0.26857000  1.0
  C  C170  1  0.07015000  0.16253000  0.73143000  1.0
  C  C171  1  0.42984000  0.33747000  0.23142000  1.0
  C  C172  1  0.08764000  0.89590000  0.17093000  1.0
  C  C173  1  0.41238000  0.60409000  0.67091000  1.0
  C  C174  1  0.91237000  0.89591000  0.32909000  1.0
  C  C175  1  0.58763000  0.60410000  0.82909000  1.0
  C  C176  1  0.91236000  0.10410000  0.82910000  1.0
  C  C177  1  0.58761000  0.39591000  0.32909000  1.0
  C  C178  1  0.08762000  0.10410000  0.67091000  1.0
  C  C179  1  0.41237000  0.39590000  0.17090000  1.0
  C  C180  1  0.44909000  0.86845000  0.16858000  1.0
  C  C181  1  0.05089000  0.63156000  0.66858000  1.0
  C  C182  1  0.55089000  0.86844000  0.33142000  1.0
  C  C183  1  0.94909000  0.63155000  0.83143000  1.0
  C  C184  1  0.55090000  0.13155000  0.83142000  1.0
  C  C185  1  0.94910000  0.36845000  0.33142000  1.0
  C  C186  1  0.44908000  0.13155000  0.66857000  1.0
  C  C187  1  0.05092000  0.36844000  0.16857000  1.0
  C  C188  1  0.45160000  0.93084000  0.12052000  1.0
  C  C189  1  0.04838000  0.56916000  0.62052000  1.0
  C  C190  1  0.54838000  0.93084000  0.37948000  1.0
  C  C191  1  0.95161000  0.56916000  0.87949000  1.0
  C  C192  1  0.54840000  0.06915000  0.87948000  1.0
  C  C193  1  0.95160000  0.43085000  0.37948000  1.0
  C  C194  1  0.45158000  0.06915000  0.62051000  1.0
  C  C195  1  0.04842000  0.43084000  0.12051000  1.0
  C  C196  1  0.55051000  0.93121000  0.06559000  1.0
  C  C197  1  0.94946000  0.56880000  0.56559000  1.0
  C  C198  1  0.44946000  0.93120000  0.43440000  1.0
  C  C199  1  0.05053000  0.56880000  0.93441000  1.0
  C  C200  1  0.44947000  0.06879000  0.93441000  1.0
  C  C201  1  0.05051000  0.43121000  0.43440000  1.0
  C  C202  1  0.55051000  0.06879000  0.56559000  1.0
  C  C203  1  0.94949000  0.43121000  0.06560000  1.0
  C  C204  1  0.64759000  0.87345000  0.06441000  1.0
  C  C205  1  0.85240000  0.62657000  0.56442000  1.0
  C  C206  1  0.35239000  0.87343000  0.43558000  1.0
  C  C207  1  0.14760000  0.62656000  0.93559000  1.0
  C  C208  1  0.35240000  0.12656000  0.93558000  1.0
  C  C209  1  0.14759000  0.37345000  0.43558000  1.0
  C  C210  1  0.64759000  0.12655000  0.56442000  1.0
  C  C211  1  0.85241000  0.37345000  0.06442000  1.0
  C  C212  1  0.63628000  0.81293000  0.11487000  1.0
  C  C213  1  0.86373000  0.68709000  0.61488000  1.0
  C  C214  1  0.36372000  0.81292000  0.38512000  1.0
  C  C215  1  0.13627000  0.68707000  0.88512000  1.0
  C  C216  1  0.36372000  0.18707000  0.88512000  1.0
  C  C217  1  0.13627000  0.31293000  0.38512000  1.0
  C  C218  1  0.63627000  0.18707000  0.61488000  1.0
  C  C219  1  0.86373000  0.31293000  0.11488000  1.0
  N  N220  1  0.55671000  0.98718000  0.00896000  1.0
  N  N221  1  0.94326000  0.51283000  0.50895000  1.0
  N  N222  1  0.44327000  0.98717000  0.49104000  1.0
  N  N223  1  0.05673000  0.51283000  0.99104000  1.0
  N  N224  1  0.44327000  0.01282000  0.99105000  1.0
  N  N225  1  0.05670000  0.48718000  0.49104000  1.0
  N  N226  1  0.55670000  0.01282000  0.50896000  1.0
  N  N227  1  0.94329000  0.48719000  0.00896000  1.0
  N  N228  1  0.05590000  0.87019000  0.10148000  1.0
  N  N229  1  0.44413000  0.62981000  0.60147000  1.0
  N  N230  1  0.94411000  0.87020000  0.39853000  1.0
  N  N231  1  0.55588000  0.62981000  0.89853000  1.0
  N  N232  1  0.94410000  0.12982000  0.89853000  1.0
  N  N233  1  0.55588000  0.37020000  0.39853000  1.0
  N  N234  1  0.05588000  0.12981000  0.60147000  1.0
  N  N235  1  0.44412000  0.37018000  0.10147000  1.0
  N  N236  1  0.53744000  0.80972000  0.16513000  1.0
  N  N237  1  0.96257000  0.69028000  0.66513000  1.0
  N  N238  1  0.46256000  0.80971000  0.33487000  1.0
  N  N239  1  0.03743000  0.69028000  0.83487000  1.0
  N  N240  1  0.46256000  0.19027000  0.83487000  1.0
  N  N241  1  0.03744000  0.30973000  0.33487000  1.0
  N  N242  1  0.53743000  0.19027000  0.66513000  1.0
  N  N243  1  0.96258000  0.30972000  0.16512000  1.0
  O  O244  1  0.28636000  0.73812000  0.21274000  1.0
  O  O245  1  0.21367000  0.76187000  0.71275000  1.0
  O  O246  1  0.71367000  0.73813000  0.28726000  1.0
  O  O247  1  0.78634000  0.76188000  0.78728000  1.0
  O  O248  1  0.71365000  0.26187000  0.78726000  1.0
  O  O249  1  0.78634000  0.23813000  0.28726000  1.0
  O  O250  1  0.28633000  0.26188000  0.71274000  1.0
  O  O251  1  0.21367000  0.23813000  0.21274000  1.0
  O  O252  1  0.16758000  0.62798000  0.22843000  1.0
  O  O253  1  0.33244000  0.87202000  0.72843000  1.0
  O  O254  1  0.83244000  0.62798000  0.27157000  1.0
  O  O255  1  0.66757000  0.87202000  0.77157000  1.0
  O  O256  1  0.83243000  0.37202000  0.77158000  1.0
  O  O257  1  0.66757000  0.12798000  0.27157000  1.0
  O  O258  1  0.16757000  0.37202000  0.72843000  1.0
  O  O259  1  0.33244000  0.12798000  0.22842000  1.0
  O  O260  1  0.12270000  0.96359000  0.18280000  1.0
  O  O261  1  0.37733000  0.53640000  0.68279000  1.0
  O  O262  1  0.87731000  0.96361000  0.31722000  1.0
  O  O263  1  0.62269000  0.53641000  0.81721000  1.0
  O  O264  1  0.87730000  0.03640000  0.81722000  1.0
  O  O265  1  0.62265000  0.46361000  0.31721000  1.0
  O  O266  1  0.12268000  0.03640000  0.68279000  1.0
  O  O267  1  0.37730000  0.46359000  0.18278000  1.0
  O  O268  1  0.61432000  0.60133000  0.19167000  1.0
  O  O269  1  0.88572000  0.89867000  0.69168000  1.0
  O  O270  1  0.38573000  0.60132000  0.30832000  1.0
  O  O271  1  0.11431000  0.89868000  0.80832000  1.0
  O  O272  1  0.38570000  0.39867000  0.80831000  1.0
  O  O273  1  0.11430000  0.10133000  0.30832000  1.0
  O  O274  1  0.61430000  0.39867000  0.69169000  1.0
  O  O275  1  0.88570000  0.10133000  0.19169000  1.0
