# generated using pymatgen
data_Cu2H3C5(IN)2
_symmetry_space_group_name_H-M   'P 1'
_cell_length_a   7.38071000
_cell_length_b   8.31206000
_cell_length_c   8.63678000
_cell_angle_alpha   80.67530000
_cell_angle_beta   64.71990000
_cell_angle_gamma   67.70170000
_symmetry_Int_Tables_number   1
_chemical_formula_structural   Cu2H3C5(IN)2
_chemical_formula_sum   'Cu4 H6 C10 I4 N4'
_cell_volume   443.28546860
_cell_formula_units_Z   2
loop_
 _symmetry_equiv_pos_site_id
 _symmetry_equiv_pos_as_xyz
  1  'x, y, z'
loop_
 _atom_site_type_symbol
 _atom_site_label
 _atom_site_symmetry_multiplicity
 _atom_site_fract_x
 _atom_site_fract_y
 _atom_site_fract_z
 _atom_site_occupancy
  Cu  Cu0  1  0.82165000  0.08308000  0.62312000  1.0
  Cu  Cu1  1  0.44491000  0.08313000  0.37682000  1.0
  Cu  Cu2  1  0.17837000  0.91693000  0.37684000  1.0
  Cu  Cu3  1  0.55510000  0.91686000  0.62318000  1.0
  H  H4  1  0.96707000  0.32446000  0.72228000  1.0
  H  H5  1  0.68913000  0.32456000  0.27786000  1.0
  H  H6  1  0.03294000  0.67554000  0.27773000  1.0
  H  H7  1  0.31093000  0.67539000  0.72215000  1.0
  H  H8  1  0.65796000  0.97868000  0.99994000  1.0
  H  H9  1  0.34206000  0.02131000  0.00005000  1.0
  C  C10  1  0.88389000  0.27451000  0.84672000  1.0
  C  C11  1  0.73056000  0.27452000  0.15335000  1.0
  C  C12  1  0.11610000  0.72550000  0.15328000  1.0
  C  C13  1  0.26945000  0.72547000  0.84665000  1.0
  C  C14  1  0.85766000  0.33577000  0.00006000  1.0
  C  C15  1  0.14232000  0.66425000  0.99994000  1.0
  C  C16  1  0.70455000  0.08848000  0.99995000  1.0
  C  C17  1  0.29543000  0.91154000  0.00004000  1.0
  C  C18  1  0.95464000  0.45228000  0.00007000  1.0
  C  C19  1  0.04539000  0.54770000  0.99994000  1.0
  I  I20  1  0.94029000  0.74630000  0.61958000  1.0
  I  I21  1  0.56007000  0.74630000  0.38010000  1.0
  I  I22  1  0.05969000  0.25372000  0.38044000  1.0
  I  I23  1  0.43990000  0.25369000  0.61990000  1.0
  N  N24  1  0.80743000  0.15103000  0.84732000  1.0
  N  N25  1  0.65473000  0.15104000  0.15266000  1.0
  N  N26  1  0.19254000  0.84900000  0.15268000  1.0
  N  N27  1  0.34527000  0.84896000  0.84734000  1.0
