# generated using pymatgen
data_HgH8C2(IN)2
_symmetry_space_group_name_H-M   'P 1'
_cell_length_a   6.71852000
_cell_length_b   6.88520000
_cell_length_c   9.45968000
_cell_angle_alpha   90.22280000
_cell_angle_beta   97.59150000
_cell_angle_gamma   106.16550000
_symmetry_Int_Tables_number   1
_chemical_formula_structural   HgH8C2(IN)2
_chemical_formula_sum   'Hg2 H16 C4 I4 N4'
_cell_volume   416.22355591
_cell_formula_units_Z   2
loop_
 _symmetry_equiv_pos_site_id
 _symmetry_equiv_pos_as_xyz
  1  'x, y, z'
loop_
 _atom_site_type_symbol
 _atom_site_label
 _atom_site_symmetry_multiplicity
 _atom_site_fract_x
 _atom_site_fract_y
 _atom_site_fract_z
 _atom_site_occupancy
  Hg  Hg0  1  0.44368000  0.17237000  0.75340000  1.0
  Hg  Hg1  1  0.55633000  0.82763000  0.24658000  1.0
  H  H2  1  0.01748000  0.10367000  0.35764000  1.0
  H  H3  1  0.98250000  0.89627000  0.64236000  1.0
  H  H4  1  0.17755000  0.95169000  0.43262000  1.0
  H  H5  1  0.82245000  0.04827000  0.56740000  1.0
  H  H6  1  0.95020000  0.98335000  0.83729000  1.0
  H  H7  1  0.04982000  0.01671000  0.16272000  1.0
  H  H8  1  0.12323000  0.86813000  0.93986000  1.0
  H  H9  1  0.87679000  0.13189000  0.06014000  1.0
  H  H10  1  0.34031000  0.30280000  0.47800000  1.0
  H  H11  1  0.65964000  0.69718000  0.52198000  1.0
  H  H12  1  0.15389000  0.33315000  0.56549000  1.0
  H  H13  1  0.84608000  0.66679000  0.43450000  1.0
  H  H14  1  0.17218000  0.30667000  0.91610000  1.0
  H  H15  1  0.82788000  0.69337000  0.08391000  1.0
  H  H16  1  0.32970000  0.21274000  0.02821000  1.0
  H  H17  1  0.67035000  0.78730000  0.97180000  1.0
  C  C18  1  0.08664000  0.05436000  0.45838000  1.0
  C  C19  1  0.91333000  0.94558000  0.54163000  1.0
  C  C20  1  0.05903000  0.99877000  0.93665000  1.0
  C  C21  1  0.94098000  0.00128000  0.06334000  1.0
  I  I22  1  0.83913000  0.42810000  0.76768000  1.0
  I  I23  1  0.16087000  0.57188000  0.23232000  1.0
  I  I24  1  0.40258000  0.75320000  0.72832000  1.0
  I  I25  1  0.59743000  0.24680000  0.27168000  1.0
  N  N26  1  0.23126000  0.23100000  0.54117000  1.0
  N  N27  1  0.76868000  0.76899000  0.45883000  1.0
  N  N28  1  0.23127000  0.18484000  0.93260000  1.0
  N  N29  1  0.76874000  0.81519000  0.06739000  1.0
