# generated using pymatgen
data_CdAgH17C25(SN2)3
_symmetry_space_group_name_H-M   'P 1'
_cell_length_a   9.98970000
_cell_length_b   10.78430000
_cell_length_c   13.01480000
_cell_angle_alpha   72.29880000
_cell_angle_beta   68.89270000
_cell_angle_gamma   86.54210000
_symmetry_Int_Tables_number   1
_chemical_formula_structural   CdAgH17C25(SN2)3
_chemical_formula_sum   'Cd2 Ag2 H34 C50 S6 N12'
_cell_volume   1244.20038189
_cell_formula_units_Z   2
loop_
 _symmetry_equiv_pos_site_id
 _symmetry_equiv_pos_as_xyz
  1  'x, y, z'
loop_
 _atom_site_type_symbol
 _atom_site_label
 _atom_site_symmetry_multiplicity
 _atom_site_fract_x
 _atom_site_fract_y
 _atom_site_fract_z
 _atom_site_occupancy
  Cd  Cd0  1  0.34178000  0.60409000  0.72951000  1.0
  Cd  Cd1  1  0.65822000  0.39591000  0.27048000  1.0
  Ag  Ag2  1  0.09920000  0.65535000  0.42900000  1.0
  Ag  Ag3  1  0.90080000  0.34465000  0.57099000  1.0
  H  H4  1  0.12326000  0.40066000  0.95270000  1.0
  H  H5  1  0.87674000  0.59933000  0.04730000  1.0
  H  H6  1  0.04414000  0.32441000  0.16936000  1.0
  H  H7  1  0.95586000  0.67558000  0.83064000  1.0
  H  H8  1  0.16657000  0.42886000  0.26330000  1.0
  H  H9  1  0.83343000  0.57114000  0.73670000  1.0
  H  H10  1  0.35986000  0.60176000  0.13863000  1.0
  H  H11  1  0.64013000  0.39825000  0.86137000  1.0
  H  H12  1  0.52439000  0.73610000  0.02736000  1.0
  H  H13  1  0.47561000  0.26389000  0.97264000  1.0
  H  H14  1  0.56907000  0.91079000  0.05939000  1.0
  H  H15  1  0.43093000  0.08921000  0.94061000  1.0
  H  H16  1  0.69912000  0.05723000  0.10860000  1.0
  H  H17  1  0.30087000  0.94276000  0.89140000  1.0
  H  H18  1  0.97176000  0.29414000  0.90811000  1.0
  H  H19  1  0.02824000  0.70585000  0.09189000  1.0
  H  H20  1  0.06020000  0.16561000  0.97452000  1.0
  H  H21  1  0.93980000  0.83438000  0.02548000  1.0
  H  H22  1  0.89212000  0.21037000  0.05913000  1.0
  H  H23  1  0.10788000  0.78962000  0.94087000  1.0
  H  H24  1  0.04003000  0.12567000  0.77793000  1.0
  H  H25  1  0.95997000  0.87432000  0.22207000  1.0
  H  H26  1  0.91375000  0.97657000  0.72817000  1.0
  H  H27  1  0.08625000  0.02343000  0.27184000  1.0
  H  H28  1  0.74171000  0.96035000  0.67179000  1.0
  H  H29  1  0.25829000  0.03966000  0.32821000  1.0
  H  H30  1  0.75171000  0.99738000  0.50573000  1.0
  H  H31  1  0.24829000  0.00262000  0.49427000  1.0
  H  H32  1  0.76677000  0.02079000  0.30727000  1.0
  H  H33  1  0.23323000  0.97921000  0.69273000  1.0
  H  H34  1  0.61816000  0.86235000  0.27568000  1.0
  H  H35  1  0.38185000  0.13765000  0.72432000  1.0
  H  H36  1  0.45579000  0.69529000  0.44906000  1.0
  H  H37  1  0.54422000  0.30471000  0.55094000  1.0
  C  C38  1  0.17242000  0.44209000  0.99830000  1.0
  C  C39  1  0.82759000  0.55790000  0.00170000  1.0
  C  C40  1  0.12977000  0.39987000  0.11822000  1.0
  C  C41  1  0.87023000  0.60012000  0.88178000  1.0
  C  C42  1  0.19793000  0.45843000  0.16952000  1.0
  C  C43  1  0.80208000  0.54157000  0.83048000  1.0
  C  C44  1  0.30671000  0.55488000  0.09961000  1.0
  C  C45  1  0.69329000  0.44513000  0.90039000  1.0
  C  C46  1  0.34412000  0.59237000  0.97958000  1.0
  C  C47  1  0.65588000  0.40763000  0.02042000  1.0
  C  C48  1  0.45863000  0.69525000  0.89913000  1.0
  C  C49  1  0.54137000  0.30475000  0.10087000  1.0
  C  C50  1  0.54077000  0.76035000  0.93604000  1.0
  C  C51  1  0.45923000  0.23965000  0.06396000  1.0
  C  C52  1  0.64540000  0.85752000  0.85433000  1.0
  C  C53  1  0.35460000  0.14248000  0.14568000  1.0
  C  C54  1  0.73027000  0.93329000  0.88920000  1.0
  C  C55  1  0.26973000  0.06671000  0.11080000  1.0
  C  C56  1  0.67395000  0.95500000  0.99765000  1.0
  C  C57  1  0.32605000  0.04500000  0.00235000  1.0
  C  C58  1  0.74695000  0.03887000  0.02523000  1.0
  C  C59  1  0.25304000  0.96113000  0.97477000  1.0
  C  C60  1  0.87840000  0.10354000  0.94680000  1.0
  C  C61  1  0.12159000  0.89646000  0.05321000  1.0
  C  C62  1  0.95390000  0.19842000  0.97424000  1.0
  C  C63  1  0.04610000  0.80158000  0.02577000  1.0
  C  C64  1  0.93717000  0.07751000  0.84033000  1.0
  C  C65  1  0.06283000  0.92248000  0.15968000  1.0
  C  C66  1  0.86525000  0.99397000  0.81194000  1.0
  C  C67  1  0.13475000  0.00603000  0.18806000  1.0
  C  C68  1  0.66371000  0.88405000  0.73725000  1.0
  C  C69  1  0.33629000  0.11596000  0.26275000  1.0
  C  C70  1  0.57953000  0.81379000  0.70605000  1.0
  C  C71  1  0.42048000  0.18621000  0.29394000  1.0
  C  C72  1  0.59426000  0.83391000  0.58396000  1.0
  C  C73  1  0.40575000  0.16609000  0.41604000  1.0
  C  C74  1  0.68726000  0.93111000  0.49132000  1.0
  C  C75  1  0.31274000  0.06890000  0.50868000  1.0
  C  C76  1  0.69638000  0.94342000  0.37913000  1.0
  C  C77  1  0.30363000  0.05659000  0.62087000  1.0
  C  C78  1  0.61382000  0.85785000  0.36157000  1.0
  C  C79  1  0.38618000  0.14215000  0.63843000  1.0
  C  C80  1  0.52290000  0.76417000  0.45819000  1.0
  C  C81  1  0.47710000  0.23583000  0.54181000  1.0
  C  C82  1  0.16638000  0.44131000  0.64688000  1.0
  C  C83  1  0.83362000  0.55870000  0.35310000  1.0
  C  C84  1  0.11327000  0.78236000  0.62842000  1.0
  C  C85  1  0.88672000  0.21764000  0.37157000  1.0
  C  C86  1  0.57103000  0.35307000  0.71719000  1.0
  C  C87  1  0.42896000  0.64694000  0.28281000  1.0
  S  S88  1  0.16033000  0.41411000  0.53133000  1.0
  S  S89  1  0.83966000  0.58590000  0.46865000  1.0
  S  S90  1  0.01564000  0.82007000  0.54773000  1.0
  S  S91  1  0.98435000  0.17993000  0.45227000  1.0
  S  S92  1  0.67819000  0.23428000  0.73539000  1.0
  S  S93  1  0.32181000  0.76572000  0.26460000  1.0
  N  N94  1  0.51291000  0.75303000  0.56584000  1.0
  N  N95  1  0.48709000  0.24697000  0.43416000  1.0
  N  N96  1  0.47932000  0.72289000  0.78661000  1.0
  N  N97  1  0.52068000  0.27712000  0.21339000  1.0
  N  N98  1  0.27575000  0.53593000  0.93126000  1.0
  N  N99  1  0.72425000  0.46406000  0.06874000  1.0
  N  N100  1  0.17442000  0.46057000  0.72947000  1.0
  N  N101  1  0.82559000  0.53943000  0.27052000  1.0
  N  N102  1  0.18092000  0.75864000  0.69019000  1.0
  N  N103  1  0.81908000  0.24136000  0.30981000  1.0
  N  N104  1  0.49260000  0.43824000  0.70555000  1.0
  N  N105  1  0.50741000  0.56175000  0.29445000  1.0
