# generated using pymatgen
data_CdH2C2SBrN3
_symmetry_space_group_name_H-M   'P 1'
_cell_length_a   7.97560000
_cell_length_b   10.89150000
_cell_length_c   14.17680000
_cell_angle_alpha   90.00000000
_cell_angle_beta   89.99990000
_cell_angle_gamma   89.99990000
_symmetry_Int_Tables_number   1
_chemical_formula_structural   CdH2C2SBrN3
_chemical_formula_sum   'Cd8 H16 C16 S8 Br8 N24'
_cell_volume   1231.48541614
_cell_formula_units_Z   8
loop_
 _symmetry_equiv_pos_site_id
 _symmetry_equiv_pos_as_xyz
  1  'x, y, z'
loop_
 _atom_site_type_symbol
 _atom_site_label
 _atom_site_symmetry_multiplicity
 _atom_site_fract_x
 _atom_site_fract_y
 _atom_site_fract_z
 _atom_site_occupancy
  Cd  Cd0  1  0.80913000  0.31494000  0.66261000  1.0
  Cd  Cd1  1  0.69087000  0.18506000  0.16261000  1.0
  Cd  Cd2  1  0.80913000  0.68506000  0.83739000  1.0
  Cd  Cd3  1  0.69087000  0.81494000  0.33739000  1.0
  Cd  Cd4  1  0.19087000  0.68506000  0.33739000  1.0
  Cd  Cd5  1  0.30913000  0.81494000  0.83739000  1.0
  Cd  Cd6  1  0.19087000  0.31494000  0.16261000  1.0
  Cd  Cd7  1  0.30913000  0.18506000  0.66261000  1.0
  H  H8  1  0.17369000  0.51778000  0.54405000  1.0
  H  H9  1  0.32631000  0.98222000  0.04405000  1.0
  H  H10  1  0.17369000  0.48222000  0.95595000  1.0
  H  H11  1  0.32631000  0.01778000  0.45595000  1.0
  H  H12  1  0.82631000  0.48222000  0.45595000  1.0
  H  H13  1  0.67368000  0.01778000  0.95595000  1.0
  H  H14  1  0.82631000  0.51778000  0.04405000  1.0
  H  H15  1  0.67369000  0.98222000  0.54405000  1.0
  H  H16  1  0.40580000  0.62013000  0.64656000  1.0
  H  H17  1  0.09420000  0.87987000  0.14656000  1.0
  H  H18  1  0.40580000  0.37987000  0.85344000  1.0
  H  H19  1  0.09420000  0.12013000  0.35344000  1.0
  H  H20  1  0.59420000  0.37987000  0.35344000  1.0
  H  H21  1  0.90580000  0.12013000  0.85344000  1.0
  H  H22  1  0.59420000  0.62013000  0.14656000  1.0
  H  H23  1  0.90580000  0.87987000  0.64656000  1.0
  C  C24  1  0.00156000  0.58767000  0.64729000  1.0
  C  C25  1  0.49844000  0.91233000  0.14729000  1.0
  C  C26  1  0.00156000  0.41233000  0.85271000  1.0
  C  C27  1  0.49844000  0.08767000  0.35271000  1.0
  C  C28  1  0.99844000  0.41232000  0.35271000  1.0
  C  C29  1  0.50156000  0.08767000  0.85271000  1.0
  C  C30  1  0.99844000  0.58768000  0.14729000  1.0
  C  C31  1  0.50156000  0.91232000  0.64729000  1.0
  C  C32  1  0.27216000  0.62058000  0.66093000  1.0
  C  C33  1  0.22784000  0.87942000  0.16093000  1.0
  C  C34  1  0.27216000  0.37942000  0.83907000  1.0
  C  C35  1  0.22784000  0.12058000  0.33907000  1.0
  C  C36  1  0.72784000  0.37942000  0.33907000  1.0
  C  C37  1  0.77216000  0.12058000  0.83907000  1.0
  C  C38  1  0.72784000  0.62058000  0.16093000  1.0
  C  C39  1  0.77216000  0.87942000  0.66093000  1.0
  S  S40  1  0.80747000  0.54051000  0.60937000  1.0
  S  S41  1  0.69252000  0.95949000  0.10937000  1.0
  S  S42  1  0.80748000  0.45949000  0.89063000  1.0
  S  S43  1  0.69253000  0.04051000  0.39063000  1.0
  S  S44  1  0.19253000  0.45949000  0.39063000  1.0
  S  S45  1  0.30747000  0.04051000  0.89063000  1.0
  S  S46  1  0.19253000  0.54051000  0.10937000  1.0
  S  S47  1  0.30747000  0.95949000  0.60937000  1.0
  Br  Br48  1  0.01021000  0.18115000  0.55464000  1.0
  Br  Br49  1  0.48978000  0.31885000  0.05464000  1.0
  Br  Br50  1  0.01022000  0.81885000  0.94536000  1.0
  Br  Br51  1  0.48979000  0.68115000  0.44537000  1.0
  Br  Br52  1  0.98978000  0.81885000  0.44536000  1.0
  Br  Br53  1  0.51021000  0.68115000  0.94536000  1.0
  Br  Br54  1  0.98978000  0.18115000  0.05464000  1.0
  Br  Br55  1  0.51021000  0.31885000  0.55464000  1.0
  N  N56  1  0.19724000  0.67678000  0.73205000  1.0
  N  N57  1  0.30276000  0.82322000  0.23205000  1.0
  N  N58  1  0.19724000  0.32322000  0.76795000  1.0
  N  N59  1  0.30276000  0.17678000  0.26795000  1.0
  N  N60  1  0.80276000  0.32322000  0.26795000  1.0
  N  N61  1  0.69724000  0.17678000  0.76795000  1.0
  N  N62  1  0.80276000  0.67678000  0.23205000  1.0
  N  N63  1  0.69724000  0.82322000  0.73205000  1.0
  N  N64  1  0.02782000  0.65665000  0.72391000  1.0
  N  N65  1  0.47218000  0.84335000  0.22391000  1.0
  N  N66  1  0.02782000  0.34335000  0.77609000  1.0
  N  N67  1  0.47218000  0.15665000  0.27609000  1.0
  N  N68  1  0.97218000  0.34335000  0.27609000  1.0
  N  N69  1  0.52782000  0.15665000  0.77609000  1.0
  N  N70  1  0.97218000  0.65665000  0.22391000  1.0
  N  N71  1  0.52782000  0.84335000  0.72391000  1.0
  N  N72  1  0.15490000  0.56378000  0.60728000  1.0
  N  N73  1  0.34510000  0.93622000  0.10728000  1.0
  N  N74  1  0.15490000  0.43622000  0.89272000  1.0
  N  N75  1  0.34510000  0.06378000  0.39272000  1.0
  N  N76  1  0.84510000  0.43622000  0.39272000  1.0
  N  N77  1  0.65490000  0.06378000  0.89272000  1.0
  N  N78  1  0.84510000  0.56378000  0.10728000  1.0
  N  N79  1  0.65490000  0.93622000  0.60728000  1.0
