# generated using pymatgen
data_ZnH4C4(BrN)2
_symmetry_space_group_name_H-M   'P 1'
_cell_length_a   3.73784000
_cell_length_b   7.20588000
_cell_length_c   12.28100000
_cell_angle_alpha   90.00000000
_cell_angle_beta   89.99940000
_cell_angle_gamma   89.99970000
_symmetry_Int_Tables_number   1
_chemical_formula_structural   ZnH4C4(BrN)2
_chemical_formula_sum   'Zn2 H8 C8 Br4 N4'
_cell_volume   330.78169181
_cell_formula_units_Z   2
loop_
 _symmetry_equiv_pos_site_id
 _symmetry_equiv_pos_as_xyz
  1  'x, y, z'
loop_
 _atom_site_type_symbol
 _atom_site_label
 _atom_site_symmetry_multiplicity
 _atom_site_fract_x
 _atom_site_fract_y
 _atom_site_fract_z
 _atom_site_occupancy
  Zn  Zn0  1  0.99999000  0.00000000  0.50000000  1.0
  Zn  Zn1  1  0.00001000  0.00000000  0.00000000  1.0
  H  H2  1  0.00000000  0.08323000  0.25000000  1.0
  H  H3  1  0.00000000  0.91677000  0.75000000  1.0
  H  H4  1  0.00000000  0.59141000  0.07419000  1.0
  H  H5  1  0.00000000  0.59142000  0.42581000  1.0
  H  H6  1  0.00000000  0.40859000  0.92581000  1.0
  H  H7  1  0.00000000  0.40858000  0.57419000  1.0
  H  H8  1  0.00000000  0.40787000  0.25000000  1.0
  H  H9  1  0.00000000  0.59213000  0.75000000  1.0
  C  C10  1  0.00000000  0.93221000  0.25000000  1.0
  C  C11  1  0.00001000  0.06779000  0.75000000  1.0
  C  C12  1  0.00000000  0.65883000  0.15345000  1.0
  C  C13  1  0.00000000  0.65883000  0.34655000  1.0
  C  C14  1  0.00001000  0.34118000  0.84656000  1.0
  C  C15  1  0.00000000  0.34116000  0.65345000  1.0
  C  C16  1  0.00000000  0.55863000  0.25000000  1.0
  C  C17  1  0.00000000  0.44137000  0.75000000  1.0
  Br  Br18  1  0.49998000  0.22306000  0.42382000  1.0
  Br  Br19  1  0.50000000  0.22306000  0.07618000  1.0
  Br  Br20  1  0.49998000  0.77694000  0.57618000  1.0
  Br  Br21  1  0.50003000  0.77694000  0.92382000  1.0
  N  N22  1  0.00000000  0.84565000  0.34637000  1.0
  N  N23  1  0.00000000  0.84564000  0.15362000  1.0
  N  N24  1  0.99999000  0.15436000  0.65362000  1.0
  N  N25  1  0.00001000  0.15435000  0.84638000  1.0
