# generated using pymatgen
data_Zn3P2H24(C7O4)4
_symmetry_space_group_name_H-M   'P 1'
_cell_length_a   7.33862000
_cell_length_b   10.43520000
_cell_length_c   10.59710000
_cell_angle_alpha   82.76140000
_cell_angle_beta   79.49670000
_cell_angle_gamma   75.96940000
_symmetry_Int_Tables_number   1
_chemical_formula_structural   Zn3P2H24(C7O4)4
_chemical_formula_sum   'Zn3 P2 H24 C28 O16'
_cell_volume   771.27095152
_cell_formula_units_Z   1
loop_
 _symmetry_equiv_pos_site_id
 _symmetry_equiv_pos_as_xyz
  1  'x, y, z'
loop_
 _atom_site_type_symbol
 _atom_site_label
 _atom_site_symmetry_multiplicity
 _atom_site_fract_x
 _atom_site_fract_y
 _atom_site_fract_z
 _atom_site_occupancy
  Zn  Zn0  1  0.50000000  0.50000000  0.50000000  1.0
  Zn  Zn1  1  0.01789000  0.21370000  0.54129000  1.0
  Zn  Zn2  1  0.98211000  0.78630000  0.45871000  1.0
  P  P3  1  0.27512000  0.31480000  0.68857000  1.0
  P  P4  1  0.72489000  0.68520000  0.31143000  1.0
  H  H5  1  0.06924000  0.76226000  0.86043000  1.0
  H  H6  1  0.93076000  0.23774000  0.13957000  1.0
  H  H7  1  0.16492000  0.67488000  0.07701000  1.0
  H  H8  1  0.83510000  0.32512000  0.92299000  1.0
  H  H9  1  0.29450000  0.43417000  0.11980000  1.0
  H  H10  1  0.70550000  0.56583000  0.88020000  1.0
  H  H11  1  0.34299000  0.28396000  0.94684000  1.0
  H  H12  1  0.65700000  0.71604000  0.05315000  1.0
  H  H13  1  0.05758000  0.14175000  0.84565000  1.0
  H  H14  1  0.94242000  0.85825000  0.15435000  1.0
  H  H15  1  0.14419000  0.91213000  0.94944000  1.0
  H  H16  1  0.85582000  0.08787000  0.05056000  1.0
  H  H17  1  0.47972000  0.78667000  0.91650000  1.0
  H  H18  1  0.52029000  0.21333000  0.08351000  1.0
  H  H19  1  0.73482000  0.89670000  0.79853000  1.0
  H  H20  1  0.26518000  0.10330000  0.20148000  1.0
  H  H21  1  0.36648000  0.09713000  0.46299000  1.0
  H  H22  1  0.63352000  0.90288000  0.53700000  1.0
  H  H23  1  0.23861000  0.99361000  0.46319000  1.0
  H  H24  1  0.76140000  0.00639000  0.53681000  1.0
  H  H25  1  0.49863000  0.47306000  0.25292000  1.0
  H  H26  1  0.50137000  0.52694000  0.74708000  1.0
  H  H27  1  0.31693000  0.57451000  0.30198000  1.0
  H  H28  1  0.68307000  0.42549000  0.69802000  1.0
  C  C29  1  0.11197000  0.63799000  0.65491000  1.0
  C  C30  1  0.88802000  0.36201000  0.34509000  1.0
  C  C31  1  0.16015000  0.57417000  0.78232000  1.0
  C  C32  1  0.83985000  0.42584000  0.21768000  1.0
  C  C33  1  0.13191000  0.65764000  0.88114000  1.0
  C  C34  1  0.86810000  0.34237000  0.11886000  1.0
  C  C35  1  0.18342000  0.60911000  0.00132000  1.0
  C  C36  1  0.81658000  0.39089000  0.99868000  1.0
  C  C37  1  0.25926000  0.47399000  0.02486000  1.0
  C  C38  1  0.74074000  0.52601000  0.97514000  1.0
  C  C39  1  0.28554000  0.38957000  0.92784000  1.0
  C  C40  1  0.71446000  0.61043000  0.07216000  1.0
  C  C41  1  0.23942000  0.43691000  0.80524000  1.0
  C  C42  1  0.76058000  0.56310000  0.19476000  1.0
  C  C43  1  0.34767000  0.15308000  0.77419000  1.0
  C  C44  1  0.65234000  0.84692000  0.22581000  1.0
  C  C45  1  0.20641000  0.08927000  0.84027000  1.0
  C  C46  1  0.79359000  0.91073000  0.15973000  1.0
  C  C47  1  0.25465000  0.95960000  0.89521000  1.0
  C  C48  1  0.74536000  0.04040000  0.10478000  1.0
  C  C49  1  0.44403000  0.88979000  0.87805000  1.0
  C  C50  1  0.55598000  0.11021000  0.12195000  1.0
  C  C51  1  0.58676000  0.95164000  0.81204000  1.0
  C  C52  1  0.41324000  0.04835000  0.18797000  1.0
  C  C53  1  0.54013000  0.08492000  0.76373000  1.0
  C  C54  1  0.45986000  0.91508000  0.23628000  1.0
  C  C55  1  0.69693000  0.15656000  0.71151000  1.0
  C  C56  1  0.30307000  0.84344000  0.28849000  1.0
  O  O57  1  0.96937000  0.73686000  0.65216000  1.0
  O  O58  1  0.03061000  0.26314000  0.34785000  1.0
  O  O59  1  0.21447000  0.59857000  0.55069000  1.0
  O  O60  1  0.78552000  0.40144000  0.44931000  1.0
  O  O61  1  0.07800000  0.32476000  0.65428000  1.0
  O  O62  1  0.92200000  0.67523000  0.34572000  1.0
  O  O63  1  0.43564000  0.32531000  0.57730000  1.0
  O  O64  1  0.56436000  0.67468000  0.42269000  1.0
  O  O65  1  0.70635000  0.25219000  0.76757000  1.0
  O  O66  1  0.29365000  0.74780000  0.23243000  1.0
  O  O67  1  0.82066000  0.10921000  0.61378000  1.0
  O  O68  1  0.17935000  0.89079000  0.38622000  1.0
  O  O69  1  0.26367000  0.06094000  0.51534000  1.0
  O  O70  1  0.73634000  0.93906000  0.48466000  1.0
  O  O71  1  0.38886000  0.48275000  0.32156000  1.0
  O  O72  1  0.61114000  0.51725000  0.67844000  1.0
