# generated using pymatgen
data_Al4H43C88N13O30
_symmetry_space_group_name_H-M   'P 1'
_cell_length_a   6.61940000
_cell_length_b   28.35720000
_cell_length_c   31.75540000
_cell_angle_alpha   78.05350000
_cell_angle_beta   89.73790000
_cell_angle_gamma   89.61120000
_symmetry_Int_Tables_number   1
_chemical_formula_structural   Al4H43C88N13O30
_chemical_formula_sum   'Al4 H43 C88 N13 O30'
_cell_volume   5831.46499920
_cell_formula_units_Z   1
loop_
 _symmetry_equiv_pos_site_id
 _symmetry_equiv_pos_as_xyz
  1  'x, y, z'
loop_
 _atom_site_type_symbol
 _atom_site_label
 _atom_site_symmetry_multiplicity
 _atom_site_fract_x
 _atom_site_fract_y
 _atom_site_fract_z
 _atom_site_occupancy
  Al  Al0  1  0.10381000  0.49900000  0.50067000  1.0
  Al  Al1  1  0.60376000  0.50129000  0.49948000  1.0
  Al  Al2  1  0.70548000  0.00111000  0.99933000  1.0
  Al  Al3  1  0.20559000  0.99885000  0.00054000  1.0
  H  H4  1  0.18842000  0.60053000  0.39237000  1.0
  H  H5  1  0.20678000  0.66666667  0.32614000  1.0
  H  H6  1  0.55902000  0.67871000  0.32575000  1.0
  H  H7  1  0.54211000  0.61221000  0.39180000  1.0
  H  H8  1  0.25017000  0.82124000  0.17426000  1.0
  H  H9  1  0.26728000  0.88782000  0.10828000  1.0
  H  H10  1  0.62089000  0.89951000  0.10766000  1.0
  H  H11  1  0.60252000  0.83329000  0.17384000  1.0
  H  H12  1  0.32464000  0.83264000  0.72463000  1.0
  H  H13  1  0.50122000  0.72591000  0.82578000  1.0
  H  H14  1  0.48144000  0.67199000  0.77154000  1.0
  H  H15  1  0.64186000  0.88590000  0.84039000  1.0
  H  H16  1  0.65053000  0.93766000  0.89520000  1.0
  H  H17  1  0.25768000  0.89019000  0.92891000  1.0
  H  H18  1  0.24647000  0.83575000  0.87642000  1.0
  H  H19  1  0.56776000  0.66808000  0.62029000  1.0
  H  H20  1  0.55587000  0.61265000  0.56850000  1.0
  H  H21  1  0.15742000  0.56271000  0.60499000  1.0
  H  H22  1  0.16580000  0.61540000  0.65908000  1.0
  H  H23  1  0.84894000  0.17501000  0.26690000  1.0
  H  H24  1  0.82948000  0.22829000  0.32164000  1.0
  H  H25  1  0.96078000  0.32489000  0.23323000  1.0
  H  H26  1  0.97988000  0.27149000  0.17856000  1.0
  H  H27  1  0.67096000  0.38469000  0.34011000  1.0
  H  H28  1  0.66281000  0.43707000  0.39435000  1.0
  H  H29  1  0.06057000  0.38915000  0.43134000  1.0
  H  H30  1  0.07162000  0.33417000  0.37937000  1.0
  H  H31  1  0.73819000  0.16565000  0.12080000  1.0
  H  H32  1  0.74895000  0.11071000  0.06878000  1.0
  H  H33  1  0.14639000  0.06296000  0.10569000  1.0
  H  H34  1  0.13853000  0.11532000  0.15999000  1.0
  H  H35  1  0.68884000  0.39940000  0.60786000  1.0
  H  H36  1  0.70686000  0.33316000  0.67405000  1.0
  H  H37  1  0.05967000  0.32160000  0.67412000  1.0
  H  H38  1  0.04309000  0.38821000  0.60813000  1.0
  H  H39  1  0.74964000  0.17847000  0.82588000  1.0
  H  H40  1  0.76645000  0.11179000  0.89183000  1.0
  H  H41  1  0.12054000  0.10067000  0.89225000  1.0
  H  H42  1  0.10248000  0.16694000  0.82605000  1.0
  H  H43  1  0.34663000  0.56216000  0.50054000  1.0
  H  H44  1  0.85006000  0.43850000  0.49856000  1.0
  H  H45  1  0.46287000  0.93721000  0.00198000  1.0
  H  H46  1  0.95926000  0.06165000  0.00136000  1.0
  C  C47  1  0.35765000  0.44753000  0.44845000  1.0
  C  C48  1  0.35712000  0.43616000  0.56446000  1.0
  C  C49  1  0.85294000  0.55291000  0.55156000  1.0
  C  C50  1  0.85641000  0.56412000  0.43567000  1.0
  C  C51  1  0.05205000  0.61797000  0.37738000  1.0
  C  C52  1  0.06224000  0.65450000  0.34082000  1.0
  C  C53  1  0.88392000  0.67657000  0.32215000  1.0
  C  C54  1  0.69566000  0.66123000  0.34057000  1.0
  C  C55  1  0.68650000  0.62451000  0.37708000  1.0
  C  C56  1  0.86444000  0.60276000  0.39583000  1.0
  C  C57  1  0.91425000  0.78416000  0.21610000  1.0
  C  C58  1  0.89468000  0.71548000  0.28365000  1.0
  C  C59  1  0.11358000  0.83872000  0.15941000  1.0
  C  C60  1  0.12278000  0.87547000  0.12292000  1.0
  C  C61  1  0.94486000  0.89720000  0.10412000  1.0
  C  C62  1  0.75723000  0.88201000  0.12260000  1.0
  C  C63  1  0.74707000  0.84544000  0.15914000  1.0
  C  C64  1  0.92529000  0.82329000  0.17776000  1.0
  C  C65  1  0.72582000  0.67026000  0.70560000  1.0
  C  C66  1  0.03290000  0.70968000  0.66766000  1.0
  C  C67  1  0.04304000  0.74108000  0.69951000  1.0
  C  C68  1  0.90093000  0.73603000  0.73364000  1.0
  C  C69  1  0.74377000  0.70188000  0.73718000  1.0
  C  C70  1  0.19041000  0.77626000  0.69689000  1.0
  C  C71  1  0.20650000  0.80559000  0.72728000  1.0
  C  C72  1  0.06871000  0.80053000  0.76087000  1.0
  C  C73  1  0.91223000  0.76623000  0.76425000  1.0
  C  C74  1  0.76611000  0.76192000  0.79739000  1.0
  C  C75  1  0.61234000  0.72830000  0.79998000  1.0
  C  C76  1  0.60174000  0.69835000  0.76999000  1.0
  C  C77  1  0.08571000  0.83213000  0.79264000  1.0
  C  C78  1  0.77465000  0.79311000  0.82947000  1.0
  C  C79  1  0.77561000  0.88664000  0.86011000  1.0
  C  C80  1  0.78055000  0.91552000  0.89054000  1.0
  C  C81  1  0.95425000  0.91681000  0.91537000  1.0
  C  C82  1  0.12292000  0.88865000  0.90969000  1.0
  C  C83  1  0.11699000  0.85843000  0.88030000  1.0
  C  C84  1  0.94331000  0.85785000  0.85557000  1.0
  C  C85  1  0.69502000  0.64441000  0.61727000  1.0
  C  C86  1  0.68903000  0.61370000  0.58830000  1.0
  C  C87  1  0.85589000  0.58452000  0.58368000  1.0
  C  C88  1  0.02836000  0.58545000  0.60897000  1.0
  C  C89  1  0.03318000  0.61482000  0.63899000  1.0
  C  C90  1  0.86700000  0.64440000  0.64258000  1.0
  C  C91  1  0.26562000  0.20755000  0.17070000  1.0
  C  C92  1  0.58715000  0.17031000  0.20459000  1.0
  C  C93  1  0.57426000  0.20244000  0.23591000  1.0
  C  C94  1  0.40984000  0.23480000  0.23477000  1.0
  C  C95  1  0.25625000  0.23793000  0.20347000  1.0
  C  C96  1  0.72392000  0.20023000  0.26683000  1.0
  C  C97  1  0.71313000  0.22980000  0.29722000  1.0
  C  C98  1  0.55286000  0.26179000  0.29680000  1.0
  C  C99  1  0.39913000  0.26485000  0.26555000  1.0
  C  C100  1  0.23505000  0.29732000  0.26432000  1.0
  C  C101  1  0.08546000  0.29956000  0.23338000  1.0
  C  C102  1  0.09603000  0.26994000  0.20303000  1.0
  C  C103  1  0.54408000  0.29236000  0.32943000  1.0
  C  C104  1  0.22266000  0.32961000  0.29552000  1.0
  C  C105  1  0.53832000  0.38546000  0.36041000  1.0
  C  C106  1  0.53367000  0.41471000  0.39057000  1.0
  C  C107  1  0.36145000  0.41613000  0.41615000  1.0
  C  C108  1  0.19423000  0.38759000  0.41153000  1.0
  C  C109  1  0.20004000  0.35704000  0.38244000  1.0
  C  C110  1  0.37207000  0.35641000  0.35686000  1.0
  C  C111  1  0.60962000  0.14285000  0.11770000  1.0
  C  C112  1  0.61525000  0.11232000  0.08858000  1.0
  C  C113  1  0.44786000  0.08386000  0.08393000  1.0
  C  C114  1  0.27557000  0.08529000  0.10949000  1.0
  C  C115  1  0.27109000  0.11452000  0.13967000  1.0
  C  C116  1  0.43752000  0.14353000  0.14323000  1.0
  C  C117  1  0.55252000  0.38203000  0.62277000  1.0
  C  C118  1  0.56251000  0.34545000  0.65931000  1.0
  C  C119  1  0.38427000  0.32349000  0.67788000  1.0
  C  C120  1  0.19626000  0.33901000  0.65938000  1.0
  C  C121  1  0.18730000  0.37579000  0.62290000  1.0
  C  C122  1  0.36517000  0.39743000  0.60425000  1.0
  C  C123  1  0.41416000  0.21575000  0.78387000  1.0
  C  C124  1  0.39485000  0.28450000  0.71634000  1.0
  C  C125  1  0.61311000  0.16106000  0.84065000  1.0
  C  C126  1  0.62217000  0.12427000  0.87710000  1.0
  C  C127  1  0.44429000  0.10264000  0.89580000  1.0
  C  C128  1  0.25682000  0.11804000  0.87732000  1.0
  C  C129  1  0.24685000  0.15465000  0.84079000  1.0
  C  C130  1  0.42503000  0.17663000  0.82222000  1.0
  C  C131  1  0.45240000  0.06392000  0.93558000  1.0
  C  C132  1  0.45144000  0.05253000  0.05161000  1.0
  C  C133  1  0.95282000  0.93583000  0.06427000  1.0
  C  C134  1  0.95674000  0.94774000  0.94807000  1.0
  N  N135  1  0.71920000  0.73607000  0.26706000  1.0
  N  N136  1  0.72917000  0.77099000  0.23270000  1.0
  N  N137  1  0.08960000  0.76329000  0.23247000  1.0
  N  N138  1  0.07967000  0.72837000  0.26682000  1.0
  N  N139  1  0.87524000  0.67579000  0.67298000  1.0
  N  N140  1  0.93490000  0.82677000  0.82490000  1.0
  N  N141  1  0.43006000  0.17472000  0.17380000  1.0
  N  N142  1  0.37958000  0.32518000  0.32633000  1.0
  N  N143  1  0.21953000  0.26394000  0.73277000  1.0
  N  N144  1  0.22936000  0.22898000  0.76711000  1.0
  N  N145  1  0.58939000  0.23651000  0.76759000  1.0
  N  N146  1  0.57957000  0.27146000  0.73325000  1.0
  N  N147  1  0.33822000  0.78628000  0.66093000  1.0
  O  O148  1  0.52580000  0.45200000  0.54819000  1.0
  O  O149  1  0.18581000  0.45774000  0.46258000  1.0
  O  O150  1  0.02522000  0.54830000  0.45199000  1.0
  O  O151  1  0.18334000  0.44990000  0.54950000  1.0
  O  O152  1  0.02354000  0.53875000  0.54003000  1.0
  O  O153  1  0.52740000  0.46148000  0.45996000  1.0
  O  O154  1  0.35148000  0.52911000  0.49695000  1.0
  O  O155  1  0.68190000  0.54268000  0.53765000  1.0
  O  O156  1  0.68267000  0.55046000  0.45066000  1.0
  O  O157  1  0.85282000  0.47115000  0.50320000  1.0
  O  O158  1  0.59066000  0.64046000  0.70768000  1.0
  O  O159  1  0.15644000  0.71282000  0.63826000  1.0
  O  O160  1  0.22242000  0.86154000  0.79078000  1.0
  O  O161  1  0.65072000  0.78999000  0.85878000  1.0
  O  O162  1  0.13867000  0.21060000  0.14217000  1.0
  O  O163  1  0.72550000  0.14109000  0.20529000  1.0
  O  O164  1  0.67156000  0.28949000  0.35783000  1.0
  O  O165  1  0.08473000  0.35898000  0.29467000  1.0
  O  O166  1  0.28163000  0.03851000  0.04019000  1.0
  O  O167  1  0.62624000  0.05003000  0.95042000  1.0
  O  O168  1  0.78598000  0.96137000  0.95996000  1.0
  O  O169  1  0.62326000  0.04245000  0.03734000  1.0
  O  O170  1  0.78394000  0.95174000  0.04802000  1.0
  O  O171  1  0.28385000  0.04822000  0.95201000  1.0
  O  O172  1  0.45787000  0.97102000  0.00308000  1.0
  O  O173  1  0.12652000  0.94942000  0.04919000  1.0
  O  O174  1  0.12780000  0.95783000  0.96204000  1.0
  O  O175  1  0.95647000  0.02894000  0.99688000  1.0
  O  O176  1  0.28568000  0.81580000  0.62873000  1.0
  O  O177  1  0.50674000  0.76719000  0.66770000  1.0
