# generated using pymatgen
data_ZnH22C12(NO2)4
_symmetry_space_group_name_H-M   'P 1'
_cell_length_a   7.89006000
_cell_length_b   8.51797000
_cell_length_c   8.51805000
_cell_angle_alpha   95.85430000
_cell_angle_beta   112.79500000
_cell_angle_gamma   112.79500000
_symmetry_Int_Tables_number   1
_chemical_formula_structural   ZnH22C12(NO2)4
_chemical_formula_sum   'Zn1 H22 C12 N4 O8'
_cell_volume   464.64487192
_cell_formula_units_Z   1
loop_
 _symmetry_equiv_pos_site_id
 _symmetry_equiv_pos_as_xyz
  1  'x, y, z'
loop_
 _atom_site_type_symbol
 _atom_site_label
 _atom_site_symmetry_multiplicity
 _atom_site_fract_x
 _atom_site_fract_y
 _atom_site_fract_z
 _atom_site_occupancy
  Zn  Zn0  1  0.50000000  0.34788000  0.65213000  1.0
  H  H1  1  0.02880000  0.31280000  0.47892000  1.0
  H  H2  1  0.97120000  0.52108000  0.68719000  1.0
  H  H3  1  0.42411000  0.07367000  0.43037000  1.0
  H  H4  1  0.57589000  0.56963000  0.92633000  1.0
  H  H5  1  0.67024000  0.21378000  0.50018000  1.0
  H  H6  1  0.32977000  0.49982000  0.78622000  1.0
  H  H7  1  0.83851000  0.99793000  0.94673000  1.0
  H  H8  1  0.16149000  0.05328000  0.00207000  1.0
  H  H9  1  0.73421000  0.01640000  0.64232000  1.0
  H  H10  1  0.26580000  0.35768000  0.98360000  1.0
  H  H11  1  0.49628000  0.94128000  0.65168000  1.0
  H  H12  1  0.50374000  0.34833000  0.05872000  1.0
  H  H13  1  0.95267000  0.35005000  0.17947000  1.0
  H  H14  1  0.04732000  0.82053000  0.64995000  1.0
  H  H15  1  0.64509000  0.11185000  0.17351000  1.0
  H  H16  1  0.35490000  0.82649000  0.88815000  1.0
  H  H17  1  0.94029000  0.96378000  0.37025000  1.0
  H  H18  1  0.05970000  0.62973000  0.03621000  1.0
  H  H19  1  0.73117000  0.85614000  0.14875000  1.0
  H  H20  1  0.26882000  0.85123000  0.14385000  1.0
  H  H21  1  0.67952000  0.88781000  0.33198000  1.0
  H  H22  1  0.32047000  0.66800000  0.11218000  1.0
  C  C23  1  0.74253000  0.17940000  0.85926000  1.0
  C  C24  1  0.25747000  0.14074000  0.82060000  1.0
  C  C25  1  0.63038000  0.06086000  0.66647000  1.0
  C  C26  1  0.36963000  0.33354000  0.93915000  1.0
  C  C27  1  0.93932000  0.21592000  0.17162000  1.0
  C  C28  1  0.06068000  0.82838000  0.78408000  1.0
  C  C29  1  0.80110000  0.12844000  0.25959000  1.0
  C  C30  1  0.19889000  0.74040000  0.87156000  1.0
  C  C31  1  0.15690000  0.23547000  0.28093000  1.0
  C  C32  1  0.84310000  0.71908000  0.76453000  1.0
  C  C33  1  0.78743000  0.94821000  0.27861000  1.0
  C  C34  1  0.21256000  0.72138000  0.05178000  1.0
  N  N35  1  0.56079000  0.15602000  0.54228000  1.0
  N  N36  1  0.43921000  0.45773000  0.84399000  1.0
  N  N37  1  0.84284000  0.11986000  0.98510000  1.0
  N  N38  1  0.15717000  0.01491000  0.88015000  1.0
  O  O39  1  0.73664000  0.32303000  0.89534000  1.0
  O  O40  1  0.26337000  0.10466000  0.67698000  1.0
  O  O41  1  0.87551000  0.25068000  0.42784000  1.0
  O  O42  1  0.12449000  0.57216000  0.74932000  1.0
  O  O43  1  0.25058000  0.34230000  0.43964000  1.0
  O  O44  1  0.74942000  0.56037000  0.65770000  1.0
  O  O45  1  0.22583000  0.14813000  0.21953000  1.0
  O  O46  1  0.77418000  0.78048000  0.85188000  1.0
