# generated using pymatgen
data_CdH10C12(NO3)2
_symmetry_space_group_name_H-M   'P 1'
_cell_length_a   8.85897000
_cell_length_b   9.68934000
_cell_length_c   16.16600000
_cell_angle_alpha   90.00000000
_cell_angle_beta   90.00000000
_cell_angle_gamma   90.00000000
_symmetry_Int_Tables_number   1
_chemical_formula_structural   CdH10C12(NO3)2
_chemical_formula_sum   'Cd4 H40 C48 N8 O24'
_cell_volume   1387.65019509
_cell_formula_units_Z   4
loop_
 _symmetry_equiv_pos_site_id
 _symmetry_equiv_pos_as_xyz
  1  'x, y, z'
loop_
 _atom_site_type_symbol
 _atom_site_label
 _atom_site_symmetry_multiplicity
 _atom_site_fract_x
 _atom_site_fract_y
 _atom_site_fract_z
 _atom_site_occupancy
  Cd  Cd0  1  0.13404000  0.13477000  0.18448000  1.0
  Cd  Cd1  1  0.86596000  0.63477000  0.81552000  1.0
  Cd  Cd2  1  0.36596000  0.63477000  0.68448000  1.0
  Cd  Cd3  1  0.63404000  0.13477000  0.31552000  1.0
  H  H4  1  0.21180000  0.27753000  0.92345000  1.0
  H  H5  1  0.78820000  0.77753000  0.07655000  1.0
  H  H6  1  0.28820000  0.77753000  0.42345000  1.0
  H  H7  1  0.71180000  0.27753000  0.57655000  1.0
  H  H8  1  0.25172000  0.41483000  0.27985000  1.0
  H  H9  1  0.74828000  0.91483000  0.72015000  1.0
  H  H10  1  0.24828000  0.91483000  0.77985000  1.0
  H  H11  1  0.75172000  0.41483000  0.22015000  1.0
  H  H12  1  0.22500000  0.67365000  0.27049000  1.0
  H  H13  1  0.77500000  0.17365000  0.72951000  1.0
  H  H14  1  0.27500000  0.17365000  0.77049000  1.0
  H  H15  1  0.72500000  0.67365000  0.22951000  1.0
  H  H16  1  0.96379000  0.61182000  0.04776000  1.0
  H  H17  1  0.03621000  0.11182000  0.95224000  1.0
  H  H18  1  0.53621000  0.11182000  0.54776000  1.0
  H  H19  1  0.46379000  0.61182000  0.45224000  1.0
  H  H20  1  0.00693000  0.35804000  0.06433000  1.0
  H  H21  1  0.99307000  0.85804000  0.93567000  1.0
  H  H22  1  0.49307000  0.85804000  0.56433000  1.0
  H  H23  1  0.50693000  0.35804000  0.43567000  1.0
  H  H24  1  0.40334000  0.38452000  0.84694000  1.0
  H  H25  1  0.59666000  0.88452000  0.15306000  1.0
  H  H26  1  0.09666000  0.88452000  0.34694000  1.0
  H  H27  1  0.90334000  0.38452000  0.65306000  1.0
  H  H28  1  0.66443000  0.40187000  0.90935000  1.0
  H  H29  1  0.33557000  0.90187000  0.09065000  1.0
  H  H30  1  0.83557000  0.90187000  0.40935000  1.0
  H  H31  1  0.16443000  0.40187000  0.59065000  1.0
  H  H32  1  0.70498000  0.29966000  0.05039000  1.0
  H  H33  1  0.29502000  0.79967000  0.94961000  1.0
  H  H34  1  0.79502000  0.79966000  0.55039000  1.0
  H  H35  1  0.20498000  0.29966000  0.44961000  1.0
  H  H36  1  0.81699000  0.14322000  0.13188000  1.0
  H  H37  1  0.18301000  0.64322000  0.86812000  1.0
  H  H38  1  0.68301000  0.64322000  0.63188000  1.0
  H  H39  1  0.31699000  0.14322000  0.36812000  1.0
  H  H40  1  0.91982000  0.02195000  0.09746000  1.0
  H  H41  1  0.08018000  0.52195000  0.90255000  1.0
  H  H42  1  0.58018000  0.52195000  0.59745000  1.0
  H  H43  1  0.41982000  0.02195000  0.40254000  1.0
  C  C44  1  0.18898000  0.46368000  0.22967000  1.0
  C  C45  1  0.81102000  0.96367000  0.77033000  1.0
  C  C46  1  0.31102000  0.96368000  0.72967000  1.0
  C  C47  1  0.68898000  0.46367000  0.27033000  1.0
  C  C48  1  0.17266000  0.60630000  0.22485000  1.0
  C  C49  1  0.82734000  0.10630000  0.77515000  1.0
  C  C50  1  0.32734000  0.10630000  0.72485000  1.0
  C  C51  1  0.67266000  0.60630000  0.27515000  1.0
  C  C52  1  0.08708000  0.66232000  0.16028000  1.0
  C  C53  1  0.91292000  0.16232000  0.83972000  1.0
  C  C54  1  0.41292000  0.16232000  0.66028000  1.0
  C  C55  1  0.58708000  0.66232000  0.33972000  1.0
  C  C56  1  0.02695000  0.57305000  0.10076000  1.0
  C  C57  1  0.97305000  0.07305000  0.89924000  1.0
  C  C58  1  0.47305000  0.07305000  0.60076000  1.0
  C  C59  1  0.52695000  0.57304000  0.39924000  1.0
  C  C60  1  0.05061000  0.43183000  0.10942000  1.0
  C  C61  1  0.94939000  0.93183000  0.89058000  1.0
  C  C62  1  0.44939000  0.93183000  0.60942000  1.0
  C  C63  1  0.55061000  0.43183000  0.39058000  1.0
  C  C64  1  0.05875000  0.81569000  0.15402000  1.0
  C  C65  1  0.94124000  0.31570000  0.84598000  1.0
  C  C66  1  0.44124000  0.31570000  0.65402000  1.0
  C  C67  1  0.55876000  0.81570000  0.34597000  1.0
  C  C68  1  0.43329000  0.33867000  0.90636000  1.0
  C  C69  1  0.56671000  0.83867000  0.09364000  1.0
  C  C70  1  0.06671000  0.83867000  0.40636000  1.0
  C  C71  1  0.93329000  0.33867000  0.59364000  1.0
  C  C72  1  0.57465000  0.34746000  0.94126000  1.0
  C  C73  1  0.42535000  0.84746000  0.05874000  1.0
  C  C74  1  0.92535000  0.84747000  0.44126000  1.0
  C  C75  1  0.07465000  0.34746000  0.55874000  1.0
  C  C76  1  0.59560000  0.29011000  0.02011000  1.0
  C  C77  1  0.40440000  0.79011000  0.97989000  1.0
  C  C78  1  0.90440000  0.79011000  0.52011000  1.0
  C  C79  1  0.09560000  0.29011000  0.47989000  1.0
  C  C80  1  0.48091000  0.22166000  0.06226000  1.0
  C  C81  1  0.51909000  0.72166000  0.93774000  1.0
  C  C82  1  0.01909000  0.72166000  0.56226000  1.0
  C  C83  1  0.98091000  0.22166000  0.43774000  1.0
  C  C84  1  0.33668000  0.20419000  0.02211000  1.0
  C  C85  1  0.66332000  0.70419000  0.97789000  1.0
  C  C86  1  0.16332000  0.70419000  0.52211000  1.0
  C  C87  1  0.83668000  0.20419000  0.47789000  1.0
  C  C88  1  0.50814000  0.17329000  0.14858000  1.0
  C  C89  1  0.49186000  0.67329000  0.85142000  1.0
  C  C90  1  0.99186000  0.67329000  0.64858000  1.0
  C  C91  1  0.00814000  0.17329000  0.35142000  1.0
  N  N92  1  0.12767000  0.37787000  0.17345000  1.0
  N  N93  1  0.87233000  0.87787000  0.82655000  1.0
  N  N94  1  0.37233000  0.87787000  0.67345000  1.0
  N  N95  1  0.62767000  0.37787000  0.32655000  1.0
  N  N96  1  0.32188000  0.27084000  0.94631000  1.0
  N  N97  1  0.67812000  0.77084000  0.05369000  1.0
  N  N98  1  0.17812000  0.77084000  0.44631000  1.0
  N  N99  1  0.82188000  0.27084000  0.55369000  1.0
  O  O100  1  0.91448000  0.12477000  0.10331000  1.0
  O  O101  1  0.08552000  0.62477000  0.89669000  1.0
  O  O102  1  0.58552000  0.62477000  0.60331000  1.0
  O  O103  1  0.41448000  0.12477000  0.39669000  1.0
  O  O104  1  0.14041000  0.89496000  0.19780000  1.0
  O  O105  1  0.85959000  0.39496000  0.80220000  1.0
  O  O106  1  0.35959000  0.39496000  0.69780000  1.0
  O  O107  1  0.64041000  0.89496000  0.30220000  1.0
  O  O108  1  0.95539000  0.85383000  0.10424000  1.0
  O  O109  1  0.04461000  0.35383000  0.89576000  1.0
  O  O110  1  0.54461000  0.35383000  0.60424000  1.0
  O  O111  1  0.45539000  0.85383000  0.39576000  1.0
  O  O112  1  0.22433000  0.13557000  0.04700000  1.0
  O  O113  1  0.77567000  0.63557000  0.95300000  1.0
  O  O114  1  0.27567000  0.63557000  0.54700000  1.0
  O  O115  1  0.72433000  0.13557000  0.45300000  1.0
  O  O116  1  0.40100000  0.13962000  0.19644000  1.0
  O  O117  1  0.59900000  0.63963000  0.80356000  1.0
  O  O118  1  0.09900000  0.63963000  0.69644000  1.0
  O  O119  1  0.90100000  0.13963000  0.30356000  1.0
  O  O120  1  0.64599000  0.17188000  0.17413000  1.0
  O  O121  1  0.35401000  0.67188000  0.82586000  1.0
  O  O122  1  0.85401000  0.67188000  0.67413000  1.0
  O  O123  1  0.14599000  0.17188000  0.32586000  1.0
