# generated using pymatgen
data_Zn2H11C26Br2N2O8F3
_symmetry_space_group_name_H-M   'P 1'
_cell_length_a   12.76190000
_cell_length_b   13.89760000
_cell_length_c   16.07110000
_cell_angle_alpha   89.96650000
_cell_angle_beta   87.33620000
_cell_angle_gamma   85.73280000
_symmetry_Int_Tables_number   1
_chemical_formula_structural   Zn2H11C26Br2N2O8F3
_chemical_formula_sum   'Zn2 H11 C26 Br2 N2 O8 F3'
_cell_volume   2839.38198883
_cell_formula_units_Z   1
loop_
 _symmetry_equiv_pos_site_id
 _symmetry_equiv_pos_as_xyz
  1  'x, y, z'
loop_
 _atom_site_type_symbol
 _atom_site_label
 _atom_site_symmetry_multiplicity
 _atom_site_fract_x
 _atom_site_fract_y
 _atom_site_fract_z
 _atom_site_occupancy
  Zn  Zn0  1  0.60868000  0.50627000  0.49571000  1.0
  Zn  Zn1  1  0.39288000  0.49253000  0.50473000  1.0
  H  H2  1  0.61792000  0.38092000  0.06897000  1.0
  H  H3  1  0.33502000  0.48133000  0.07662000  1.0
  H  H4  1  0.55306000  0.64871000  0.92545000  1.0
  H  H5  1  0.67169000  0.49504000  0.06818000  1.0
  H  H6  1  0.40863000  0.64006000  0.06962000  1.0
  H  H7  1  0.62018000  0.97481000  0.49375000  1.0
  H  H8  1  0.37989000  0.02423000  0.50576000  1.0
  H  H9  1  0.00390000  0.57779000  0.43245000  1.0
  H  H10  1  0.33990000  0.47966000  0.93064000  1.0
  H  H11  1  0.42141000  0.37130000  0.93010000  1.0
  H  H12  1  0.41816000  0.37398000  0.07636000  1.0
  C  C13  1  0.54280000  0.31311000  0.49821000  1.0
  C  C14  1  0.45340000  0.97833000  0.50200000  1.0
  C  C15  1  0.54669000  0.02075000  0.49739000  1.0
  C  C16  1  0.50040000  0.50002000  0.66205000  1.0
  C  C17  1  0.55175000  0.12121000  0.49725000  1.0
  C  C18  1  0.44853000  0.87783000  0.50200000  1.0
  C  C19  1  0.55292000  0.20896000  0.49725000  1.0
  C  C20  1  0.96790000  0.52977000  0.47718000  1.0
  C  C21  1  0.02984000  0.47208000  0.52516000  1.0
  C  C22  1  0.14152000  0.47072000  0.51995000  1.0
  C  C23  1  0.85763000  0.52886000  0.48308000  1.0
  C  C24  1  0.60718000  0.45541000  0.04641000  1.0
  C  C25  1  0.45896000  0.68591000  0.50097000  1.0
  C  C26  1  0.49466000  0.49877000  0.33835000  1.0
  C  C27  1  0.60796000  0.45265000  0.95103000  1.0
  C  C28  1  0.41237000  0.44514000  0.95460000  1.0
  C  C29  1  0.40979000  0.44718000  0.05063000  1.0
  C  C30  1  0.49553000  0.50003000  0.24818000  1.0
  C  C31  1  0.50455000  0.50125000  0.91762000  1.0
  C  C32  1  0.50130000  0.50329000  0.08217000  1.0
  C  C33  1  0.48547000  0.60697000  0.04746000  1.0
  C  C34  1  0.49033000  0.60633000  0.95164000  1.0
  C  C35  1  0.49866000  0.50304000  0.17261000  1.0
  C  C36  1  0.50545000  0.50114000  0.82735000  1.0
  C  C37  1  0.50196000  0.50046000  0.75205000  1.0
  C  C38  1  0.44787000  0.79003000  0.50174000  1.0
  Br  Br39  1  0.73278000  0.51243000  0.90181000  1.0
  Br  Br40  1  0.58675000  0.69319000  0.09007000  1.0
  N  N41  1  0.76666000  0.52815000  0.48710000  1.0
  N  N42  1  0.23243000  0.47083000  0.51435000  1.0
  O  O43  1  0.62650000  0.35775000  0.49626000  1.0
  O  O44  1  0.44819000  0.35060000  0.50095000  1.0
  O  O45  1  0.58876000  0.50523000  0.62273000  1.0
  O  O46  1  0.41108000  0.49442000  0.63084000  1.0
  O  O47  1  0.55361000  0.64898000  0.49586000  1.0
  O  O48  1  0.37550000  0.64066000  0.50532000  1.0
  O  O49  1  0.58381000  0.50071000  0.37044000  1.0
  O  O50  1  0.40524000  0.49593000  0.37668000  1.0
  F  F51  1  0.99095000  0.41154000  0.58125000  1.0
  F  F52  1  0.61740000  0.35701000  0.92382000  1.0
  F  F53  1  0.39439000  0.64947000  0.92446000  1.0
