# generated using pymatgen
data_ZnH14C14(NO)4
_symmetry_space_group_name_H-M   'P 1'
_cell_length_a   7.64138000
_cell_length_b   9.46654000
_cell_length_c   11.06536696
_cell_angle_alpha   97.06492042
_cell_angle_beta   109.98701537
_cell_angle_gamma   95.24330000
_symmetry_Int_Tables_number   1
_chemical_formula_structural   ZnH14C14(NO)4
_chemical_formula_sum   'Zn2 H28 C28 N8 O8'
_cell_volume   738.83943535
_cell_formula_units_Z   2
loop_
 _symmetry_equiv_pos_site_id
 _symmetry_equiv_pos_as_xyz
  1  'x, y, z'
loop_
 _atom_site_type_symbol
 _atom_site_label
 _atom_site_symmetry_multiplicity
 _atom_site_fract_x
 _atom_site_fract_y
 _atom_site_fract_z
 _atom_site_occupancy
  Zn  Zn0  1  0.18612000  0.97075000  0.75550000  1.0
  Zn  Zn1  1  0.70888000  0.12606000  0.22566000  1.0
  H  H2  1  0.30247000  0.21720000  0.98269000  1.0
  H  H3  1  0.88893000  0.40238000  0.23985000  1.0
  H  H4  1  0.17457000  0.70754000  0.61693000  1.0
  H  H5  1  0.87962000  0.16070000  0.06095000  1.0
  H  H6  1  0.68243000  0.23373000  0.02321000  1.0
  H  H7  1  0.44457000  0.94348000  0.64778000  1.0
  H  H8  1  0.48414000  0.85810000  0.77611000  1.0
  H  H9  1  0.00663000  0.23141000  0.40065000  1.0
  H  H10  1  0.95971000  0.07960000  0.45646000  1.0
  H  H11  1  0.03012000  0.96069000  0.26806000  1.0
  H  H12  1  0.44255000  0.18586000  0.77825000  1.0
  H  H13  1  0.23245000  0.23806000  0.74701000  1.0
  H  H14  1  0.08120000  0.81993000  0.09825000  1.0
  H  H15  1  0.96452000  0.47773000  0.77845000  1.0
  H  H16  1  0.00740000  0.64477000  0.23295000  1.0
  H  H17  1  0.89435000  0.30169000  0.90688000  1.0
  H  H18  1  0.82040000  0.60616000  0.54660000  1.0
  H  H19  1  0.28270000  0.35432000  0.32098000  1.0
  H  H20  1  0.67043000  0.77264000  0.65272000  1.0
  H  H21  1  0.12837000  0.51804000  0.43271000  1.0
  H  H22  1  0.48457000  0.69269000  0.19342000  1.0
  H  H23  1  0.58943000  0.68030000  0.83471000  1.0
  H  H24  1  0.38565000  0.42890000  0.14236000  1.0
  H  H25  1  0.48910000  0.42148000  0.78098000  1.0
  H  H26  1  0.28614000  0.24884000  0.54364000  1.0
  H  H27  1  0.62393000  0.25767000  0.67749000  1.0
  H  H28  1  0.65776000  0.88937000  0.42252000  1.0
  H  H29  1  0.32348000  0.87817000  0.28760000  1.0
  C  C30  1  0.07707000  0.76143000  0.85184000  1.0
  C  C31  1  0.02807000  0.66004000  0.93058000  1.0
  C  C32  1  0.03982000  0.70549000  0.05922000  1.0
  C  C33  1  0.97344000  0.51366000  0.87807000  1.0
  C  C34  1  0.99931000  0.60852000  0.13347000  1.0
  C  C35  1  0.93285000  0.41477000  0.95101000  1.0
  C  C36  1  0.94557000  0.46087000  0.07986000  1.0
  C  C37  1  0.66023000  0.37144000  0.36375000  1.0
  C  C38  1  0.56301000  0.46941000  0.42495000  1.0
  C  C39  1  0.66830000  0.58805000  0.51885000  1.0
  C  C40  1  0.36689000  0.44553000  0.39449000  1.0
  C  C41  1  0.58313000  0.68179000  0.58025000  1.0
  C  C42  1  0.28017000  0.53673000  0.45589000  1.0
  C  C43  1  0.38706000  0.65793000  0.54873000  1.0
  C  C44  1  0.59752000  0.86483000  0.04531000  1.0
  C  C45  1  0.53890000  0.70598000  0.01582000  1.0
  C  C46  1  0.48461000  0.63240000  0.10311000  1.0
  C  C47  1  0.53858000  0.62696000  0.90050000  1.0
  C  C48  1  0.42955000  0.48496000  0.07500000  1.0
  C  C49  1  0.48394000  0.47889000  0.87098000  1.0
  C  C50  1  0.42988000  0.40681000  0.95875000  1.0
  C  C51  1  0.27894000  0.06021000  0.40776000  1.0
  C  C52  1  0.36511000  0.16707000  0.51875000  1.0
  C  C53  1  0.55441000  0.17304000  0.59323000  1.0
  C  C54  1  0.66242000  0.07301000  0.56100000  1.0
  C  C55  1  0.57615000  0.96812000  0.44870000  1.0
  C  C56  1  0.38764000  0.96097000  0.37367000  1.0
  C  C57  1  0.85955000  0.07427000  0.64918000  1.0
  N  N58  1  0.38897000  0.25556000  0.93788000  1.0
  N  N59  1  0.91343000  0.36405000  0.15676000  1.0
  N  N60  1  0.28941000  0.75010000  0.59860000  1.0
  N  N61  1  0.80543000  0.22707000  0.09841000  1.0
  N  N62  1  0.38158000  0.87524000  0.69088000  1.0
  N  N63  1  0.96567000  0.12220000  0.37517000  1.0
  N  N64  1  0.09339000  0.05631000  0.32665000  1.0
  N  N65  1  0.32848000  0.18393000  0.80697000  1.0
  O  O66  1  0.05290000  0.71776000  0.73344000  1.0
  O  O67  1  0.14529000  0.89431000  0.90551000  1.0
  O  O68  1  0.55827000  0.25604000  0.28509000  1.0
  O  O69  1  0.83562000  0.40096000  0.38856000  1.0
  O  O70  1  0.62292000  0.92308000  0.16427000  1.0
  O  O71  1  0.62101000  0.93351000  0.96041000  1.0
  O  O72  1  0.91794000  0.14012000  0.76400000  1.0
  O  O73  1  0.96552000  0.00102000  0.60113000  1.0
