# generated using pymatgen
data_ZnH3C5BrN4
_symmetry_space_group_name_H-M   'P 1'
_cell_length_a   10.17430000
_cell_length_b   13.79360000
_cell_length_c   14.10310000
_cell_angle_alpha   88.57220000
_cell_angle_beta   89.99990000
_cell_angle_gamma   89.99990000
_symmetry_Int_Tables_number   1
_chemical_formula_structural   ZnH3C5BrN4
_chemical_formula_sum   'Zn8 H24 C40 Br8 N32'
_cell_volume   1978.61770304
_cell_formula_units_Z   8
loop_
 _symmetry_equiv_pos_site_id
 _symmetry_equiv_pos_as_xyz
  1  'x, y, z'
loop_
 _atom_site_type_symbol
 _atom_site_label
 _atom_site_symmetry_multiplicity
 _atom_site_fract_x
 _atom_site_fract_y
 _atom_site_fract_z
 _atom_site_occupancy
  Zn  Zn0  1  0.08452000  0.65942000  0.32488000  1.0
  Zn  Zn1  1  0.58452000  0.84058000  0.17512000  1.0
  Zn  Zn2  1  0.91548000  0.34058000  0.67512000  1.0
  Zn  Zn3  1  0.41548000  0.15942000  0.82488000  1.0
  Zn  Zn4  1  0.50426000  0.68988000  0.65303000  1.0
  Zn  Zn5  1  0.00426000  0.81012000  0.84697000  1.0
  Zn  Zn6  1  0.49573000  0.31012000  0.34697000  1.0
  Zn  Zn7  1  0.99573000  0.18988000  0.15303000  1.0
  H  H8  1  0.89679000  0.73428000  0.47133000  1.0
  H  H9  1  0.39680000  0.76572000  0.02867000  1.0
  H  H10  1  0.10320000  0.26572000  0.52867000  1.0
  H  H11  1  0.60320000  0.23428000  0.97133000  1.0
  H  H12  1  0.30440000  0.75405000  0.82005000  1.0
  H  H13  1  0.80439000  0.74595000  0.67995000  1.0
  H  H14  1  0.69560000  0.24595000  0.17995000  1.0
  H  H15  1  0.19561000  0.25405000  0.32005000  1.0
  H  H16  1  0.30203000  0.68084000  0.46944000  1.0
  H  H17  1  0.80203000  0.81916000  0.03056000  1.0
  H  H18  1  0.69797000  0.31916000  0.53056000  1.0
  H  H19  1  0.19797000  0.18084000  0.96944000  1.0
  H  H20  1  0.69173000  0.46460000  0.28458000  1.0
  H  H21  1  0.19173000  0.03540000  0.21542000  1.0
  H  H22  1  0.30827000  0.53540000  0.71541000  1.0
  H  H23  1  0.80827000  0.96460000  0.78458000  1.0
  H  H24  1  0.28475000  0.82060000  0.24083000  1.0
  H  H25  1  0.78475000  0.67940000  0.25917000  1.0
  H  H26  1  0.71525000  0.17940000  0.75918000  1.0
  H  H27  1  0.21526000  0.32060000  0.74083000  1.0
  H  H28  1  0.29009000  0.46564000  0.34945000  1.0
  H  H29  1  0.79009000  0.03435000  0.15054000  1.0
  H  H30  1  0.70992000  0.53436000  0.65055000  1.0
  H  H31  1  0.20991000  0.96564000  0.84945000  1.0
  C  C32  1  0.98885000  0.73264000  0.51116000  1.0
  C  C33  1  0.48885000  0.76735000  0.98884000  1.0
  C  C34  1  0.01115000  0.26735000  0.48884000  1.0
  C  C35  1  0.51115000  0.23265000  0.01116000  1.0
  C  C36  1  0.09766000  0.75040000  0.64784000  1.0
  C  C37  1  0.59767000  0.74960000  0.85216000  1.0
  C  C38  1  0.90233000  0.24959000  0.35216000  1.0
  C  C39  1  0.40233000  0.25040000  0.14784000  1.0
  C  C40  1  0.25284000  0.74944000  0.75247000  1.0
  C  C41  1  0.75284000  0.75056000  0.74753000  1.0
  C  C42  1  0.74716000  0.25056000  0.24753000  1.0
  C  C43  1  0.24716000  0.24944000  0.25247000  1.0
  C  C44  1  0.21793000  0.72418000  0.60416000  1.0
  C  C45  1  0.71793000  0.77582000  0.89584000  1.0
  C  C46  1  0.78206000  0.27582000  0.39585000  1.0
  C  C47  1  0.28206000  0.22418000  0.10416000  1.0
  C  C48  1  0.21482000  0.70146000  0.50921000  1.0
  C  C49  1  0.71482000  0.79854000  0.99079000  1.0
  C  C50  1  0.78517000  0.29853000  0.49079000  1.0
  C  C51  1  0.28517000  0.20146000  0.00921000  1.0
  C  C52  1  0.60006000  0.50568000  0.28536000  1.0
  C  C53  1  0.10006000  0.99432000  0.21464000  1.0
  C  C54  1  0.39994000  0.49432000  0.71463000  1.0
  C  C55  1  0.89994000  0.00568000  0.78536000  1.0
  C  C56  1  0.49070000  0.64455000  0.25875000  1.0
  C  C57  1  0.99070000  0.85545000  0.24125000  1.0
  C  C58  1  0.50930000  0.35545000  0.74126000  1.0
  C  C59  1  0.00930000  0.14455000  0.75874000  1.0
  C  C60  1  0.33621000  0.75183000  0.25188000  1.0
  C  C61  1  0.83620000  0.74817000  0.24812000  1.0
  C  C62  1  0.66380000  0.24817000  0.74812000  1.0
  C  C63  1  0.16380000  0.25183000  0.75188000  1.0
  C  C64  1  0.37130000  0.60171000  0.29161000  1.0
  C  C65  1  0.87130000  0.89829000  0.20839000  1.0
  C  C66  1  0.62870000  0.39829000  0.70840000  1.0
  C  C67  1  0.12870000  0.10171000  0.79160000  1.0
  C  C68  1  0.37542000  0.50550000  0.32216000  1.0
  C  C69  1  0.87542000  0.99450000  0.17784000  1.0
  C  C70  1  0.62459000  0.49450000  0.67784000  1.0
  C  C71  1  0.12459000  0.00550000  0.82216000  1.0
  Br  Br72  1  0.99757000  0.50150000  0.31838000  1.0
  Br  Br73  1  0.49756000  0.99850000  0.18162000  1.0
  Br  Br74  1  0.00244000  0.49850000  0.68162000  1.0
  Br  Br75  1  0.50245000  0.00150000  0.81838000  1.0
  Br  Br76  1  0.59217000  0.71784000  0.50005000  1.0
  Br  Br77  1  0.09215000  0.78220000  0.99996000  1.0
  Br  Br78  1  0.40782000  0.28217000  0.49995000  1.0
  Br  Br79  1  0.90783000  0.21785000  0.00005000  1.0
  N  N80  1  0.09822000  0.70524000  0.46374000  1.0
  N  N81  1  0.59822000  0.79476000  0.03627000  1.0
  N  N82  1  0.90178000  0.29476000  0.53626000  1.0
  N  N83  1  0.40178000  0.20524000  0.96374000  1.0
  N  N84  1  0.98299000  0.75676000  0.60175000  1.0
  N  N85  1  0.48300000  0.74323000  0.89825000  1.0
  N  N86  1  0.01700000  0.24323000  0.39825000  1.0
  N  N87  1  0.51701000  0.25676000  0.10175000  1.0
  N  N88  1  0.12232000  0.76570000  0.74190000  1.0
  N  N89  1  0.62232000  0.73430000  0.75810000  1.0
  N  N90  1  0.87767000  0.23430000  0.25810000  1.0
  N  N91  1  0.37768000  0.26570000  0.24190000  1.0
  N  N92  1  0.31533000  0.72495000  0.67226000  1.0
  N  N93  1  0.81533000  0.77504000  0.82774000  1.0
  N  N94  1  0.68467000  0.27504000  0.32774000  1.0
  N  N95  1  0.18467000  0.22495000  0.17226000  1.0
  N  N96  1  0.49170000  0.45844000  0.31801000  1.0
  N  N97  1  0.99169000  0.04156000  0.18199000  1.0
  N  N98  1  0.50830000  0.54155000  0.68199000  1.0
  N  N99  1  0.00831000  0.95845000  0.81801000  1.0
  N  N100  1  0.60532000  0.59754000  0.25478000  1.0
  N  N101  1  0.10532000  0.90246000  0.24522000  1.0
  N  N102  1  0.39469000  0.40246000  0.74522000  1.0
  N  N103  1  0.89469000  0.09754000  0.75478000  1.0
  N  N104  1  0.46580000  0.73946000  0.23399000  1.0
  N  N105  1  0.96581000  0.76054000  0.26601000  1.0
  N  N106  1  0.53420000  0.26054000  0.76602000  1.0
  N  N107  1  0.03420000  0.23946000  0.73398000  1.0
  N  N108  1  0.27438000  0.67187000  0.28593000  1.0
  N  N109  1  0.77438000  0.82813000  0.21407000  1.0
  N  N110  1  0.72562000  0.32813000  0.71408000  1.0
  N  N111  1  0.22562000  0.17187000  0.78593000  1.0
