# generated using pymatgen
data_Zr6H23C50N2Cl5O36
_symmetry_space_group_name_H-M   'P 1'
_cell_length_a   14.74990203
_cell_length_b   14.76090000
_cell_length_c   14.77570000
_cell_angle_alpha   119.90410000
_cell_angle_beta   119.83464376
_cell_angle_gamma   89.66860705
_symmetry_Int_Tables_number   1
_chemical_formula_structural   Zr6H23C50N2Cl5O36
_chemical_formula_sum   'Zr6 H23 C50 N2 Cl5 O36'
_cell_volume   2290.12575525
_cell_formula_units_Z   1
loop_
 _symmetry_equiv_pos_site_id
 _symmetry_equiv_pos_as_xyz
  1  'x, y, z'
loop_
 _atom_site_type_symbol
 _atom_site_label
 _atom_site_symmetry_multiplicity
 _atom_site_fract_x
 _atom_site_fract_y
 _atom_site_fract_z
 _atom_site_occupancy
  Zr  Zr0  1  0.61489000  0.11636000  0.49327000  1.0
  Zr  Zr1  1  0.38020000  0.88071000  0.50077000  1.0
  Zr  Zr2  1  0.61698000  0.11740000  0.73384000  1.0
  Zr  Zr3  1  0.37822000  0.87843000  0.25838000  1.0
  Zr  Zr4  1  0.37598000  0.11706000  0.49502000  1.0
  Zr  Zr5  1  0.61718000  0.87727000  0.49525000  1.0
  H  H6  1  0.58783000  0.27956000  0.68072000  1.0
  H  H7  1  0.21530000  0.90576000  0.31220000  1.0
  H  H8  1  0.59464000  0.90592000  0.68656000  1.0
  H  H9  1  0.59140000  0.90242000  0.30667000  1.0
  H  H10  1  0.58795000  0.37285000  0.41034000  1.0
  H  H11  1  0.40290000  0.44863000  0.57545000  1.0
  H  H12  1  0.58746000  0.54688000  0.41810000  1.0
  H  H13  1  0.90021000  0.12563000  0.46503000  1.0
  H  H14  1  0.94771000  0.90162000  0.57775000  1.0
  H  H15  1  0.07356000  0.12215000  0.47138000  1.0
  H  H16  1  0.08597000  0.15334000  0.21847000  1.0
  H  H17  1  0.09622000  0.85901000  0.94241000  1.0
  H  H18  1  0.91789000  0.14608000  0.04128000  1.0
  H  H19  1  0.63438000  0.56673000  0.21901000  1.0
  H  H20  1  0.34677000  0.58435000  0.94394000  1.0
  H  H21  1  0.62621000  0.39806000  0.04109000  1.0
  H  H22  1  0.96618000  0.36579000  0.70613000  1.0
  H  H23  1  0.88076000  0.45177000  0.70510000  1.0
  H  H24  1  0.05058000  0.62115000  0.87672000  1.0
  H  H25  1  0.13592000  0.53504000  0.87633000  1.0
  H  H26  1  0.34782000  0.85957000  0.93193000  1.0
  H  H27  1  0.63228000  0.15144000  0.23112000  1.0
  H  H28  1  0.35779000  0.86879000  0.77168000  1.0
  C  C29  1  0.49210000  0.29724000  0.48699000  1.0
  C  C30  1  0.20200000  0.00495000  0.51383000  1.0
  C  C31  1  0.49703000  0.69459000  0.49748000  1.0
  C  C32  1  0.80581000  0.00506000  0.50593000  1.0
  C  C33  1  0.80257000  0.29746000  0.79699000  1.0
  C  C34  1  0.49087000  0.00066000  0.19042000  1.0
  C  C35  1  0.20152000  0.69059000  0.19730000  1.0
  C  C36  1  0.49888000  0.00818000  0.80575000  1.0
  C  C37  1  0.48831000  0.29693000  0.79480000  1.0
  C  C38  1  0.80724000  0.99936000  0.79469000  1.0
  C  C39  1  0.49426000  0.68877000  0.19412000  1.0
  C  C40  1  0.19754000  0.00305000  0.19310000  1.0
  C  C41  1  0.49669000  0.59549000  0.50160000  1.0
  C  C42  1  0.49365000  0.39994000  0.49044000  1.0
  C  C43  1  0.44647000  0.56852000  0.54902000  1.0
  C  C44  1  0.54776000  0.42766000  0.44776000  1.0
  C  C45  1  0.44323000  0.47008000  0.54069000  1.0
  C  C46  1  0.54779000  0.52397000  0.45259000  1.0
  C  C47  1  0.10702000  0.00977000  0.52599000  1.0
  C  C48  1  0.91257000  0.01144000  0.51795000  1.0
  C  C49  1  0.07265000  0.94976000  0.56011000  1.0
  C  C50  1  0.94888000  0.07654000  0.49110000  1.0
  C  C51  1  0.97521000  0.94989000  0.55413000  1.0
  C  C52  1  0.04463000  0.07457000  0.49475000  1.0
  C  C53  1  0.91098000  0.99870000  0.89262000  1.0
  C  C54  1  0.10006000  0.00512000  0.09069000  1.0
  C  C55  1  0.96341000  0.91789000  0.86517000  1.0
  C  C56  1  0.05096000  0.08747000  0.11958000  1.0
  C  C57  1  0.05669000  0.92176000  0.96393000  1.0
  C  C58  1  0.95784000  0.08334000  0.02124000  1.0
  C  C59  1  0.48262000  0.39543000  0.89308000  1.0
  C  C60  1  0.49054000  0.58550000  0.09168000  1.0
  C  C61  1  0.40249000  0.44857000  0.86601000  1.0
  C  C62  1  0.56955000  0.53296000  0.12017000  1.0
  C  C63  1  0.40745000  0.54268000  0.96505000  1.0
  C  C64  1  0.56483000  0.43948000  0.02155000  1.0
  C  C65  1  0.90404000  0.39643000  0.89998000  1.0
  C  C66  1  0.10380000  0.58763000  0.09771000  1.0
  C  C67  1  0.95868000  0.44591000  0.87366000  1.0
  C  C68  1  0.05122000  0.53577000  0.12566000  1.0
  C  C69  1  0.05353000  0.53876000  0.96848000  1.0
  C  C70  1  0.95362000  0.44620000  0.03101000  1.0
  C  C71  1  0.95465000  0.44036000  0.76651000  1.0
  C  C72  1  0.06114000  0.54618000  0.87363000  1.0
  C  C73  1  0.49926000  0.01363000  0.90974000  1.0
  C  C74  1  0.49032000  0.00496000  0.09126000  1.0
  C  C75  1  0.57700000  0.09499000  0.04110000  1.0
  C  C76  1  0.41157000  0.92487000  0.96153000  1.0
  C  C77  1  0.57177000  0.08958000  0.13005000  1.0
  C  C78  1  0.41710000  0.93008000  0.87318000  1.0
  N  N79  1  0.09970000  0.57355000  0.25915000  1.0
  N  N80  1  0.90147000  0.40687000  0.07470000  1.0
  Cl  Cl81  1  0.39274000  0.65494000  0.62577000  1.0
  Cl  Cl82  1  0.14560000  0.87546000  0.61286000  1.0
  Cl  Cl83  1  0.92011000  0.80951000  0.71353000  1.0
  Cl  Cl84  1  0.29480000  0.40621000  0.71452000  1.0
  Cl  Cl85  1  0.68239000  0.20442000  0.10348000  1.0
  O  O86  1  0.56855000  0.25692000  0.48497000  1.0
  O  O87  1  0.24047000  0.92607000  0.50789000  1.0
  O  O88  1  0.42039000  0.73562000  0.49582000  1.0
  O  O89  1  0.76279000  0.07902000  0.49947000  1.0
  O  O90  1  0.76287000  0.25621000  0.83266000  1.0
  O  O91  1  0.41605000  0.92230000  0.15291000  1.0
  O  O92  1  0.23702000  0.72900000  0.15621000  1.0
  O  O93  1  0.57536000  0.08079000  0.83746000  1.0
  O  O94  1  0.41453000  0.25688000  0.67823000  1.0
  O  O95  1  0.76359000  0.92221000  0.67811000  1.0
  O  O96  1  0.57258000  0.72826000  0.30923000  1.0
  O  O97  1  0.23370000  0.07828000  0.30818000  1.0
  O  O98  1  0.76780000  0.07595000  0.83439000  1.0
  O  O99  1  0.41911000  0.73093000  0.15814000  1.0
  O  O100  1  0.23616000  0.92429000  0.15719000  1.0
  O  O101  1  0.56794000  0.26057000  0.83419000  1.0
  O  O102  1  0.76458000  0.26305000  0.68304000  1.0
  O  O103  1  0.42292000  0.92978000  0.69155000  1.0
  O  O104  1  0.23835000  0.73248000  0.31268000  1.0
  O  O105  1  0.56819000  0.07532000  0.30605000  1.0
  O  O106  1  0.76468000  0.92547000  0.50069000  1.0
  O  O107  1  0.41634000  0.25895000  0.48910000  1.0
  O  O108  1  0.23538000  0.07807000  0.50498000  1.0
  O  O109  1  0.57328000  0.73044000  0.49418000  1.0
  O  O110  1  0.56429000  0.92928000  0.36009000  1.0
  O  O111  1  0.56659000  0.93162000  0.63183000  1.0
  O  O112  1  0.29533000  0.93090000  0.36303000  1.0
  O  O113  1  0.56364000  0.19955000  0.62837000  1.0
  O  O114  1  0.44828000  0.04847000  0.59582000  1.0
  O  O115  1  0.44644000  0.04690000  0.39553000  1.0
  O  O116  1  0.44851000  0.84958000  0.39847000  1.0
  O  O117  1  0.64578000  0.04690000  0.59308000  1.0
  O  O118  1  0.17531000  0.53985000  0.30398000  1.0
  O  O119  1  0.05726000  0.63106000  0.31110000  1.0
  O  O120  1  0.82541000  0.44056000  0.07673000  1.0
  O  O121  1  0.94159000  0.34779000  0.11011000  1.0
