# generated using pymatgen
data_CuH11C9IN6
_symmetry_space_group_name_H-M   'P 1'
_cell_length_a   6.10552000
_cell_length_b   7.73437000
_cell_length_c   14.05660000
_cell_angle_alpha   90.00010000
_cell_angle_beta   90.00000000
_cell_angle_gamma   89.99980000
_symmetry_Int_Tables_number   1
_chemical_formula_structural   CuH11C9IN6
_chemical_formula_sum   'Cu2 H22 C18 I2 N12'
_cell_volume   663.78569516
_cell_formula_units_Z   2
loop_
 _symmetry_equiv_pos_site_id
 _symmetry_equiv_pos_as_xyz
  1  'x, y, z'
loop_
 _atom_site_type_symbol
 _atom_site_label
 _atom_site_symmetry_multiplicity
 _atom_site_fract_x
 _atom_site_fract_y
 _atom_site_fract_z
 _atom_site_occupancy
  Cu  Cu0  1  0.80280000  0.61979000  0.50000000  1.0
  Cu  Cu1  1  0.19720000  0.11979000  0.00000000  1.0
  H  H2  1  0.98050000  0.74884000  0.14940000  1.0
  H  H3  1  0.01949000  0.24885000  0.35061000  1.0
  H  H4  1  0.01949000  0.24885000  0.64939000  1.0
  H  H5  1  0.98051000  0.74884000  0.85061000  1.0
  H  H6  1  0.49408000  0.51908000  0.32259000  1.0
  H  H7  1  0.50593000  0.01909000  0.17741000  1.0
  H  H8  1  0.50593000  0.01909000  0.82259000  1.0
  H  H9  1  0.49408000  0.51908000  0.67741000  1.0
  H  H10  1  0.60388000  0.60474000  0.13641000  1.0
  H  H11  1  0.39612000  0.10475000  0.36360000  1.0
  H  H12  1  0.39612000  0.10475000  0.63640000  1.0
  H  H13  1  0.60389000  0.60474000  0.86360000  1.0
  H  H14  1  0.10215000  0.77971000  0.32308000  1.0
  H  H15  1  0.89785000  0.27972000  0.17692000  1.0
  H  H16  1  0.89785000  0.27972000  0.82308000  1.0
  H  H17  1  0.10215000  0.77971000  0.67692000  1.0
  H  H18  1  0.53396000  0.94182000  0.50000000  1.0
  H  H19  1  0.46603000  0.44182000  1.00000000  1.0
  H  H20  1  0.29903000  0.42904000  0.50000000  1.0
  H  H21  1  0.70097000  0.92903000  0.00000000  1.0
  H  H22  1  0.07699000  0.94640000  0.50000000  1.0
  H  H23  1  0.92300000  0.44639000  0.00000000  1.0
  C  C24  1  0.63622000  0.58632000  0.29514000  1.0
  C  C25  1  0.36378000  0.08633000  0.20486000  1.0
  C  C26  1  0.36378000  0.08632000  0.79514000  1.0
  C  C27  1  0.63623000  0.58632000  0.70486000  1.0
  C  C28  1  0.68909000  0.62721000  0.20283000  1.0
  C  C29  1  0.31091000  0.12721000  0.29717000  1.0
  C  C30  1  0.31091000  0.12721000  0.70283000  1.0
  C  C31  1  0.68909000  0.62721000  0.79717000  1.0
  C  C32  1  0.95136000  0.71969000  0.29934000  1.0
  C  C33  1  0.04864000  0.21970000  0.20066000  1.0
  C  C34  1  0.04864000  0.21970000  0.79934000  1.0
  C  C35  1  0.95137000  0.71969000  0.70066000  1.0
  C  C36  1  0.41687000  0.83595000  0.50000000  1.0
  C  C37  1  0.58313000  0.33595000  1.00000000  1.0
  C  C38  1  0.30033000  0.56936000  0.50000000  1.0
  C  C39  1  0.69967000  0.06935000  0.00000000  1.0
  C  C40  1  0.19091000  0.83827000  0.50000000  1.0
  C  C41  1  0.80909000  0.33826000  0.00000000  1.0
  I  I42  1  0.78770000  0.24464000  0.50000000  1.0
  I  I43  1  0.21231000  0.74464000  0.00000000  1.0
  N  N44  1  0.80092000  0.64467000  0.35459000  1.0
  N  N45  1  0.19908000  0.14468000  0.14541000  1.0
  N  N46  1  0.19908000  0.14468000  0.85459000  1.0
  N  N47  1  0.80093000  0.64467000  0.64541000  1.0
  N  N48  1  0.88747000  0.71198000  0.20728000  1.0
  N  N49  1  0.11253000  0.21198000  0.29272000  1.0
  N  N50  1  0.11253000  0.21198000  0.70728000  1.0
  N  N51  1  0.88748000  0.71198000  0.79272000  1.0
  N  N52  1  0.48387000  0.66625000  0.50000000  1.0
  N  N53  1  0.51613000  0.16625000  0.00000000  1.0
  N  N54  1  0.11940000  0.66918000  0.50000000  1.0
  N  N55  1  0.88060000  0.16917000  0.00000000  1.0
