# generated using pymatgen
data_CoH12(C5O3)2
_symmetry_space_group_name_H-M   'P 1'
_cell_length_a   5.31742000
_cell_length_b   9.15692000
_cell_length_c   10.25560000
_cell_angle_alpha   100.72400000
_cell_angle_beta   89.99630000
_cell_angle_gamma   89.99930000
_symmetry_Int_Tables_number   1
_chemical_formula_structural   CoH12(C5O3)2
_chemical_formula_sum   'Co2 H24 C20 O12'
_cell_volume   490.63605527
_cell_formula_units_Z   2
loop_
 _symmetry_equiv_pos_site_id
 _symmetry_equiv_pos_as_xyz
  1  'x, y, z'
loop_
 _atom_site_type_symbol
 _atom_site_label
 _atom_site_symmetry_multiplicity
 _atom_site_fract_x
 _atom_site_fract_y
 _atom_site_fract_z
 _atom_site_occupancy
  Co  Co0  1  0.00001000  0.50000000  0.50001000  1.0
  Co  Co1  1  0.49999000  0.00000000  0.50000000  1.0
  H  H2  1  0.24020000  0.57532000  0.20254000  1.0
  H  H3  1  0.74016000  0.92471000  0.79755000  1.0
  H  H4  1  0.75981000  0.42466000  0.79746000  1.0
  H  H5  1  0.25983000  0.07530000  0.20244000  1.0
  H  H6  1  0.90306000  0.62691000  0.97583000  1.0
  H  H7  1  0.40299000  0.87298000  0.02410000  1.0
  H  H8  1  0.09695000  0.37309000  0.02418000  1.0
  H  H9  1  0.59700000  0.12702000  0.97591000  1.0
  H  H10  1  0.54341000  0.83410000  0.22336000  1.0
  H  H11  1  0.04307000  0.66601000  0.77661000  1.0
  H  H12  1  0.45657000  0.16588000  0.77663000  1.0
  H  H13  1  0.95696000  0.33400000  0.22338000  1.0
  H  H14  1  0.85574000  0.78218000  0.18134000  1.0
  H  H15  1  0.35547000  0.71760000  0.81853000  1.0
  H  H16  1  0.14428000  0.21780000  0.81864000  1.0
  H  H17  1  0.64453000  0.28241000  0.18147000  1.0
  H  H18  1  0.33737000  0.31934000  0.42953000  1.0
  H  H19  1  0.83731000  0.18067000  0.57051000  1.0
  H  H20  1  0.66264000  0.68066000  0.57048000  1.0
  H  H21  1  0.16268000  0.81933000  0.42948000  1.0
  H  H22  1  0.46216000  0.45290000  0.37336000  1.0
  H  H23  1  0.96212000  0.04714000  0.62668000  1.0
  H  H24  1  0.53784000  0.54711000  0.62665000  1.0
  H  H25  1  0.03790000  0.95286000  0.37331000  1.0
  C  C26  1  0.35662000  0.54260000  0.11432000  1.0
  C  C27  1  0.85656000  0.95740000  0.88575000  1.0
  C  C28  1  0.64339000  0.45739000  0.88568000  1.0
  C  C29  1  0.14344000  0.04258000  0.11425000  1.0
  C  C30  1  0.58461000  0.61534000  0.10233000  1.0
  C  C31  1  0.08457000  0.88465000  0.89765000  1.0
  C  C32  1  0.41538000  0.38467000  0.89767000  1.0
  C  C33  1  0.91542000  0.11535000  0.10235000  1.0
  C  C34  1  0.72523000  0.57149000  0.98633000  1.0
  C  C35  1  0.22520000  0.92845000  0.01362000  1.0
  C  C36  1  0.27476000  0.42852000  0.01367000  1.0
  C  C37  1  0.77482000  0.07156000  0.98638000  1.0
  C  C38  1  0.67354000  0.73984000  0.20980000  1.0
  C  C39  1  0.17343000  0.76017000  0.79016000  1.0
  C  C40  1  0.32646000  0.26015000  0.79019000  1.0
  C  C41  1  0.82658000  0.23985000  0.20984000  1.0
  C  C42  1  0.71531000  0.69611000  0.34381000  1.0
  C  C43  1  0.21526000  0.80386000  0.65619000  1.0
  C  C44  1  0.28469000  0.30388000  0.65620000  1.0
  C  C45  1  0.78472000  0.19614000  0.34380000  1.0
  O  O46  1  0.80479000  0.56659000  0.34554000  1.0
  O  O47  1  0.30470000  0.93338000  0.65446000  1.0
  O  O48  1  0.19520000  0.43340000  0.65447000  1.0
  O  O49  1  0.69527000  0.06663000  0.34554000  1.0
  O  O50  1  0.66734000  0.78821000  0.45121000  1.0
  O  O51  1  0.16733000  0.71181000  0.54878000  1.0
  O  O52  1  0.33263000  0.21180000  0.54879000  1.0
  O  O53  1  0.83266000  0.28818000  0.45122000  1.0
  O  O54  1  0.30353000  0.39919000  0.37684000  1.0
  O  O55  1  0.80345000  0.10083000  0.62318000  1.0
  O  O56  1  0.69648000  0.60081000  0.62316000  1.0
  O  O57  1  0.19657000  0.89917000  0.37682000  1.0
