# generated using pymatgen
data_AgH22C21(N2O)2
_symmetry_space_group_name_H-M   'P 1'
_cell_length_a   9.20641000
_cell_length_b   9.94869000
_cell_length_c   12.32350000
_cell_angle_alpha   76.67110000
_cell_angle_beta   69.91530000
_cell_angle_gamma   66.88130000
_symmetry_Int_Tables_number   1
_chemical_formula_structural   AgH22C21(N2O)2
_chemical_formula_sum   'Ag2 H44 C42 N8 O4'
_cell_volume   968.95272744
_cell_formula_units_Z   2
loop_
 _symmetry_equiv_pos_site_id
 _symmetry_equiv_pos_as_xyz
  1  'x, y, z'
loop_
 _atom_site_type_symbol
 _atom_site_label
 _atom_site_symmetry_multiplicity
 _atom_site_fract_x
 _atom_site_fract_y
 _atom_site_fract_z
 _atom_site_occupancy
  Ag  Ag0  1  0.28006000  0.08900000  0.82159000  1.0
  Ag  Ag1  1  0.71993000  0.91099000  0.17842000  1.0
  H  H2  1  0.90468000  0.68592000  0.44064000  1.0
  H  H3  1  0.09531000  0.31408000  0.55936000  1.0
  H  H4  1  0.81290000  0.47210000  0.53957000  1.0
  H  H5  1  0.18709000  0.52791000  0.46042000  1.0
  H  H6  1  0.55882000  0.50194000  0.70407000  1.0
  H  H7  1  0.44117000  0.49806000  0.29593000  1.0
  H  H8  1  0.38865000  0.74784000  0.77721000  1.0
  H  H9  1  0.61135000  0.25217000  0.22279000  1.0
  H  H10  1  0.79394000  0.12947000  0.40091000  1.0
  H  H11  1  0.20605000  0.87054000  0.59909000  1.0
  H  H12  1  0.85424000  0.95908000  0.34900000  1.0
  H  H13  1  0.14576000  0.04093000  0.65100000  1.0
  H  H14  1  0.04563000  0.84154000  0.47574000  1.0
  H  H15  1  0.95437000  0.15847000  0.52426000  1.0
  H  H16  1  0.09470000  0.98240000  0.37072000  1.0
  H  H17  1  0.90529000  0.01761000  0.62928000  1.0
  H  H18  1  0.44810000  0.27394000  0.65942000  1.0
  H  H19  1  0.55190000  0.72607000  0.34058000  1.0
  H  H20  1  0.53741000  0.28433000  0.50562000  1.0
  H  H21  1  0.46258000  0.71568000  0.49439000  1.0
  H  H22  1  0.66328000  0.24181000  0.59902000  1.0
  H  H23  1  0.33671000  0.75819000  0.40098000  1.0
  H  H24  1  0.09760000  0.76413000  0.93833000  1.0
  H  H25  1  0.90241000  0.23587000  0.06166000  1.0
  H  H26  1  0.97881000  0.85688000  0.77252000  1.0
  H  H27  1  0.02120000  0.14311000  0.22748000  1.0
  H  H28  1  0.98733000  0.68396000  0.65009000  1.0
  H  H29  1  0.01268000  0.31603000  0.34991000  1.0
  H  H30  1  0.11440000  0.41179000  0.69497000  1.0
  H  H31  1  0.88561000  0.58820000  0.30503000  1.0
  H  H32  1  0.29164000  0.42260000  0.15329000  1.0
  H  H33  1  0.70837000  0.57740000  0.84671000  1.0
  H  H34  1  0.16184000  0.60090000  0.11529000  1.0
  H  H35  1  0.83817000  0.39910000  0.88470000  1.0
  H  H36  1  0.39196000  0.65657000  0.96335000  1.0
  H  H37  1  0.60805000  0.34343000  0.03664000  1.0
  H  H38  1  0.43688000  0.60070000  0.09692000  1.0
  H  H39  1  0.56313000  0.39930000  0.90308000  1.0
  H  H40  1  0.32138000  0.20204000  0.14668000  1.0
  H  H41  1  0.67863000  0.79795000  0.85332000  1.0
  H  H42  1  0.50037000  0.15174000  0.02738000  1.0
  H  H43  1  0.49963000  0.84826000  0.97262000  1.0
  H  H44  1  0.33748000  0.08331000  0.05135000  1.0
  H  H45  1  0.66252000  0.91669000  0.94864000  1.0
  C  C46  1  0.58350000  0.06718000  0.59649000  1.0
  C  C47  1  0.41649000  0.93282000  0.40351000  1.0
  C  C48  1  0.69798000  0.83468000  0.55597000  1.0
  C  C49  1  0.30200000  0.16533000  0.44403000  1.0
  C  C50  1  0.79414000  0.69872000  0.51399000  1.0
  C  C51  1  0.20585000  0.30128000  0.48601000  1.0
  C  C52  1  0.74149000  0.57998000  0.57012000  1.0
  C  C53  1  0.25850000  0.42002000  0.42988000  1.0
  C  C54  1  0.59690000  0.59700000  0.66357000  1.0
  C  C55  1  0.40309000  0.40301000  0.33643000  1.0
  C  C56  1  0.50128000  0.73310000  0.70546000  1.0
  C  C57  1  0.49871000  0.26690000  0.29454000  1.0
  C  C58  1  0.55440000  0.85217000  0.65142000  1.0
  C  C59  1  0.44560000  0.14784000  0.34859000  1.0
  C  C60  1  0.83927000  0.01007000  0.42429000  1.0
  C  C61  1  0.16072000  0.98994000  0.57571000  1.0
  C  C62  1  0.00349000  0.96148000  0.45175000  1.0
  C  C63  1  0.99650000  0.03853000  0.54826000  1.0
  C  C64  1  0.55712000  0.22555000  0.58943000  1.0
  C  C65  1  0.44287000  0.77445000  0.41057000  1.0
  C  C66  1  0.28536000  0.30562000  0.98072000  1.0
  C  C67  1  0.71464000  0.69437000  0.01928000  1.0
  C  C68  1  0.17140000  0.53655000  0.90916000  1.0
  C  C69  1  0.82861000  0.46344000  0.09084000  1.0
  C  C70  1  0.10259000  0.68824000  0.88521000  1.0
  C  C71  1  0.89742000  0.31175000  0.11478000  1.0
  C  C72  1  0.03720000  0.73874000  0.79082000  1.0
  C  C73  1  0.96281000  0.26126000  0.20918000  1.0
  C  C74  1  0.04231000  0.64074000  0.72211000  1.0
  C  C75  1  0.95770000  0.35925000  0.27789000  1.0
  C  C76  1  0.11197000  0.48877000  0.74631000  1.0
  C  C77  1  0.88804000  0.51122000  0.25368000  1.0
  C  C78  1  0.17651000  0.43665000  0.84154000  1.0
  C  C79  1  0.82349000  0.56335000  0.15846000  1.0
  C  C80  1  0.27274000  0.50888000  0.08085000  1.0
  C  C81  1  0.72726000  0.49112000  0.91914000  1.0
  C  C82  1  0.42115000  0.56010000  0.02733000  1.0
  C  C83  1  0.57887000  0.43989000  0.97267000  1.0
  C  C84  1  0.36571000  0.17889000  0.05592000  1.0
  C  C85  1  0.63429000  0.82111000  0.94408000  1.0
  C  C86  1  0.94260000  0.04228000  0.95780000  1.0
  C  C87  1  0.05740000  0.95770000  0.04222000  1.0
  N  N88  1  0.48680000  0.99779000  0.67434000  1.0
  N  N89  1  0.51319000  0.00222000  0.32567000  1.0
  N  N90  1  0.71193000  0.97306000  0.52226000  1.0
  N  N91  1  0.28806000  0.02694000  0.47774000  1.0
  N  N92  1  0.24750000  0.29443000  0.88861000  1.0
  N  N93  1  0.75250000  0.70556000  0.11139000  1.0
  N  N94  1  0.24072000  0.45059000  0.99658000  1.0
  N  N95  1  0.75929000  0.54940000  0.00342000  1.0
  O  O96  1  0.00912000  0.08876000  0.85499000  1.0
  O  O97  1  0.99088000  0.91123000  0.14503000  1.0
  O  O98  1  0.79065000  0.05919000  0.99843000  1.0
  O  O99  1  0.20935000  0.94080000  0.00158000  1.0
