# generated using pymatgen
data_Cu2H16C13N4O7
_symmetry_space_group_name_H-M   'P 1'
_cell_length_a   9.70226000
_cell_length_b   9.83978000
_cell_length_c   9.99247000
_cell_angle_alpha   84.18550000
_cell_angle_beta   73.76870000
_cell_angle_gamma   79.04220000
_symmetry_Int_Tables_number   1
_chemical_formula_structural   Cu2H16C13N4O7
_chemical_formula_sum   'Cu4 H32 C26 N8 O14'
_cell_volume   898.06324601
_cell_formula_units_Z   2
loop_
 _symmetry_equiv_pos_site_id
 _symmetry_equiv_pos_as_xyz
  1  'x, y, z'
loop_
 _atom_site_type_symbol
 _atom_site_label
 _atom_site_symmetry_multiplicity
 _atom_site_fract_x
 _atom_site_fract_y
 _atom_site_fract_z
 _atom_site_occupancy
  Cu  Cu0  1  0.15927000  0.05293000  0.93133000  1.0
  Cu  Cu1  1  0.84093000  0.94708000  0.06782000  1.0
  Cu  Cu2  1  0.52656000  0.63406000  0.07652000  1.0
  Cu  Cu3  1  0.47297000  0.36585000  0.92429000  1.0
  H  H4  1  0.07442000  0.21416000  0.74850000  1.0
  H  H5  1  0.92628000  0.78574000  0.25060000  1.0
  H  H6  1  0.97192000  0.09251000  0.80386000  1.0
  H  H7  1  0.02816000  0.90767000  0.19556000  1.0
  H  H8  1  0.52560000  0.40541000  0.19732000  1.0
  H  H9  1  0.47448000  0.59449000  0.80305000  1.0
  H  H10  1  0.62352000  0.48888000  0.26161000  1.0
  H  H11  1  0.37603000  0.51152000  0.73914000  1.0
  H  H12  1  0.11188000  0.08941000  0.55114000  1.0
  H  H13  1  0.88821000  0.91063000  0.44811000  1.0
  H  H14  1  0.11539000  0.93156000  0.65475000  1.0
  H  H15  1  0.88445000  0.06846000  0.34465000  1.0
  H  H16  1  0.34779000  0.11368000  0.61699000  1.0
  H  H17  1  0.65174000  0.88654000  0.38297000  1.0
  H  H18  1  0.36128000  0.99065000  0.49489000  1.0
  H  H19  1  0.63886000  0.00970000  0.50483000  1.0
  H  H20  1  0.35323000  0.79969000  0.67414000  1.0
  H  H21  1  0.64676000  0.20030000  0.32575000  1.0
  H  H22  1  0.50151000  0.88635000  0.65966000  1.0
  H  H23  1  0.49837000  0.11423000  0.33962000  1.0
  H  H24  1  0.18073000  0.74665000  0.33288000  1.0
  H  H25  1  0.81911000  0.25314000  0.66740000  1.0
  H  H26  1  0.27123000  0.88112000  0.35288000  1.0
  H  H27  1  0.72892000  0.11836000  0.64805000  1.0
  H  H28  1  0.47730000  0.70596000  0.39852000  1.0
  H  H29  1  0.52276000  0.29337000  0.60158000  1.0
  H  H30  1  0.30815000  0.67781000  0.51381000  1.0
  H  H31  1  0.69196000  0.32184000  0.48649000  1.0
  H  H32  1  0.41910000  0.45219000  0.44878000  1.0
  H  H33  1  0.58069000  0.54731000  0.55177000  1.0
  H  H34  1  0.30419000  0.50235000  0.33625000  1.0
  H  H35  1  0.69563000  0.49710000  0.66422000  1.0
  C  C36  1  0.14980000  0.03358000  0.63920000  1.0
  C  C37  1  0.85010000  0.96641000  0.36018000  1.0
  C  C38  1  0.31544000  0.01494000  0.60516000  1.0
  C  C39  1  0.68436000  0.98513000  0.39462000  1.0
  C  C40  1  0.38184000  0.89822000  0.69261000  1.0
  C  C41  1  0.61817000  0.10178000  0.30704000  1.0
  C  C42  1  0.38920000  0.84000000  0.92939000  1.0
  C  C43  1  0.61106000  0.16008000  0.07081000  1.0
  C  C44  1  0.31424000  0.86393000  0.08025000  1.0
  C  C45  1  0.68584000  0.13641000  0.91965000  1.0
  C  C46  1  0.28903000  0.77526000  0.31714000  1.0
  C  C47  1  0.71077000  0.22451000  0.68329000  1.0
  C  C48  1  0.37274000  0.67383000  0.40432000  1.0
  C  C49  1  0.62717000  0.32568000  0.59590000  1.0
  C  C50  1  0.40067000  0.52451000  0.36142000  1.0
  C  C51  1  0.59910000  0.47499000  0.63908000  1.0
  C  C52  1  0.18745000  0.44170000  0.08328000  1.0
  C  C53  1  0.81223000  0.55876000  0.91619000  1.0
  C  C54  1  0.17389000  0.31872000  0.02254000  1.0
  C  C55  1  0.82615000  0.68130000  0.97756000  1.0
  C  C56  1  0.03072000  0.28353000  0.08797000  1.0
  C  C57  1  0.96952000  0.71604000  0.91266000  1.0
  C  C58  1  0.94795000  0.38948000  0.18869000  1.0
  C  C59  1  0.05223000  0.61053000  0.81166000  1.0
  C  C60  1  0.04779000  0.49087000  0.18546000  1.0
  C  C61  1  0.95220000  0.50952000  0.81422000  1.0
  N  N62  1  0.07851000  0.10876000  0.76768000  1.0
  N  N63  1  0.92171000  0.89124000  0.23168000  1.0
  N  N64  1  0.32963000  0.92025000  0.84121000  1.0
  N  N65  1  0.67073000  0.07910000  0.15868000  1.0
  N  N66  1  0.36260000  0.77368000  0.16864000  1.0
  N  N67  1  0.63665000  0.22669000  0.83158000  1.0
  N  N68  1  0.52558000  0.49816000  0.23741000  1.0
  N  N69  1  0.47416000  0.50182000  0.76314000  1.0
  O  O70  1  0.20645000  0.96490000  0.10896000  1.0
  O  O71  1  0.79428000  0.03566000  0.88989000  1.0
  O  O72  1  0.49848000  0.74075000  0.89993000  1.0
  O  O73  1  0.50171000  0.25972000  0.10116000  1.0
  O  O74  1  0.30290000  0.49419000  0.04924000  1.0
  O  O75  1  0.69674000  0.50657000  0.94927000  1.0
  O  O76  1  0.27122000  0.25319000  0.92794000  1.0
  O  O77  1  0.72919000  0.74713000  0.07217000  1.0
  O  O78  1  0.98913000  0.17820000  0.05874000  1.0
  O  O79  1  0.01119000  0.82105000  0.94271000  1.0
  O  O80  1  0.82095000  0.39454000  0.26328000  1.0
  O  O81  1  0.17930000  0.60542000  0.73709000  1.0
  O  O82  1  0.01747000  0.59425000  0.25664000  1.0
  O  O83  1  0.98237000  0.40630000  0.74294000  1.0
