# generated using pymatgen
data_H16PbC22(NO3)2
_symmetry_space_group_name_H-M   'P 1'
_cell_length_a   7.96654000
_cell_length_b   11.69520000
_cell_length_c   12.04542307
_cell_angle_alpha   119.04234097
_cell_angle_beta   97.27515096
_cell_angle_gamma   90.00020000
_symmetry_Int_Tables_number   1
_chemical_formula_structural   H16PbC22(NO3)2
_chemical_formula_sum   'H32 Pb2 C44 N4 O12'
_cell_volume   970.81425979
_cell_formula_units_Z   2
loop_
 _symmetry_equiv_pos_site_id
 _symmetry_equiv_pos_as_xyz
  1  'x, y, z'
loop_
 _atom_site_type_symbol
 _atom_site_label
 _atom_site_symmetry_multiplicity
 _atom_site_fract_x
 _atom_site_fract_y
 _atom_site_fract_z
 _atom_site_occupancy
  H  H0  1  0.58081000  0.06632000  0.68268000  1.0
  H  H1  1  0.91919000  0.38364000  0.31732000  1.0
  H  H2  1  0.41918000  0.93369000  0.31732000  1.0
  H  H3  1  0.08081000  0.61636000  0.68268000  1.0
  H  H4  1  0.43220000  0.92781000  0.62874000  1.0
  H  H5  1  0.06779000  0.29907000  0.37126000  1.0
  H  H6  1  0.56779000  0.07219000  0.37126000  1.0
  H  H7  1  0.93221000  0.70093000  0.62874000  1.0
  H  H8  1  0.37808000  0.04759000  0.52432000  1.0
  H  H9  1  0.12192000  0.52328000  0.47568000  1.0
  H  H10  1  0.62193000  0.95241000  0.47568000  1.0
  H  H11  1  0.87808000  0.47672000  0.52432000  1.0
  H  H12  1  0.15801000  0.08878000  0.38678000  1.0
  H  H13  1  0.34198000  0.70201000  0.61322000  1.0
  H  H14  1  0.84198000  0.91121000  0.61321000  1.0
  H  H15  1  0.65802000  0.29799000  0.38678000  1.0
  H  H16  1  0.89653000  0.19239000  0.46915000  1.0
  H  H17  1  0.60346000  0.72323000  0.53085000  1.0
  H  H18  1  0.10346000  0.80762000  0.53086000  1.0
  H  H19  1  0.39654000  0.27676000  0.46914000  1.0
  H  H20  1  0.72733000  0.29315000  0.65360000  1.0
  H  H21  1  0.77267000  0.63956000  0.34640000  1.0
  H  H22  1  0.27267000  0.70684000  0.34640000  1.0
  H  H23  1  0.22733000  0.36044000  0.65360000  1.0
  H  H24  1  0.69611000  0.34711000  0.87750000  1.0
  H  H25  1  0.80390000  0.46960000  0.12250000  1.0
  H  H26  1  0.30389000  0.65289000  0.12250000  1.0
  H  H27  1  0.19610000  0.53040000  0.87750000  1.0
  H  H28  1  0.91919000  0.27829000  0.99816000  1.0
  H  H29  1  0.58081000  0.28013000  0.00184000  1.0
  H  H30  1  0.08081000  0.72171000  0.00184000  1.0
  H  H31  1  0.41919000  0.71987000  0.99816000  1.0
  Pb  Pb32  1  0.75000000  0.90411000  0.00000000  1.0
  Pb  Pb33  1  0.25000000  0.09589000  0.00000000  1.0
  C  C34  1  0.58676000  0.98718000  0.81007000  1.0
  C  C35  1  0.91324000  0.17711000  0.18993000  1.0
  C  C36  1  0.41325000  0.01282000  0.18993000  1.0
  C  C37  1  0.08676000  0.82289000  0.81007000  1.0
  C  C38  1  0.48959000  0.01949000  0.71271000  1.0
  C  C39  1  0.01041000  0.30678000  0.28729000  1.0
  C  C40  1  0.51041000  0.98051000  0.28729000  1.0
  C  C41  1  0.98960000  0.69323000  0.71272000  1.0
  C  C42  1  0.24514000  0.12593000  0.68767000  1.0
  C  C43  1  0.25485000  0.43825000  0.31233000  1.0
  C  C44  1  0.75485000  0.87408000  0.31234000  1.0
  C  C45  1  0.74515000  0.56174000  0.68766000  1.0
  C  C46  1  0.26465000  0.09286000  0.56314000  1.0
  C  C47  1  0.23535000  0.52972000  0.43686000  1.0
  C  C48  1  0.73535000  0.90714000  0.43686000  1.0
  C  C49  1  0.76465000  0.47028000  0.56314000  1.0
  C  C50  1  0.13823000  0.11627000  0.48448000  1.0
  C  C51  1  0.36177000  0.63179000  0.51552000  1.0
  C  C52  1  0.86177000  0.88373000  0.51552000  1.0
  C  C53  1  0.63823000  0.36821000  0.48448000  1.0
  C  C54  1  0.99377000  0.17508000  0.53056000  1.0
  C  C55  1  0.50623000  0.64452000  0.46943000  1.0
  C  C56  1  0.00623000  0.82492000  0.46944000  1.0
  C  C57  1  0.49378000  0.35548000  0.53056000  1.0
  C  C58  1  0.96993000  0.21065000  0.65793000  1.0
  C  C59  1  0.53007000  0.55272000  0.34207000  1.0
  C  C60  1  0.03007000  0.78935000  0.34207000  1.0
  C  C61  1  0.46993000  0.44728000  0.65793000  1.0
  C  C62  1  0.82441000  0.27116000  0.71146000  1.0
  C  C63  1  0.67559000  0.55970000  0.28854000  1.0
  C  C64  1  0.17560000  0.72884000  0.28854000  1.0
  C  C65  1  0.32441000  0.44030000  0.71146000  1.0
  C  C66  1  0.80682000  0.29994000  0.83454000  1.0
  C  C67  1  0.69317000  0.46540000  0.16546000  1.0
  C  C68  1  0.19318000  0.70006000  0.16546000  1.0
  C  C69  1  0.30682000  0.53460000  0.83454000  1.0
  C  C70  1  0.93308000  0.26451000  0.90349000  1.0
  C  C71  1  0.56692000  0.36101000  0.09651000  1.0
  C  C72  1  0.06693000  0.73549000  0.09651000  1.0
  C  C73  1  0.43307000  0.63898000  0.90349000  1.0
  C  C74  1  0.09440000  0.18406000  0.73781000  1.0
  C  C75  1  0.40560000  0.44625000  0.26219000  1.0
  C  C76  1  0.90560000  0.81594000  0.26219000  1.0
  C  C77  1  0.59440000  0.55375000  0.73781000  1.0
  N  N78  1  0.07201000  0.20892000  0.85758000  1.0
  N  N79  1  0.42799000  0.35135000  0.14242000  1.0
  N  N80  1  0.92799000  0.79107000  0.14242000  1.0
  N  N81  1  0.57202000  0.64865000  0.85758000  1.0
  O  O82  1  0.56010000  0.04969000  0.92627000  1.0
  O  O83  1  0.93989000  0.12341000  0.07372000  1.0
  O  O84  1  0.43989000  0.95030000  0.07372000  1.0
  O  O85  1  0.06011000  0.87659000  0.92628000  1.0
  O  O86  1  0.69104000  0.89975000  0.76782000  1.0
  O  O87  1  0.80896000  0.13193000  0.23218000  1.0
  O  O88  1  0.30896000  0.10025000  0.23218000  1.0
  O  O89  1  0.19105000  0.86807000  0.76782000  1.0
  O  O90  1  0.36067000  0.10597000  0.76883000  1.0
  O  O91  1  0.13933000  0.33714000  0.23117000  1.0
  O  O92  1  0.63933000  0.89403000  0.23117000  1.0
  O  O93  1  0.86067000  0.66286000  0.76883000  1.0
