# generated using pymatgen
data_CuH16C12NO6
_symmetry_space_group_name_H-M   'P 1'
_cell_length_a   9.87302000
_cell_length_b   11.31320000
_cell_length_c   12.72320000
_cell_angle_alpha   107.28800000
_cell_angle_beta   98.49980000
_cell_angle_gamma   90.75460000
_symmetry_Int_Tables_number   1
_chemical_formula_structural   CuH16C12NO6
_chemical_formula_sum   'Cu4 H64 C48 N4 O24'
_cell_volume   1339.56260256
_cell_formula_units_Z   4
loop_
 _symmetry_equiv_pos_site_id
 _symmetry_equiv_pos_as_xyz
  1  'x, y, z'
loop_
 _atom_site_type_symbol
 _atom_site_label
 _atom_site_symmetry_multiplicity
 _atom_site_fract_x
 _atom_site_fract_y
 _atom_site_fract_z
 _atom_site_occupancy
  Cu  Cu0  1  0.13192000  0.51194000  0.50392000  1.0
  Cu  Cu1  1  0.86809000  0.48807000  0.49607000  1.0
  Cu  Cu2  1  0.36789000  0.00323000  0.49928000  1.0
  Cu  Cu3  1  0.63210000  0.99677000  0.50072000  1.0
  H  H4  1  0.35568000  0.31929000  0.48829000  1.0
  H  H5  1  0.64434000  0.68072000  0.51171000  1.0
  H  H6  1  0.38839000  0.69319000  0.51490000  1.0
  H  H7  1  0.61162000  0.30681000  0.48510000  1.0
  H  H8  1  0.98267000  0.12491000  0.22570000  1.0
  H  H9  1  0.01735000  0.87509000  0.77431000  1.0
  H  H10  1  0.86351000  0.21043000  0.16487000  1.0
  H  H11  1  0.13649000  0.78956000  0.83514000  1.0
  H  H12  1  0.13654000  0.35316000  0.78635000  1.0
  H  H13  1  0.86346000  0.64684000  0.21365000  1.0
  H  H14  1  0.10917000  0.21195000  0.67980000  1.0
  H  H15  1  0.89083000  0.78805000  0.32020000  1.0
  H  H16  1  0.07390000  0.15700000  0.06628000  1.0
  H  H17  1  0.92611000  0.84300000  0.93372000  1.0
  H  H18  1  0.17833000  0.24813000  0.18857000  1.0
  H  H19  1  0.82168000  0.75187000  0.81144000  1.0
  H  H20  1  0.90320000  0.34845000  0.82475000  1.0
  H  H21  1  0.09680000  0.65154000  0.17525000  1.0
  H  H22  1  0.84212000  0.24173000  0.69526000  1.0
  H  H23  1  0.15788000  0.75827000  0.30474000  1.0
  H  H24  1  0.11683000  0.45534000  0.00052000  1.0
  H  H25  1  0.88316000  0.54466000  0.99948000  1.0
  H  H26  1  0.16499000  0.29729000  0.96544000  1.0
  H  H27  1  0.83500000  0.70271000  0.03455000  1.0
  H  H28  1  0.25213000  0.40571000  0.08699000  1.0
  H  H29  1  0.74787000  0.59429000  0.91300000  1.0
  H  H30  1  0.85937000  0.06472000  0.90922000  1.0
  H  H31  1  0.14062000  0.93528000  0.09078000  1.0
  H  H32  1  0.73625000  0.11045000  0.81335000  1.0
  H  H33  1  0.26375000  0.88955000  0.18665000  1.0
  H  H34  1  0.81603000  0.22383000  0.93536000  1.0
  H  H35  1  0.18397000  0.77618000  0.06464000  1.0
  H  H36  1  0.11581000  0.14006000  0.42475000  1.0
  H  H37  1  0.88420000  0.85994000  0.57526000  1.0
  H  H38  1  0.14103000  0.85849000  0.57293000  1.0
  H  H39  1  0.85898000  0.14151000  0.42707000  1.0
  H  H40  1  0.37257000  0.68391000  0.18772000  1.0
  H  H41  1  0.62743000  0.31609000  0.81228000  1.0
  H  H42  1  0.38400000  0.60447000  0.28763000  1.0
  H  H43  1  0.61600000  0.39553000  0.71236000  1.0
  H  H44  1  0.61017000  0.64995000  0.16007000  1.0
  H  H45  1  0.38983000  0.35005000  0.83993000  1.0
  H  H46  1  0.65257000  0.61303000  0.28489000  1.0
  H  H47  1  0.34743000  0.38697000  0.71511000  1.0
  H  H48  1  0.59354000  0.31173000  0.02609000  1.0
  H  H49  1  0.40646000  0.68827000  0.97391000  1.0
  H  H50  1  0.64991000  0.46164000  0.02058000  1.0
  H  H51  1  0.35009000  0.53836000  0.97942000  1.0
  H  H52  1  0.73679000  0.40157000  0.12225000  1.0
  H  H53  1  0.26320000  0.59843000  0.87775000  1.0
  H  H54  1  0.35747000  0.11262000  0.19184000  1.0
  H  H55  1  0.64252000  0.88738000  0.80817000  1.0
  H  H56  1  0.45659000  0.24828000  0.27303000  1.0
  H  H57  1  0.54340000  0.75172000  0.72698000  1.0
  H  H58  1  0.67380000  0.14309000  0.22686000  1.0
  H  H59  1  0.32619000  0.85691000  0.77314000  1.0
  H  H60  1  0.56632000  0.15847000  0.10966000  1.0
  H  H61  1  0.43367000  0.84153000  0.89034000  1.0
  H  H62  1  0.66234000  0.83711000  0.99400000  1.0
  H  H63  1  0.33765000  0.16289000  0.00600000  1.0
  H  H64  1  0.70821000  0.99546000  0.00452000  1.0
  H  H65  1  0.29178000  0.00454000  0.99548000  1.0
  H  H66  1  0.78176000  0.93147000  0.10944000  1.0
  H  H67  1  0.21823000  0.06853000  0.89056000  1.0
  C  C68  1  0.97733000  0.31488000  0.32176000  1.0
  C  C69  1  0.02267000  0.68512000  0.67824000  1.0
  C  C70  1  0.03354000  0.36776000  0.63338000  1.0
  C  C71  1  0.96646000  0.63223000  0.36662000  1.0
  C  C72  1  0.42036000  0.40025000  0.49345000  1.0
  C  C73  1  0.57965000  0.59975000  0.50655000  1.0
  C  C74  1  0.43884000  0.60674000  0.50856000  1.0
  C  C75  1  0.56117000  0.39326000  0.49144000  1.0
  C  C76  1  0.96808000  0.21490000  0.20985000  1.0
  C  C77  1  0.03193000  0.78510000  0.79015000  1.0
  C  C78  1  0.05927000  0.29693000  0.71805000  1.0
  C  C79  1  0.94073000  0.70307000  0.28195000  1.0
  C  C80  1  0.07384000  0.23730000  0.14097000  1.0
  C  C81  1  0.92616000  0.76270000  0.85903000  1.0
  C  C82  1  0.93245000  0.26682000  0.76195000  1.0
  C  C83  1  0.06755000  0.73317000  0.23805000  1.0
  C  C84  1  0.05203000  0.35156000  0.10312000  1.0
  C  C85  1  0.94797000  0.64844000  0.89688000  1.0
  C  C86  1  0.94451000  0.15900000  0.80846000  1.0
  C  C87  1  0.05549000  0.84099000  0.19154000  1.0
  C  C88  1  0.15104000  0.37999000  0.03384000  1.0
  C  C89  1  0.84896000  0.62001000  0.96616000  1.0
  C  C90  1  0.83362000  0.13837000  0.87129000  1.0
  C  C91  1  0.16638000  0.86163000  0.12871000  1.0
  C  C92  1  0.06333000  0.07724000  0.45816000  1.0
  C  C93  1  0.93668000  0.92276000  0.54184000  1.0
  C  C94  1  0.07773000  0.92193000  0.54048000  1.0
  C  C95  1  0.92228000  0.07807000  0.45952000  1.0
  C  C96  1  0.47131000  0.78928000  0.34779000  1.0
  C  C97  1  0.52868000  0.21073000  0.65222000  1.0
  C  C98  1  0.44281000  0.66635000  0.25627000  1.0
  C  C99  1  0.55719000  0.33365000  0.74373000  1.0
  C  C100  1  0.56849000  0.60434000  0.21458000  1.0
  C  C101  1  0.43151000  0.39566000  0.78542000  1.0
  C  C102  1  0.54173000  0.46657000  0.15666000  1.0
  C  C103  1  0.45827000  0.53343000  0.84334000  1.0
  C  C104  1  0.63439000  0.40558000  0.07553000  1.0
  C  C105  1  0.36561000  0.59442000  0.92447000  1.0
  C  C106  1  0.47152000  0.09734000  0.34158000  1.0
  C  C107  1  0.52847000  0.90266000  0.65842000  1.0
  C  C108  1  0.45806000  0.14665000  0.24231000  1.0
  C  C109  1  0.54193000  0.85335000  0.75769000  1.0
  C  C110  1  0.57328000  0.11119000  0.17429000  1.0
  C  C111  1  0.42671000  0.88882000  0.82571000  1.0
  C  C112  1  0.57395000  0.97334000  0.11725000  1.0
  C  C113  1  0.42604000  0.02666000  0.88276000  1.0
  C  C114  1  0.68749000  0.93115000  0.05085000  1.0
  C  C115  1  0.31250000  0.06885000  0.94915000  1.0
  N  N116  1  0.35910000  0.50717000  0.50222000  1.0
  N  N117  1  0.64092000  0.49283000  0.49779000  1.0
  N  N118  1  0.14106000  0.99919000  0.49846000  1.0
  N  N119  1  0.85895000  0.00081000  0.50154000  1.0
  O  O120  1  0.09674000  0.36312000  0.36812000  1.0
  O  O121  1  0.90326000  0.63687000  0.63187000  1.0
  O  O122  1  0.14089000  0.40569000  0.60501000  1.0
  O  O123  1  0.85912000  0.59431000  0.39500000  1.0
  O  O124  1  0.13427000  0.65976000  0.63929000  1.0
  O  O125  1  0.86573000  0.34025000  0.36071000  1.0
  O  O126  1  0.09009000  0.61682000  0.40309000  1.0
  O  O127  1  0.90992000  0.38319000  0.59690000  1.0
  O  O128  1  0.95814000  0.41935000  0.12973000  1.0
  O  O129  1  0.04186000  0.58065000  0.87027000  1.0
  O  O130  1  0.03773000  0.08711000  0.79197000  1.0
  O  O131  1  0.96227000  0.91288000  0.20802000  1.0
  O  O132  1  0.59484000  0.83101000  0.38409000  1.0
  O  O133  1  0.40515000  0.16898000  0.61591000  1.0
  O  O134  1  0.36465000  0.84013000  0.38210000  1.0
  O  O135  1  0.63534000  0.15987000  0.61791000  1.0
  O  O136  1  0.45038000  0.40594000  0.17814000  1.0
  O  O137  1  0.54962000  0.59406000  0.82186000  1.0
  O  O138  1  0.59205000  0.07662000  0.38104000  1.0
  O  O139  1  0.40794000  0.92339000  0.61896000  1.0
  O  O140  1  0.36129000  0.08330000  0.37881000  1.0
  O  O141  1  0.63870000  0.91670000  0.62119000  1.0
  O  O142  1  0.48582000  0.89917000  0.12456000  1.0
  O  O143  1  0.51417000  0.10083000  0.87544000  1.0
