# generated using pymatgen
data_Ag2H5C10N3O4
_symmetry_space_group_name_H-M   'P 1'
_cell_length_a   5.14968000
_cell_length_b   10.31390000
_cell_length_c   10.61940000
_cell_angle_alpha   87.41710000
_cell_angle_beta   79.58220000
_cell_angle_gamma   75.58460000
_symmetry_Int_Tables_number   1
_chemical_formula_structural   Ag2H5C10N3O4
_chemical_formula_sum   'Ag4 H10 C20 N6 O8'
_cell_volume   537.26828364
_cell_formula_units_Z   2
loop_
 _symmetry_equiv_pos_site_id
 _symmetry_equiv_pos_as_xyz
  1  'x, y, z'
loop_
 _atom_site_type_symbol
 _atom_site_label
 _atom_site_symmetry_multiplicity
 _atom_site_fract_x
 _atom_site_fract_y
 _atom_site_fract_z
 _atom_site_occupancy
  Ag  Ag0  1  0.84064000  0.17746000  0.93799000  1.0
  Ag  Ag1  1  0.01869000  0.82256000  0.43852000  1.0
  Ag  Ag2  1  0.08156000  0.45896000  0.09860000  1.0
  Ag  Ag3  1  0.54003000  0.54089000  0.59792000  1.0
  H  H4  1  0.15102000  0.07104000  0.74371000  1.0
  H  H5  1  0.22273000  0.92874000  0.24334000  1.0
  H  H6  1  0.46550000  0.88077000  0.62252000  1.0
  H  H7  1  0.34736000  0.11910000  0.12215000  1.0
  H  H8  1  0.00760000  0.11265000  0.47569000  1.0
  H  H9  1  0.12058000  0.88746000  0.97521000  1.0
  H  H10  1  0.72662000  0.30870000  0.59654000  1.0
  H  H11  1  0.03513000  0.69121000  0.09571000  1.0
  H  H12  1  0.60694000  0.70529000  0.87112000  1.0
  H  H13  1  0.31230000  0.29463000  0.37203000  1.0
  C  C14  1  0.57523000  0.49844000  0.93044000  1.0
  C  C15  1  0.07338000  0.50170000  0.43054000  1.0
  C  C16  1  0.84716000  0.46051000  0.84826000  1.0
  C  C17  1  0.30752000  0.53966000  0.34842000  1.0
  C  C18  1  0.00795000  0.54045000  0.77733000  1.0
  C  C19  1  0.54826000  0.45962000  0.27770000  1.0
  C  C20  1  0.96641000  0.68761000  0.76210000  1.0
  C  C21  1  0.65413000  0.31243000  0.26315000  1.0
  C  C22  1  0.21508000  0.32978000  0.74185000  1.0
  C  C23  1  0.54500000  0.67024000  0.24164000  1.0
  C  C24  1  0.40583000  0.21025000  0.68127000  1.0
  C  C25  1  0.61653000  0.78969000  0.18086000  1.0
  C  C26  1  0.34125000  0.08516000  0.68732000  1.0
  C  C27  1  0.42705000  0.91471000  0.18700000  1.0
  C  C28  1  0.51655000  0.97740000  0.61800000  1.0
  C  C29  1  0.49465000  0.02246000  0.11762000  1.0
  C  C30  1  0.81840000  0.10605000  0.53769000  1.0
  C  C31  1  0.92486000  0.89395000  0.03719000  1.0
  C  C32  1  0.65625000  0.21688000  0.60632000  1.0
  C  C33  1  0.87338000  0.78310000  0.10578000  1.0
  N  N34  1  0.98202000  0.32900000  0.82506000  1.0
  N  N35  1  0.31109000  0.67116000  0.32495000  1.0
  N  N36  1  0.23667000  0.45664000  0.71261000  1.0
  N  N37  1  0.69321000  0.54336000  0.21268000  1.0
  N  N38  1  0.75160000  0.98721000  0.54197000  1.0
  N  N39  1  0.73933000  0.01273000  0.04150000  1.0
  O  O40  1  0.47684000  0.40261000  0.98313000  1.0
  O  O41  1  0.87874000  0.59758000  0.48265000  1.0
  O  O42  1  0.45225000  0.62138000  0.94381000  1.0
  O  O43  1  0.07343000  0.37876000  0.44437000  1.0
  O  O44  1  0.73181000  0.76378000  0.81815000  1.0
  O  O45  1  0.49564000  0.23617000  0.31927000  1.0
  O  O46  1  0.14433000  0.73708000  0.69757000  1.0
  O  O47  1  0.88192000  0.26298000  0.19911000  1.0
