# generated using pymatgen
data_CuH12C11N2O3
_symmetry_space_group_name_H-M   'P 1'
_cell_length_a   14.41074267
_cell_length_b   14.41070000
_cell_length_c   14.41060000
_cell_angle_alpha   106.19600000
_cell_angle_beta   106.19653032
_cell_angle_gamma   116.24010552
_symmetry_Int_Tables_number   1
_chemical_formula_structural   CuH12C11N2O3
_chemical_formula_sum   'Cu8 H96 C88 N16 O24'
_cell_volume   2279.35437648
_cell_formula_units_Z   8
loop_
 _symmetry_equiv_pos_site_id
 _symmetry_equiv_pos_as_xyz
  1  'x, y, z'
loop_
 _atom_site_type_symbol
 _atom_site_label
 _atom_site_symmetry_multiplicity
 _atom_site_fract_x
 _atom_site_fract_y
 _atom_site_fract_z
 _atom_site_occupancy
  Cu  Cu0  1  0.07951000  0.49367000  0.58553000  1.0
  Cu  Cu1  1  0.40814000  0.49398000  0.91447000  1.0
  Cu  Cu2  1  0.92049000  0.50633000  0.41447000  1.0
  Cu  Cu3  1  0.59186000  0.50602000  0.08553000  1.0
  Cu  Cu4  1  0.99368000  0.90815000  0.41417000  1.0
  Cu  Cu5  1  0.99398000  0.57951000  0.08584000  1.0
  Cu  Cu6  1  0.00632000  0.09185000  0.58584000  1.0
  Cu  Cu7  1  0.00602000  0.42049000  0.91416000  1.0
  H  H8  1  0.83896000  0.23488000  0.34859000  1.0
  H  H9  1  0.65981000  0.05458000  0.30797000  1.0
  H  H10  1  0.48065000  0.97116000  0.33276000  1.0
  H  H11  1  0.47372000  0.08898000  0.48818000  1.0
  H  H12  1  0.64808000  0.29322000  0.62349000  1.0
  H  H13  1  0.82566000  0.37700000  0.59642000  1.0
  H  H14  1  0.22496000  0.42648000  0.69584000  1.0
  H  H15  1  0.27778000  0.71535000  0.81302000  1.0
  H  H16  1  0.30855000  0.75034000  0.71053000  1.0
  H  H17  1  0.29874000  0.61111000  0.56261000  1.0
  H  H18  1  0.26460000  0.47307000  0.55694000  1.0
  H  H19  1  0.58616000  0.78127000  0.79859000  1.0
  H  H20  1  0.38628000  0.49036000  0.15141000  1.0
  H  H21  1  0.24660000  0.35183000  0.19202000  1.0
  H  H22  1  0.13840000  0.14788000  0.16724000  1.0
  H  H23  1  0.10081000  0.98554000  0.01183000  1.0
  H  H24  1  0.16972000  0.02458000  0.87650000  1.0
  H  H25  1  0.28057000  0.22923000  0.90357000  1.0
  H  H26  1  0.23064000  0.52911000  0.80415000  1.0
  H  H27  1  0.40233000  0.46476000  0.68698000  1.0
  H  H28  1  0.53981000  0.59802000  0.78946000  1.0
  H  H29  1  0.54850000  0.73613000  0.93739000  1.0
  H  H30  1  0.41613000  0.70766000  0.94306000  1.0
  H  H31  1  0.48268000  0.78757000  0.70141000  1.0
  H  H32  1  0.16104000  0.76512000  0.65140000  1.0
  H  H33  1  0.34019000  0.94542000  0.69203000  1.0
  H  H34  1  0.51935000  0.02884000  0.66724000  1.0
  H  H35  1  0.52628000  0.91102000  0.51183000  1.0
  H  H36  1  0.35193000  0.70679000  0.37652000  1.0
  H  H37  1  0.17434000  0.62300000  0.40358000  1.0
  H  H38  1  0.77504000  0.57351000  0.30416000  1.0
  H  H39  1  0.72222000  0.28465000  0.18698000  1.0
  H  H40  1  0.69145000  0.24966000  0.28947000  1.0
  H  H41  1  0.70126000  0.38889000  0.43739000  1.0
  H  H42  1  0.73541000  0.52694000  0.44307000  1.0
  H  H43  1  0.41384000  0.21873000  0.20141000  1.0
  H  H44  1  0.61372000  0.50964000  0.84859000  1.0
  H  H45  1  0.75340000  0.64817000  0.80797000  1.0
  H  H46  1  0.86160000  0.85212000  0.83276000  1.0
  H  H47  1  0.89919000  0.01446000  0.98817000  1.0
  H  H48  1  0.83027000  0.97541000  0.12348000  1.0
  H  H49  1  0.71943000  0.77077000  0.09643000  1.0
  H  H50  1  0.76936000  0.47089000  0.19585000  1.0
  H  H51  1  0.59767000  0.53524000  0.31302000  1.0
  H  H52  1  0.46019000  0.40198000  0.21054000  1.0
  H  H53  1  0.45150000  0.26387000  0.06261000  1.0
  H  H54  1  0.58387000  0.29234000  0.05694000  1.0
  H  H55  1  0.51732000  0.21243000  0.29859000  1.0
  H  H56  1  0.73488000  0.88629000  0.39592000  1.0
  H  H57  1  0.55458000  0.74661000  0.39477000  1.0
  H  H58  1  0.47116000  0.63841000  0.49052000  1.0
  H  H59  1  0.58899000  0.60081000  0.61527000  1.0
  H  H60  1  0.79322000  0.66973000  0.64514000  1.0
  H  H61  1  0.87700000  0.78057000  0.55133000  1.0
  H  H62  1  0.92649000  0.73064000  0.20153000  1.0
  H  H63  1  0.21535000  0.90233000  0.43757000  1.0
  H  H64  1  0.25034000  0.03980000  0.44179000  1.0
  H  H65  1  0.11111000  0.04850000  0.31237000  1.0
  H  H66  1  0.97307000  0.91613000  0.20847000  1.0
  H  H67  1  0.28127000  0.98268000  0.19511000  1.0
  H  H68  1  0.99037000  0.33897000  0.10409000  1.0
  H  H69  1  0.85183000  0.15980000  0.10522000  1.0
  H  H70  1  0.64789000  0.98064000  0.00948000  1.0
  H  H71  1  0.48555000  0.97372000  0.88473000  1.0
  H  H72  1  0.52459000  0.14808000  0.85486000  1.0
  H  H73  1  0.72923000  0.32566000  0.94866000  1.0
  H  H74  1  0.02911000  0.72495000  0.29847000  1.0
  H  H75  1  0.96476000  0.77778000  0.06243000  1.0
  H  H76  1  0.09802000  0.80855000  0.05821000  1.0
  H  H77  1  0.23613000  0.79873000  0.18763000  1.0
  H  H78  1  0.20766000  0.76460000  0.29153000  1.0
  H  H79  1  0.28757000  0.08616000  0.30489000  1.0
  H  H80  1  0.26512000  0.11372000  0.60408000  1.0
  H  H81  1  0.44542000  0.25339000  0.60523000  1.0
  H  H82  1  0.52884000  0.36159000  0.50949000  1.0
  H  H83  1  0.41102000  0.39919000  0.38474000  1.0
  H  H84  1  0.20679000  0.33028000  0.35487000  1.0
  H  H85  1  0.12300000  0.21943000  0.44867000  1.0
  H  H86  1  0.07351000  0.26936000  0.79847000  1.0
  H  H87  1  0.78465000  0.09767000  0.56243000  1.0
  H  H88  1  0.74965000  0.96019000  0.55820000  1.0
  H  H89  1  0.88889000  0.95150000  0.68763000  1.0
  H  H90  1  0.02693000  0.08387000  0.79153000  1.0
  H  H91  1  0.71873000  0.01732000  0.80489000  1.0
  H  H92  1  0.00964000  0.66104000  0.89592000  1.0
  H  H93  1  0.14816000  0.84019000  0.89477000  1.0
  H  H94  1  0.35211000  0.01936000  0.99052000  1.0
  H  H95  1  0.51445000  0.02628000  0.11527000  1.0
  H  H96  1  0.47541000  0.85192000  0.14513000  1.0
  H  H97  1  0.27077000  0.67434000  0.05134000  1.0
  H  H98  1  0.97088000  0.27504000  0.70152000  1.0
  H  H99  1  0.03524000  0.22222000  0.93757000  1.0
  H  H100  1  0.90198000  0.19145000  0.94179000  1.0
  H  H101  1  0.76387000  0.20127000  0.81237000  1.0
  H  H102  1  0.79234000  0.23541000  0.70847000  1.0
  H  H103  1  0.71243000  0.91384000  0.69511000  1.0
  C  C104  1  0.94848000  0.25099000  0.49478000  1.0
  C  C105  1  0.86220000  0.27706000  0.43614000  1.0
  C  C106  1  0.75341000  0.22153000  0.45052000  1.0
  C  C107  1  0.65676000  0.10667000  0.37703000  1.0
  C  C108  1  0.55686000  0.05966000  0.39117000  1.0
  C  C109  1  0.55291000  0.12661000  0.47930000  1.0
  C  C110  1  0.64985000  0.24048000  0.55380000  1.0
  C  C111  1  0.74969000  0.28789000  0.53963000  1.0
  C  C112  1  0.31797000  0.70632000  0.75970000  1.0
  C  C113  1  0.30984000  0.56660000  0.61107000  1.0
  C  C114  1  0.25620000  0.45369000  0.00522000  1.0
  C  C115  1  0.34092000  0.42606000  0.06387000  1.0
  C  C116  1  0.27101000  0.30289000  0.04948000  1.0
  C  C117  1  0.22964000  0.27973000  0.12297000  1.0
  C  C118  1  0.16849000  0.16568000  0.10883000  1.0
  C  C119  1  0.14731000  0.07360000  0.02069000  1.0
  C  C120  1  0.18668000  0.09605000  0.94619000  1.0
  C  C121  1  0.24826000  0.21006000  0.96037000  1.0
  C  C122  1  0.44662000  0.55827000  0.74030000  1.0
  C  C123  1  0.45552000  0.69876000  0.88893000  1.0
  C  C124  1  0.05152000  0.74901000  0.50522000  1.0
  C  C125  1  0.13780000  0.72294000  0.56386000  1.0
  C  C126  1  0.24659000  0.77847000  0.54948000  1.0
  C  C127  1  0.34324000  0.89333000  0.62297000  1.0
  C  C128  1  0.44314000  0.94034000  0.60883000  1.0
  C  C129  1  0.44709000  0.87338000  0.52070000  1.0
  C  C130  1  0.35015000  0.75952000  0.44620000  1.0
  C  C131  1  0.25031000  0.71211000  0.46037000  1.0
  C  C132  1  0.68203000  0.29368000  0.24030000  1.0
  C  C133  1  0.69017000  0.43341000  0.38894000  1.0
  C  C134  1  0.74379000  0.54630000  0.99478000  1.0
  C  C135  1  0.65908000  0.57394000  0.93613000  1.0
  C  C136  1  0.72899000  0.69710000  0.95051000  1.0
  C  C137  1  0.77036000  0.72027000  0.87702000  1.0
  C  C138  1  0.83151000  0.83432000  0.89117000  1.0
  C  C139  1  0.85269000  0.92640000  0.97931000  1.0
  C  C140  1  0.81332000  0.90395000  0.05380000  1.0
  C  C141  1  0.75174000  0.78994000  0.03963000  1.0
  C  C142  1  0.55338000  0.44173000  0.25970000  1.0
  C  C143  1  0.54448000  0.30124000  0.11107000  1.0
  C  C144  1  0.26954000  0.51954000  0.75000000  1.0
  C  C145  1  0.49263000  0.74263000  0.75000000  1.0
  C  C146  1  0.73046000  0.48046000  0.25000000  1.0
  C  C147  1  0.50737000  0.25737000  0.25000000  1.0
  C  C148  1  0.75099000  0.75621000  0.30251000  1.0
  C  C149  1  0.77706000  0.84092000  0.41486000  1.0
  C  C150  1  0.72153000  0.77101000  0.46812000  1.0
  C  C151  1  0.60667000  0.72964000  0.44991000  1.0
  C  C152  1  0.55966000  0.66849000  0.50280000  1.0
  C  C153  1  0.62662000  0.64731000  0.57371000  1.0
  C  C154  1  0.74049000  0.68669000  0.59063000  1.0
  C  C155  1  0.78789000  0.74825000  0.53820000  1.0
  C  C156  1  0.20632000  0.94662000  0.38835000  1.0
  C  C157  1  0.06659000  0.95552000  0.25675000  1.0
  C  C158  1  0.95370000  0.44848000  0.19749000  1.0
  C  C159  1  0.92606000  0.36220000  0.08514000  1.0
  C  C160  1  0.80289000  0.25341000  0.03188000  1.0
  C  C161  1  0.77973000  0.15676000  0.05009000  1.0
  C  C162  1  0.66569000  0.05686000  0.99720000  1.0
  C  C163  1  0.57361000  0.05291000  0.92629000  1.0
  C  C164  1  0.59605000  0.14985000  0.90937000  1.0
  C  C165  1  0.71006000  0.24970000  0.96181000  1.0
  C  C166  1  0.05827000  0.81797000  0.11165000  1.0
  C  C167  1  0.19876000  0.80983000  0.24324000  1.0
  C  C168  1  0.24900000  0.24378000  0.69749000  1.0
  C  C169  1  0.22294000  0.15908000  0.58514000  1.0
  C  C170  1  0.27847000  0.22899000  0.53189000  1.0
  C  C171  1  0.39333000  0.27036000  0.55009000  1.0
  C  C172  1  0.44034000  0.33151000  0.49720000  1.0
  C  C173  1  0.37338000  0.35268000  0.42629000  1.0
  C  C174  1  0.25951000  0.31331000  0.40937000  1.0
  C  C175  1  0.21211000  0.25175000  0.46180000  1.0
  C  C176  1  0.79368000  0.05338000  0.61165000  1.0
  C  C177  1  0.93341000  0.04448000  0.74325000  1.0
  C  C178  1  0.04630000  0.55151000  0.80251000  1.0
  C  C179  1  0.07394000  0.63780000  0.91486000  1.0
  C  C180  1  0.19711000  0.74659000  0.96812000  1.0
  C  C181  1  0.22027000  0.84324000  0.94991000  1.0
  C  C182  1  0.33431000  0.94314000  0.00280000  1.0
  C  C183  1  0.42639000  0.94709000  0.07371000  1.0
  C  C184  1  0.40395000  0.85015000  0.09063000  1.0
  C  C185  1  0.28994000  0.75030000  0.03819000  1.0
  C  C186  1  0.94173000  0.18203000  0.88835000  1.0
  C  C187  1  0.80124000  0.19017000  0.75676000  1.0
  C  C188  1  0.01954000  0.76954000  0.25000000  1.0
  C  C189  1  0.24263000  0.99263000  0.25000000  1.0
  C  C190  1  0.98046000  0.23046000  0.75000000  1.0
  C  C191  1  0.75737000  0.00737000  0.75000000  1.0
  N  N192  1  0.25392000  0.57858000  0.68321000  1.0
  N  N193  1  0.44218000  0.75810000  0.82440000  1.0
  N  N194  1  0.39537000  0.57071000  0.81678000  1.0
  N  N195  1  0.43370000  0.61778000  0.67560000  1.0
  N  N196  1  0.74608000  0.42142000  0.31678000  1.0
  N  N197  1  0.55782000  0.24190000  0.17560000  1.0
  N  N198  1  0.60464000  0.42930000  0.18323000  1.0
  N  N199  1  0.56630000  0.38222000  0.32440000  1.0
  N  N200  1  0.07859000  0.89537000  0.32467000  1.0
  N  N201  1  0.25810000  0.93370000  0.31592000  1.0
  N  N202  1  0.07070000  0.75392000  0.17533000  1.0
  N  N203  1  0.11778000  0.94218000  0.18408000  1.0
  N  N204  1  0.92141000  0.10463000  0.67534000  1.0
  N  N205  1  0.74190000  0.06630000  0.68408000  1.0
  N  N206  1  0.92930000  0.24608000  0.82467000  1.0
  N  N207  1  0.88222000  0.05782000  0.81592000  1.0
  O  O208  1  0.05300000  0.34034000  0.56457000  1.0
  O  O209  1  0.91358000  0.14724000  0.47267000  1.0
  O  O210  1  0.91513000  0.39834000  0.47824000  1.0
  O  O211  1  0.27577000  0.48843000  0.93543000  1.0
  O  O212  1  0.17457000  0.44091000  0.02733000  1.0
  O  O213  1  0.42009000  0.43688000  0.02176000  1.0
  O  O214  1  0.94700000  0.65966000  0.43543000  1.0
  O  O215  1  0.08642000  0.85276000  0.52734000  1.0
  O  O216  1  0.08487000  0.60166000  0.52176000  1.0
  O  O217  1  0.72423000  0.51157000  0.06457000  1.0
  O  O218  1  0.82543000  0.55909000  0.97267000  1.0
  O  O219  1  0.57991000  0.56312000  0.97824000  1.0
  O  O220  1  0.84034000  0.77577000  0.28734000  1.0
  O  O221  1  0.64725000  0.67458000  0.23366000  1.0
  O  O222  1  0.89833000  0.92009000  0.48321000  1.0
  O  O223  1  0.98843000  0.55300000  0.21265000  1.0
  O  O224  1  0.94091000  0.41359000  0.26634000  1.0
  O  O225  1  0.93688000  0.41512000  0.01679000  1.0
  O  O226  1  0.15966000  0.22423000  0.71266000  1.0
  O  O227  1  0.35275000  0.32543000  0.76634000  1.0
  O  O228  1  0.10167000  0.07991000  0.51680000  1.0
  O  O229  1  0.01157000  0.44700000  0.78734000  1.0
  O  O230  1  0.05909000  0.58641000  0.73366000  1.0
  O  O231  1  0.06312000  0.58488000  0.98321000  1.0
