# generated using pymatgen
data_CoH16C20(NO)6
_symmetry_space_group_name_H-M   'P 1'
_cell_length_a   10.99940000
_cell_length_b   11.32901059
_cell_length_c   12.67440000
_cell_angle_alpha   81.72845546
_cell_angle_beta   89.97950000
_cell_angle_gamma   60.96136843
_symmetry_Int_Tables_number   1
_chemical_formula_structural   CoH16C20(NO)6
_chemical_formula_sum   'Co2 H32 C40 N12 O12'
_cell_volume   1362.06886842
_cell_formula_units_Z   2
loop_
 _symmetry_equiv_pos_site_id
 _symmetry_equiv_pos_as_xyz
  1  'x, y, z'
loop_
 _atom_site_type_symbol
 _atom_site_label
 _atom_site_symmetry_multiplicity
 _atom_site_fract_x
 _atom_site_fract_y
 _atom_site_fract_z
 _atom_site_occupancy
  Co  Co0  1  0.68323000  0.00001000  0.75005000  1.0
  Co  Co1  1  0.31677000  0.99999000  0.24995000  1.0
  H  H2  1  0.89871000  0.94159000  0.91435000  1.0
  H  H3  1  0.15970000  0.94136000  0.41421000  1.0
  H  H4  1  0.10128000  0.05842000  0.08565000  1.0
  H  H5  1  0.84030000  0.05863000  0.58578000  1.0
  H  H6  1  0.12998000  0.93154000  0.92148000  1.0
  H  H7  1  0.93870000  0.93087000  0.42133000  1.0
  H  H8  1  0.87001000  0.06848000  0.07852000  1.0
  H  H9  1  0.06129000  0.06914000  0.57866000  1.0
  H  H10  1  0.22914000  0.08316000  0.89767000  1.0
  H  H11  1  0.68800000  0.08262000  0.39753000  1.0
  H  H12  1  0.77085000  0.91685000  0.10233000  1.0
  H  H13  1  0.31199000  0.91739000  0.60246000  1.0
  H  H14  1  0.45306000  0.08567000  0.88857000  1.0
  H  H15  1  0.46135000  0.08561000  0.38841000  1.0
  H  H16  1  0.54694000  0.91433000  0.11143000  1.0
  H  H17  1  0.53865000  0.91439000  0.61159000  1.0
  H  H18  1  0.62953000  0.84245000  0.93111000  1.0
  H  H19  1  0.52774000  0.84264000  0.43109000  1.0
  H  H20  1  0.37047000  0.15754000  0.06889000  1.0
  H  H21  1  0.47226000  0.15736000  0.56890000  1.0
  H  H22  1  0.76704000  0.62955000  0.05167000  1.0
  H  H23  1  0.60315000  0.62973000  0.55168000  1.0
  H  H24  1  0.23296000  0.37045000  0.94833000  1.0
  H  H25  1  0.39687000  0.37025000  0.44831000  1.0
  H  H26  1  0.10180000  0.53658000  0.84070000  1.0
  H  H27  1  0.36186000  0.53641000  0.34069000  1.0
  H  H28  1  0.89821000  0.46343000  0.15931000  1.0
  H  H29  1  0.63815000  0.46358000  0.65930000  1.0
  H  H30  1  0.94772000  0.75301000  0.72603000  1.0
  H  H31  1  0.29950000  0.75284000  0.22598000  1.0
  H  H32  1  0.05229000  0.24699000  0.27398000  1.0
  H  H33  1  0.70049000  0.24716000  0.77401000  1.0
  C  C34  1  0.94071000  0.96626000  0.84222000  1.0
  C  C35  1  0.09312000  0.96593000  0.34208000  1.0
  C  C36  1  0.05928000  0.03375000  0.15778000  1.0
  C  C37  1  0.90686000  0.03408000  0.65792000  1.0
  C  C38  1  0.06710000  0.96531000  0.84541000  1.0
  C  C39  1  0.96782000  0.96472000  0.34526000  1.0
  C  C40  1  0.93288000  0.03471000  0.15459000  1.0
  C  C41  1  0.03218000  0.03528000  0.65473000  1.0
  C  C42  1  0.11546000  0.00034000  0.75007000  1.0
  C  C43  1  0.88453000  0.99968000  0.24993000  1.0
  C  C44  1  0.24928000  0.00030000  0.75005000  1.0
  C  C45  1  0.75071000  0.99972000  0.24995000  1.0
  C  C46  1  0.29272000  0.04639000  0.83141000  1.0
  C  C47  1  0.66115000  0.04592000  0.33129000  1.0
  C  C48  1  0.70727000  0.95362000  0.16858000  1.0
  C  C49  1  0.33884000  0.95409000  0.66870000  1.0
  C  C50  1  0.41866000  0.04659000  0.82834000  1.0
  C  C51  1  0.53489000  0.04638000  0.32820000  1.0
  C  C52  1  0.58134000  0.95341000  0.17166000  1.0
  C  C53  1  0.46511000  0.95362000  0.67180000  1.0
  C  C54  1  0.73498000  0.77313000  0.91344000  1.0
  C  C55  1  0.49177000  0.77322000  0.41341000  1.0
  C  C56  1  0.26502000  0.22687000  0.08657000  1.0
  C  C57  1  0.50824000  0.22677000  0.58658000  1.0
  C  C58  1  0.81566000  0.65147000  0.98248000  1.0
  C  C59  1  0.53273000  0.65157000  0.48247000  1.0
  C  C60  1  0.18435000  0.34853000  0.01753000  1.0
  C  C61  1  0.46729000  0.34841000  0.51752000  1.0
  C  C62  1  0.95381000  0.56277000  0.96233000  1.0
  C  C63  1  0.48343000  0.56277000  0.46231000  1.0
  C  C64  1  0.04620000  0.43724000  0.03768000  1.0
  C  C65  1  0.51658000  0.43722000  0.53768000  1.0
  C  C66  1  0.99846000  0.60051000  0.86569000  1.0
  C  C67  1  0.40118000  0.60042000  0.36567000  1.0
  C  C68  1  0.00156000  0.39950000  0.13432000  1.0
  C  C69  1  0.59883000  0.39957000  0.63433000  1.0
  C  C70  1  0.91197000  0.72319000  0.79986000  1.0
  C  C71  1  0.36499000  0.72309000  0.29981000  1.0
  C  C72  1  0.08804000  0.27682000  0.20015000  1.0
  C  C73  1  0.63502000  0.27690000  0.70019000  1.0
  N  N74  1  0.61250000  0.18003000  0.93896000  1.0
  N  N75  1  0.20755000  0.18005000  0.43887000  1.0
  N  N76  1  0.38750000  0.81997000  0.06103000  1.0
  N  N77  1  0.79246000  0.81992000  0.56114000  1.0
  N  N78  1  0.86057000  0.00009000  0.75006000  1.0
  N  N79  1  0.13943000  0.99991000  0.24993000  1.0
  N  N80  1  0.50531000  0.00005000  0.75007000  1.0
  N  N81  1  0.49468000  0.99995000  0.24993000  1.0
  N  N82  1  0.78262000  0.81268000  0.82448000  1.0
  N  N83  1  0.40472000  0.81267000  0.32442000  1.0
  N  N84  1  0.21739000  0.18731000  0.17552000  1.0
  N  N85  1  0.59528000  0.18733000  0.67557000  1.0
  O  O86  1  0.66355000  0.05582000  0.91806000  1.0
  O  O87  1  0.28042000  0.05584000  0.41794000  1.0
  O  O88  1  0.33645000  0.94418000  0.08194000  1.0
  O  O89  1  0.71959000  0.94415000  0.58206000  1.0
  O  O90  1  0.69550000  0.21977000  0.96395000  1.0
  O  O91  1  0.08476000  0.22009000  0.46387000  1.0
  O  O92  1  0.30450000  0.78023000  0.03605000  1.0
  O  O93  1  0.91523000  0.77990000  0.53609000  1.0
  O  O94  1  0.48246000  0.25540000  0.93330000  1.0
  O  O95  1  0.26254000  0.25516000  0.43322000  1.0
  O  O96  1  0.51754000  0.74460000  0.06670000  1.0
  O  O97  1  0.73748000  0.74480000  0.56685000  1.0
