# generated using pymatgen
data_LaH7C2SO8
_symmetry_space_group_name_H-M   'P 1'
_cell_length_a   6.86535000
_cell_length_b   7.04661000
_cell_length_c   8.74295000
_cell_angle_alpha   68.67200000
_cell_angle_beta   89.17670000
_cell_angle_gamma   72.19600000
_symmetry_Int_Tables_number   1
_chemical_formula_structural   LaH7C2SO8
_chemical_formula_sum   'La2 H14 C4 S2 O16'
_cell_volume   372.88247630
_cell_formula_units_Z   2
loop_
 _symmetry_equiv_pos_site_id
 _symmetry_equiv_pos_as_xyz
  1  'x, y, z'
loop_
 _atom_site_type_symbol
 _atom_site_label
 _atom_site_symmetry_multiplicity
 _atom_site_fract_x
 _atom_site_fract_y
 _atom_site_fract_z
 _atom_site_occupancy
  La  La0  1  0.12357000  0.64511000  0.13625000  1.0
  La  La1  1  0.87643000  0.35489000  0.86375000  1.0
  H  H2  1  0.92395000  0.98249000  0.29607000  1.0
  H  H3  1  0.07605000  0.01751000  0.70393000  1.0
  H  H4  1  0.40811000  0.30945000  0.45450000  1.0
  H  H5  1  0.59189000  0.69055000  0.54550000  1.0
  H  H6  1  0.48995000  0.16969000  0.74753000  1.0
  H  H7  1  0.51005000  0.83031000  0.25247000  1.0
  H  H8  1  0.10874000  0.80110000  0.43125000  1.0
  H  H9  1  0.89126000  0.19890000  0.56875000  1.0
  H  H10  1  0.42790000  0.92508000  0.82228000  1.0
  H  H11  1  0.57210000  0.07491000  0.17772000  1.0
  H  H12  1  0.18310000  0.30161000  0.51049000  1.0
  H  H13  1  0.81690000  0.69838000  0.48952000  1.0
  H  H14  1  0.57879000  0.97005000  0.65596000  1.0
  H  H15  1  0.42121000  0.02994000  0.34404000  1.0
  C  C16  1  0.73537000  0.88452000  0.88900000  1.0
  C  C17  1  0.26463000  0.11548000  0.11100000  1.0
  C  C18  1  0.54588000  0.99827000  0.77044000  1.0
  C  C19  1  0.45412000  0.00172000  0.22956000  1.0
  S  S20  1  0.70523000  0.39270000  0.26300000  1.0
  S  S21  1  0.29477000  0.60731000  0.73700000  1.0
  O  O22  1  0.84188000  0.51625000  0.27175000  1.0
  O  O23  1  0.15812000  0.48376000  0.72825000  1.0
  O  O24  1  0.49937000  0.54318000  0.17841000  1.0
  O  O25  1  0.50063000  0.45682000  0.82159000  1.0
  O  O26  1  0.79453000  0.25303000  0.16725000  1.0
  O  O27  1  0.20548000  0.74698000  0.83275000  1.0
  O  O28  1  0.68527000  0.25283000  0.43324000  1.0
  O  O29  1  0.31473000  0.74717000  0.56676000  1.0
  O  O30  1  0.81270000  0.98282000  0.95713000  1.0
  O  O31  1  0.18730000  0.01719000  0.04287000  1.0
  O  O32  1  0.82438000  0.68310000  0.92540000  1.0
  O  O33  1  0.17562000  0.31689000  0.07460000  1.0
  O  O34  1  0.25926000  0.36128000  0.41830000  1.0
  O  O35  1  0.74074000  0.63872000  0.58170000  1.0
  O  O36  1  0.99470000  0.82464000  0.34936000  1.0
  O  O37  1  0.00529000  0.17536000  0.65064000  1.0
