# generated using pymatgen
data_CuH32C40N16(ClO)2
_symmetry_space_group_name_H-M   'P 1'
_cell_length_a   7.89167000
_cell_length_b   7.96642000
_cell_length_c   16.82730000
_cell_angle_alpha   79.39000000
_cell_angle_beta   79.46420000
_cell_angle_gamma   68.99380000
_symmetry_Int_Tables_number   1
_chemical_formula_structural   CuH32C40N16(ClO)2
_chemical_formula_sum   'Cu1 H32 C40 N16 Cl2 O2'
_cell_volume   962.81053954
_cell_formula_units_Z   1
loop_
 _symmetry_equiv_pos_site_id
 _symmetry_equiv_pos_as_xyz
  1  'x, y, z'
loop_
 _atom_site_type_symbol
 _atom_site_label
 _atom_site_symmetry_multiplicity
 _atom_site_fract_x
 _atom_site_fract_y
 _atom_site_fract_z
 _atom_site_occupancy
  Cu  Cu0  1  0.00000000  0.00000000  0.00000000  1.0
  H  H1  1  0.66408000  0.50926000  0.57321000  1.0
  H  H2  1  0.33591000  0.49072000  0.42679000  1.0
  H  H3  1  0.76645000  0.41011000  0.70999000  1.0
  H  H4  1  0.23355000  0.58988000  0.29001000  1.0
  H  H5  1  0.39111000  0.91267000  0.78898000  1.0
  H  H6  1  0.60889000  0.08732000  0.21102000  1.0
  H  H7  1  0.29084000  0.01283000  0.65276000  1.0
  H  H8  1  0.70918000  0.98718000  0.34723000  1.0
  H  H9  1  0.71342000  0.44497000  0.85312000  1.0
  H  H10  1  0.28658000  0.55502000  0.14687000  1.0
  H  H11  1  0.71646000  0.66612000  0.86020000  1.0
  H  H12  1  0.28354000  0.33385000  0.13980000  1.0
  H  H13  1  0.45315000  0.86824000  0.94856000  1.0
  H  H14  1  0.54686000  0.13173000  0.05145000  1.0
  H  H15  1  0.08048000  0.58963000  0.96556000  1.0
  H  H16  1  0.91952000  0.41037000  0.03442000  1.0
  H  H17  1  0.00284000  0.27636000  0.49672000  1.0
  H  H18  1  0.99716000  0.72368000  0.50328000  1.0
  H  H19  1  0.77777000  0.53870000  0.42346000  1.0
  H  H20  1  0.22223000  0.46132000  0.57653000  1.0
  H  H21  1  0.97077000  0.28731000  0.20283000  1.0
  H  H22  1  0.02921000  0.71268000  0.79718000  1.0
  H  H23  1  0.19350000  0.02731000  0.27563000  1.0
  H  H24  1  0.80649000  0.97268000  0.72438000  1.0
  H  H25  1  0.66212000  0.55319000  0.22331000  1.0
  H  H26  1  0.33788000  0.44681000  0.77669000  1.0
  H  H27  1  0.62395000  0.67645000  0.30709000  1.0
  H  H28  1  0.37604000  0.32356000  0.69291000  1.0
  H  H29  1  0.08994000  0.94204000  0.18085000  1.0
  H  H30  1  0.91007000  0.05796000  0.81916000  1.0
  H  H31  1  0.74922000  0.73665000  0.09190000  1.0
  H  H32  1  0.25080000  0.26335000  0.90810000  1.0
  C  C33  1  0.41053000  0.82046000  0.52404000  1.0
  C  C34  1  0.58947000  0.17955000  0.47596000  1.0
  C  C35  1  0.47257000  0.76781000  0.60357000  1.0
  C  C36  1  0.52743000  0.23218000  0.39643000  1.0
  C  C37  1  0.60764000  0.59847000  0.62037000  1.0
  C  C38  1  0.39235000  0.40153000  0.37963000  1.0
  C  C39  1  0.66226000  0.54212000  0.69772000  1.0
  C  C40  1  0.33774000  0.45787000  0.30228000  1.0
  C  C41  1  0.58409000  0.65368000  0.75942000  1.0
  C  C42  1  0.41591000  0.34631000  0.24058000  1.0
  C  C43  1  0.45247000  0.82410000  0.74164000  1.0
  C  C44  1  0.54754000  0.17589000  0.25836000  1.0
  C  C45  1  0.39595000  0.88149000  0.66484000  1.0
  C  C46  1  0.60405000  0.11852000  0.33516000  1.0
  C  C47  1  0.63613000  0.59065000  0.84489000  1.0
  C  C48  1  0.36388000  0.40933000  0.15511000  1.0
  C  C49  1  0.38721000  0.77296000  0.94263000  1.0
  C  C50  1  0.61280000  0.22702000  0.05738000  1.0
  C  C51  1  0.20429000  0.62438000  0.95119000  1.0
  C  C52  1  0.79569000  0.37561000  0.04881000  1.0
  C  C53  1  0.24661000  0.98187000  0.43001000  1.0
  C  C54  1  0.75339000  0.01815000  0.57000000  1.0
  C  C55  1  0.11122000  0.13462000  0.39058000  1.0
  C  C56  1  0.88878000  0.86540000  0.60942000  1.0
  C  C57  1  0.99489000  0.27950000  0.43242000  1.0
  C  C58  1  0.00511000  0.72052000  0.56759000  1.0
  C  C59  1  0.87096000  0.42687000  0.39139000  1.0
  C  C60  1  0.12904000  0.57316000  0.60861000  1.0
  C  C61  1  0.86092000  0.43183000  0.30872000  1.0
  C  C62  1  0.13908000  0.56818000  0.69128000  1.0
  C  C63  1  0.97596000  0.28625000  0.26736000  1.0
  C  C64  1  0.02403000  0.71375000  0.73264000  1.0
  C  C65  1  0.10057000  0.13905000  0.30773000  1.0
  C  C66  1  0.89943000  0.86094000  0.69228000  1.0
  C  C67  1  0.72938000  0.59412000  0.26426000  1.0
  C  C68  1  0.27061000  0.40588000  0.73573000  1.0
  C  C69  1  0.99707000  0.86978000  0.17989000  1.0
  C  C70  1  0.00294000  0.13022000  0.82010000  1.0
  C  C71  1  0.82617000  0.76635000  0.13162000  1.0
  C  C72  1  0.17384000  0.23365000  0.86837000  1.0
  N  N73  1  0.46915000  0.73395000  0.45978000  1.0
  N  N74  1  0.53084000  0.26604000  0.54022000  1.0
  N  N75  1  0.36290000  0.83730000  0.39933000  1.0
  N  N76  1  0.63709000  0.16271000  0.60067000  1.0
  N  N77  1  0.82577000  0.70982000  0.21207000  1.0
  N  N78  1  0.17423000  0.29018000  0.78794000  1.0
  N  N79  1  0.93339000  0.77465000  0.24389000  1.0
  N  N80  1  0.06660000  0.22535000  0.75611000  1.0
  N  N81  1  0.93461000  0.86821000  0.10963000  1.0
  N  N82  1  0.06540000  0.13179000  0.89037000  1.0
  N  N83  1  0.47081000  0.62548000  0.90388000  1.0
  N  N84  1  0.52920000  0.37450000  0.09612000  1.0
  N  N85  1  0.35573000  0.52925000  0.90856000  1.0
  N  N86  1  0.64428000  0.47073000  0.09143000  1.0
  N  N87  1  0.21693000  0.77620000  0.97279000  1.0
  N  N88  1  0.78307000  0.22379000  0.02721000  1.0
  Cl  Cl89  1  0.22704000  0.12294000  0.06641000  1.0
  Cl  Cl90  1  0.77297000  0.87705000  0.93358000  1.0
  O  O91  1  0.26914000  0.98014000  0.50925000  1.0
  O  O92  1  0.73087000  0.01987000  0.49075000  1.0
