# generated using pymatgen
data_Zn2H3C24N6Cl6O8F7
_symmetry_space_group_name_H-M   'P 1'
_cell_length_a   9.96538000
_cell_length_b   11.21710000
_cell_length_c   19.23330000
_cell_angle_alpha   87.00810000
_cell_angle_beta   85.18030000
_cell_angle_gamma   83.21940000
_symmetry_Int_Tables_number   1
_chemical_formula_structural   Zn2H3C24N6Cl6O8F7
_chemical_formula_sum   'Zn2 H3 C24 N6 Cl6 O8 F7'
_cell_volume   2125.42037200
_cell_formula_units_Z   1
loop_
 _symmetry_equiv_pos_site_id
 _symmetry_equiv_pos_as_xyz
  1  'x, y, z'
loop_
 _atom_site_type_symbol
 _atom_site_label
 _atom_site_symmetry_multiplicity
 _atom_site_fract_x
 _atom_site_fract_y
 _atom_site_fract_z
 _atom_site_occupancy
  Zn  Zn0  1  0.63613000  0.48994000  0.49106000  1.0
  Zn  Zn1  1  0.35739000  0.51025000  0.50577000  1.0
  H  H2  1  0.56971000  0.90077000  0.45896000  1.0
  H  H3  1  0.83746000  0.66319000  0.51121000  1.0
  H  H4  1  0.67246000  0.51859000  0.13311000  1.0
  C  C5  1  0.50755000  0.27038000  0.50984000  1.0
  C  C6  1  0.48870000  0.43157000  0.14292000  1.0
  C  C7  1  0.39434000  0.94524000  0.52340000  1.0
  C  C8  1  0.50914000  0.49551000  0.63266000  1.0
  C  C9  1  0.48639000  0.86509000  0.49055000  1.0
  C  C10  1  0.40152000  0.07544000  0.51573000  1.0
  C  C11  1  0.51000000  0.13655000  0.52090000  1.0
  C  C12  1  0.90675000  0.58365000  0.49627000  1.0
  C  C13  1  0.05477000  0.58783000  0.48924000  1.0
  C  C14  1  0.49159000  0.73248000  0.49357000  1.0
  C  C15  1  0.48788000  0.49007000  0.36503000  1.0
  C  C16  1  0.51460000  0.47993000  0.71086000  1.0
  C  C17  1  0.60098000  0.38534000  0.73940000  1.0
  C  C18  1  0.60011000  0.36767000  0.81189000  1.0
  C  C19  1  0.51452000  0.44122000  0.85741000  1.0
  C  C20  1  0.43030000  0.53552000  0.82762000  1.0
  C  C21  1  0.42975000  0.55631000  0.75545000  1.0
  C  C22  1  0.49609000  0.41307000  0.06760000  1.0
  C  C23  1  0.51030000  0.41967000  0.93382000  1.0
  C  C24  1  0.59088000  0.48939000  0.16879000  1.0
  C  C25  1  0.58813000  0.50852000  0.23931000  1.0
  C  C26  1  0.48660000  0.47212000  0.28817000  1.0
  C  C27  1  0.38576000  0.41474000  0.26163000  1.0
  C  C28  1  0.38569000  0.39439000  0.19052000  1.0
  N  N29  1  0.38956000  0.40177000  0.96784000  1.0
  N  N30  1  0.38193000  0.40037000  0.03675000  1.0
  N  N31  1  0.62134000  0.40348000  0.03340000  1.0
  N  N32  1  0.62824000  0.40933000  0.96453000  1.0
  N  N33  1  0.84558000  0.49588000  0.48091000  1.0
  N  N34  1  0.14433000  0.52097000  0.52273000  1.0
  Cl  Cl35  1  0.70360000  0.28643000  0.68750000  1.0
  Cl  Cl36  1  0.66238000  0.06101000  0.54275000  1.0
  Cl  Cl37  1  0.10332000  0.69595000  0.43080000  1.0
  Cl  Cl38  1  0.08773000  0.42002000  0.58389000  1.0
  Cl  Cl39  1  0.32779000  0.67722000  0.72318000  1.0
  Cl  Cl40  1  0.25548000  0.90848000  0.57638000  1.0
  O  O41  1  0.61851000  0.31324000  0.51516000  1.0
  O  O42  1  0.39525000  0.32935000  0.49612000  1.0
  O  O43  1  0.61600000  0.52098000  0.59731000  1.0
  O  O44  1  0.39771000  0.47878000  0.60968000  1.0
  O  O45  1  0.60722000  0.67571000  0.47534000  1.0
  O  O46  1  0.38393000  0.68513000  0.51262000  1.0
  O  O47  1  0.60190000  0.46455000  0.39036000  1.0
  O  O48  1  0.37616000  0.52782000  0.39760000  1.0
  F  F49  1  0.28006000  0.13584000  0.50231000  1.0
  F  F50  1  0.93268000  0.39630000  0.45788000  1.0
  F  F51  1  0.67974000  0.27395000  0.83874000  1.0
  F  F52  1  0.35011000  0.61037000  0.87038000  1.0
  F  F53  1  0.68666000  0.56771000  0.26148000  1.0
  F  F54  1  0.28643000  0.37324000  0.30495000  1.0
  F  F55  1  0.28710000  0.33395000  0.17081000  1.0
