# generated using pymatgen
data_Zr6H37C50N7O32
_symmetry_space_group_name_H-M   'P 1'
_cell_length_a   14.76850000
_cell_length_b   14.79095402
_cell_length_c   14.79285855
_cell_angle_alpha   60.33625708
_cell_angle_beta   60.13390554
_cell_angle_gamma   60.07414347
_symmetry_Int_Tables_number   1
_chemical_formula_structural   Zr6H37C50N7O32
_chemical_formula_sum   'Zr6 H37 C50 N7 O32'
_cell_volume   2294.27519293
_cell_formula_units_Z   1
loop_
 _symmetry_equiv_pos_site_id
 _symmetry_equiv_pos_as_xyz
  1  'x, y, z'
loop_
 _atom_site_type_symbol
 _atom_site_label
 _atom_site_symmetry_multiplicity
 _atom_site_fract_x
 _atom_site_fract_y
 _atom_site_fract_z
 _atom_site_occupancy
  Zr  Zr0  1  0.37772000  0.11741000  0.38145000  1.0
  Zr  Zr1  1  0.61789000  0.88275000  0.61682000  1.0
  Zr  Zr2  1  0.61591000  0.11805000  0.38145000  1.0
  Zr  Zr3  1  0.37909000  0.87818000  0.62115000  1.0
  Zr  Zr4  1  0.37736000  0.11781000  0.62047000  1.0
  Zr  Zr5  1  0.61724000  0.87828000  0.38207000  1.0
  H  H6  1  0.40280000  0.28015000  0.40675000  1.0
  H  H7  1  0.40524000  0.90631000  0.78158000  1.0
  H  H8  1  0.78015000  0.90658000  0.40503000  1.0
  H  H9  1  0.40391000  0.90258000  0.40781000  1.0
  H  H10  1  0.07771000  0.41358000  0.35635000  1.0
  H  H11  1  0.08529000  0.40625000  0.64635000  1.0
  H  H12  1  0.90961000  0.58505000  0.36092000  1.0
  H  H13  1  0.35470000  0.14632000  0.08150000  1.0
  H  H14  1  0.65292000  0.86468000  0.07981000  1.0
  H  H15  1  0.36052000  0.14050000  0.91163000  1.0
  H  H16  1  0.07732000  0.14707000  0.91638000  1.0
  H  H17  1  0.08094000  0.86179000  0.90320000  1.0
  H  H18  1  0.90689000  0.14211000  0.08505000  1.0
  H  H19  1  0.64827000  0.57551000  0.35943000  1.0
  H  H20  1  0.36204000  0.58137000  0.65265000  1.0
  H  H21  1  0.63919000  0.40844000  0.36329000  1.0
  H  H22  1  0.33403000  0.36886000  0.04122000  1.0
  H  H23  1  0.25035000  0.45924000  0.12158000  1.0
  H  H24  1  0.25499000  0.62366000  0.94750000  1.0
  H  H25  1  0.34179000  0.53356000  0.86682000  1.0
  H  H26  1  0.07718000  0.85419000  0.64945000  1.0
  H  H27  1  0.08259000  0.14805000  0.36644000  1.0
  H  H28  1  0.90885000  0.86043000  0.63980000  1.0
  H  H29  1  0.83719000  0.64191000  0.68147000  1.0
  H  H30  1  0.93866000  0.53199000  0.73660000  1.0
  H  H31  1  0.69334000  0.85114000  0.82509000  1.0
  H  H32  1  0.74950000  0.80713000  0.92471000  1.0
  H  H33  1  0.84322000  0.82919000  0.15023000  1.0
  H  H34  1  0.95501000  0.77128000  0.05039000  1.0
  H  H35  1  0.33592000  0.33537000  0.68521000  1.0
  H  H36  1  0.29014000  0.43670000  0.74210000  1.0
  H  H37  1  0.83468000  0.18437000  0.33987000  1.0
  H  H38  1  0.93701000  0.23943000  0.29484000  1.0
  H  H39  1  0.64898000  0.66989000  0.86448000  1.0
  H  H40  1  0.67452000  0.58828000  0.98615000  1.0
  H  H41  1  0.68270000  0.32708000  0.14070000  1.0
  H  H42  1  0.74601000  0.41695000  0.02392000  1.0
  C  C43  1  0.19012000  0.29857000  0.50303000  1.0
  C  C44  1  0.50492000  0.00309000  0.80032000  1.0
  C  C45  1  0.80213000  0.69234000  0.50275000  1.0
  C  C46  1  0.50114000  0.00215000  0.19369000  1.0
  C  C47  1  0.50253000  0.29785000  0.19296000  1.0
  C  C48  1  0.19053000  0.99981000  0.50762000  1.0
  C  C49  1  0.50319000  0.69394000  0.80187000  1.0
  C  C50  1  0.79997000  0.00533000  0.50117000  1.0
  C  C51  1  0.49859000  0.30080000  0.50587000  1.0
  C  C52  1  0.79888000  0.00156000  0.19105000  1.0
  C  C53  1  0.50453000  0.68923000  0.50520000  1.0
  C  C54  1  0.19065000  0.00274000  0.80158000  1.0
  C  C55  1  0.90209000  0.59252000  0.50521000  1.0
  C  C56  1  0.09007000  0.40041000  0.50247000  1.0
  C  C57  1  0.95150000  0.54224000  0.58833000  1.0
  C  C58  1  0.04190000  0.45017000  0.42005000  1.0
  C  C59  1  0.04571000  0.44601000  0.58418000  1.0
  C  C60  1  0.94952000  0.54458000  0.42280000  1.0
  C  C61  1  0.50906000  0.00095000  0.89938000  1.0
  C  C62  1  0.50396000  0.00443000  0.09021000  1.0
  C  C63  1  0.59490000  0.92159000  0.94571000  1.0
  C  C64  1  0.42050000  0.08424000  0.04329000  1.0
  C  C65  1  0.58922000  0.92533000  0.04183000  1.0
  C  C66  1  0.42415000  0.08089000  0.94970000  1.0
  C  C67  1  0.89688000  0.00069000  0.08929000  1.0
  C  C68  1  0.08814000  0.00391000  0.90077000  1.0
  C  C69  1  0.94594000  0.91899000  0.03816000  1.0
  C  C70  1  0.03960000  0.08480000  0.95075000  1.0
  C  C71  1  0.04185000  0.92317000  0.94385000  1.0
  C  C72  1  0.94564000  0.08182000  0.04339000  1.0
  C  C73  1  0.49746000  0.39933000  0.50980000  1.0
  C  C74  1  0.50481000  0.58729000  0.50677000  1.0
  C  C75  1  0.41687000  0.44778000  0.59425000  1.0
  C  C76  1  0.58468000  0.53925000  0.42388000  1.0
  C  C77  1  0.42323000  0.54204000  0.58994000  1.0
  C  C78  1  0.57949000  0.44708000  0.42662000  1.0
  C  C79  1  0.50599000  0.39705000  0.09432000  1.0
  C  C80  1  0.50605000  0.59430000  0.90036000  1.0
  C  C81  1  0.42622000  0.44947000  0.04249000  1.0
  C  C82  1  0.58439000  0.54741000  0.95390000  1.0
  C  C83  1  0.42802000  0.54133000  0.94862000  1.0
  C  C84  1  0.58850000  0.44622000  0.04569000  1.0
  C  C85  1  0.32331000  0.44408000  0.04897000  1.0
  C  C86  1  0.32668000  0.54798000  0.94005000  1.0
  C  C87  1  0.89930000  0.00771000  0.49996000  1.0
  C  C88  1  0.08835000  0.00198000  0.50770000  1.0
  C  C89  1  0.94800000  0.09150000  0.42016000  1.0
  C  C90  1  0.04037000  0.91941000  0.58658000  1.0
  C  C91  1  0.04291000  0.08583000  0.42670000  1.0
  C  C92  1  0.94758000  0.92347000  0.58117000  1.0
  N  N93  1  0.91366000  0.58358000  0.67015000  1.0
  N  N94  1  0.68137000  0.83997000  0.90330000  1.0
  N  N95  1  0.90350000  0.83829000  0.07499000  1.0
  N  N96  1  0.33304000  0.40901000  0.67700000  1.0
  N  N97  1  0.90894000  0.17487000  0.33698000  1.0
  N  N98  1  0.66327000  0.59275000  0.92121000  1.0
  N  N99  1  0.67465000  0.40443000  0.08430000  1.0
  O  O100  1  0.23030000  0.25965000  0.42551000  1.0
  O  O101  1  0.58158000  0.92722000  0.75730000  1.0
  O  O102  1  0.75930000  0.73498000  0.57907000  1.0
  O  O103  1  0.42229000  0.07719000  0.23498000  1.0
  O  O104  1  0.57859000  0.25489000  0.23613000  1.0
  O  O105  1  0.23122000  0.92181000  0.58285000  1.0
  O  O106  1  0.42574000  0.73241000  0.76333000  1.0
  O  O107  1  0.75748000  0.08121000  0.42519000  1.0
  O  O108  1  0.42178000  0.25907000  0.58156000  1.0
  O  O109  1  0.75790000  0.92408000  0.23449000  1.0
  O  O110  1  0.57997000  0.72981000  0.42690000  1.0
  O  O111  1  0.23077000  0.07875000  0.76347000  1.0
  O  O112  1  0.76072000  0.07713000  0.23210000  1.0
  O  O113  1  0.42751000  0.73010000  0.58116000  1.0
  O  O114  1  0.23201000  0.92501000  0.76253000  1.0
  O  O115  1  0.57417000  0.26220000  0.42775000  1.0
  O  O116  1  0.42440000  0.26017000  0.23228000  1.0
  O  O117  1  0.76123000  0.92768000  0.57659000  1.0
  O  O118  1  0.57849000  0.73755000  0.75995000  1.0
  O  O119  1  0.23116000  0.07538000  0.43073000  1.0
  O  O120  1  0.57657000  0.92430000  0.23466000  1.0
  O  O121  1  0.22960000  0.25825000  0.58011000  1.0
  O  O122  1  0.42583000  0.07783000  0.76331000  1.0
  O  O123  1  0.76318000  0.73242000  0.42522000  1.0
  O  O124  1  0.43066000  0.92970000  0.43439000  1.0
  O  O125  1  0.69981000  0.93282000  0.43211000  1.0
  O  O126  1  0.43122000  0.93301000  0.70159000  1.0
  O  O127  1  0.42932000  0.20007000  0.43360000  1.0
  O  O128  1  0.54685000  0.05014000  0.54959000  1.0
  O  O129  1  0.34939000  0.04727000  0.55050000  1.0
  O  O130  1  0.54820000  0.85013000  0.54988000  1.0
  O  O131  1  0.54676000  0.04713000  0.35265000  1.0
