# generated using pymatgen
data_NdH6C5O7
_symmetry_space_group_name_H-M   'P 1'
_cell_length_a   6.81971000
_cell_length_b   7.64382000
_cell_length_c   8.08055000
_cell_angle_alpha   101.06900000
_cell_angle_beta   103.53100000
_cell_angle_gamma   102.48300000
_symmetry_Int_Tables_number   1
_chemical_formula_structural   NdH6C5O7
_chemical_formula_sum   'Nd2 H12 C10 O14'
_cell_volume   386.58017650
_cell_formula_units_Z   2
loop_
 _symmetry_equiv_pos_site_id
 _symmetry_equiv_pos_as_xyz
  1  'x, y, z'
loop_
 _atom_site_type_symbol
 _atom_site_label
 _atom_site_symmetry_multiplicity
 _atom_site_fract_x
 _atom_site_fract_y
 _atom_site_fract_z
 _atom_site_occupancy
  Nd  Nd0  1  0.04643000  0.11560000  0.28862000  1.0
  Nd  Nd1  1  0.95357000  0.88440000  0.71137000  1.0
  H  H2  1  0.52902000  0.22927000  0.28609000  1.0
  H  H3  1  0.47098000  0.77073000  0.71391000  1.0
  H  H4  1  0.37548000  0.16122000  0.08938000  1.0
  H  H5  1  0.62452000  0.83878000  0.91062000  1.0
  H  H6  1  0.45532000  0.46030000  0.78954000  1.0
  H  H7  1  0.54468000  0.53970000  0.21047000  1.0
  H  H8  1  0.56010000  0.33566000  0.64644000  1.0
  H  H9  1  0.43990000  0.66435000  0.35356000  1.0
  H  H10  1  0.81214000  0.50751000  0.94814000  1.0
  H  H11  1  0.18786000  0.49248000  0.05186000  1.0
  H  H12  1  0.67133000  0.35435000  0.04459000  1.0
  H  H13  1  0.32867000  0.64564000  0.95541000  1.0
  C  C14  1  0.33991000  0.17248000  0.74326000  1.0
  C  C15  1  0.66009000  0.82752000  0.25675000  1.0
  C  C16  1  0.51818000  0.33944000  0.76965000  1.0
  C  C17  1  0.48182000  0.66057000  0.23035000  1.0
  C  C18  1  0.71046000  0.36631000  0.92239000  1.0
  C  C19  1  0.28955000  0.63369000  0.07762000  1.0
  C  C20  1  0.16114000  0.76684000  0.11572000  1.0
  C  C21  1  0.83886000  0.23316000  0.88427000  1.0
  C  C22  1  0.87964000  0.45994000  0.47690000  1.0
  C  C23  1  0.12035000  0.54006000  0.52310000  1.0
  O  O24  1  0.19969000  0.10750000  0.59337000  1.0
  O  O25  1  0.80031000  0.89250000  0.40664000  1.0
  O  O26  1  0.68152000  0.90376000  0.13240000  1.0
  O  O27  1  0.31848000  0.09624000  0.86759000  1.0
  O  O28  1  0.16256000  0.82951000  0.27280000  1.0
  O  O29  1  0.83744000  0.17049000  0.72719000  1.0
  O  O30  1  0.05086000  0.81199000  0.98680000  1.0
  O  O31  1  0.94915000  0.18800000  0.01320000  1.0
  O  O32  1  0.80137000  0.29940000  0.37046000  1.0
  O  O33  1  0.19863000  0.70059000  0.62954000  1.0
  O  O34  1  0.21968000  0.44094000  0.45370000  1.0
  O  O35  1  0.78031000  0.55906000  0.54630000  1.0
  O  O36  1  0.37913000  0.19402000  0.21555000  1.0
  O  O37  1  0.62087000  0.80598000  0.78444000  1.0
