# generated using pymatgen
data_CuH7C3N(ClO)2
_symmetry_space_group_name_H-M   'P 1'
_cell_length_a   6.90617000
_cell_length_b   7.82868000
_cell_length_c   12.12480000
_cell_angle_alpha   90.00000000
_cell_angle_beta   89.99960000
_cell_angle_gamma   95.02150000
_symmetry_Int_Tables_number   1
_chemical_formula_structural   CuH7C3N(ClO)2
_chemical_formula_sum   'Cu4 H28 C12 N4 Cl8 O8'
_cell_volume   653.02578076
_cell_formula_units_Z   4
loop_
 _symmetry_equiv_pos_site_id
 _symmetry_equiv_pos_as_xyz
  1  'x, y, z'
loop_
 _atom_site_type_symbol
 _atom_site_label
 _atom_site_symmetry_multiplicity
 _atom_site_fract_x
 _atom_site_fract_y
 _atom_site_fract_z
 _atom_site_occupancy
  Cu  Cu0  1  0.13467000  0.26407000  0.22908000  1.0
  Cu  Cu1  1  0.36533000  0.73593000  0.72908000  1.0
  Cu  Cu2  1  0.86533000  0.73593000  0.77092000  1.0
  Cu  Cu3  1  0.63467000  0.26407000  0.27092000  1.0
  H  H4  1  0.95704000  0.39000000  0.60274000  1.0
  H  H5  1  0.54296000  0.61000000  0.10274000  1.0
  H  H6  1  0.04297000  0.61000000  0.39726000  1.0
  H  H7  1  0.45704000  0.39000000  0.89726000  1.0
  H  H8  1  0.15635000  0.05842000  0.55953000  1.0
  H  H9  1  0.34365000  0.94158000  0.05953000  1.0
  H  H10  1  0.84365000  0.94158000  0.44047000  1.0
  H  H11  1  0.65635000  0.05842000  0.94047000  1.0
  H  H12  1  0.16915000  0.17427000  0.68442000  1.0
  H  H13  1  0.33084000  0.82573000  0.18443000  1.0
  H  H14  1  0.83085000  0.82573000  0.31557000  1.0
  H  H15  1  0.66915000  0.17427000  0.81557000  1.0
  H  H16  1  0.84430000  0.18179000  0.60951000  1.0
  H  H17  1  0.65570000  0.81821000  0.10951000  1.0
  H  H18  1  0.15570000  0.81821000  0.39049000  1.0
  H  H19  1  0.34430000  0.18179000  0.89050000  1.0
  H  H20  1  0.31713000  0.30761000  0.46716000  1.0
  H  H21  1  0.18287000  0.69239000  0.96716000  1.0
  H  H22  1  0.68287000  0.69239000  0.53285000  1.0
  H  H23  1  0.81713000  0.30760000  0.03284000  1.0
  H  H24  1  0.34903000  0.40764000  0.58935000  1.0
  H  H25  1  0.15097000  0.59236000  0.08935000  1.0
  H  H26  1  0.65097000  0.59236000  0.41065000  1.0
  H  H27  1  0.84903000  0.40764000  0.91065000  1.0
  H  H28  1  0.44699000  0.22191000  0.56660000  1.0
  H  H29  1  0.05301000  0.77809000  0.06660000  1.0
  H  H30  1  0.55302000  0.77809000  0.43340000  1.0
  H  H31  1  0.94698000  0.22191000  0.93340000  1.0
  C  C32  1  0.96262000  0.26079000  0.56813000  1.0
  C  C33  1  0.53738000  0.73921000  0.06813000  1.0
  C  C34  1  0.03738000  0.73921000  0.43187000  1.0
  C  C35  1  0.46262000  0.26079000  0.93187000  1.0
  C  C36  1  0.91618000  0.26425000  0.44586000  1.0
  C  C37  1  0.58383000  0.73574000  0.94586000  1.0
  C  C38  1  0.08382000  0.73576000  0.55414000  1.0
  C  C39  1  0.41617000  0.26425000  0.05413000  1.0
  C  C40  1  0.15182000  0.18601000  0.59511000  1.0
  C  C41  1  0.34818000  0.81399000  0.09511000  1.0
  C  C42  1  0.84818000  0.81399000  0.40489000  1.0
  C  C43  1  0.65182000  0.18601000  0.90489000  1.0
  N  N44  1  0.32723000  0.28939000  0.55170000  1.0
  N  N45  1  0.17277000  0.71061000  0.05170000  1.0
  N  N46  1  0.67278000  0.71061000  0.44830000  1.0
  N  N47  1  0.82723000  0.28939000  0.94830000  1.0
  Cl  Cl48  1  0.85502000  0.47592000  0.19612000  1.0
  Cl  Cl49  1  0.64498000  0.52408000  0.69612000  1.0
  Cl  Cl50  1  0.14498000  0.52408000  0.80388000  1.0
  Cl  Cl51  1  0.35502000  0.47592000  0.30388000  1.0
  Cl  Cl52  1  0.95812000  0.03048000  0.15666000  1.0
  Cl  Cl53  1  0.54188000  0.96952000  0.65666000  1.0
  Cl  Cl54  1  0.04188000  0.96952000  0.84334000  1.0
  Cl  Cl55  1  0.45812000  0.03048000  0.34334000  1.0
  O  O56  1  0.04521000  0.21460000  0.38159000  1.0
  O  O57  1  0.45478000  0.78540000  0.88158000  1.0
  O  O58  1  0.95479000  0.78540000  0.61841000  1.0
  O  O59  1  0.54522000  0.21460000  0.11842000  1.0
  O  O60  1  0.75108000  0.31374000  0.41845000  1.0
  O  O61  1  0.74891000  0.68627000  0.91845000  1.0
  O  O62  1  0.24892000  0.68627000  0.58155000  1.0
  O  O63  1  0.25109000  0.31373000  0.08155000  1.0
