# generated using pymatgen
data_AlH6C14NO5
_symmetry_space_group_name_H-M   'P 1'
_cell_length_a   6.67385000
_cell_length_b   20.06680000
_cell_length_c   23.31780000
_cell_angle_alpha   93.36330000
_cell_angle_beta   89.99950000
_cell_angle_gamma   89.99950000
_symmetry_Int_Tables_number   1
_chemical_formula_structural   AlH6C14NO5
_chemical_formula_sum   'Al4 H24 C56 N4 O20'
_cell_volume   3117.40672173
_cell_formula_units_Z   4
loop_
 _symmetry_equiv_pos_site_id
 _symmetry_equiv_pos_as_xyz
  1  'x, y, z'
loop_
 _atom_site_type_symbol
 _atom_site_label
 _atom_site_symmetry_multiplicity
 _atom_site_fract_x
 _atom_site_fract_y
 _atom_site_fract_z
 _atom_site_occupancy
  Al  Al0  1  0.76359000  0.25031000  0.75005000  1.0
  Al  Al1  1  0.23647000  0.74956000  0.24965000  1.0
  Al  Al2  1  0.26354000  0.24956000  0.74965000  1.0
  Al  Al3  1  0.73641000  0.75031000  0.25005000  1.0
  H  H4  1  0.68823000  0.01313000  0.54700000  1.0
  H  H5  1  0.30518000  0.94390000  0.48548000  1.0
  H  H6  1  0.19480000  0.44390000  0.98548000  1.0
  H  H7  1  0.81178000  0.51313000  0.04699000  1.0
  H  H8  1  0.69750000  0.09819000  0.62875000  1.0
  H  H9  1  0.30146000  0.86306000  0.40074000  1.0
  H  H10  1  0.19853000  0.36305000  0.90074000  1.0
  H  H11  1  0.80251000  0.59819000  0.12874000  1.0
  H  H12  1  0.32388000  0.13065000  0.59905000  1.0
  H  H13  1  0.68103000  0.90694000  0.37183000  1.0
  H  H14  1  0.81896000  0.40694000  0.87183000  1.0
  H  H15  1  0.17612000  0.63065000  0.09905000  1.0
  H  H16  1  0.31421000  0.04930000  0.51463000  1.0
  H  H17  1  0.68620000  0.99180000  0.45376000  1.0
  H  H18  1  0.81377000  0.49180000  0.95375000  1.0
  H  H19  1  0.18577000  0.54930000  0.01464000  1.0
  H  H20  1  0.29926000  0.00592000  0.93704000  1.0
  H  H21  1  0.69908000  0.99448000  0.06305000  1.0
  H  H22  1  0.80092000  0.49449000  0.56305000  1.0
  H  H23  1  0.20075000  0.50592000  0.43704000  1.0
  H  H24  1  0.51397000  0.16649000  0.76660000  1.0
  H  H25  1  0.48463000  0.83460000  0.23573000  1.0
  H  H26  1  0.01538000  0.33460000  0.73573000  1.0
  H  H27  1  0.98605000  0.66649000  0.26660000  1.0
  C  C28  1  0.51761000  0.32709000  0.67399000  1.0
  C  C29  1  0.49095000  0.67285000  0.32577000  1.0
  C  C30  1  0.00907000  0.17284000  0.82576000  1.0
  C  C31  1  0.98236000  0.82709000  0.17399000  1.0
  C  C32  1  0.50830000  0.33219000  0.82987000  1.0
  C  C33  1  0.48270000  0.66762000  0.16997000  1.0
  C  C34  1  0.01733000  0.16762000  0.66997000  1.0
  C  C35  1  0.99168000  0.83219000  0.32987000  1.0
  C  C36  1  0.82742000  0.03965000  0.55731000  1.0
  C  C37  1  0.16898000  0.93738000  0.45993000  1.0
  C  C38  1  0.33101000  0.43738000  0.95993000  1.0
  C  C39  1  0.67258000  0.53965000  0.05731000  1.0
  C  C40  1  0.83189000  0.08659000  0.60354000  1.0
  C  C41  1  0.16742000  0.89147000  0.41297000  1.0
  C  C42  1  0.33257000  0.39146000  0.91297000  1.0
  C  C43  1  0.66812000  0.58659000  0.10354000  1.0
  C  C44  1  0.01149000  0.11904000  0.61921000  1.0
  C  C45  1  0.99146000  0.88041000  0.38091000  1.0
  C  C46  1  0.50852000  0.38041000  0.88091000  1.0
  C  C47  1  0.48852000  0.61904000  0.11921000  1.0
  C  C48  1  0.18541000  0.10460000  0.58708000  1.0
  C  C49  1  0.81733000  0.91594000  0.39686000  1.0
  C  C50  1  0.68265000  0.41594000  0.89686000  1.0
  C  C51  1  0.31459000  0.60460000  0.08708000  1.0
  C  C52  1  0.17935000  0.05845000  0.54030000  1.0
  C  C53  1  0.82070000  0.96274000  0.44325000  1.0
  C  C54  1  0.67928000  0.46274000  0.94324000  1.0
  C  C55  1  0.32064000  0.55845000  0.04030000  1.0
  C  C56  1  0.00089000  0.02451000  0.52474000  1.0
  C  C57  1  0.99650000  0.97456000  0.47569000  1.0
  C  C58  1  0.50348000  0.47456000  0.97569000  1.0
  C  C59  1  0.49909000  0.52451000  0.02473000  1.0
  C  C60  1  0.16778000  0.00307000  0.96433000  1.0
  C  C61  1  0.83068000  0.99739000  0.03581000  1.0
  C  C62  1  0.66933000  0.49739000  0.53581000  1.0
  C  C63  1  0.33223000  0.50307000  0.46432000  1.0
  C  C64  1  0.00399000  0.04487000  0.95491000  1.0
  C  C65  1  0.99454000  0.95558000  0.04522000  1.0
  C  C66  1  0.50546000  0.45558000  0.54523000  1.0
  C  C67  1  0.49603000  0.54487000  0.45491000  1.0
  C  C68  1  0.83396000  0.04137000  0.99154000  1.0
  C  C69  1  0.16459000  0.95913000  0.00864000  1.0
  C  C70  1  0.33542000  0.45913000  0.50864000  1.0
  C  C71  1  0.66605000  0.54137000  0.49154000  1.0
  C  C72  1  0.00825000  0.08923000  0.91018000  1.0
  C  C73  1  0.98973000  0.91108000  0.08985000  1.0
  C  C74  1  0.51026000  0.41108000  0.58985000  1.0
  C  C75  1  0.49176000  0.58923000  0.41018000  1.0
  C  C76  1  0.98574000  0.87260000  0.12826000  1.0
  C  C77  1  0.01019000  0.12756000  0.87164000  1.0
  C  C78  1  0.48983000  0.62757000  0.37165000  1.0
  C  C79  1  0.51425000  0.37260000  0.62826000  1.0
  C  C80  1  0.33551000  0.91840000  0.01755000  1.0
  C  C81  1  0.66295000  0.08206000  0.98262000  1.0
  C  C82  1  0.83706000  0.58205000  0.48262000  1.0
  C  C83  1  0.16450000  0.41841000  0.51755000  1.0
  N  N84  1  0.47937000  0.88669000  0.02451000  1.0
  N  N85  1  0.51904000  0.11375000  0.97567000  1.0
  N  N86  1  0.98096000  0.61375000  0.47567000  1.0
  N  N87  1  0.02064000  0.38669000  0.52451000  1.0
  O  O88  1  0.33860000  0.30915000  0.81323000  1.0
  O  O89  1  0.64935000  0.68226000  0.19443000  1.0
  O  O90  1  0.85067000  0.18226000  0.69444000  1.0
  O  O91  1  0.16140000  0.80915000  0.31322000  1.0
  O  O92  1  0.68853000  0.30584000  0.68851000  1.0
  O  O93  1  0.32237000  0.68557000  0.30346000  1.0
  O  O94  1  0.17765000  0.18556000  0.80345000  1.0
  O  O95  1  0.81147000  0.80584000  0.18851000  1.0
  O  O96  1  0.67652000  0.31847000  0.80590000  1.0
  O  O97  1  0.31150000  0.69001000  0.18599000  1.0
  O  O98  1  0.18851000  0.19001000  0.68599000  1.0
  O  O99  1  0.82348000  0.81847000  0.30589000  1.0
  O  O100  1  0.83865000  0.19514000  0.81184000  1.0
  O  O101  1  0.15114000  0.81322000  0.19560000  1.0
  O  O102  1  0.34887000  0.31322000  0.69560000  1.0
  O  O103  1  0.66135000  0.69514000  0.31184000  1.0
  O  O104  1  0.51407000  0.20924000  0.74929000  1.0
  O  O105  1  0.48613000  0.79056000  0.25068000  1.0
  O  O106  1  0.01386000  0.29056000  0.75068000  1.0
  O  O107  1  0.98594000  0.70924000  0.24929000  1.0
