# generated using pymatgen
data_ZnH2C12N(OF)5
_symmetry_space_group_name_H-M   'P 1'
_cell_length_a   9.87094000
_cell_length_b   11.12290000
_cell_length_c   28.99600000
_cell_angle_alpha   90.09180000
_cell_angle_beta   89.87630000
_cell_angle_gamma   89.98070000
_symmetry_Int_Tables_number   1
_chemical_formula_structural   ZnH2C12N(OF)5
_chemical_formula_sum   'Zn4 H8 C48 N4 O20 F20'
_cell_volume   3183.56001319
_cell_formula_units_Z   4
loop_
 _symmetry_equiv_pos_site_id
 _symmetry_equiv_pos_as_xyz
  1  'x, y, z'
loop_
 _atom_site_type_symbol
 _atom_site_label
 _atom_site_symmetry_multiplicity
 _atom_site_fract_x
 _atom_site_fract_y
 _atom_site_fract_z
 _atom_site_occupancy
  Zn  Zn0  1  0.63889000  0.49971000  0.50046000  1.0
  Zn  Zn1  1  0.36106000  0.49982000  0.50064000  1.0
  Zn  Zn2  1  0.36136000  0.50209000  0.11666000  1.0
  Zn  Zn3  1  0.63920000  0.50194000  0.11644000  1.0
  H  H4  1  0.28173000  0.50122000  0.97053000  1.0
  H  H5  1  0.71911000  0.50107000  0.97009000  1.0
  H  H6  1  0.28104000  0.50008000  0.64705000  1.0
  H  H7  1  0.71843000  0.49976000  0.64664000  1.0
  H  H8  1  0.72761000  0.50101000  0.84778000  1.0
  H  H9  1  0.27263000  0.50115000  0.84825000  1.0
  H  H10  1  0.72747000  0.50067000  0.76891000  1.0
  H  H11  1  0.27254000  0.50099000  0.76936000  1.0
  C  C12  1  0.49990000  0.73401000  0.49999000  1.0
  C  C13  1  0.49964000  0.49881000  0.59037000  1.0
  C  C14  1  0.50003000  0.26557000  0.50037000  1.0
  C  C15  1  0.50027000  0.50128000  0.41062000  1.0
  C  C16  1  0.50029000  0.73623000  0.11719000  1.0
  C  C17  1  0.50048000  0.50066000  0.02675000  1.0
  C  C18  1  0.50045000  0.26783000  0.11657000  1.0
  C  C19  1  0.49988000  0.50325000  0.20648000  1.0
  C  C20  1  0.92915000  0.42765000  0.47195000  1.0
  C  C21  1  0.07066000  0.57252000  0.52778000  1.0
  C  C22  1  0.07121000  0.42758000  0.47198000  1.0
  C  C23  1  0.92884000  0.57259000  0.52775000  1.0
  C  C24  1  0.50001000  0.13002000  0.50020000  1.0
  C  C25  1  0.49994000  0.86956000  0.49993000  1.0
  C  C26  1  0.37944000  0.06261000  0.50005000  1.0
  C  C27  1  0.62051000  0.93698000  0.49999000  1.0
  C  C28  1  0.37941000  0.93710000  0.49994000  1.0
  C  C29  1  0.62053000  0.06249000  0.50011000  1.0
  C  C30  1  0.50043000  0.50097000  0.97507000  1.0
  C  C31  1  0.37682000  0.50118000  0.95154000  1.0
  C  C32  1  0.37661000  0.50135000  0.90364000  1.0
  C  C33  1  0.50020000  0.50138000  0.87845000  1.0
  C  C34  1  0.62393000  0.50118000  0.90338000  1.0
  C  C35  1  0.62393000  0.50111000  0.95129000  1.0
  C  C36  1  0.50007000  0.50134000  0.82982000  1.0
  C  C37  1  0.50002000  0.50113000  0.78734000  1.0
  C  C38  1  0.49992000  0.50076000  0.73871000  1.0
  C  C39  1  0.37623000  0.50054000  0.71376000  1.0
  C  C40  1  0.37623000  0.50004000  0.66585000  1.0
  C  C41  1  0.49972000  0.49952000  0.64205000  1.0
  C  C42  1  0.62330000  0.49988000  0.66561000  1.0
  C  C43  1  0.62351000  0.50041000  0.71352000  1.0
  C  C44  1  0.50021000  0.50182000  0.35856000  1.0
  C  C45  1  0.50000000  0.50299000  0.25853000  1.0
  C  C46  1  0.62061000  0.50214000  0.33251000  1.0
  C  C47  1  0.37961000  0.50245000  0.28458000  1.0
  C  C48  1  0.62048000  0.50272000  0.28435000  1.0
  C  C49  1  0.37971000  0.50184000  0.33274000  1.0
  C  C50  1  0.07115000  0.43025000  0.14527000  1.0
  C  C51  1  0.92953000  0.57486000  0.08950000  1.0
  C  C52  1  0.92907000  0.43014000  0.14522000  1.0
  C  C53  1  0.07133000  0.57496000  0.08955000  1.0
  C  C54  1  0.50042000  0.13230000  0.11666000  1.0
  C  C55  1  0.50036000  0.87179000  0.11708000  1.0
  C  C56  1  0.62091000  0.06472000  0.11681000  1.0
  C  C57  1  0.37986000  0.93935000  0.11692000  1.0
  C  C58  1  0.62089000  0.93922000  0.11699000  1.0
  C  C59  1  0.37990000  0.06484000  0.11674000  1.0
  N  N60  1  0.85995000  0.50008000  0.49988000  1.0
  N  N61  1  0.13998000  0.49995000  0.49994000  1.0
  N  N62  1  0.14027000  0.50255000  0.11737000  1.0
  N  N63  1  0.86027000  0.50236000  0.11728000  1.0
  O  O64  1  0.61463000  0.68234000  0.50000000  1.0
  O  O65  1  0.38516000  0.68247000  0.50007000  1.0
  O  O66  1  0.38463000  0.49894000  0.57043000  1.0
  O  O67  1  0.61467000  0.49837000  0.57024000  1.0
  O  O68  1  0.38531000  0.31723000  0.50057000  1.0
  O  O69  1  0.61479000  0.31711000  0.50019000  1.0
  O  O70  1  0.61497000  0.50103000  0.43035000  1.0
  O  O71  1  0.38561000  0.50093000  0.43053000  1.0
  O  O72  1  0.38554000  0.68471000  0.11722000  1.0
  O  O73  1  0.61500000  0.68455000  0.11717000  1.0
  O  O74  1  0.61553000  0.50076000  0.04668000  1.0
  O  O75  1  0.38549000  0.50053000  0.04688000  1.0
  O  O76  1  0.61523000  0.31935000  0.11639000  1.0
  O  O77  1  0.38573000  0.31949000  0.11684000  1.0
  O  O78  1  0.38518000  0.50358000  0.18676000  1.0
  O  O79  1  0.61453000  0.50293000  0.18655000  1.0
  O  O80  1  0.74545000  0.50106000  0.88088000  1.0
  O  O81  1  0.25498000  0.50138000  0.88139000  1.0
  O  O82  1  0.74513000  0.50050000  0.73577000  1.0
  O  O83  1  0.25469000  0.50075000  0.73625000  1.0
  F  F84  1  0.86225000  0.35488000  0.44403000  1.0
  F  F85  1  0.13770000  0.64475000  0.55599000  1.0
  F  F86  1  0.13854000  0.35473000  0.44410000  1.0
  F  F87  1  0.86140000  0.64488000  0.55594000  1.0
  F  F88  1  0.25664000  0.11558000  0.50000000  1.0
  F  F89  1  0.74331000  0.88402000  0.49998000  1.0
  F  F90  1  0.25658000  0.88425000  0.49986000  1.0
  F  F91  1  0.74336000  0.11533000  0.50017000  1.0
  F  F92  1  0.74349000  0.50179000  0.35269000  1.0
  F  F93  1  0.25673000  0.50232000  0.26440000  1.0
  F  F94  1  0.74330000  0.50285000  0.26393000  1.0
  F  F95  1  0.25690000  0.50120000  0.35314000  1.0
  F  F96  1  0.13817000  0.35759000  0.17312000  1.0
  F  F97  1  0.86241000  0.64682000  0.06129000  1.0
  F  F98  1  0.86175000  0.35736000  0.17302000  1.0
  F  F99  1  0.13877000  0.64700000  0.06138000  1.0
  F  F100  1  0.74377000  0.11752000  0.11679000  1.0
  F  F101  1  0.25701000  0.88657000  0.11691000  1.0
  F  F102  1  0.74370000  0.88628000  0.11702000  1.0
  F  F103  1  0.25705000  0.11773000  0.11658000  1.0
