# generated using pymatgen
data_CoH12(C8O3)2
_symmetry_space_group_name_H-M   'P 1'
_cell_length_a   5.11751000
_cell_length_b   8.83571000
_cell_length_c   15.35830000
_cell_angle_alpha   79.64400000
_cell_angle_beta   89.99980000
_cell_angle_gamma   89.99960000
_symmetry_Int_Tables_number   1
_chemical_formula_structural   CoH12(C8O3)2
_chemical_formula_sum   'Co2 H24 C32 O12'
_cell_volume   683.14092279
_cell_formula_units_Z   2
loop_
 _symmetry_equiv_pos_site_id
 _symmetry_equiv_pos_as_xyz
  1  'x, y, z'
loop_
 _atom_site_type_symbol
 _atom_site_label
 _atom_site_symmetry_multiplicity
 _atom_site_fract_x
 _atom_site_fract_y
 _atom_site_fract_z
 _atom_site_occupancy
  Co  Co0  1  0.50001000  0.00000000  0.50000000  1.0
  Co  Co1  1  0.00001000  0.50000000  0.50000000  1.0
  H  H2  1  0.72583000  0.66523000  0.62772000  1.0
  H  H3  1  0.77419000  0.16522000  0.62771000  1.0
  H  H4  1  0.27418000  0.33477000  0.37228000  1.0
  H  H5  1  0.22582000  0.83477000  0.37229000  1.0
  H  H6  1  0.21199000  0.90465000  0.72136000  1.0
  H  H7  1  0.28801000  0.40465000  0.72137000  1.0
  H  H8  1  0.78803000  0.09535000  0.27863000  1.0
  H  H9  1  0.71198000  0.59535000  0.27862000  1.0
  H  H10  1  0.15163000  0.88220000  0.88296000  1.0
  H  H11  1  0.34833000  0.38220000  0.88298000  1.0
  H  H12  1  0.84837000  0.11780000  0.11703000  1.0
  H  H13  1  0.65165000  0.61780000  0.11702000  1.0
  H  H14  1  0.43058000  0.70391000  0.98806000  1.0
  H  H15  1  0.06936000  0.20391000  0.98806000  1.0
  H  H16  1  0.56940000  0.29610000  0.01194000  1.0
  H  H17  1  0.93062000  0.79609000  0.01194000  1.0
  H  H18  1  0.77523000  0.54804000  0.92935000  1.0
  H  H19  1  0.72471000  0.04804000  0.92934000  1.0
  H  H20  1  0.22476000  0.45197000  0.07066000  1.0
  H  H21  1  0.27526000  0.95196000  0.07066000  1.0
  H  H22  1  0.83382000  0.57072000  0.76723000  1.0
  H  H23  1  0.66618000  0.07072000  0.76722000  1.0
  H  H24  1  0.16620000  0.42928000  0.23277000  1.0
  H  H25  1  0.33380000  0.92927000  0.23278000  1.0
  C  C26  1  0.34475000  0.71666000  0.57985000  1.0
  C  C27  1  0.15530000  0.21665000  0.57986000  1.0
  C  C28  1  0.65528000  0.28332000  0.42015000  1.0
  C  C29  1  0.84471000  0.78334000  0.42014000  1.0
  C  C30  1  0.57779000  0.75212000  0.63612000  1.0
  C  C31  1  0.92222000  0.25213000  0.63612000  1.0
  C  C32  1  0.42222000  0.24787000  0.36388000  1.0
  C  C33  1  0.07777000  0.74786000  0.36388000  1.0
  C  C34  1  0.52666000  0.73866000  0.73404000  1.0
  C  C35  1  0.97335000  0.23866000  0.73404000  1.0
  C  C36  1  0.47337000  0.26134000  0.26596000  1.0
  C  C37  1  0.02663000  0.76133000  0.26596000  1.0
  C  C38  1  0.33394000  0.82596000  0.76700000  1.0
  C  C39  1  0.16606000  0.32596000  0.76700000  1.0
  C  C40  1  0.66607000  0.17404000  0.23300000  1.0
  C  C41  1  0.83393000  0.67404000  0.23300000  1.0
  C  C42  1  0.30092000  0.81296000  0.85815000  1.0
  C  C43  1  0.19906000  0.31296000  0.85815000  1.0
  C  C44  1  0.69908000  0.18704000  0.14185000  1.0
  C  C45  1  0.80092000  0.68703000  0.14184000  1.0
  C  C46  1  0.45830000  0.71317000  0.91692000  1.0
  C  C47  1  0.04163000  0.21317000  0.91692000  1.0
  C  C48  1  0.54169000  0.28684000  0.08308000  1.0
  C  C49  1  0.95835000  0.78683000  0.08308000  1.0
  C  C50  1  0.65015000  0.62579000  0.88422000  1.0
  C  C51  1  0.84981000  0.12579000  0.88422000  1.0
  C  C52  1  0.34985000  0.37422000  0.11578000  1.0
  C  C53  1  0.15016000  0.87421000  0.11579000  1.0
  C  C54  1  0.68402000  0.63865000  0.79300000  1.0
  C  C55  1  0.81597000  0.13864000  0.79300000  1.0
  C  C56  1  0.31600000  0.36135000  0.20700000  1.0
  C  C57  1  0.18402000  0.86136000  0.20700000  1.0
  O  O58  1  0.27475000  0.82646000  0.51807000  1.0
  O  O59  1  0.22529000  0.32646000  0.51807000  1.0
  O  O60  1  0.72527000  0.17355000  0.48192000  1.0
  O  O61  1  0.77472000  0.67355000  0.48193000  1.0
  O  O62  1  0.24105000  0.58510000  0.59336000  1.0
  O  O63  1  0.25897000  0.08511000  0.59335000  1.0
  O  O64  1  0.75895000  0.41491000  0.40664000  1.0
  O  O65  1  0.74105000  0.91490000  0.40665000  1.0
  O  O66  1  0.67333000  0.89980000  0.59770000  1.0
  O  O67  1  0.82668000  0.39980000  0.59770000  1.0
  O  O68  1  0.32669000  0.10019000  0.40230000  1.0
  O  O69  1  0.17333000  0.60020000  0.40230000  1.0
