# generated using pymatgen
data_CdH11C13BrN4O5
_symmetry_space_group_name_H-M   'P 1'
_cell_length_a   8.76759000
_cell_length_b   14.96330000
_cell_length_c   14.97863394
_cell_angle_alpha   65.61092685
_cell_angle_beta   72.99557116
_cell_angle_gamma   72.97300000
_symmetry_Int_Tables_number   1
_chemical_formula_structural   CdH11C13BrN4O5
_chemical_formula_sum   'Cd4 H44 C52 Br4 N16 O20'
_cell_volume   1677.74542205
_cell_formula_units_Z   4
loop_
 _symmetry_equiv_pos_site_id
 _symmetry_equiv_pos_as_xyz
  1  'x, y, z'
loop_
 _atom_site_type_symbol
 _atom_site_label
 _atom_site_symmetry_multiplicity
 _atom_site_fract_x
 _atom_site_fract_y
 _atom_site_fract_z
 _atom_site_occupancy
  Cd  Cd0  1  0.77009000  0.05423000  0.32189000  1.0
  Cd  Cd1  1  0.14609000  0.44572000  0.17810000  1.0
  Cd  Cd2  1  0.22991000  0.94577000  0.67811000  1.0
  Cd  Cd3  1  0.85391000  0.55428000  0.82190000  1.0
  H  H4  1  0.42302000  0.78021000  0.00366000  1.0
  H  H5  1  0.20662000  0.71987000  0.49632000  1.0
  H  H6  1  0.57698000  0.21979000  0.99634000  1.0
  H  H7  1  0.79338000  0.28013000  0.50368000  1.0
  H  H8  1  0.71740000  0.62370000  0.61682000  1.0
  H  H9  1  0.95769000  0.87622000  0.88329000  1.0
  H  H10  1  0.28260000  0.37630000  0.38318000  1.0
  H  H11  1  0.04232000  0.12378000  0.11670000  1.0
  H  H12  1  0.83448000  0.83286000  0.31537000  1.0
  H  H13  1  0.98264000  0.66698000  0.18469000  1.0
  H  H14  1  0.16553000  0.16714000  0.68463000  1.0
  H  H15  1  0.01735000  0.33302000  0.81532000  1.0
  H  H16  1  0.62016000  0.94378000  0.54502000  1.0
  H  H17  1  0.10896000  0.55617000  0.95497000  1.0
  H  H18  1  0.37984000  0.05622000  0.45498000  1.0
  H  H19  1  0.89103000  0.44383000  0.04504000  1.0
  H  H20  1  0.17874000  0.99326000  0.34470000  1.0
  H  H21  1  0.51640000  0.50682000  0.15525000  1.0
  H  H22  1  0.82126000  0.00674000  0.65530000  1.0
  H  H23  1  0.48360000  0.49318000  0.84475000  1.0
  H  H24  1  0.44228000  0.96172000  0.31464000  1.0
  H  H25  1  0.71841000  0.53827000  0.18536000  1.0
  H  H26  1  0.55772000  0.03828000  0.68536000  1.0
  H  H27  1  0.28159000  0.46173000  0.81464000  1.0
  H  H28  1  0.55051000  0.95298000  0.19588000  1.0
  H  H29  1  0.69915000  0.54703000  0.30412000  1.0
  H  H30  1  0.44949000  0.04702000  0.80412000  1.0
  H  H31  1  0.30085000  0.45297000  0.69587000  1.0
  H  H32  1  0.50893000  0.84312000  0.30072000  1.0
  H  H33  1  0.65258000  0.65686000  0.19929000  1.0
  H  H34  1  0.49107000  0.15688000  0.69928000  1.0
  H  H35  1  0.34742000  0.34314000  0.80071000  1.0
  H  H36  1  0.19095000  0.90859000  0.14867000  1.0
  H  H37  1  0.24805000  0.59137000  0.35133000  1.0
  H  H38  1  0.80907000  0.09141000  0.85132000  1.0
  H  H39  1  0.75195000  0.40863000  0.64867000  1.0
  H  H40  1  0.37648000  0.82171000  0.17552000  1.0
  H  H41  1  0.37354000  0.67824000  0.32453000  1.0
  H  H42  1  0.62352000  0.17829000  0.82448000  1.0
  H  H43  1  0.62646000  0.32176000  0.67547000  1.0
  H  H44  1  0.38289000  0.94477000  0.08594000  1.0
  H  H45  1  0.41352000  0.55517000  0.41406000  1.0
  H  H46  1  0.61711000  0.05523000  0.91406000  1.0
  H  H47  1  0.58648000  0.44483000  0.58594000  1.0
  C  C48  1  0.33316000  0.87370000  0.88287000  1.0
  C  C49  1  0.08977000  0.62622000  0.61713000  1.0
  C  C50  1  0.66684000  0.12630000  0.11713000  1.0
  C  C51  1  0.91023000  0.37378000  0.38287000  1.0
  C  C52  1  0.45641000  0.81377000  0.82831000  1.0
  C  C53  1  0.09847000  0.68620000  0.67168000  1.0
  C  C54  1  0.54359000  0.18623000  0.17169000  1.0
  C  C55  1  0.90154000  0.31380000  0.32831000  1.0
  C  C56  1  0.56869000  0.72421000  0.86053000  1.0
  C  C57  1  0.15325000  0.77582000  0.63945000  1.0
  C  C58  1  0.43131000  0.27579000  0.13947000  1.0
  C  C59  1  0.84675000  0.22418000  0.36055000  1.0
  C  C60  1  0.60659000  0.66336000  0.96117000  1.0
  C  C61  1  0.23084000  0.83670000  0.53878000  1.0
  C  C62  1  0.39341000  0.33664000  0.03883000  1.0
  C  C63  1  0.76916000  0.16330000  0.46122000  1.0
  C  C64  1  0.59118000  0.77223000  0.70009000  1.0
  C  C65  1  0.06348000  0.72774000  0.79994000  1.0
  C  C66  1  0.40882000  0.22777000  0.29991000  1.0
  C  C67  1  0.93652000  0.27226000  0.20006000  1.0
  C  C68  1  0.65512000  0.78196000  0.59534000  1.0
  C  C69  1  0.03243000  0.71799000  0.90469000  1.0
  C  C70  1  0.34487000  0.21804000  0.40466000  1.0
  C  C71  1  0.96758000  0.28201000  0.09531000  1.0
  C  C72  1  0.71663000  0.70006000  0.56357000  1.0
  C  C73  1  0.98010000  0.79986000  0.93652000  1.0
  C  C74  1  0.28337000  0.29994000  0.43643000  1.0
  C  C75  1  0.01988000  0.20014000  0.06349000  1.0
  C  C76  1  0.77918000  0.71852000  0.46195000  1.0
  C  C77  1  0.95945000  0.78137000  0.03815000  1.0
  C  C78  1  0.22082000  0.28148000  0.53805000  1.0
  C  C79  1  0.04055000  0.21863000  0.96185000  1.0
  C  C80  1  0.78252000  0.81637000  0.39478000  1.0
  C  C81  1  0.99357000  0.68350000  0.10527000  1.0
  C  C82  1  0.21748000  0.18363000  0.60522000  1.0
  C  C83  1  0.00643000  0.31650000  0.89474000  1.0
  C  C84  1  0.66106000  0.87822000  0.52333000  1.0
  C  C85  1  0.06259000  0.62171000  0.97666000  1.0
  C  C86  1  0.33894000  0.12178000  0.47667000  1.0
  C  C87  1  0.93741000  0.37828000  0.02334000  1.0
  C  C88  1  0.16683000  0.96888000  0.28734000  1.0
  C  C89  1  0.42277000  0.53115000  0.21263000  1.0
  C  C90  1  0.83317000  0.03112000  0.71266000  1.0
  C  C91  1  0.57723000  0.46885000  0.78737000  1.0
  C  C92  1  0.46114000  0.92297000  0.26309000  1.0
  C  C93  1  0.64697000  0.57702000  0.23691000  1.0
  C  C94  1  0.53886000  0.07703000  0.73691000  1.0
  C  C95  1  0.35303000  0.42298000  0.76309000  1.0
  C  C96  1  0.31451000  0.90070000  0.15710000  1.0
  C  C97  1  0.37215000  0.59926000  0.34292000  1.0
  C  C98  1  0.68549000  0.09930000  0.84290000  1.0
  C  C99  1  0.62785000  0.40074000  0.65708000  1.0
  Br  Br100  1  0.86258000  0.61088000  0.41451000  1.0
  Br  Br101  1  0.88784000  0.88897000  0.08569000  1.0
  Br  Br102  1  0.13742000  0.38911000  0.58549000  1.0
  Br  Br103  1  0.11215000  0.11104000  0.91431000  1.0
  N  N104  1  0.47224000  0.84303000  0.72713000  1.0
  N  N105  1  0.04246000  0.65692000  0.77288000  1.0
  N  N106  1  0.52776000  0.15698000  0.27287000  1.0
  N  N107  1  0.95754000  0.34308000  0.22712000  1.0
  N  N108  1  0.65131000  0.69844000  0.77907000  1.0
  N  N109  1  0.12862000  0.80159000  0.72093000  1.0
  N  N110  1  0.34869000  0.30156000  0.22093000  1.0
  N  N111  1  0.87138000  0.19841000  0.27907000  1.0
  N  N112  1  0.72403000  0.89444000  0.42624000  1.0
  N  N113  1  0.04455000  0.60545000  0.07378000  1.0
  N  N114  1  0.27596000  0.10556000  0.57376000  1.0
  N  N115  1  0.95545000  0.39455000  0.92622000  1.0
  N  N116  1  0.30845000  0.93550000  0.23578000  1.0
  N  N117  1  0.47949000  0.56454000  0.26418000  1.0
  N  N118  1  0.69155000  0.06450000  0.76422000  1.0
  N  N119  1  0.52052000  0.43546000  0.73581000  1.0
  O  O120  1  0.23451000  0.94702000  0.83779000  1.0
  O  O121  1  0.01949000  0.55285000  0.66229000  1.0
  O  O122  1  0.76550000  0.05298000  0.16221000  1.0
  O  O123  1  0.98051000  0.44715000  0.33771000  1.0
  O  O124  1  0.33040000  0.84944000  0.97745000  1.0
  O  O125  1  0.15718000  0.65052000  0.52253000  1.0
  O  O126  1  0.66960000  0.15055000  0.02255000  1.0
  O  O127  1  0.84282000  0.34948000  0.47747000  1.0
  O  O128  1  0.53184000  0.69628000  0.03247000  1.0
  O  O129  1  0.26013000  0.80379000  0.46748000  1.0
  O  O130  1  0.46816000  0.30372000  0.96753000  1.0
  O  O131  1  0.73986000  0.19621000  0.53252000  1.0
  O  O132  1  0.71108000  0.58220000  0.97301000  1.0
  O  O133  1  0.26614000  0.91783000  0.52691000  1.0
  O  O134  1  0.28893000  0.41780000  0.02698000  1.0
  O  O135  1  0.73385000  0.08218000  0.47309000  1.0
  O  O136  1  0.03129000  0.97343000  0.27140000  1.0
  O  O137  1  0.27588000  0.52651000  0.22862000  1.0
  O  O138  1  0.96871000  0.02657000  0.72860000  1.0
  O  O139  1  0.72412000  0.47349000  0.77138000  1.0
