# generated using pymatgen
data_HgH24C19(SBr)2
_symmetry_space_group_name_H-M   'P 1'
_cell_length_a   7.43849000
_cell_length_b   9.32861000
_cell_length_c   16.04760000
_cell_angle_alpha   104.00200000
_cell_angle_beta   96.97260000
_cell_angle_gamma   100.10400000
_symmetry_Int_Tables_number   1
_chemical_formula_structural   HgH24C19(SBr)2
_chemical_formula_sum   'Hg2 H48 C38 S4 Br4'
_cell_volume   1047.94807325
_cell_formula_units_Z   2
loop_
 _symmetry_equiv_pos_site_id
 _symmetry_equiv_pos_as_xyz
  1  'x, y, z'
loop_
 _atom_site_type_symbol
 _atom_site_label
 _atom_site_symmetry_multiplicity
 _atom_site_fract_x
 _atom_site_fract_y
 _atom_site_fract_z
 _atom_site_occupancy
  Hg  Hg0  1  0.84552000  0.69198000  0.73805000  1.0
  Hg  Hg1  1  0.15448000  0.30802000  0.26195000  1.0
  H  H2  1  0.19837000  0.18274000  0.01654000  1.0
  H  H3  1  0.80162000  0.81726000  0.98346000  1.0
  H  H4  1  0.44462000  0.41131000  0.07812000  1.0
  H  H5  1  0.55537000  0.58869000  0.92188000  1.0
  H  H6  1  0.74809000  0.43201000  0.02508000  1.0
  H  H7  1  0.25191000  0.56800000  0.97493000  1.0
  H  H8  1  0.80144000  0.21857000  0.91028000  1.0
  H  H9  1  0.19857000  0.78143000  0.08972000  1.0
  H  H10  1  0.55407000  0.98538000  0.85011000  1.0
  H  H11  1  0.44593000  0.01463000  0.14989000  1.0
  H  H12  1  0.14867000  0.88125000  0.93621000  1.0
  H  H13  1  0.85133000  0.11876000  0.06379000  1.0
  H  H14  1  0.25755000  0.84303000  0.84340000  1.0
  H  H15  1  0.74245000  0.15697000  0.15660000  1.0
  H  H16  1  0.21181000  0.98550000  0.72314000  1.0
  H  H17  1  0.78819000  0.01450000  0.27686000  1.0
  H  H18  1  0.99199000  0.01920000  0.68823000  1.0
  H  H19  1  0.00801000  0.98080000  0.31177000  1.0
  H  H20  1  0.29460000  0.24726000  0.83044000  1.0
  H  H21  1  0.70540000  0.75274000  0.16956000  1.0
  H  H22  1  0.07120000  0.27579000  0.79761000  1.0
  H  H23  1  0.92880000  0.72421000  0.20239000  1.0
  H  H24  1  0.13246000  0.26071000  0.64818000  1.0
  H  H25  1  0.86755000  0.73929000  0.35182000  1.0
  H  H26  1  0.35040000  0.21726000  0.67404000  1.0
  H  H27  1  0.64961000  0.78274000  0.32596000  1.0
  H  H28  1  0.24322000  0.51119000  0.76588000  1.0
  H  H29  1  0.75679000  0.48881000  0.23412000  1.0
  H  H30  1  0.46539000  0.46692000  0.78054000  1.0
  H  H31  1  0.53461000  0.53308000  0.21946000  1.0
  H  H32  1  0.25855000  0.49982000  0.60991000  1.0
  H  H33  1  0.74145000  0.50018000  0.39009000  1.0
  H  H34  1  0.48015000  0.44918000  0.62124000  1.0
  H  H35  1  0.51984000  0.55083000  0.37876000  1.0
  H  H36  1  0.56697000  0.66489000  0.54984000  1.0
  H  H37  1  0.43303000  0.33511000  0.45016000  1.0
  H  H38  1  0.35575000  0.73043000  0.55784000  1.0
  H  H39  1  0.64425000  0.26957000  0.44216000  1.0
  H  H40  1  0.52388000  0.01505000  0.71597000  1.0
  H  H41  1  0.47611000  0.98496000  0.28403000  1.0
  H  H42  1  0.68707000  0.27236000  0.71956000  1.0
  H  H43  1  0.31292000  0.72764000  0.28044000  1.0
  H  H44  1  0.85079000  0.31356000  0.59824000  1.0
  H  H45  1  0.14921000  0.68644000  0.40176000  1.0
  H  H46  1  0.87090000  0.09221000  0.47904000  1.0
  H  H47  1  0.12910000  0.90778000  0.52096000  1.0
  H  H48  1  0.71752000  0.83295000  0.47865000  1.0
  H  H49  1  0.28248000  0.16704000  0.52135000  1.0
  C  C50  1  0.33119000  0.18872000  0.99364000  1.0
  C  C51  1  0.66880000  0.81128000  0.00636000  1.0
  C  C52  1  0.47044000  0.31840000  0.02837000  1.0
  C  C53  1  0.52956000  0.68160000  0.97164000  1.0
  C  C54  1  0.63955000  0.33029000  0.99815000  1.0
  C  C55  1  0.36045000  0.66971000  0.00185000  1.0
  C  C56  1  0.66944000  0.21051000  0.93379000  1.0
  C  C57  1  0.33056000  0.78950000  0.06622000  1.0
  C  C58  1  0.53002000  0.08021000  0.89936000  1.0
  C  C59  1  0.46998000  0.91980000  0.10064000  1.0
  C  C60  1  0.35907000  0.06867000  0.92825000  1.0
  C  C61  1  0.64093000  0.93133000  0.07176000  1.0
  C  C62  1  0.20788000  0.93124000  0.88759000  1.0
  C  C63  1  0.79212000  0.06877000  0.11241000  1.0
  C  C64  1  0.10614000  0.04886000  0.74388000  1.0
  C  C65  1  0.89386000  0.95114000  0.25612000  1.0
  C  C66  1  0.18117000  0.21934000  0.77467000  1.0
  C  C67  1  0.81883000  0.78066000  0.22533000  1.0
  C  C68  1  0.24956000  0.28025000  0.70144000  1.0
  C  C69  1  0.75044000  0.71975000  0.29856000  1.0
  C  C70  1  0.33859000  0.44875000  0.73262000  1.0
  C  C71  1  0.66142000  0.55125000  0.26738000  1.0
  C  C72  1  0.38486000  0.50906000  0.65607000  1.0
  C  C73  1  0.61514000  0.49094000  0.34393000  1.0
  C  C74  1  0.50161000  0.74886000  0.58856000  1.0
  C  C75  1  0.49839000  0.25114000  0.41144000  1.0
  C  C76  1  0.60572000  0.90607000  0.59579000  1.0
  C  C77  1  0.39428000  0.09393000  0.40421000  1.0
  C  C78  1  0.59982000  0.03087000  0.66371000  1.0
  C  C79  1  0.40017000  0.96912000  0.33629000  1.0
  C  C80  1  0.68939000  0.17653000  0.66528000  1.0
  C  C81  1  0.31061000  0.82347000  0.33472000  1.0
  C  C82  1  0.78394000  0.19941000  0.59802000  1.0
  C  C83  1  0.21606000  0.80058000  0.40198000  1.0
  C  C84  1  0.79393000  0.07516000  0.53083000  1.0
  C  C85  1  0.20608000  0.92484000  0.46917000  1.0
  C  C86  1  0.70721000  0.92967000  0.53039000  1.0
  C  C87  1  0.29279000  0.07032000  0.46961000  1.0
  S  S88  1  0.00744000  0.97394000  0.82692000  1.0
  S  S89  1  0.99256000  0.02606000  0.17308000  1.0
  S  S90  1  0.49338000  0.70898000  0.69375000  1.0
  S  S91  1  0.50662000  0.29101000  0.30625000  1.0
  Br  Br92  1  0.94895000  0.63627000  0.58650000  1.0
  Br  Br93  1  0.05106000  0.36373000  0.41351000  1.0
  Br  Br94  1  0.89098000  0.53702000  0.84941000  1.0
  Br  Br95  1  0.10902000  0.46298000  0.15060000  1.0
