# generated using pymatgen
data_NiH18C26(NO)4
_symmetry_space_group_name_H-M   'P 1'
_cell_length_a   8.98874000
_cell_length_b   11.53350000
_cell_length_c   11.71740000
_cell_angle_alpha   98.52510000
_cell_angle_beta   99.88810000
_cell_angle_gamma   103.19900000
_symmetry_Int_Tables_number   1
_chemical_formula_structural   NiH18C26(NO)4
_chemical_formula_sum   'Ni2 H36 C52 N8 O8'
_cell_volume   1142.63402243
_cell_formula_units_Z   2
loop_
 _symmetry_equiv_pos_site_id
 _symmetry_equiv_pos_as_xyz
  1  'x, y, z'
loop_
 _atom_site_type_symbol
 _atom_site_label
 _atom_site_symmetry_multiplicity
 _atom_site_fract_x
 _atom_site_fract_y
 _atom_site_fract_z
 _atom_site_occupancy
  Ni  Ni0  1  0.89677000  0.90153000  0.10718000  1.0
  Ni  Ni1  1  0.10323000  0.09847000  0.89282000  1.0
  H  H2  1  0.02979000  0.04033000  0.35282000  1.0
  H  H3  1  0.97020000  0.95966000  0.64717000  1.0
  H  H4  1  0.20963000  0.02522000  0.53343000  1.0
  H  H5  1  0.79036000  0.97477000  0.46657000  1.0
  H  H6  1  0.28440000  0.70660000  0.32907000  1.0
  H  H7  1  0.71560000  0.29340000  0.67093000  1.0
  H  H8  1  0.10000000  0.73683000  0.15781000  1.0
  H  H9  1  0.90000000  0.26317000  0.84219000  1.0
  H  H10  1  0.42003000  0.76808000  0.53267000  1.0
  H  H11  1  0.57996000  0.23191000  0.46733000  1.0
  H  H12  1  0.37482000  0.00526000  0.66687000  1.0
  H  H13  1  0.62519000  0.99474000  0.33312000  1.0
  H  H14  1  0.51519000  0.08415000  0.85592000  1.0
  H  H15  1  0.48481000  0.91585000  0.14408000  1.0
  H  H16  1  0.69182000  0.06864000  0.03815000  1.0
  H  H17  1  0.30818000  0.93136000  0.96185000  1.0
  H  H18  1  0.73779000  0.73702000  0.88190000  1.0
  H  H19  1  0.26221000  0.26298000  0.11810000  1.0
  H  H20  1  0.56289000  0.73619000  0.69377000  1.0
  H  H21  1  0.43711000  0.26381000  0.30622000  1.0
  H  H22  1  0.12043000  0.64999000  0.99196000  1.0
  H  H23  1  0.87956000  0.35001000  0.00803000  1.0
  H  H24  1  0.15311000  0.45338000  0.88854000  1.0
  H  H25  1  0.84689000  0.54662000  0.11146000  1.0
  H  H26  1  0.09384000  0.40389000  0.66883000  1.0
  H  H27  1  0.90617000  0.59611000  0.33117000  1.0
  H  H28  1  0.00133000  0.75212000  0.65603000  1.0
  H  H29  1  0.99867000  0.24787000  0.34397000  1.0
  H  H30  1  0.43133000  0.59882000  0.04267000  1.0
  H  H31  1  0.56868000  0.40118000  0.95734000  1.0
  H  H32  1  0.23147000  0.45043000  0.10779000  1.0
  H  H33  1  0.76853000  0.54957000  0.89221000  1.0
  H  H34  1  0.27573000  0.42285000  0.31794000  1.0
  H  H35  1  0.72427000  0.57715000  0.68207000  1.0
  H  H36  1  0.69920000  0.71164000  0.40174000  1.0
  H  H37  1  0.30081000  0.28836000  0.59827000  1.0
  C  C38  1  0.08978000  0.96829000  0.35239000  1.0
  C  C39  1  0.91022000  0.03171000  0.64760000  1.0
  C  C40  1  0.19077000  0.95906000  0.45215000  1.0
  C  C41  1  0.80922000  0.04093000  0.54785000  1.0
  C  C42  1  0.26624000  0.86426000  0.44733000  1.0
  C  C43  1  0.73375000  0.13573000  0.55267000  1.0
  C  C44  1  0.23171000  0.78272000  0.33873000  1.0
  C  C45  1  0.76828000  0.21727000  0.66126000  1.0
  C  C46  1  0.12903000  0.79842000  0.24291000  1.0
  C  C47  1  0.87096000  0.20158000  0.75709000  1.0
  C  C48  1  0.37453000  0.84804000  0.54757000  1.0
  C  C49  1  0.62547000  0.15196000  0.45243000  1.0
  C  C50  1  0.42011000  0.92518000  0.65334000  1.0
  C  C51  1  0.57989000  0.07482000  0.34665000  1.0
  C  C52  1  0.52583000  0.91345000  0.75705000  1.0
  C  C53  1  0.47417000  0.08655000  0.24295000  1.0
  C  C54  1  0.56535000  0.00677000  0.85745000  1.0
  C  C55  1  0.43465000  0.99323000  0.14255000  1.0
  C  C56  1  0.66431000  0.99874000  0.95890000  1.0
  C  C57  1  0.33569000  0.00126000  0.04110000  1.0
  C  C58  1  0.68825000  0.81329000  0.87113000  1.0
  C  C59  1  0.31175000  0.18671000  0.12887000  1.0
  C  C60  1  0.58964000  0.81362000  0.76658000  1.0
  C  C61  1  0.41036000  0.18638000  0.23342000  1.0
  C  C62  1  0.03838000  0.83054000  0.89426000  1.0
  C  C63  1  0.96161000  0.16946000  0.10574000  1.0
  C  C64  1  0.05877000  0.71367000  0.83129000  1.0
  C  C65  1  0.94123000  0.28633000  0.16871000  1.0
  C  C66  1  0.10067000  0.62867000  0.89597000  1.0
  C  C67  1  0.89933000  0.37133000  0.10403000  1.0
  C  C68  1  0.11704000  0.51858000  0.83846000  1.0
  C  C69  1  0.88296000  0.48142000  0.16154000  1.0
  C  C70  1  0.08608000  0.49040000  0.71572000  1.0
  C  C71  1  0.91392000  0.50961000  0.28428000  1.0
  C  C72  1  0.04232000  0.57451000  0.64998000  1.0
  C  C73  1  0.95768000  0.42549000  0.35002000  1.0
  C  C74  1  0.03294000  0.68710000  0.70801000  1.0
  C  C75  1  0.96706000  0.31290000  0.29198000  1.0
  C  C76  1  0.69582000  0.75569000  0.17844000  1.0
  C  C77  1  0.30418000  0.24431000  0.82157000  1.0
  C  C78  1  0.57708000  0.66561000  0.21767000  1.0
  C  C79  1  0.42293000  0.33440000  0.78234000  1.0
  C  C80  1  0.44638000  0.59030000  0.13518000  1.0
  C  C81  1  0.55363000  0.40970000  0.86483000  1.0
  C  C82  1  0.33565000  0.50563000  0.17173000  1.0
  C  C83  1  0.66435000  0.49437000  0.82828000  1.0
  C  C84  1  0.35961000  0.48968000  0.28840000  1.0
  C  C85  1  0.64039000  0.51033000  0.71160000  1.0
  C  C86  1  0.49381000  0.56231000  0.37021000  1.0
  C  C87  1  0.50619000  0.43769000  0.62980000  1.0
  C  C88  1  0.59840000  0.65393000  0.33599000  1.0
  C  C89  1  0.40161000  0.34607000  0.66402000  1.0
  N  N90  1  0.05885000  0.88970000  0.24843000  1.0
  N  N91  1  0.94115000  0.11030000  0.75157000  1.0
  N  N92  1  0.72817000  0.90479000  0.96631000  1.0
  N  N93  1  0.27182000  0.09521000  0.03369000  1.0
  N  N94  1  0.00344000  0.55339000  0.52515000  1.0
  N  N95  1  0.99656000  0.44661000  0.47485000  1.0
  N  N96  1  0.53097000  0.55146000  0.48994000  1.0
  N  N97  1  0.46903000  0.44854000  0.51006000  1.0
  O  O98  1  0.72739000  0.86816000  0.22450000  1.0
  O  O99  1  0.27261000  0.13185000  0.77551000  1.0
  O  O100  1  0.76311000  0.71706000  0.09893000  1.0
  O  O101  1  0.23689000  0.28294000  0.90108000  1.0
  O  O102  1  0.02451000  0.83386000  0.00075000  1.0
  O  O103  1  0.97549000  0.16614000  0.99925000  1.0
  O  O104  1  0.03832000  0.91581000  0.83666000  1.0
  O  O105  1  0.96168000  0.08418000  0.16334000  1.0
