# generated using pymatgen
data_CdH14C8Br2(N2O)2
_symmetry_space_group_name_H-M   'P 1'
_cell_length_a   9.40201000
_cell_length_b   9.48865000
_cell_length_c   14.49350000
_cell_angle_alpha   90.00000000
_cell_angle_beta   98.77200000
_cell_angle_gamma   90.00000000
_symmetry_Int_Tables_number   1
_chemical_formula_structural   CdH14C8Br2(N2O)2
_chemical_formula_sum   'Cd4 H56 C32 Br8 N16 O8'
_cell_volume   1277.87547835
_cell_formula_units_Z   4
loop_
 _symmetry_equiv_pos_site_id
 _symmetry_equiv_pos_as_xyz
  1  'x, y, z'
loop_
 _atom_site_type_symbol
 _atom_site_label
 _atom_site_symmetry_multiplicity
 _atom_site_fract_x
 _atom_site_fract_y
 _atom_site_fract_z
 _atom_site_occupancy
  Cd  Cd0  1  0.67761000  0.27006000  0.03008000  1.0
  Cd  Cd1  1  0.82239000  0.77006000  0.46992000  1.0
  Cd  Cd2  1  0.32239000  0.72994000  0.96992000  1.0
  Cd  Cd3  1  0.17761000  0.22994000  0.53008000  1.0
  H  H4  1  0.66940000  0.29926000  0.26269000  1.0
  H  H5  1  0.83060000  0.79926000  0.23731000  1.0
  H  H6  1  0.33061000  0.70075000  0.73731000  1.0
  H  H7  1  0.16940000  0.20074000  0.76269000  1.0
  H  H8  1  0.68011000  0.11400000  0.23716000  1.0
  H  H9  1  0.81989000  0.61401000  0.26284000  1.0
  H  H10  1  0.31989000  0.88600000  0.76284000  1.0
  H  H11  1  0.18011000  0.38599000  0.73716000  1.0
  H  H12  1  0.48726000  0.95421000  0.26853000  1.0
  H  H13  1  0.01274000  0.45421000  0.23147000  1.0
  H  H14  1  0.51274000  0.04579000  0.73147000  1.0
  H  H15  1  0.98726000  0.54578000  0.76853000  1.0
  H  H16  1  0.34028000  0.02262000  0.32197000  1.0
  H  H17  1  0.15972000  0.52262000  0.17803000  1.0
  H  H18  1  0.65972000  0.97738000  0.67803000  1.0
  H  H19  1  0.84028000  0.47738000  0.82197000  1.0
  H  H20  1  0.37708000  0.12095000  0.04535000  1.0
  H  H21  1  0.12292000  0.62095000  0.45465000  1.0
  H  H22  1  0.62292000  0.87905000  0.95465000  1.0
  H  H23  1  0.87708000  0.37905000  0.54535000  1.0
  H  H24  1  0.50870000  0.01083000  0.11330000  1.0
  H  H25  1  0.99130000  0.51083000  0.38670000  1.0
  H  H26  1  0.49130000  0.98917000  0.88670000  1.0
  H  H27  1  0.00871000  0.48917000  0.61330000  1.0
  H  H28  1  0.48995000  0.44449000  0.17368000  1.0
  H  H29  1  0.01005000  0.94449000  0.32632000  1.0
  H  H30  1  0.51005000  0.55551000  0.82632000  1.0
  H  H31  1  0.98995000  0.05551000  0.67368000  1.0
  H  H32  1  0.36634000  0.37026000  0.08069000  1.0
  H  H33  1  0.13365000  0.87026000  0.41931000  1.0
  H  H34  1  0.63366000  0.62974000  0.91931000  1.0
  H  H35  1  0.86634000  0.12974000  0.58069000  1.0
  H  H36  1  0.32634000  0.27071000  0.35580000  1.0
  H  H37  1  0.17366000  0.77071000  0.14419000  1.0
  H  H38  1  0.67366000  0.72929000  0.64419000  1.0
  H  H39  1  0.82634000  0.22929000  0.85580000  1.0
  H  H40  1  0.46569000  0.38986000  0.33298000  1.0
  H  H41  1  0.03430000  0.88986000  0.16702000  1.0
  H  H42  1  0.53431000  0.61014000  0.66702000  1.0
  H  H43  1  0.96569000  0.11014000  0.83298000  1.0
  H  H44  1  0.16325000  0.17201000  0.23223000  1.0
  H  H45  1  0.33675000  0.67201000  0.26777000  1.0
  H  H46  1  0.83675000  0.82800000  0.76777000  1.0
  H  H47  1  0.66325000  0.32800000  0.73223000  1.0
  H  H48  1  0.17914000  0.21193000  0.11356000  1.0
  H  H49  1  0.32086000  0.71193000  0.38644000  1.0
  H  H50  1  0.82086000  0.78807000  0.88644000  1.0
  H  H51  1  0.67914000  0.28807000  0.61356000  1.0
  H  H52  1  0.49946000  0.15248000  0.45053000  1.0
  H  H53  1  0.00054000  0.65248000  0.04947000  1.0
  H  H54  1  0.50054000  0.84752000  0.54947000  1.0
  H  H55  1  0.99946000  0.34752000  0.95053000  1.0
  H  H56  1  0.65432000  0.24132000  0.42150000  1.0
  H  H57  1  0.84568000  0.74131000  0.07850000  1.0
  H  H58  1  0.34568000  0.75869000  0.57850000  1.0
  H  H59  1  0.15432000  0.25868000  0.92150000  1.0
  C  C60  1  0.60798000  0.20461000  0.23778000  1.0
  C  C61  1  0.89202000  0.70461000  0.26222000  1.0
  C  C62  1  0.39202000  0.79538000  0.76222000  1.0
  C  C63  1  0.10798000  0.29539000  0.73778000  1.0
  C  C64  1  0.41257000  0.04230000  0.27084000  1.0
  C  C65  1  0.08743000  0.54230000  0.22916000  1.0
  C  C66  1  0.58744000  0.95770000  0.72916000  1.0
  C  C67  1  0.91257000  0.45770000  0.77084000  1.0
  C  C68  1  0.43636000  0.10132000  0.11547000  1.0
  C  C69  1  0.06364000  0.60132000  0.38453000  1.0
  C  C70  1  0.56364000  0.89868000  0.88453000  1.0
  C  C71  1  0.93636000  0.39868000  0.61547000  1.0
  C  C72  1  0.42590000  0.35059000  0.15057000  1.0
  C  C73  1  0.07410000  0.85059000  0.34943000  1.0
  C  C74  1  0.57411000  0.64941000  0.84943000  1.0
  C  C75  1  0.92589000  0.14941000  0.65057000  1.0
  C  C76  1  0.40028000  0.29814000  0.30691000  1.0
  C  C77  1  0.09972000  0.79814000  0.19309000  1.0
  C  C78  1  0.59972000  0.70186000  0.69309000  1.0
  C  C79  1  0.90028000  0.20186000  0.80691000  1.0
  C  C80  1  0.23947000  0.19340000  0.18348000  1.0
  C  C81  1  0.26053000  0.69340000  0.31652000  1.0
  C  C82  1  0.76053000  0.80660000  0.81652000  1.0
  C  C83  1  0.73947000  0.30660000  0.68348000  1.0
  C  C84  1  0.58164000  0.15078000  0.40424000  1.0
  C  C85  1  0.91836000  0.65078000  0.09576000  1.0
  C  C86  1  0.41836000  0.84922000  0.59576000  1.0
  C  C87  1  0.08164000  0.34922000  0.90424000  1.0
  C  C88  1  0.66797000  0.01466000  0.42139000  1.0
  C  C89  1  0.83203000  0.51466000  0.07861000  1.0
  C  C90  1  0.33203000  0.98534000  0.57861000  1.0
  C  C91  1  0.16797000  0.48534000  0.92139000  1.0
  Br  Br92  1  0.48136000  0.27593000  0.88358000  1.0
  Br  Br93  1  0.01864000  0.77593000  0.61642000  1.0
  Br  Br94  1  0.51864000  0.72406000  0.11642000  1.0
  Br  Br95  1  0.98136000  0.22407000  0.38358000  1.0
  Br  Br96  1  0.84927000  0.05960000  0.06802000  1.0
  Br  Br97  1  0.65073000  0.55960000  0.43198000  1.0
  Br  Br98  1  0.15073000  0.94040000  0.93200000  1.0
  Br  Br99  1  0.34927000  0.44040000  0.56802000  1.0
  N  N100  1  0.52475000  0.22901000  0.14579000  1.0
  N  N101  1  0.97525000  0.72901000  0.35421000  1.0
  N  N102  1  0.47525000  0.77099000  0.85421000  1.0
  N  N103  1  0.02474000  0.27099000  0.64579000  1.0
  N  N104  1  0.50563000  0.17182000  0.30728000  1.0
  N  N105  1  0.99437000  0.67182000  0.19272000  1.0
  N  N106  1  0.49437000  0.82818000  0.69272000  1.0
  N  N107  1  0.00563000  0.32818000  0.80728000  1.0
  N  N108  1  0.33511000  0.07171000  0.17996000  1.0
  N  N109  1  0.16489000  0.57171000  0.32004000  1.0
  N  N110  1  0.66489000  0.92829000  0.82004000  1.0
  N  N111  1  0.83511000  0.42828000  0.67996000  1.0
  N  N112  1  0.32431000  0.32022000  0.21489000  1.0
  N  N113  1  0.17569000  0.82022000  0.28511000  1.0
  N  N114  1  0.67569000  0.67978000  0.78511000  1.0
  N  N115  1  0.82431000  0.17978000  0.71489000  1.0
  O  O116  1  0.69301000  0.97560000  0.50664000  1.0
  O  O117  1  0.80699000  0.47560000  0.99336000  1.0
  O  O118  1  0.30699000  0.02440000  0.49336000  1.0
  O  O119  1  0.19301000  0.52440000  0.00664000  1.0
  O  O120  1  0.71079000  0.94857000  0.35509000  1.0
  O  O121  1  0.78921000  0.44857000  0.14491000  1.0
  O  O122  1  0.28922000  0.05143000  0.64492000  1.0
  O  O123  1  0.21079000  0.55143000  0.85509000  1.0
