# generated using pymatgen
data_ZnH8C10S2(NCl)2
_symmetry_space_group_name_H-M   'P 1'
_cell_length_a   7.88932000
_cell_length_b   7.88932000
_cell_length_c   10.98920000
_cell_angle_alpha   88.31980000
_cell_angle_beta   88.31980000
_cell_angle_gamma   77.27950000
_symmetry_Int_Tables_number   1
_chemical_formula_structural   ZnH8C10S2(NCl)2
_chemical_formula_sum   'Zn2 H16 C20 S4 N4 Cl4'
_cell_volume   666.72481688
_cell_formula_units_Z   2
loop_
 _symmetry_equiv_pos_site_id
 _symmetry_equiv_pos_as_xyz
  1  'x, y, z'
loop_
 _atom_site_type_symbol
 _atom_site_label
 _atom_site_symmetry_multiplicity
 _atom_site_fract_x
 _atom_site_fract_y
 _atom_site_fract_z
 _atom_site_occupancy
  Zn  Zn0  1  0.95081000  0.04919000  0.25000000  1.0
  Zn  Zn1  1  0.04919000  0.95081000  0.75000000  1.0
  H  H2  1  0.58872000  0.06132000  0.16986000  1.0
  H  H3  1  0.93868000  0.41128000  0.33014000  1.0
  H  H4  1  0.41128000  0.93868000  0.83014000  1.0
  H  H5  1  0.06132000  0.58872000  0.66986000  1.0
  H  H6  1  0.39087000  0.20493000  0.00958000  1.0
  H  H7  1  0.79507000  0.60913000  0.49042000  1.0
  H  H8  1  0.60914000  0.79507000  0.99042000  1.0
  H  H9  1  0.20493000  0.39087000  0.50958000  1.0
  H  H10  1  0.81990000  0.40865000  0.85358000  1.0
  H  H11  1  0.59135000  0.18010000  0.64642000  1.0
  H  H12  1  0.18010000  0.59135000  0.14642000  1.0
  H  H13  1  0.40865000  0.81990000  0.35358000  1.0
  H  H14  1  0.99841000  0.26014000  0.02550000  1.0
  H  H15  1  0.73986000  0.00159000  0.47450000  1.0
  H  H16  1  0.00159000  0.73986000  0.97450000  1.0
  H  H17  1  0.26014000  0.99841000  0.52550000  1.0
  C  C18  1  0.63457000  0.14101000  0.09886000  1.0
  C  C19  1  0.85899000  0.36542000  0.40114000  1.0
  C  C20  1  0.36542000  0.85899000  0.90114000  1.0
  C  C21  1  0.14101000  0.63458000  0.59886000  1.0
  C  C22  1  0.52457000  0.22108000  0.00801000  1.0
  C  C23  1  0.77892000  0.47543000  0.49199000  1.0
  C  C24  1  0.47543000  0.77892000  0.99199000  1.0
  C  C25  1  0.22108000  0.52457000  0.50801000  1.0
  C  C26  1  0.58971000  0.32031000  0.91739000  1.0
  C  C27  1  0.67970000  0.41029000  0.58261000  1.0
  C  C28  1  0.41029000  0.67970000  0.08261000  1.0
  C  C29  1  0.32031000  0.58971000  0.41740000  1.0
  C  C30  1  0.76247000  0.33559000  0.92281000  1.0
  C  C31  1  0.66441000  0.23753000  0.57719000  1.0
  C  C32  1  0.23753000  0.66441000  0.07719000  1.0
  C  C33  1  0.33559000  0.76247000  0.42281000  1.0
  C  C34  1  0.86279000  0.25240000  0.01771000  1.0
  C  C35  1  0.74760000  0.13721000  0.48229000  1.0
  C  C36  1  0.13721000  0.74760000  0.98229000  1.0
  C  C37  1  0.25240000  0.86279000  0.51771000  1.0
  S  S38  1  0.44445000  0.41722000  0.80325000  1.0
  S  S39  1  0.58278000  0.55555000  0.69675000  1.0
  S  S40  1  0.55555000  0.58278000  0.19675000  1.0
  S  S41  1  0.41722000  0.44445000  0.30325000  1.0
  N  N42  1  0.80099000  0.15661000  0.10474000  1.0
  N  N43  1  0.84339000  0.19901000  0.39526000  1.0
  N  N44  1  0.19901000  0.84339000  0.89526000  1.0
  N  N45  1  0.15661000  0.80099000  0.60474000  1.0
  Cl  Cl46  1  0.21147000  0.10934000  0.21328000  1.0
  Cl  Cl47  1  0.89066000  0.78853000  0.28673000  1.0
  Cl  Cl48  1  0.78853000  0.89066000  0.78673000  1.0
  Cl  Cl49  1  0.10934000  0.21147000  0.71328000  1.0
