# generated using pymatgen
data_CuH22C30N8(ClO)4
_symmetry_space_group_name_H-M   'P 1'
_cell_length_a   7.68227000
_cell_length_b   7.96753000
_cell_length_c   12.95040000
_cell_angle_alpha   103.29660000
_cell_angle_beta   90.59500000
_cell_angle_gamma   105.85700000
_symmetry_Int_Tables_number   1
_chemical_formula_structural   CuH22C30N8(ClO)4
_chemical_formula_sum   'Cu1 H22 C30 N8 Cl4 O4'
_cell_volume   739.79861793
_cell_formula_units_Z   1
loop_
 _symmetry_equiv_pos_site_id
 _symmetry_equiv_pos_as_xyz
  1  'x, y, z'
loop_
 _atom_site_type_symbol
 _atom_site_label
 _atom_site_symmetry_multiplicity
 _atom_site_fract_x
 _atom_site_fract_y
 _atom_site_fract_z
 _atom_site_occupancy
  Cu  Cu0  1  0.50000000  0.50000000  0.50000000  1.0
  H  H1  1  0.32532000  0.15437000  0.22963000  1.0
  H  H2  1  0.67467000  0.84564000  0.77038000  1.0
  H  H3  1  0.11895000  0.98138000  0.18223000  1.0
  H  H4  1  0.88105000  0.01861000  0.81777000  1.0
  H  H5  1  0.49467000  0.91639000  0.19928000  1.0
  H  H6  1  0.50535000  0.08365000  0.80073000  1.0
  H  H7  1  0.38253000  0.92540000  0.08056000  1.0
  H  H8  1  0.61749000  0.07463000  0.91945000  1.0
  H  H9  1  0.28724000  0.75056000  0.14527000  1.0
  H  H10  1  0.71279000  0.24946000  0.85474000  1.0
  H  H11  1  0.04468000  0.79991000  0.65124000  1.0
  H  H12  1  0.95530000  0.20007000  0.34875000  1.0
  H  H13  1  0.20543000  0.01374000  0.70757000  1.0
  H  H14  1  0.79456000  0.98625000  0.29244000  1.0
  H  H15  1  0.27895000  0.81963000  0.65671000  1.0
  H  H16  1  0.72104000  0.18035000  0.34328000  1.0
  H  H17  1  0.85739000  0.50920000  0.67847000  1.0
  H  H18  1  0.14262000  0.49079000  0.32152000  1.0
  H  H19  1  0.43846000  0.62896000  0.95810000  1.0
  H  H20  1  0.56155000  0.37104000  0.04190000  1.0
  H  H21  1  0.31250000  0.44541000  0.77546000  1.0
  H  H22  1  0.68751000  0.55458000  0.22454000  1.0
  C  C23  1  0.31498000  0.08823000  0.52100000  1.0
  C  C24  1  0.68501000  0.91177000  0.47901000  1.0
  C  C25  1  0.33322000  0.11926000  0.41505000  1.0
  C  C26  1  0.66677000  0.88074000  0.58496000  1.0
  C  C27  1  0.09430000  0.83735000  0.34259000  1.0
  C  C28  1  0.90570000  0.16265000  0.65740000  1.0
  C  C29  1  0.08094000  0.81040000  0.44986000  1.0
  C  C30  1  0.91905000  0.18960000  0.55014000  1.0
  C  C31  1  0.19189000  0.92792000  0.53687000  1.0
  C  C32  1  0.80809000  0.07207000  0.46313000  1.0
  C  C33  1  0.25500000  0.01253000  0.22138000  1.0
  C  C34  1  0.74500000  0.98748000  0.77862000  1.0
  C  C35  1  0.36147000  0.89331000  0.15840000  1.0
  C  C36  1  0.63855000  0.10672000  0.84161000  1.0
  C  C37  1  0.93790000  0.66270000  0.46132000  1.0
  C  C38  1  0.06210000  0.33731000  0.53867000  1.0
  C  C39  1  0.17809000  0.88979000  0.64464000  1.0
  C  C40  1  0.82190000  0.11020000  0.35535000  1.0
  C  C41  1  0.57828000  0.46609000  0.71711000  1.0
  C  C42  1  0.42172000  0.53391000  0.28288000  1.0
  C  C43  1  0.76581000  0.53404000  0.73982000  1.0
  C  C44  1  0.23420000  0.46596000  0.26017000  1.0
  C  C45  1  0.83576000  0.62934000  0.84308000  1.0
  C  C46  1  0.16424000  0.37065000  0.15691000  1.0
  C  C47  1  0.71693000  0.66474000  0.92182000  1.0
  C  C48  1  0.28308000  0.33526000  0.07818000  1.0
  C  C49  1  0.52909000  0.60004000  0.89661000  1.0
  C  C50  1  0.47091000  0.39997000  0.10338000  1.0
  C  C51  1  0.45872000  0.49842000  0.79501000  1.0
  C  C52  1  0.54129000  0.50158000  0.20499000  1.0
  N  N53  1  0.23144000  0.98849000  0.33048000  1.0
  N  N54  1  0.76856000  0.01152000  0.66953000  1.0
  N  N55  1  0.81566000  0.54248000  0.46999000  1.0
  N  N56  1  0.18432000  0.45750000  0.53001000  1.0
  N  N57  1  0.40823000  0.20596000  0.61004000  1.0
  N  N58  1  0.59176000  0.79404000  0.38996000  1.0
  N  N59  1  0.50695000  0.36433000  0.61179000  1.0
  N  N60  1  0.49305000  0.63567000  0.38821000  1.0
  Cl  Cl61  1  0.79968000  0.78690000  0.04861000  1.0
  Cl  Cl62  1  0.20033000  0.21309000  0.95138000  1.0
  Cl  Cl63  1  0.06718000  0.70483000  0.87221000  1.0
  Cl  Cl64  1  0.93283000  0.29517000  0.12778000  1.0
  O  O65  1  0.44021000  0.25861000  0.39563000  1.0
  O  O66  1  0.55978000  0.74139000  0.60437000  1.0
  O  O67  1  0.99354000  0.73705000  0.26459000  1.0
  O  O68  1  0.00648000  0.26295000  0.73542000  1.0
