# generated using pymatgen
data_Zn4H24C24O25
_symmetry_space_group_name_H-M   'P 1'
_cell_length_a   16.93200000
_cell_length_b   17.57640000
_cell_length_c   18.41480000
_cell_angle_alpha   66.86220000
_cell_angle_beta   66.83460000
_cell_angle_gamma   65.92430000
_symmetry_Int_Tables_number   1
_chemical_formula_structural   Zn4H24C24O25
_chemical_formula_sum   'Zn8 H48 C48 O50'
_cell_volume   4420.21334956
_cell_formula_units_Z   2
loop_
 _symmetry_equiv_pos_site_id
 _symmetry_equiv_pos_as_xyz
  1  'x, y, z'
loop_
 _atom_site_type_symbol
 _atom_site_label
 _atom_site_symmetry_multiplicity
 _atom_site_fract_x
 _atom_site_fract_y
 _atom_site_fract_z
 _atom_site_occupancy
  Zn  Zn0  1  0.91150000  0.03823000  0.11339000  1.0
  Zn  Zn1  1  0.07124000  0.02511000  0.94630000  1.0
  Zn  Zn2  1  0.08477000  0.86937000  0.10222000  1.0
  Zn  Zn3  1  0.10327000  0.04303000  0.10310000  1.0
  Zn  Zn4  1  0.67712000  0.44672000  0.53731000  1.0
  Zn  Zn5  1  0.49206000  0.46528000  0.68451000  1.0
  Zn  Zn6  1  0.50037000  0.44660000  0.51169000  1.0
  Zn  Zn7  1  0.50632000  0.61828000  0.52593000  1.0
  H  H8  1  0.74703000  0.11118000  0.94849000  1.0
  H  H9  1  0.80909000  0.10292000  0.73997000  1.0
  H  H10  1  0.71492000  0.11746000  0.83124000  1.0
  H  H11  1  0.65550000  0.25875000  0.85522000  1.0
  H  H12  1  0.67044000  0.39812000  0.82399000  1.0
  H  H13  1  0.90803000  0.35883000  0.77930000  1.0
  H  H14  1  0.80028000  0.37780000  0.85718000  1.0
  H  H15  1  0.74217000  0.25277000  0.93464000  1.0
  H  H16  1  0.82054000  0.86659000  0.35238000  1.0
  H  H17  1  0.92475000  0.64956000  0.46175000  1.0
  H  H18  1  0.82876000  0.74634000  0.47145000  1.0
  H  H19  1  0.70760000  0.76798000  0.41828000  1.0
  H  H20  1  0.65590000  0.72971000  0.33760000  1.0
  H  H21  1  0.85051000  0.67602000  0.17283000  1.0
  H  H22  1  0.74565000  0.75894000  0.20243000  1.0
  H  H23  1  0.74847000  0.84684000  0.27633000  1.0
  H  H24  1  0.82980000  0.28153000  0.17483000  1.0
  H  H25  1  0.92841000  0.38238000  0.23708000  1.0
  H  H26  1  0.83465000  0.39768000  0.20225000  1.0
  H  H27  1  0.71862000  0.32773000  0.30507000  1.0
  H  H28  1  0.68018000  0.22139000  0.43294000  1.0
  H  H29  1  0.88933000  0.06730000  0.46057000  1.0
  H  H30  1  0.78552000  0.08735000  0.43834000  1.0
  H  H31  1  0.77403000  0.17976000  0.29824000  1.0
  H  H32  1  0.11402000  0.80977000  0.85604000  1.0
  H  H33  1  0.19735000  0.57739000  0.92674000  1.0
  H  H34  1  0.14514000  0.66776000  0.85125000  1.0
  H  H35  1  0.24458000  0.74718000  0.73678000  1.0
  H  H36  1  0.38400000  0.78044000  0.68107000  1.0
  H  H37  1  0.44936000  0.75087000  0.85459000  1.0
  H  H38  1  0.40407000  0.83005000  0.76984000  1.0
  H  H39  1  0.24628000  0.85490000  0.78542000  1.0
  H  H40  1  0.32262000  0.08630000  0.82776000  1.0
  H  H41  1  0.45655000  0.15825000  0.88165000  1.0
  H  H42  1  0.45327000  0.11766000  0.80611000  1.0
  H  H43  1  0.36925000  0.22327000  0.70712000  1.0
  H  H44  1  0.26450000  0.36023000  0.66716000  1.0
  H  H45  1  0.10665000  0.39958000  0.85739000  1.0
  H  H46  1  0.12599000  0.36315000  0.77008000  1.0
  H  H47  1  0.21835000  0.21559000  0.77214000  1.0
  H  H48  1  0.16490000  0.75419000  0.28682000  1.0
  H  H49  1  0.16760000  0.79324000  0.46188000  1.0
  H  H50  1  0.16349000  0.71448000  0.42319000  1.0
  H  H51  1  0.30700000  0.63465000  0.34554000  1.0
  H  H52  1  0.46021000  0.61984000  0.27291000  1.0
  H  H53  1  0.46719000  0.84117000  0.17212000  1.0
  H  H54  1  0.46335000  0.74674000  0.15646000  1.0
  H  H55  1  0.31826000  0.72209000  0.20629000  1.0
  C  C56  1  0.87855000  0.09206000  0.95325000  1.0
  C  C57  1  0.80828000  0.12942000  0.90593000  1.0
  C  C58  1  0.77935000  0.13179000  0.79132000  1.0
  C  C59  1  0.72359000  0.26555000  0.81998000  1.0
  C  C60  1  0.71513000  0.36197000  0.77763000  1.0
  C  C61  1  0.84326000  0.34507000  0.80764000  1.0
  C  C62  1  0.78206000  0.22910000  0.87932000  1.0
  C  C63  1  0.66834000  0.39420000  0.71040000  1.0
  C  C64  1  0.91679000  0.86883000  0.23428000  1.0
  C  C65  1  0.86431000  0.82009000  0.31533000  1.0
  C  C66  1  0.87532000  0.70267000  0.43169000  1.0
  C  C67  1  0.76020000  0.72889000  0.37675000  1.0
  C  C68  1  0.71680000  0.68155000  0.35598000  1.0
  C  C69  1  0.80544000  0.70787000  0.22124000  1.0
  C  C70  1  0.80263000  0.78940000  0.29752000  1.0
  C  C71  1  0.68421000  0.61469000  0.43361000  1.0
  C  C72  1  0.93205000  0.16156000  0.17136000  1.0
  C  C73  1  0.87898000  0.23650000  0.21045000  1.0
  C  C74  1  0.88198000  0.35193000  0.23977000  1.0
  C  C75  1  0.77308000  0.28359000  0.33473000  1.0
  C  C76  1  0.73099000  0.24948000  0.42718000  1.0
  C  C77  1  0.83818000  0.11516000  0.42964000  1.0
  C  C78  1  0.82348000  0.20551000  0.29886000  1.0
  C  C79  1  0.67973000  0.32371000  0.46715000  1.0
  C  C80  1  0.13473000  0.84191000  0.94553000  1.0
  C  C81  1  0.16462000  0.78314000  0.89094000  1.0
  C  C82  1  0.19480000  0.64331000  0.88687000  1.0
  C  C83  1  0.28702000  0.72287000  0.77901000  1.0
  C  C84  1  0.38502000  0.71713000  0.72796000  1.0
  C  C85  1  0.40504000  0.76649000  0.81730000  1.0
  C  C86  1  0.25516000  0.78863000  0.82793000  1.0
  C  C87  1  0.42508000  0.64820000  0.68219000  1.0
  C  C88  1  0.20580000  0.09862000  0.92986000  1.0
  C  C89  1  0.28480000  0.13126000  0.86719000  1.0
  C  C90  1  0.41456000  0.16039000  0.84792000  1.0
  C  C91  1  0.32993000  0.25767000  0.75551000  1.0
  C  C92  1  0.29344000  0.35496000  0.71402000  1.0
  C  C93  1  0.15615000  0.36183000  0.81469000  1.0
  C  C94  1  0.25026000  0.22146000  0.81114000  1.0
  C  C95  1  0.37064000  0.39532000  0.66968000  1.0
  C  C96  1  0.17505000  0.87353000  0.19769000  1.0
  C  C97  1  0.19895000  0.80244000  0.27311000  1.0
  C  C98  1  0.19327000  0.76619000  0.40975000  1.0
  C  C99  1  0.32779000  0.69287000  0.32908000  1.0
  C  C100  1  0.43066000  0.66481000  0.31179000  1.0
  C  C101  1  0.43842000  0.78720000  0.19931000  1.0
  C  C102  1  0.30075000  0.75754000  0.25134000  1.0
  C  C103  1  0.45535000  0.61521000  0.39282000  1.0
  O  O104  1  0.04132000  0.99672000  0.06575000  1.0
  O  O105  1  0.96015000  0.06747000  0.91372000  1.0
  O  O106  1  0.84609000  0.09163000  0.02877000  1.0
  O  O107  1  0.84243000  0.09514000  0.83752000  1.0
  O  O108  1  0.76269000  0.22216000  0.75709000  1.0
  O  O109  1  0.80047000  0.37689000  0.74487000  1.0
  O  O110  1  0.86262000  0.25414000  0.84167000  1.0
  O  O111  1  0.58824000  0.38872000  0.73781000  1.0
  O  O112  1  0.71112000  0.42201000  0.63683000  1.0
  O  O113  1  0.00007000  0.83272000  0.20884000  1.0
  O  O114  1  0.86869000  0.94182000  0.19972000  1.0
  O  O115  1  0.92432000  0.74984000  0.35812000  1.0
  O  O116  1  0.82615000  0.66450000  0.41715000  1.0
  O  O117  1  0.77696000  0.64324000  0.29148000  1.0
  O  O118  1  0.85563000  0.74640000  0.23447000  1.0
  O  O119  1  0.62002000  0.64791000  0.48888000  1.0
  O  O120  1  0.72075000  0.53481000  0.43819000  1.0
  O  O121  1  0.01668000  0.14317000  0.14478000  1.0
  O  O122  1  0.88124000  0.12565000  0.16909000  1.0
  O  O123  1  0.93520000  0.27995000  0.20729000  1.0
  O  O124  1  0.83276000  0.32824000  0.32331000  1.0
  O  O125  1  0.79766000  0.18486000  0.46572000  1.0
  O  O126  1  0.88335000  0.13945000  0.34500000  1.0
  O  O127  1  0.60230000  0.36537000  0.45423000  1.0
  O  O128  1  0.71626000  0.33840000  0.50623000  1.0
  O  O129  1  0.11233000  0.80921000  0.02274000  1.0
  O  O130  1  0.13429000  0.91981000  0.90641000  1.0
  O  O131  1  0.16803000  0.69650000  0.93870000  1.0
  O  O132  1  0.28204000  0.63932000  0.83222000  1.0
  O  O133  1  0.43978000  0.70000000  0.77810000  1.0
  O  O134  1  0.31766000  0.77031000  0.87128000  1.0
  O  O135  1  0.41888000  0.67727000  0.60835000  1.0
  O  O136  1  0.45899000  0.57075000  0.71935000  1.0
  O  O137  1  0.19797000  0.08031000  0.00532000  1.0
  O  O138  1  0.15602000  0.09292000  0.89618000  1.0
  O  O139  1  0.34171000  0.13093000  0.90702000  1.0
  O  O140  1  0.38673000  0.24740000  0.80112000  1.0
  O  O141  1  0.22675000  0.40005000  0.77188000  1.0
  O  O142  1  0.18525000  0.27566000  0.86230000  1.0
  O  O143  1  0.41290000  0.38660000  0.59737000  1.0
  O  O144  1  0.38594000  0.43084000  0.70859000  1.0
  O  O145  1  0.14188000  0.95196000  0.19903000  1.0
  O  O146  1  0.19097000  0.84520000  0.13749000  1.0
  O  O147  1  0.16926000  0.83488000  0.34198000  1.0
  O  O148  1  0.28769000  0.73021000  0.39640000  1.0
  O  O149  1  0.46562000  0.73666000  0.27188000  1.0
  O  O150  1  0.34425000  0.82372000  0.21545000  1.0
  O  O151  1  0.44712000  0.53902000  0.42433000  1.0
  O  O152  1  0.47968000  0.65437000  0.42109000  1.0
  O  O153  1  0.54385000  0.49174000  0.56498000  1.0
