# generated using pymatgen
data_MnH18C30N2(O2F3)2
_symmetry_space_group_name_H-M   'P 1'
_cell_length_a   7.70315000
_cell_length_b   22.11950000
_cell_length_c   22.11896567
_cell_angle_alpha   59.99960267
_cell_angle_beta   89.99930000
_cell_angle_gamma   90.00050000
_symmetry_Int_Tables_number   1
_chemical_formula_structural   MnH18C30N2(O2F3)2
_chemical_formula_sum   'Mn3 H54 C90 N6 O12 F18'
_cell_volume   3263.90393472
_cell_formula_units_Z   3
loop_
 _symmetry_equiv_pos_site_id
 _symmetry_equiv_pos_as_xyz
  1  'x, y, z'
loop_
 _atom_site_type_symbol
 _atom_site_label
 _atom_site_symmetry_multiplicity
 _atom_site_fract_x
 _atom_site_fract_y
 _atom_site_fract_z
 _atom_site_occupancy
  Mn  Mn0  1  0.50001000  0.50001000  0.00000000  1.0
  Mn  Mn1  1  0.49999000  0.00000000  0.50000000  1.0
  Mn  Mn2  1  0.49999000  0.50000000  0.50000000  1.0
  H  H3  1  0.13846000  0.44838000  0.16011000  1.0
  H  H4  1  0.10364000  0.51815000  0.38976000  1.0
  H  H5  1  0.87791000  0.51018000  0.47335000  1.0
  H  H6  1  0.60243000  0.58878000  0.13889000  1.0
  H  H7  1  0.92369000  0.43288000  0.25010000  1.0
  H  H8  1  0.41570000  0.59788000  0.19422000  1.0
  H  H9  1  0.20419000  0.58325000  0.28280000  1.0
  H  H10  1  0.69414000  0.48554000  0.27452000  1.0
  H  H11  1  0.48648000  0.47909000  0.36406000  1.0
  H  H12  1  0.13848000  0.16011000  0.39152000  1.0
  H  H13  1  0.10363000  0.38976000  0.09209000  1.0
  H  H14  1  0.87790000  0.47334000  0.01648000  1.0
  H  H15  1  0.60245000  0.13891000  0.27232000  1.0
  H  H16  1  0.92370000  0.25010000  0.31703000  1.0
  H  H17  1  0.41572000  0.19424000  0.20790000  1.0
  H  H18  1  0.20420000  0.28281000  0.13395000  1.0
  H  H19  1  0.69415000  0.27451000  0.23995000  1.0
  H  H20  1  0.48648000  0.36405000  0.15687000  1.0
  H  H21  1  0.13849000  0.39151000  0.44837000  1.0
  H  H22  1  0.10364000  0.09209000  0.51815000  1.0
  H  H23  1  0.87791000  0.01648000  0.51018000  1.0
  H  H24  1  0.60244000  0.27232000  0.58879000  1.0
  H  H25  1  0.92371000  0.31702000  0.43287000  1.0
  H  H26  1  0.41571000  0.20790000  0.59787000  1.0
  H  H27  1  0.20420000  0.13395000  0.58325000  1.0
  H  H28  1  0.69415000  0.23994000  0.48554000  1.0
  H  H29  1  0.48649000  0.15686000  0.47908000  1.0
  H  H30  1  0.86154000  0.55162000  0.83989000  1.0
  H  H31  1  0.89636000  0.48184000  0.61024000  1.0
  H  H32  1  0.12209000  0.48981000  0.52665000  1.0
  H  H33  1  0.39756000  0.41121000  0.86111000  1.0
  H  H34  1  0.07632000  0.56712000  0.74990000  1.0
  H  H35  1  0.58430000  0.40213000  0.80577000  1.0
  H  H36  1  0.79580000  0.41675000  0.71720000  1.0
  H  H37  1  0.30586000  0.51445000  0.72548000  1.0
  H  H38  1  0.51351000  0.52092000  0.63593000  1.0
  H  H39  1  0.86151000  0.83989000  0.60849000  1.0
  H  H40  1  0.89636000  0.61023000  0.90791000  1.0
  H  H41  1  0.12210000  0.52665000  0.98353000  1.0
  H  H42  1  0.39755000  0.86110000  0.72768000  1.0
  H  H43  1  0.07629000  0.74990000  0.68297000  1.0
  H  H44  1  0.58429000  0.80576000  0.79211000  1.0
  H  H45  1  0.79580000  0.71719000  0.86605000  1.0
  H  H46  1  0.30585000  0.72549000  0.76005000  1.0
  H  H47  1  0.51352000  0.63595000  0.84313000  1.0
  H  H48  1  0.86152000  0.60849000  0.55163000  1.0
  H  H49  1  0.89636000  0.90790000  0.48185000  1.0
  H  H50  1  0.12210000  0.98353000  0.48981000  1.0
  H  H51  1  0.39756000  0.72767000  0.41122000  1.0
  H  H52  1  0.07630000  0.68298000  0.56713000  1.0
  H  H53  1  0.58428000  0.79210000  0.40213000  1.0
  H  H54  1  0.79580000  0.86605000  0.41675000  1.0
  H  H55  1  0.30584000  0.76006000  0.51446000  1.0
  H  H56  1  0.51351000  0.84314000  0.52092000  1.0
  C  C57  1  0.15289000  0.47692000  0.18805000  1.0
  C  C58  1  0.29374000  0.52307000  0.17120000  1.0
  C  C59  1  0.40964000  0.53478000  0.11260000  1.0
  C  C60  1  0.96888000  0.50878000  0.38171000  1.0
  C  C61  1  0.84394000  0.50430000  0.42881000  1.0
  C  C62  1  0.84307000  0.63371000  0.04282000  1.0
  C  C63  1  0.67905000  0.59221000  0.04552000  1.0
  C  C64  1  0.04821000  0.50703000  0.27312000  1.0
  C  C65  1  0.56660000  0.57268000  0.10161000  1.0
  C  C66  1  0.03182000  0.46909000  0.23791000  1.0
  C  C67  1  0.31110000  0.56025000  0.20707000  1.0
  C  C68  1  0.19089000  0.55218000  0.25735000  1.0
  C  C69  1  0.74177000  0.48988000  0.31862000  1.0
  C  C70  1  0.62512000  0.48660000  0.36813000  1.0
  C  C71  1  0.91904000  0.50134000  0.32468000  1.0
  C  C72  1  0.15291000  0.18805000  0.33503000  1.0
  C  C73  1  0.29376000  0.17121000  0.30573000  1.0
  C  C74  1  0.40967000  0.11261000  0.35261000  1.0
  C  C75  1  0.96888000  0.38171000  0.10952000  1.0
  C  C76  1  0.84395000  0.42881000  0.06690000  1.0
  C  C77  1  0.84308000  0.04284000  0.32346000  1.0
  C  C78  1  0.67906000  0.04553000  0.36226000  1.0
  C  C79  1  0.04821000  0.27313000  0.21986000  1.0
  C  C80  1  0.56662000  0.10163000  0.32570000  1.0
  C  C81  1  0.03183000  0.23791000  0.29300000  1.0
  C  C82  1  0.31111000  0.20708000  0.23268000  1.0
  C  C83  1  0.19090000  0.25736000  0.19047000  1.0
  C  C84  1  0.74177000  0.31861000  0.19151000  1.0
  C  C85  1  0.62513000  0.36813000  0.14528000  1.0
  C  C86  1  0.91904000  0.32469000  0.17398000  1.0
  C  C87  1  0.15291000  0.33503000  0.47692000  1.0
  C  C88  1  0.29376000  0.30574000  0.52306000  1.0
  C  C89  1  0.40967000  0.35262000  0.53478000  1.0
  C  C90  1  0.96888000  0.10951000  0.50878000  1.0
  C  C91  1  0.84394000  0.06689000  0.50430000  1.0
  C  C92  1  0.84306000  0.32346000  0.63373000  1.0
  C  C93  1  0.67905000  0.36226000  0.59222000  1.0
  C  C94  1  0.04821000  0.21986000  0.50702000  1.0
  C  C95  1  0.56661000  0.32570000  0.57268000  1.0
  C  C96  1  0.03183000  0.29300000  0.46909000  1.0
  C  C97  1  0.31111000  0.23269000  0.56024000  1.0
  C  C98  1  0.19090000  0.19047000  0.55218000  1.0
  C  C99  1  0.74177000  0.19150000  0.48988000  1.0
  C  C100  1  0.62513000  0.14527000  0.48660000  1.0
  C  C101  1  0.91904000  0.17397000  0.50134000  1.0
  C  C102  1  0.84711000  0.52307000  0.81195000  1.0
  C  C103  1  0.70626000  0.47693000  0.82880000  1.0
  C  C104  1  0.59036000  0.46521000  0.88740000  1.0
  C  C105  1  0.03112000  0.49123000  0.61828000  1.0
  C  C106  1  0.15605000  0.49570000  0.57119000  1.0
  C  C107  1  0.15693000  0.36629000  0.95718000  1.0
  C  C108  1  0.32095000  0.40778000  0.95448000  1.0
  C  C109  1  0.95179000  0.49298000  0.72687000  1.0
  C  C110  1  0.43340000  0.42732000  0.89839000  1.0
  C  C111  1  0.96819000  0.53090000  0.76209000  1.0
  C  C112  1  0.68890000  0.43975000  0.79293000  1.0
  C  C113  1  0.80911000  0.44782000  0.74265000  1.0
  C  C114  1  0.25823000  0.51012000  0.68138000  1.0
  C  C115  1  0.37487000  0.51341000  0.63186000  1.0
  C  C116  1  0.08096000  0.49866000  0.67531000  1.0
  C  C117  1  0.84709000  0.81195000  0.66497000  1.0
  C  C118  1  0.70624000  0.82879000  0.69427000  1.0
  C  C119  1  0.59033000  0.88740000  0.64739000  1.0
  C  C120  1  0.03112000  0.61829000  0.89048000  1.0
  C  C121  1  0.15605000  0.57119000  0.93310000  1.0
  C  C122  1  0.15692000  0.95717000  0.67654000  1.0
  C  C123  1  0.32094000  0.95447000  0.63774000  1.0
  C  C124  1  0.95178000  0.72688000  0.78014000  1.0
  C  C125  1  0.43337000  0.89837000  0.67430000  1.0
  C  C126  1  0.96817000  0.76209000  0.70700000  1.0
  C  C127  1  0.68889000  0.79292000  0.76732000  1.0
  C  C128  1  0.80910000  0.74264000  0.80953000  1.0
  C  C129  1  0.25823000  0.68139000  0.80849000  1.0
  C  C130  1  0.37487000  0.63188000  0.85472000  1.0
  C  C131  1  0.08096000  0.67531000  0.82602000  1.0
  C  C132  1  0.84709000  0.66497000  0.52308000  1.0
  C  C133  1  0.70624000  0.69427000  0.47694000  1.0
  C  C134  1  0.59034000  0.64738000  0.46522000  1.0
  C  C135  1  0.03112000  0.89048000  0.49122000  1.0
  C  C136  1  0.15606000  0.93310000  0.49570000  1.0
  C  C137  1  0.15695000  0.67654000  0.36628000  1.0
  C  C138  1  0.32095000  0.63773000  0.40779000  1.0
  C  C139  1  0.95179000  0.78014000  0.49298000  1.0
  C  C140  1  0.43338000  0.67429000  0.42733000  1.0
  C  C141  1  0.96817000  0.70700000  0.53091000  1.0
  C  C142  1  0.68889000  0.76732000  0.43976000  1.0
  C  C143  1  0.80910000  0.80953000  0.44782000  1.0
  C  C144  1  0.25823000  0.80849000  0.51012000  1.0
  C  C145  1  0.37487000  0.85472000  0.51340000  1.0
  C  C146  1  0.08095000  0.82602000  0.49866000  1.0
  N  N147  1  0.67470000  0.49341000  0.42275000  1.0
  N  N148  1  0.67470000  0.42274000  0.08385000  1.0
  N  N149  1  0.67470000  0.08385000  0.49341000  1.0
  N  N150  1  0.32529000  0.50659000  0.57725000  1.0
  N  N151  1  0.32530000  0.57726000  0.91615000  1.0
  N  N152  1  0.32530000  0.91616000  0.50658000  1.0
  O  O153  1  0.35779000  0.51050000  0.07395000  1.0
  O  O154  1  0.66730000  0.58095000  0.99438000  1.0
  O  O155  1  0.35781000  0.07396000  0.41554000  1.0
  O  O156  1  0.66730000  0.99439000  0.42466000  1.0
  O  O157  1  0.35780000  0.41554000  0.51050000  1.0
  O  O158  1  0.66729000  0.42467000  0.58095000  1.0
  O  O159  1  0.64222000  0.48949000  0.92605000  1.0
  O  O160  1  0.33271000  0.41905000  0.00562000  1.0
  O  O161  1  0.64219000  0.92605000  0.58446000  1.0
  O  O162  1  0.33270000  0.00561000  0.57534000  1.0
  O  O163  1  0.64220000  0.58446000  0.48950000  1.0
  O  O164  1  0.33271000  0.57533000  0.41905000  1.0
  F  F165  1  0.98978000  0.59831000  0.04438000  1.0
  F  F166  1  0.85588000  0.64750000  0.09621000  1.0
  F  F167  1  0.84767000  0.69666000  0.98200000  1.0
  F  F168  1  0.98980000  0.04439000  0.35730000  1.0
  F  F169  1  0.85591000  0.09621000  0.25628000  1.0
  F  F170  1  0.84769000  0.98202000  0.32133000  1.0
  F  F171  1  0.98979000  0.35727000  0.59833000  1.0
  F  F172  1  0.85583000  0.25627000  0.64756000  1.0
  F  F173  1  0.84766000  0.32135000  0.69667000  1.0
  F  F174  1  0.01021000  0.40168000  0.95563000  1.0
  F  F175  1  0.14411000  0.35250000  0.90379000  1.0
  F  F176  1  0.15233000  0.30334000  0.01800000  1.0
  F  F177  1  0.01021000  0.95561000  0.64270000  1.0
  F  F178  1  0.14409000  0.90379000  0.74372000  1.0
  F  F179  1  0.15233000  0.01799000  0.67867000  1.0
  F  F180  1  0.01022000  0.64271000  0.40168000  1.0
  F  F181  1  0.14418000  0.74373000  0.35245000  1.0
  F  F182  1  0.15235000  0.67864000  0.30334000  1.0
