# generated using pymatgen
data_Cu2H32C41(N2O5)2
_symmetry_space_group_name_H-M   'P 1'
_cell_length_a   13.25290000
_cell_length_b   18.46590000
_cell_length_c   21.13920000
_cell_angle_alpha   84.18080000
_cell_angle_beta   71.75550000
_cell_angle_gamma   68.99570000
_symmetry_Int_Tables_number   1
_chemical_formula_structural   Cu2H32C41(N2O5)2
_chemical_formula_sum   'Cu8 H128 C164 N16 O40'
_cell_volume   4586.44901249
_cell_formula_units_Z   4
loop_
 _symmetry_equiv_pos_site_id
 _symmetry_equiv_pos_as_xyz
  1  'x, y, z'
loop_
 _atom_site_type_symbol
 _atom_site_label
 _atom_site_symmetry_multiplicity
 _atom_site_fract_x
 _atom_site_fract_y
 _atom_site_fract_z
 _atom_site_occupancy
  Cu  Cu0  1  0.60908000  0.66395000  0.14364000  1.0
  Cu  Cu1  1  0.91634000  0.83594000  0.35642000  1.0
  Cu  Cu2  1  0.39093000  0.33605000  0.85636000  1.0
  Cu  Cu3  1  0.08366000  0.16406000  0.64357000  1.0
  Cu  Cu4  1  0.79856000  0.53267000  0.36996000  1.0
  Cu  Cu5  1  0.20113000  0.96768000  0.13021000  1.0
  Cu  Cu6  1  0.20144000  0.46733000  0.63004000  1.0
  Cu  Cu7  1  0.79887000  0.03232000  0.86980000  1.0
  H  H8  1  0.08136000  0.44491000  0.30818000  1.0
  H  H9  1  0.33393000  0.05462000  0.19230000  1.0
  H  H10  1  0.91865000  0.55509000  0.69182000  1.0
  H  H11  1  0.66607000  0.94538000  0.80770000  1.0
  H  H12  1  0.01107000  0.50947000  0.36569000  1.0
  H  H13  1  0.38616000  0.99088000  0.13414000  1.0
  H  H14  1  0.98894000  0.49054000  0.63431000  1.0
  H  H15  1  0.61384000  0.00912000  0.86586000  1.0
  H  H16  1  0.38086000  0.50034000  0.22704000  1.0
  H  H17  1  0.60816000  0.99944000  0.27263000  1.0
  H  H18  1  0.61913000  0.49967000  0.77297000  1.0
  H  H19  1  0.39183000  0.00056000  0.72736000  1.0
  H  H20  1  0.45794000  0.32973000  0.37612000  1.0
  H  H21  1  0.66381000  0.16988000  0.12347000  1.0
  H  H22  1  0.54207000  0.67027000  0.62389000  1.0
  H  H23  1  0.33619000  0.83012000  0.87653000  1.0
  H  H24  1  0.60686000  0.37814000  0.38200000  1.0
  H  H25  1  0.86685000  0.12170000  0.11782000  1.0
  H  H26  1  0.39315000  0.62185000  0.61800000  1.0
  H  H27  1  0.13315000  0.87830000  0.88218000  1.0
  H  H28  1  0.25732000  0.42653000  0.43180000  1.0
  H  H29  1  0.61544000  0.07307000  0.06796000  1.0
  H  H30  1  0.74269000  0.57347000  0.56820000  1.0
  H  H31  1  0.38455000  0.92693000  0.93204000  1.0
  H  H32  1  0.13181000  0.21420000  0.39760000  1.0
  H  H33  1  0.24428000  0.28600000  0.10205000  1.0
  H  H34  1  0.86819000  0.78581000  0.60240000  1.0
  H  H35  1  0.75572000  0.71401000  0.89795000  1.0
  H  H36  1  0.23381000  0.27506000  0.29891000  1.0
  H  H37  1  0.30826000  0.22499000  0.20080000  1.0
  H  H38  1  0.76618000  0.72494000  0.70109000  1.0
  H  H39  1  0.69174000  0.77501000  0.79920000  1.0
  H  H40  1  0.86967000  0.51329000  0.22441000  1.0
  H  H41  1  0.10632000  0.98678000  0.27568000  1.0
  H  H42  1  0.13033000  0.48672000  0.77559000  1.0
  H  H43  1  0.89367000  0.01322000  0.72432000  1.0
  H  H44  1  0.89886000  0.59554000  0.12341000  1.0
  H  H45  1  0.11688000  0.90455000  0.37668000  1.0
  H  H46  1  0.10114000  0.40446000  0.87659000  1.0
  H  H47  1  0.88311000  0.09545000  0.62332000  1.0
  H  H48  1  0.80993000  0.78687000  0.25609000  1.0
  H  H49  1  0.35314000  0.71356000  0.24413000  1.0
  H  H50  1  0.19007000  0.21313000  0.74391000  1.0
  H  H51  1  0.64687000  0.28644000  0.75588000  1.0
  H  H52  1  0.78960000  0.69685000  0.34962000  1.0
  H  H53  1  0.33632000  0.80356000  0.15057000  1.0
  H  H54  1  0.21040000  0.30315000  0.65038000  1.0
  H  H55  1  0.66368000  0.19645000  0.84944000  1.0
  H  H56  1  0.96138000  0.73012000  0.08964000  1.0
  H  H57  1  0.28145000  0.77006000  0.41029000  1.0
  H  H58  1  0.03862000  0.26988000  0.91036000  1.0
  H  H59  1  0.71855000  0.22994000  0.58971000  1.0
  H  H60  1  0.82764000  0.73642000  0.08731000  1.0
  H  H61  1  0.15143000  0.76383000  0.41298000  1.0
  H  H62  1  0.17236000  0.26358000  0.91269000  1.0
  H  H63  1  0.84858000  0.23617000  0.58702000  1.0
  H  H64  1  0.74316000  0.85493000  0.16797000  1.0
  H  H65  1  0.26559000  0.64535000  0.33215000  1.0
  H  H66  1  0.25684000  0.14507000  0.83203000  1.0
  H  H67  1  0.73442000  0.35465000  0.66785000  1.0
  H  H68  1  0.88351000  0.85205000  0.15434000  1.0
  H  H69  1  0.38954000  0.64817000  0.34562000  1.0
  H  H70  1  0.11650000  0.14794000  0.84566000  1.0
  H  H71  1  0.61047000  0.35183000  0.65438000  1.0
  H  H72  1  0.97487000  0.90976000  0.05523000  1.0
  H  H73  1  0.43982000  0.59045000  0.44472000  1.0
  H  H74  1  0.02513000  0.09024000  0.94477000  1.0
  H  H75  1  0.56019000  0.40955000  0.55528000  1.0
  H  H76  1  0.96016000  0.98287000  0.95035000  1.0
  H  H77  1  0.39372000  0.51718000  0.54954000  1.0
  H  H78  1  0.03983000  0.01713000  0.04965000  1.0
  H  H79  1  0.60629000  0.48282000  0.45046000  1.0
  H  H80  1  0.66838000  0.94158000  0.95952000  1.0
  H  H81  1  0.06982000  0.55820000  0.54050000  1.0
  H  H82  1  0.33162000  0.05841000  0.04049000  1.0
  H  H83  1  0.93019000  0.44180000  0.45951000  1.0
  H  H84  1  0.66689000  0.87248000  0.06527000  1.0
  H  H85  1  0.10444000  0.62775000  0.43498000  1.0
  H  H86  1  0.33313000  0.12751000  0.93473000  1.0
  H  H87  1  0.89556000  0.37225000  0.56502000  1.0
  H  H88  1  0.53936000  0.83489000  0.14702000  1.0
  H  H89  1  0.02100000  0.66497000  0.35293000  1.0
  H  H90  1  0.46064000  0.16511000  0.85298000  1.0
  H  H91  1  0.97901000  0.33503000  0.64706000  1.0
  H  H92  1  0.48185000  0.93756000  0.23158000  1.0
  H  H93  1  0.15078000  0.56244000  0.26825000  1.0
  H  H94  1  0.51815000  0.06244000  0.76841000  1.0
  H  H95  1  0.84922000  0.43756000  0.73175000  1.0
  H  H96  1  0.54184000  0.75544000  0.37519000  1.0
  H  H97  1  0.17232000  0.74483000  0.12492000  1.0
  H  H98  1  0.45816000  0.24456000  0.62480000  1.0
  H  H99  1  0.82768000  0.25517000  0.87508000  1.0
  H  H100  1  0.59679000  0.66073000  0.28595000  1.0
  H  H101  1  0.04323000  0.83934000  0.21424000  1.0
  H  H102  1  0.40320000  0.33927000  0.71405000  1.0
  H  H103  1  0.95677000  0.16066000  0.78576000  1.0
  H  H104  1  0.52948000  0.90517000  0.39077000  1.0
  H  H105  1  0.32510000  0.59507000  0.10918000  1.0
  H  H106  1  0.47053000  0.09483000  0.60922000  1.0
  H  H107  1  0.67490000  0.40492000  0.89082000  1.0
  H  H108  1  0.45137000  0.97360000  0.34294000  1.0
  H  H109  1  0.26766000  0.52658000  0.15701000  1.0
  H  H110  1  0.54863000  0.02640000  0.65706000  1.0
  H  H111  1  0.73233000  0.47342000  0.84298000  1.0
  H  H112  1  0.36810000  0.85349000  0.43578000  1.0
  H  H113  1  0.15719000  0.64664000  0.06413000  1.0
  H  H114  1  0.63191000  0.14651000  0.56422000  1.0
  H  H115  1  0.84280000  0.35336000  0.93587000  1.0
  H  H116  1  0.29368000  0.91839000  0.38602000  1.0
  H  H117  1  0.09775000  0.58186000  0.11396000  1.0
  H  H118  1  0.70632000  0.08161000  0.61398000  1.0
  H  H119  1  0.90224000  0.41814000  0.88604000  1.0
  H  H120  1  0.16921000  0.91787000  0.52020000  1.0
  H  H121  1  0.10686000  0.58231000  0.97972000  1.0
  H  H122  1  0.83080000  0.08212000  0.47979000  1.0
  H  H123  1  0.89314000  0.41768000  0.02028000  1.0
  H  H124  1  0.07100000  0.01743000  0.61161000  1.0
  H  H125  1  0.19952000  0.48275000  0.88827000  1.0
  H  H126  1  0.92900000  0.98256000  0.38838000  1.0
  H  H127  1  0.80049000  0.51724000  0.11173000  1.0
  H  H128  1  0.29325000  0.13562000  0.53099000  1.0
  H  H129  1  0.45937000  0.36461000  0.96891000  1.0
  H  H130  1  0.70674000  0.86438000  0.46901000  1.0
  H  H131  1  0.54063000  0.63538000  0.03110000  1.0
  H  H132  1  0.40534000  0.03952000  0.43784000  1.0
  H  H133  1  0.38207000  0.46060000  0.06219000  1.0
  H  H134  1  0.59466000  0.96048000  0.56216000  1.0
  H  H135  1  0.61792000  0.53940000  0.93781000  1.0
  C  C136  1  0.57455000  0.46853000  0.31032000  1.0
  C  C137  1  0.85321000  0.03136000  0.18957000  1.0
  C  C138  1  0.42546000  0.53146000  0.68968000  1.0
  C  C139  1  0.14678000  0.96864000  0.81043000  1.0
  C  C140  1  0.51244000  0.50098000  0.26476000  1.0
  C  C141  1  0.77801000  0.99892000  0.23515000  1.0
  C  C142  1  0.48757000  0.49901000  0.73524000  1.0
  C  C143  1  0.22198000  0.00108000  0.76485000  1.0
  C  C144  1  0.42978000  0.47305000  0.26129000  1.0
  C  C145  1  0.66407000  0.02671000  0.23843000  1.0
  C  C146  1  0.57022000  0.52695000  0.73872000  1.0
  C  C147  1  0.33592000  0.97329000  0.76157000  1.0
  C  C148  1  0.40602000  0.41329000  0.30240000  1.0
  C  C149  1  0.62174000  0.08635000  0.19724000  1.0
  C  C150  1  0.59398000  0.58671000  0.69761000  1.0
  C  C151  1  0.37826000  0.91365000  0.80276000  1.0
  C  C152  1  0.47258000  0.37798000  0.34505000  1.0
  C  C153  1  0.69556000  0.12172000  0.15462000  1.0
  C  C154  1  0.52742000  0.62202000  0.65495000  1.0
  C  C155  1  0.30444000  0.87829000  0.84538000  1.0
  C  C156  1  0.55648000  0.40495000  0.34824000  1.0
  C  C157  1  0.80953000  0.09486000  0.15154000  1.0
  C  C158  1  0.44353000  0.59505000  0.65175000  1.0
  C  C159  1  0.19046000  0.90514000  0.84847000  1.0
  C  C160  1  0.64532000  0.50677000  0.32827000  1.0
  C  C161  1  0.98011000  0.99309000  0.17165000  1.0
  C  C162  1  0.35468000  0.49323000  0.67173000  1.0
  C  C163  1  0.01988000  0.00691000  0.82835000  1.0
  C  C164  1  0.52978000  0.56587000  0.21940000  1.0
  C  C165  1  0.81473000  0.93418000  0.28066000  1.0
  C  C166  1  0.47024000  0.43413000  0.78059000  1.0
  C  C167  1  0.18527000  0.06582000  0.71934000  1.0
  C  C168  1  0.30903000  0.39213000  0.30057000  1.0
  C  C169  1  0.50182000  0.10742000  0.19905000  1.0
  C  C170  1  0.69097000  0.60788000  0.69943000  1.0
  C  C171  1  0.49817000  0.89259000  0.80095000  1.0
  C  C172  1  0.25437000  0.35317000  0.35922000  1.0
  C  C173  1  0.46685000  0.14660000  0.14049000  1.0
  C  C174  1  0.74562000  0.64683000  0.64078000  1.0
  C  C175  1  0.53315000  0.85341000  0.85951000  1.0
  C  C176  1  0.23091000  0.37950000  0.42392000  1.0
  C  C177  1  0.53430000  0.12021000  0.07581000  1.0
  C  C178  1  0.76908000  0.62050000  0.57608000  1.0
  C  C179  1  0.46570000  0.87979000  0.92419000  1.0
  C  C180  1  0.16859000  0.34877000  0.47877000  1.0
  C  C181  1  0.49619000  0.15106000  0.02095000  1.0
  C  C182  1  0.83141000  0.65123000  0.52123000  1.0
  C  C183  1  0.50381000  0.84894000  0.97904000  1.0
  C  C184  1  0.13489000  0.28779000  0.46869000  1.0
  C  C185  1  0.39168000  0.21216000  0.03102000  1.0
  C  C186  1  0.86510000  0.71221000  0.53131000  1.0
  C  C187  1  0.60831000  0.78784000  0.96898000  1.0
  C  C188  1  0.15902000  0.26141000  0.40389000  1.0
  C  C189  1  0.32483000  0.23867000  0.09580000  1.0
  C  C190  1  0.84097000  0.73859000  0.59610000  1.0
  C  C191  1  0.67516000  0.76134000  0.90420000  1.0
  C  C192  1  0.21647000  0.29460000  0.34938000  1.0
  C  C193  1  0.36081000  0.20538000  0.15034000  1.0
  C  C194  1  0.78352000  0.70541000  0.65062000  1.0
  C  C195  1  0.63918000  0.79463000  0.84966000  1.0
  C  C196  1  0.13324000  0.38829000  0.54530000  1.0
  C  C197  1  0.56673000  0.11152000  0.95443000  1.0
  C  C198  1  0.86676000  0.61170000  0.45470000  1.0
  C  C199  1  0.43327000  0.88848000  0.04557000  1.0
  C  C200  1  0.08094000  0.24483000  0.52537000  1.0
  C  C201  1  0.35139000  0.25508000  0.97438000  1.0
  C  C202  1  0.91906000  0.75517000  0.47463000  1.0
  C  C203  1  0.64860000  0.74492000  0.02562000  1.0
  C  C204  1  0.86021000  0.57385000  0.22846000  1.0
  C  C205  1  0.16176000  0.92630000  0.27165000  1.0
  C  C206  1  0.13979000  0.42615000  0.77154000  1.0
  C  C207  1  0.83824000  0.07370000  0.72835000  1.0
  C  C208  1  0.87580000  0.62027000  0.17287000  1.0
  C  C209  1  0.16821000  0.87991000  0.32724000  1.0
  C  C210  1  0.12420000  0.37973000  0.82713000  1.0
  C  C211  1  0.83179000  0.12009000  0.67276000  1.0
  C  C212  1  0.85852000  0.69913000  0.18001000  1.0
  C  C213  1  0.23733000  0.80115000  0.32013000  1.0
  C  C214  1  0.14148000  0.30088000  0.81999000  1.0
  C  C215  1  0.76267000  0.19886000  0.67987000  1.0
  C  C216  1  0.82729000  0.72645000  0.24505000  1.0
  C  C217  1  0.29878000  0.77392000  0.25512000  1.0
  C  C218  1  0.17270000  0.27356000  0.75496000  1.0
  C  C219  1  0.70122000  0.22607000  0.74488000  1.0
  C  C220  1  0.81408000  0.67649000  0.29857000  1.0
  C  C221  1  0.28911000  0.82386000  0.20159000  1.0
  C  C222  1  0.18592000  0.32352000  0.70143000  1.0
  C  C223  1  0.71089000  0.17615000  0.79841000  1.0
  C  C224  1  0.87116000  0.74924000  0.11921000  1.0
  C  C225  1  0.23952000  0.75101000  0.38091000  1.0
  C  C226  1  0.12884000  0.25076000  0.88079000  1.0
  C  C227  1  0.76049000  0.24899000  0.61909000  1.0
  C  C228  1  0.82868000  0.83714000  0.13214000  1.0
  C  C229  1  0.29766000  0.66309000  0.36794000  1.0
  C  C230  1  0.17133000  0.16286000  0.86786000  1.0
  C  C231  1  0.70235000  0.33691000  0.63206000  1.0
  C  C232  1  0.82406000  0.88213000  0.06887000  1.0
  C  C233  1  0.27497000  0.61802000  0.43118000  1.0
  C  C234  1  0.17595000  0.11787000  0.93113000  1.0
  C  C235  1  0.72504000  0.38198000  0.56882000  1.0
  C  C236  1  0.90685000  0.91433000  0.03476000  1.0
  C  C237  1  0.35599000  0.58577000  0.46521000  1.0
  C  C238  1  0.09316000  0.08567000  0.96524000  1.0
  C  C239  1  0.64402000  0.41423000  0.53479000  1.0
  C  C240  1  0.89898000  0.95511000  0.97642000  1.0
  C  C241  1  0.33077000  0.54490000  0.52352000  1.0
  C  C242  1  0.10102000  0.04489000  0.02359000  1.0
  C  C243  1  0.66924000  0.45510000  0.47648000  1.0
  C  C244  1  0.73521000  0.93342000  0.98198000  1.0
  C  C245  1  0.15082000  0.56652000  0.51806000  1.0
  C  C246  1  0.26480000  0.06658000  0.01802000  1.0
  C  C247  1  0.84918000  0.43349000  0.48194000  1.0
  C  C248  1  0.73663000  0.89326000  0.04115000  1.0
  C  C249  1  0.17100000  0.60686000  0.45898000  1.0
  C  C250  1  0.26338000  0.10673000  0.95885000  1.0
  C  C251  1  0.82900000  0.39314000  0.54103000  1.0
  C  C252  1  0.54083000  0.81974000  0.19788000  1.0
  C  C253  1  0.05818000  0.68017000  0.30210000  1.0
  C  C254  1  0.45917000  0.18026000  0.80212000  1.0
  C  C255  1  0.94182000  0.31983000  0.69790000  1.0
  C  C256  1  0.50810000  0.87673000  0.24561000  1.0
  C  C257  1  0.13024000  0.62329000  0.25432000  1.0
  C  C258  1  0.49191000  0.12327000  0.75439000  1.0
  C  C259  1  0.86976000  0.37671000  0.74568000  1.0
  C  C260  1  0.50665000  0.85584000  0.31124000  1.0
  C  C261  1  0.17350000  0.64429000  0.18873000  1.0
  C  C262  1  0.49335000  0.14415000  0.68876000  1.0
  C  C263  1  0.82650000  0.35570000  0.81127000  1.0
  C  C264  1  0.53962000  0.77656000  0.32538000  1.0
  C  C265  1  0.14133000  0.72361000  0.17468000  1.0
  C  C266  1  0.46037000  0.22344000  0.67462000  1.0
  C  C267  1  0.85867000  0.27639000  0.82532000  1.0
  C  C268  1  0.57153000  0.72247000  0.27541000  1.0
  C  C269  1  0.06913000  0.77757000  0.22469000  1.0
  C  C270  1  0.42847000  0.27753000  0.72458000  1.0
  C  C271  1  0.93087000  0.22243000  0.77531000  1.0
  C  C272  1  0.46474000  0.91574000  0.36524000  1.0
  C  C273  1  0.24547000  0.58444000  0.13471000  1.0
  C  C274  1  0.53526000  0.08425000  0.63475000  1.0
  C  C275  1  0.75453000  0.41556000  0.86529000  1.0
  C  C276  1  0.35373000  0.91190000  0.41423000  1.0
  C  C277  1  0.17955000  0.58825000  0.08571000  1.0
  C  C278  1  0.64628000  0.08809000  0.58577000  1.0
  C  C279  1  0.82045000  0.41175000  0.91429000  1.0
  C  C280  1  0.29583000  0.97054000  0.47016000  1.0
  C  C281  1  0.23600000  0.52957000  0.02981000  1.0
  C  C282  1  0.70418000  0.02946000  0.52983000  1.0
  C  C283  1  0.76399000  0.47043000  0.97019000  1.0
  C  C284  1  0.20013000  0.96521000  0.52040000  1.0
  C  C285  1  0.18525000  0.53494000  0.97952000  1.0
  C  C286  1  0.79987000  0.03479000  0.47959000  1.0
  C  C287  1  0.81474000  0.46506000  0.02048000  1.0
  C  C288  1  0.14395000  0.02058000  0.57098000  1.0
  C  C289  1  0.23498000  0.47957000  0.92893000  1.0
  C  C290  1  0.85605000  0.97941000  0.42901000  1.0
  C  C291  1  0.76502000  0.52043000  0.07107000  1.0
  C  C292  1  0.26979000  0.08595000  0.52658000  1.0
  C  C293  1  0.38179000  0.41424000  0.97337000  1.0
  C  C294  1  0.73021000  0.91405000  0.47343000  1.0
  C  C295  1  0.61821000  0.58576000  0.02663000  1.0
  C  C296  1  0.33124000  0.03214000  0.47472000  1.0
  C  C297  1  0.33750000  0.46798000  0.02528000  1.0
  C  C298  1  0.66876000  0.96786000  0.52528000  1.0
  C  C299  1  0.66250000  0.53202000  0.97472000  1.0
  N  N300  1  0.82895000  0.60154000  0.29100000  1.0
  N  N301  1  0.22114000  0.89872000  0.20914000  1.0
  N  N302  1  0.17104000  0.39847000  0.70901000  1.0
  N  N303  1  0.77887000  0.10128000  0.79086000  1.0
  N  N304  1  0.81533000  0.96421000  0.94968000  1.0
  N  N305  1  0.22958000  0.53565000  0.55026000  1.0
  N  N306  1  0.18467000  0.03579000  0.05033000  1.0
  N  N307  1  0.77042000  0.46435000  0.44974000  1.0
  N  N308  1  0.57216000  0.74352000  0.21235000  1.0
  N  N309  1  0.02771000  0.75642000  0.28770000  1.0
  N  N310  1  0.42784000  0.25647000  0.78765000  1.0
  N  N311  1  0.97230000  0.24358000  0.71230000  1.0
  N  N312  1  0.17705000  0.08087000  0.57338000  1.0
  N  N313  1  0.33074000  0.41931000  0.92654000  1.0
  N  N314  1  0.82295000  0.91912000  0.42662000  1.0
  N  N315  1  0.66926000  0.58069000  0.07345000  1.0
  O  O316  1  0.59259000  0.57125000  0.35826000  1.0
  O  O317  1  0.02169000  0.92856000  0.14175000  1.0
  O  O318  1  0.40742000  0.42875000  0.64174000  1.0
  O  O319  1  0.97830000  0.07144000  0.85824000  1.0
  O  O320  1  0.75125000  0.46879000  0.31850000  1.0
  O  O321  1  0.03829000  0.03114000  0.18139000  1.0
  O  O322  1  0.24875000  0.53120000  0.68150000  1.0
  O  O323  1  0.96170000  0.96886000  0.81862000  1.0
  O  O324  1  0.62444000  0.57747000  0.20931000  1.0
  O  O325  1  0.91102000  0.92242000  0.29066000  1.0
  O  O326  1  0.37557000  0.42253000  0.79069000  1.0
  O  O327  1  0.08898000  0.07758000  0.70934000  1.0
  O  O328  1  0.45549000  0.60530000  0.19231000  1.0
  O  O329  1  0.75253000  0.89497000  0.30800000  1.0
  O  O330  1  0.54452000  0.39470000  0.80769000  1.0
  O  O331  1  0.24747000  0.10503000  0.69201000  1.0
  O  O332  1  0.26910000  0.40941000  0.25276000  1.0
  O  O333  1  0.43151000  0.08986000  0.24676000  1.0
  O  O334  1  0.73089000  0.59060000  0.74725000  1.0
  O  O335  1  0.56848000  0.91015000  0.75324000  1.0
  O  O336  1  0.21520000  0.39044000  0.56432000  1.0
  O  O337  1  0.66990000  0.10915000  0.93553000  1.0
  O  O338  1  0.78481000  0.60956000  0.43568000  1.0
  O  O339  1  0.33009000  0.89084000  0.06448000  1.0
  O  O340  1  0.02904000  0.42012000  0.57394000  1.0
  O  O341  1  0.52283000  0.07989000  0.92567000  1.0
  O  O342  1  0.97096000  0.57988000  0.42606000  1.0
  O  O343  1  0.47718000  0.92010000  0.07432000  1.0
  O  O344  1  0.11274000  0.24240000  0.57834000  1.0
  O  O345  1  0.43361000  0.25772000  0.92145000  1.0
  O  O346  1  0.88727000  0.75761000  0.42166000  1.0
  O  O347  1  0.56638000  0.74228000  0.07855000  1.0
  O  O348  1  0.01752000  0.21196000  0.51879000  1.0
  O  O349  1  0.24854000  0.28776000  0.98093000  1.0
  O  O350  1  0.98247000  0.78805000  0.48122000  1.0
  O  O351  1  0.75145000  0.71225000  0.01907000  1.0
  O  O352  1  0.00664000  0.46952000  0.33945000  1.0
  O  O353  1  0.31565000  0.03126000  0.15989000  1.0
  O  O354  1  0.99337000  0.53049000  0.66054000  1.0
  O  O355  1  0.68435000  0.96874000  0.84011000  1.0
