# generated using pymatgen
data_ZnH24C24(N3O2)2
_symmetry_space_group_name_H-M   'P 1'
_cell_length_a   10.32920000
_cell_length_b   10.50900000
_cell_length_c   12.53400000
_cell_angle_alpha   113.18000000
_cell_angle_beta   97.01520000
_cell_angle_gamma   105.23900000
_symmetry_Int_Tables_number   1
_chemical_formula_structural   ZnH24C24(N3O2)2
_chemical_formula_sum   'Zn2 H48 C48 N12 O8'
_cell_volume   1167.06090230
_cell_formula_units_Z   2
loop_
 _symmetry_equiv_pos_site_id
 _symmetry_equiv_pos_as_xyz
  1  'x, y, z'
loop_
 _atom_site_type_symbol
 _atom_site_label
 _atom_site_symmetry_multiplicity
 _atom_site_fract_x
 _atom_site_fract_y
 _atom_site_fract_z
 _atom_site_occupancy
  Zn  Zn0  1  0.89654000  0.88932000  0.68773000  1.0
  Zn  Zn1  1  0.10346000  0.11069000  0.31227000  1.0
  H  H2  1  0.48731000  0.57679000  0.44822000  1.0
  H  H3  1  0.51270000  0.42321000  0.55178000  1.0
  H  H4  1  0.23255000  0.45104000  0.35977000  1.0
  H  H5  1  0.76745000  0.54896000  0.64023000  1.0
  H  H6  1  0.06849000  0.57300000  0.44803000  1.0
  H  H7  1  0.93151000  0.42700000  0.55197000  1.0
  H  H8  1  0.41359000  0.93826000  0.71750000  1.0
  H  H9  1  0.58641000  0.06174000  0.28250000  1.0
  H  H10  1  0.69002000  0.79484000  0.83604000  1.0
  H  H11  1  0.30999000  0.20516000  0.16396000  1.0
  H  H12  1  0.11828000  0.87126000  0.89422000  1.0
  H  H13  1  0.88173000  0.12874000  0.10578000  1.0
  H  H14  1  0.74685000  0.80438000  0.10405000  1.0
  H  H15  1  0.25315000  0.19562000  0.89595000  1.0
  H  H16  1  0.79684000  0.64660000  0.05303000  1.0
  H  H17  1  0.20316000  0.35340000  0.94697000  1.0
  H  H18  1  0.75013000  0.41549000  0.79781000  1.0
  H  H19  1  0.24987000  0.58451000  0.20219000  1.0
  H  H20  1  0.64375000  0.28350000  0.83291000  1.0
  H  H21  1  0.35625000  0.71650000  0.16709000  1.0
  H  H22  1  0.76013000  0.45045000  0.94903000  1.0
  H  H23  1  0.23987000  0.54955000  0.05098000  1.0
  H  H24  1  0.51419000  0.20833000  0.67137000  1.0
  H  H25  1  0.48582000  0.79167000  0.32862000  1.0
  H  H26  1  0.35578000  0.20264000  0.59772000  1.0
  H  H27  1  0.64422000  0.79736000  0.40228000  1.0
  H  H28  1  0.36367000  0.15563000  0.71923000  1.0
  H  H29  1  0.63634000  0.84437000  0.28077000  1.0
  H  H30  1  0.26294000  0.74343000  0.95103000  1.0
  H  H31  1  0.73707000  0.25657000  0.04897000  1.0
  H  H32  1  0.15670000  0.59385000  0.81577000  1.0
  H  H33  1  0.84330000  0.40615000  0.18423000  1.0
  H  H34  1  0.28027000  0.74676000  0.81360000  1.0
  H  H35  1  0.71973000  0.25324000  0.18639000  1.0
  H  H36  1  0.45858000  0.85882000  0.08236000  1.0
  H  H37  1  0.54143000  0.14118000  0.91764000  1.0
  H  H38  1  0.50632000  0.89981000  0.96662000  1.0
  H  H39  1  0.49368000  0.10019000  0.03338000  1.0
  H  H40  1  0.63389000  0.90519000  0.07765000  1.0
  H  H41  1  0.36611000  0.09481000  0.92235000  1.0
  H  H42  1  0.17680000  0.45818000  0.65120000  1.0
  H  H43  1  0.82320000  0.54182000  0.34880000  1.0
  H  H44  1  0.23748000  0.31218000  0.58496000  1.0
  H  H45  1  0.76252000  0.68782000  0.41503000  1.0
  H  H46  1  0.12191000  0.07025000  0.59726000  1.0
  H  H47  1  0.87810000  0.92975000  0.40274000  1.0
  H  H48  1  0.85619000  0.21563000  0.80808000  1.0
  H  H49  1  0.14380000  0.78436000  0.19191000  1.0
  C  C50  1  0.61922000  0.84383000  0.64512000  1.0
  C  C51  1  0.38078000  0.15617000  0.35488000  1.0
  C  C52  1  0.46654000  0.76660000  0.58765000  1.0
  C  C53  1  0.53345000  0.23340000  0.41235000  1.0
  C  C54  1  0.41488000  0.62878000  0.48657000  1.0
  C  C55  1  0.58512000  0.37122000  0.51343000  1.0
  C  C56  1  0.27214000  0.55920000  0.43676000  1.0
  C  C57  1  0.72786000  0.44081000  0.56324000  1.0
  C  C58  1  0.17999000  0.62651000  0.48639000  1.0
  C  C59  1  0.82001000  0.37349000  0.51361000  1.0
  C  C60  1  0.23053000  0.76371000  0.58795000  1.0
  C  C61  1  0.76947000  0.23630000  0.41205000  1.0
  C  C62  1  0.13432000  0.83661000  0.64617000  1.0
  C  C63  1  0.86568000  0.16339000  0.35383000  1.0
  C  C64  1  0.37362000  0.83246000  0.63807000  1.0
  C  C65  1  0.62638000  0.16755000  0.36193000  1.0
  C  C66  1  0.79466000  0.80255000  0.86996000  1.0
  C  C67  1  0.20533000  0.19745000  0.13004000  1.0
  C  C68  1  0.01280000  0.84083000  0.90274000  1.0
  C  C69  1  0.98720000  0.15917000  0.09726000  1.0
  C  C70  1  0.74582000  0.71034000  0.02358000  1.0
  C  C71  1  0.25419000  0.28965000  0.97642000  1.0
  C  C72  1  0.60241000  0.61853000  0.94165000  1.0
  C  C73  1  0.39759000  0.38147000  0.05835000  1.0
  C  C74  1  0.57671000  0.47071000  0.86019000  1.0
  C  C75  1  0.42329000  0.52929000  0.13981000  1.0
  C  C76  1  0.68786000  0.40185000  0.86054000  1.0
  C  C77  1  0.31214000  0.59815000  0.13946000  1.0
  C  C78  1  0.44820000  0.38981000  0.77365000  1.0
  C  C79  1  0.55180000  0.61019000  0.22635000  1.0
  C  C80  1  0.41903000  0.23167000  0.68617000  1.0
  C  C81  1  0.58097000  0.76833000  0.31383000  1.0
  C  C82  1  0.34777000  0.45839000  0.77059000  1.0
  C  C83  1  0.65223000  0.54161000  0.22941000  1.0
  C  C84  1  0.37073000  0.60276000  0.85635000  1.0
  C  C85  1  0.62927000  0.39723000  0.14365000  1.0
  C  C86  1  0.26168000  0.67434000  0.85830000  1.0
  C  C87  1  0.73832000  0.32566000  0.14170000  1.0
  C  C88  1  0.50057000  0.68485000  0.94086000  1.0
  C  C89  1  0.49943000  0.31515000  0.05914000  1.0
  C  C90  1  0.52771000  0.84448000  0.02155000  1.0
  C  C91  1  0.47229000  0.15552000  0.97845000  1.0
  C  C92  1  0.21716000  0.38008000  0.66874000  1.0
  C  C93  1  0.78284000  0.61992000  0.33125000  1.0
  C  C94  1  0.07034000  0.13767000  0.65278000  1.0
  C  C95  1  0.92966000  0.86233000  0.34722000  1.0
  C  C96  1  0.93717000  0.21617000  0.76075000  1.0
  C  C97  1  0.06283000  0.78383000  0.23924000  1.0
  N  N98  1  0.90591000  0.84933000  0.83279000  1.0
  N  N99  1  0.09409000  0.15067000  0.16721000  1.0
  N  N100  1  0.97316000  0.79168000  0.98026000  1.0
  N  N101  1  0.02684000  0.20832000  0.01974000  1.0
  N  N102  1  0.83438000  0.76787000  0.95776000  1.0
  N  N103  1  0.16563000  0.23213000  0.04224000  1.0
  N  N104  1  0.96470000  0.09160000  0.69615000  1.0
  N  N105  1  0.03529000  0.90840000  0.30384000  1.0
  N  N106  1  0.02034000  0.33546000  0.75963000  1.0
  N  N107  1  0.97965000  0.66454000  0.24036000  1.0
  N  N108  1  0.10405000  0.28276000  0.69022000  1.0
  N  N109  1  0.89594000  0.71724000  0.30977000  1.0
  O  O110  1  0.70061000  0.77927000  0.59104000  1.0
  O  O111  1  0.29939000  0.22073000  0.40897000  1.0
  O  O112  1  0.66243000  0.96119000  0.74080000  1.0
  O  O113  1  0.33757000  0.03882000  0.25921000  1.0
  O  O114  1  0.00501000  0.78128000  0.58652000  1.0
  O  O115  1  0.99499000  0.21872000  0.41348000  1.0
  O  O116  1  0.18043000  0.94568000  0.74819000  1.0
  O  O117  1  0.81957000  0.05432000  0.25181000  1.0
