# generated using pymatgen
data_NaH3(CO)4
_symmetry_space_group_name_H-M   'P 1'
_cell_length_a   5.39390000
_cell_length_b   6.46121000
_cell_length_c   7.95707000
_cell_angle_alpha   82.40240000
_cell_angle_beta   88.09640000
_cell_angle_gamma   67.22020000
_symmetry_Int_Tables_number   1
_chemical_formula_structural   NaH3(CO)4
_chemical_formula_sum   'Na2 H6 C8 O8'
_cell_volume   253.38869198
_cell_formula_units_Z   2
loop_
 _symmetry_equiv_pos_site_id
 _symmetry_equiv_pos_as_xyz
  1  'x, y, z'
loop_
 _atom_site_type_symbol
 _atom_site_label
 _atom_site_symmetry_multiplicity
 _atom_site_fract_x
 _atom_site_fract_y
 _atom_site_fract_z
 _atom_site_occupancy
  Na  Na0  1  0.52926000  0.76141000  0.39775000  1.0
  Na  Na1  1  0.47073000  0.23859000  0.60230000  1.0
  H  H2  1  0.75810000  0.79215000  0.96224000  1.0
  H  H3  1  0.24192000  0.20783000  0.03774000  1.0
  H  H4  1  0.33422000  0.69309000  0.83222000  1.0
  H  H5  1  0.66577000  0.30692000  0.16788000  1.0
  H  H6  1  0.04458000  0.70953000  0.38074000  1.0
  H  H7  1  0.95536000  0.29064000  0.61930000  1.0
  C  C8  1  0.00258000  0.75271000  0.65318000  1.0
  C  C9  1  0.99743000  0.24731000  0.34679000  1.0
  C  C10  1  0.11839000  0.73532000  0.82394000  1.0
  C  C11  1  0.88157000  0.26476000  0.17602000  1.0
  C  C12  1  0.97284000  0.75675000  0.96526000  1.0
  C  C13  1  0.02719000  0.24322000  0.03473000  1.0
  C  C14  1  0.10152000  0.73089000  0.13242000  1.0
  C  C15  1  0.89854000  0.26903000  0.86756000  1.0
  O  O16  1  0.17798000  0.66858000  0.53890000  1.0
  O  O17  1  0.82199000  0.33138000  0.46102000  1.0
  O  O18  1  0.33941000  0.70508000  0.15123000  1.0
  O  O19  1  0.66058000  0.29496000  0.84883000  1.0
  O  O20  1  0.93652000  0.73983000  0.26166000  1.0
  O  O21  1  0.06355000  0.26005000  0.73834000  1.0
  O  O22  1  0.75234000  0.84125000  0.62486000  1.0
  O  O23  1  0.24763000  0.15871000  0.37507000  1.0
