# generated using pymatgen
data_CdH12C14(S2N)2
_symmetry_space_group_name_H-M   'P 1'
_cell_length_a   7.30569000
_cell_length_b   14.82250000
_cell_length_c   17.26200000
_cell_angle_alpha   90.95990000
_cell_angle_beta   90.00000000
_cell_angle_gamma   90.00000000
_symmetry_Int_Tables_number   1
_chemical_formula_structural   CdH12C14(S2N)2
_chemical_formula_sum   'Cd4 H48 C56 S16 N8'
_cell_volume   1869.01531559
_cell_formula_units_Z   4
loop_
 _symmetry_equiv_pos_site_id
 _symmetry_equiv_pos_as_xyz
  1  'x, y, z'
loop_
 _atom_site_type_symbol
 _atom_site_label
 _atom_site_symmetry_multiplicity
 _atom_site_fract_x
 _atom_site_fract_y
 _atom_site_fract_z
 _atom_site_occupancy
  Cd  Cd0  1  0.75352000  0.52960000  0.53175000  1.0
  Cd  Cd1  1  0.25350000  0.97040000  0.96824000  1.0
  Cd  Cd2  1  0.24649000  0.47040000  0.46824000  1.0
  Cd  Cd3  1  0.74648000  0.02960000  0.03176000  1.0
  H  H4  1  0.15290000  0.59640000  0.65155000  1.0
  H  H5  1  0.65289000  0.90359000  0.84845000  1.0
  H  H6  1  0.84711000  0.40359000  0.34845000  1.0
  H  H7  1  0.34710000  0.09641000  0.15155000  1.0
  H  H8  1  0.09499000  0.27198000  0.63341000  1.0
  H  H9  1  0.59499000  0.22802000  0.86658000  1.0
  H  H10  1  0.90501000  0.72802000  0.36658000  1.0
  H  H11  1  0.40500000  0.77198000  0.13342000  1.0
  H  H12  1  0.90600000  0.68590000  0.65919000  1.0
  H  H13  1  0.40598000  0.81410000  0.84080000  1.0
  H  H14  1  0.09402000  0.31408000  0.34080000  1.0
  H  H15  1  0.59401000  0.18591000  0.15919000  1.0
  H  H16  1  0.77385000  0.83580000  0.68613000  1.0
  H  H17  1  0.27384000  0.66419000  0.81387000  1.0
  H  H18  1  0.22615000  0.16417000  0.31389000  1.0
  H  H19  1  0.72615000  0.33581000  0.18612000  1.0
  H  H20  1  0.97831000  0.97169000  0.69632000  1.0
  H  H21  1  0.47830000  0.52830000  0.80368000  1.0
  H  H22  1  0.02167000  0.02829000  0.30370000  1.0
  H  H23  1  0.52170000  0.47170000  0.19632000  1.0
  H  H24  1  0.31303000  0.95358000  0.67681000  1.0
  H  H25  1  0.81302000  0.54641000  0.82320000  1.0
  H  H26  1  0.68695000  0.04641000  0.32320000  1.0
  H  H27  1  0.18698000  0.45360000  0.17681000  1.0
  H  H28  1  0.44620000  0.80278000  0.64957000  1.0
  H  H29  1  0.94618000  0.69721000  0.85045000  1.0
  H  H30  1  0.55380000  0.19722000  0.35044000  1.0
  H  H31  1  0.05380000  0.30279000  0.14957000  1.0
  H  H32  1  0.02114000  0.18777000  0.75037000  1.0
  H  H33  1  0.52113000  0.31224000  0.74964000  1.0
  H  H34  1  0.97886000  0.81223000  0.24963000  1.0
  H  H35  1  0.47886000  0.68777000  0.25037000  1.0
  H  H36  1  0.08556000  0.17579000  0.89132000  1.0
  H  H37  1  0.58556000  0.32422000  0.60869000  1.0
  H  H38  1  0.91443000  0.82421000  0.10868000  1.0
  H  H39  1  0.41445000  0.67579000  0.39132000  1.0
  H  H40  1  0.21167000  0.30671000  0.96519000  1.0
  H  H41  1  0.71168000  0.19330000  0.53480000  1.0
  H  H42  1  0.78832000  0.69329000  0.03480000  1.0
  H  H43  1  0.28835000  0.80671000  0.46520000  1.0
  H  H44  1  0.28220000  0.44979000  0.89652000  1.0
  H  H45  1  0.78219000  0.05022000  0.60347000  1.0
  H  H46  1  0.71782000  0.55021000  0.10347000  1.0
  H  H47  1  0.21782000  0.94979000  0.39653000  1.0
  H  H48  1  0.22060000  0.46113000  0.75483000  1.0
  H  H49  1  0.72058000  0.03887000  0.74516000  1.0
  H  H50  1  0.77943000  0.53886000  0.24516000  1.0
  H  H51  1  0.27942000  0.96114000  0.25483000  1.0
  C  C52  1  0.40329000  0.61262000  0.60716000  1.0
  C  C53  1  0.90327000  0.88737000  0.89284000  1.0
  C  C54  1  0.59672000  0.38737000  0.39284000  1.0
  C  C55  1  0.09672000  0.11264000  0.10716000  1.0
  C  C56  1  0.18491000  0.73448000  0.65198000  1.0
  C  C57  1  0.68489000  0.76551000  0.84803000  1.0
  C  C58  1  0.81509000  0.26550000  0.34802000  1.0
  C  C59  1  0.31509000  0.23450000  0.15198000  1.0
  C  C60  1  0.99547000  0.74468000  0.66295000  1.0
  C  C61  1  0.49546000  0.75531000  0.83705000  1.0
  C  C62  1  0.00453000  0.25530000  0.33706000  1.0
  C  C63  1  0.50453000  0.24470000  0.16295000  1.0
  C  C64  1  0.92129000  0.82959000  0.67807000  1.0
  C  C65  1  0.42128000  0.67040000  0.82193000  1.0
  C  C66  1  0.07870000  0.17038000  0.32194000  1.0
  C  C67  1  0.57871000  0.32961000  0.17806000  1.0
  C  C68  1  0.03486000  0.90528000  0.68297000  1.0
  C  C69  1  0.53485000  0.59471000  0.81704000  1.0
  C  C70  1  0.96513000  0.09470000  0.31705000  1.0
  C  C71  1  0.46515000  0.40529000  0.18297000  1.0
  C  C72  1  0.22312000  0.89507000  0.67205000  1.0
  C  C73  1  0.72311000  0.60492000  0.82795000  1.0
  C  C74  1  0.77686000  0.10492000  0.32796000  1.0
  C  C75  1  0.27689000  0.39508000  0.17205000  1.0
  C  C76  1  0.29929000  0.81033000  0.65686000  1.0
  C  C77  1  0.79927000  0.68966000  0.84316000  1.0
  C  C78  1  0.70071000  0.18965000  0.34315000  1.0
  C  C79  1  0.20072000  0.31035000  0.15685000  1.0
  C  C80  1  0.99163000  0.39632000  0.62479000  1.0
  C  C81  1  0.49163000  0.10368000  0.87520000  1.0
  C  C82  1  0.00837000  0.60368000  0.37520000  1.0
  C  C83  1  0.50837000  0.89632000  0.12479000  1.0
  C  C84  1  0.11265000  0.32632000  0.74489000  1.0
  C  C85  1  0.61263000  0.17368000  0.75511000  1.0
  C  C86  1  0.88736000  0.67368000  0.25511000  1.0
  C  C87  1  0.38736000  0.82632000  0.24489000  1.0
  C  C88  1  0.07803000  0.24513000  0.78267000  1.0
  C  C89  1  0.57802000  0.25487000  0.71733000  1.0
  C  C90  1  0.92197000  0.75487000  0.21732000  1.0
  C  C91  1  0.42198000  0.74513000  0.28267000  1.0
  C  C92  1  0.11337000  0.23872000  0.86174000  1.0
  C  C93  1  0.61335000  0.26129000  0.63826000  1.0
  C  C94  1  0.88663000  0.76128000  0.13825000  1.0
  C  C95  1  0.38665000  0.73872000  0.36174000  1.0
  C  C96  1  0.18482000  0.31242000  0.90331000  1.0
  C  C97  1  0.68481000  0.18759000  0.59668000  1.0
  C  C98  1  0.81518000  0.68758000  0.09668000  1.0
  C  C99  1  0.31520000  0.81242000  0.40332000  1.0
  C  C100  1  0.22299000  0.39251000  0.86486000  1.0
  C  C101  1  0.72297000  0.10750000  0.63513000  1.0
  C  C102  1  0.77703000  0.60749000  0.13513000  1.0
  C  C103  1  0.27703000  0.89251000  0.36487000  1.0
  C  C104  1  0.18753000  0.39988000  0.78571000  1.0
  C  C105  1  0.68751000  0.10012000  0.71428000  1.0
  C  C106  1  0.81249000  0.60011000  0.21428000  1.0
  C  C107  1  0.31249000  0.89989000  0.28572000  1.0
  S  S108  1  0.41690000  0.49511000  0.60362000  1.0
  S  S109  1  0.91689000  0.00488000  0.89637000  1.0
  S  S110  1  0.58311000  0.50488000  0.39637000  1.0
  S  S111  1  0.08310000  0.99512000  0.10363000  1.0
  S  S112  1  0.57261000  0.67722000  0.57033000  1.0
  S  S113  1  0.07259000  0.82278000  0.92968000  1.0
  S  S114  1  0.42740000  0.32278000  0.42967000  1.0
  S  S115  1  0.92741000  0.17723000  0.07031000  1.0
  S  S116  1  0.91358000  0.49268000  0.66813000  1.0
  S  S117  1  0.41359000  0.00732000  0.83187000  1.0
  S  S118  1  0.08642000  0.50732000  0.33187000  1.0
  S  S119  1  0.58642000  0.99268000  0.16813000  1.0
  S  S120  1  0.95626000  0.37412000  0.52708000  1.0
  S  S121  1  0.45626000  0.12588000  0.97292000  1.0
  S  S122  1  0.04374000  0.62589000  0.47292000  1.0
  S  S123  1  0.54373000  0.87412000  0.02708000  1.0
  N  N124  1  0.24791000  0.64558000  0.63899000  1.0
  N  N125  1  0.74789000  0.85442000  0.86102000  1.0
  N  N126  1  0.75210000  0.35441000  0.36101000  1.0
  N  N127  1  0.25209000  0.14559000  0.13899000  1.0
  N  N128  1  0.07480000  0.33021000  0.66444000  1.0
  N  N129  1  0.57479000  0.16979000  0.83556000  1.0
  N  N130  1  0.92521000  0.66979000  0.33556000  1.0
  N  N131  1  0.42521000  0.83021000  0.16444000  1.0
