# generated using pymatgen
data_NdH8(C3O5)2
_symmetry_space_group_name_H-M   'P 1'
_cell_length_a   6.15865000
_cell_length_b   7.49908000
_cell_length_c   23.60090000
_cell_angle_alpha   89.99990000
_cell_angle_beta   93.92080000
_cell_angle_gamma   89.99990000
_symmetry_Int_Tables_number   1
_chemical_formula_structural   NdH8(C3O5)2
_chemical_formula_sum   'Nd4 H32 C24 O40'
_cell_volume   1087.43780371
_cell_formula_units_Z   4
loop_
 _symmetry_equiv_pos_site_id
 _symmetry_equiv_pos_as_xyz
  1  'x, y, z'
loop_
 _atom_site_type_symbol
 _atom_site_label
 _atom_site_symmetry_multiplicity
 _atom_site_fract_x
 _atom_site_fract_y
 _atom_site_fract_z
 _atom_site_occupancy
  Nd  Nd0  1  0.30348000  0.88613000  0.14939000  1.0
  Nd  Nd1  1  0.19653000  0.38614000  0.35062000  1.0
  Nd  Nd2  1  0.69651000  0.11386000  0.85061000  1.0
  Nd  Nd3  1  0.80347000  0.61386000  0.64939000  1.0
  H  H4  1  0.20939000  0.08099000  0.97890000  1.0
  H  H5  1  0.29061000  0.58098000  0.52110000  1.0
  H  H6  1  0.79060000  0.91901000  0.02110000  1.0
  H  H7  1  0.70939000  0.41901000  0.47890000  1.0
  H  H8  1  0.72111000  0.84362000  0.28732000  1.0
  H  H9  1  0.77891000  0.34362000  0.21269000  1.0
  H  H10  1  0.27889000  0.15638000  0.71268000  1.0
  H  H11  1  0.22110000  0.65638000  0.78731000  1.0
  H  H12  1  0.63237000  0.92683000  0.37848000  1.0
  H  H13  1  0.86765000  0.42682000  0.12152000  1.0
  H  H14  1  0.36763000  0.07317000  0.62152000  1.0
  H  H15  1  0.13235000  0.57317000  0.87848000  1.0
  H  H16  1  0.03973000  0.16185000  0.06959000  1.0
  H  H17  1  0.46026000  0.66185000  0.43041000  1.0
  H  H18  1  0.96027000  0.83816000  0.93041000  1.0
  H  H19  1  0.53974000  0.33815000  0.56959000  1.0
  H  H20  1  0.43443000  0.12275000  0.24626000  1.0
  H  H21  1  0.06559000  0.62275000  0.25374000  1.0
  H  H22  1  0.56557000  0.87725000  0.75374000  1.0
  H  H23  1  0.93442000  0.37725000  0.74626000  1.0
  H  H24  1  0.31508000  0.03696000  0.39622000  1.0
  H  H25  1  0.18493000  0.53695000  0.10378000  1.0
  H  H26  1  0.68492000  0.96304000  0.60378000  1.0
  H  H27  1  0.81506000  0.46305000  0.89622000  1.0
  H  H28  1  0.64690000  0.15243000  0.09034000  1.0
  H  H29  1  0.85311000  0.65243000  0.40966000  1.0
  H  H30  1  0.35310000  0.84757000  0.90966000  1.0
  H  H31  1  0.14690000  0.34757000  0.59034000  1.0
  H  H32  1  0.73886000  0.00512000  0.13415000  1.0
  H  H33  1  0.76114000  0.50512000  0.36585000  1.0
  H  H34  1  0.26114000  0.99488000  0.86585000  1.0
  H  H35  1  0.23886000  0.49489000  0.63415000  1.0
  C  C36  1  0.21075000  0.80877000  0.00824000  1.0
  C  C37  1  0.28925000  0.30876000  0.49176000  1.0
  C  C38  1  0.78924000  0.19123000  0.99176000  1.0
  C  C39  1  0.71075000  0.69123000  0.50824000  1.0
  C  C40  1  0.12337000  0.00038000  0.00959000  1.0
  C  C41  1  0.37663000  0.50037000  0.49041000  1.0
  C  C42  1  0.87663000  0.99963000  0.99041000  1.0
  C  C43  1  0.62337000  0.49962000  0.50959000  1.0
  C  C44  1  0.38428000  0.76941000  0.28664000  1.0
  C  C45  1  0.11575000  0.26940000  0.21336000  1.0
  C  C46  1  0.61573000  0.23059000  0.71336000  1.0
  C  C47  1  0.88427000  0.73060000  0.78664000  1.0
  C  C48  1  0.56307000  0.91190000  0.28802000  1.0
  C  C49  1  0.93695000  0.41190000  0.21198000  1.0
  C  C50  1  0.43693000  0.08810000  0.71198000  1.0
  C  C51  1  0.06306000  0.58810000  0.78802000  1.0
  C  C52  1  0.55871000  0.01323000  0.34481000  1.0
  C  C53  1  0.94130000  0.51321000  0.15519000  1.0
  C  C54  1  0.44128000  0.98679000  0.65519000  1.0
  C  C55  1  0.05870000  0.48678000  0.84481000  1.0
  C  C56  1  0.69244000  0.18600000  0.34511000  1.0
  C  C57  1  0.80758000  0.68600000  0.15489000  1.0
  C  C58  1  0.30756000  0.81400000  0.65489000  1.0
  C  C59  1  0.19242000  0.31400000  0.84511000  1.0
  O  O60  1  0.28548000  0.74032000  0.05477000  1.0
  O  O61  1  0.21452000  0.24032000  0.44524000  1.0
  O  O62  1  0.71452000  0.25968000  0.94524000  1.0
  O  O63  1  0.78547000  0.75968000  0.55476000  1.0
  O  O64  1  0.19691000  0.73233000  0.96008000  1.0
  O  O65  1  0.30309000  0.23233000  0.53992000  1.0
  O  O66  1  0.80309000  0.26766000  0.03992000  1.0
  O  O67  1  0.69690000  0.76766000  0.46008000  1.0
  O  O68  1  0.15697000  0.07166000  0.06518000  1.0
  O  O69  1  0.34302000  0.57166000  0.43482000  1.0
  O  O70  1  0.84303000  0.92834000  0.93482000  1.0
  O  O71  1  0.65698000  0.42834000  0.56518000  1.0
  O  O72  1  0.24131000  0.77310000  0.24465000  1.0
  O  O73  1  0.25872000  0.27311000  0.25535000  1.0
  O  O74  1  0.75870000  0.22689000  0.75535000  1.0
  O  O75  1  0.74129000  0.72689000  0.74465000  1.0
  O  O76  1  0.38674000  0.65782000  0.32641000  1.0
  O  O77  1  0.11327000  0.15781000  0.17359000  1.0
  O  O78  1  0.61326000  0.34219000  0.67359000  1.0
  O  O79  1  0.88673000  0.84219000  0.82641000  1.0
  O  O80  1  0.53899000  0.02208000  0.23882000  1.0
  O  O81  1  0.96103000  0.52208000  0.26118000  1.0
  O  O82  1  0.46101000  0.97792000  0.76118000  1.0
  O  O83  1  0.03897000  0.47792000  0.73882000  1.0
  O  O84  1  0.33652000  0.05197000  0.35571000  1.0
  O  O85  1  0.16349000  0.55196000  0.14429000  1.0
  O  O86  1  0.66348000  0.94804000  0.64429000  1.0
  O  O87  1  0.83651000  0.44804000  0.85570000  1.0
  O  O88  1  0.59015000  0.33112000  0.35312000  1.0
  O  O89  1  0.90986000  0.83111000  0.14688000  1.0
  O  O90  1  0.40985000  0.66889000  0.64688000  1.0
  O  O91  1  0.09014000  0.16889000  0.85312000  1.0
  O  O92  1  0.89314000  0.17508000  0.33850000  1.0
  O  O93  1  0.60687000  0.67507000  0.16150000  1.0
  O  O94  1  0.10686000  0.82493000  0.66150000  1.0
  O  O95  1  0.39312000  0.32492000  0.83850000  1.0
  O  O96  1  0.60410000  0.07128000  0.12056000  1.0
  O  O97  1  0.89590000  0.57129000  0.37944000  1.0
  O  O98  1  0.39589000  0.92872000  0.87944000  1.0
  O  O99  1  0.10410000  0.42872000  0.62056000  1.0
