# generated using pymatgen
data_CdH12C17N3O4
_symmetry_space_group_name_H-M   'P 1'
_cell_length_a   16.10640000
_cell_length_b   17.64178091
_cell_length_c   17.64068136
_cell_angle_alpha   77.97038459
_cell_angle_beta   62.84054906
_cell_angle_gamma   62.84878043
_symmetry_Int_Tables_number   1
_chemical_formula_structural   CdH12C17N3O4
_chemical_formula_sum   'Cd8 H96 C136 N24 O32'
_cell_volume   3968.38815639
_cell_formula_units_Z   8
loop_
 _symmetry_equiv_pos_site_id
 _symmetry_equiv_pos_as_xyz
  1  'x, y, z'
loop_
 _atom_site_type_symbol
 _atom_site_label
 _atom_site_symmetry_multiplicity
 _atom_site_fract_x
 _atom_site_fract_y
 _atom_site_fract_z
 _atom_site_occupancy
  Cd  Cd0  1  0.43636000  0.59293000  0.43276000  1.0
  Cd  Cd1  1  0.96201000  0.90701000  0.06729000  1.0
  Cd  Cd2  1  0.36924000  0.56736000  0.09286000  1.0
  Cd  Cd3  1  0.52929000  0.93270000  0.40710000  1.0
  Cd  Cd4  1  0.56364000  0.40707000  0.56724000  1.0
  Cd  Cd5  1  0.03799000  0.09299000  0.93271000  1.0
  Cd  Cd6  1  0.63076000  0.43265000  0.90714000  1.0
  Cd  Cd7  1  0.47071000  0.06730000  0.59291000  1.0
  H  H8  1  0.70731000  0.47603000  0.13479000  1.0
  H  H9  1  0.81797000  0.02418000  0.36511000  1.0
  H  H10  1  0.34211000  0.86519000  0.97583000  1.0
  H  H11  1  0.68324000  0.63480000  0.52401000  1.0
  H  H12  1  0.29269000  0.52396000  0.86522000  1.0
  H  H13  1  0.18204000  0.97581000  0.63489000  1.0
  H  H14  1  0.65789000  0.13481000  0.02417000  1.0
  H  H15  1  0.31675000  0.36520000  0.47600000  1.0
  H  H16  1  0.14725000  0.60311000  0.74220000  1.0
  H  H17  1  0.99257000  0.89683000  0.75793000  1.0
  H  H18  1  0.38975000  0.25779000  0.10300000  1.0
  H  H19  1  0.25059000  0.24219000  0.39688000  1.0
  H  H20  1  0.85274000  0.39689000  0.25780000  1.0
  H  H21  1  0.00742000  0.10317000  0.24207000  1.0
  H  H22  1  0.61025000  0.74221000  0.89700000  1.0
  H  H23  1  0.74941000  0.75781000  0.60312000  1.0
  H  H24  1  0.26915000  0.54559000  0.59724000  1.0
  H  H25  1  0.91208000  0.95435000  0.90287000  1.0
  H  H26  1  0.36654000  0.40280000  0.04543000  1.0
  H  H27  1  0.31500000  0.09729000  0.45443000  1.0
  H  H28  1  0.73086000  0.45441000  0.40276000  1.0
  H  H29  1  0.08792000  0.04565000  0.09713000  1.0
  H  H30  1  0.63347000  0.59720000  0.95456000  1.0
  H  H31  1  0.68499000  0.90271000  0.54558000  1.0
  H  H32  1  0.14568000  0.85000000  0.64480000  1.0
  H  H33  1  0.14029000  0.64992000  0.85539000  1.0
  H  H34  1  0.29031000  0.35536000  0.34991000  1.0
  H  H35  1  0.49557000  0.14473000  0.14992000  1.0
  H  H36  1  0.85432000  0.15000000  0.35520000  1.0
  H  H37  1  0.85970000  0.35008000  0.14461000  1.0
  H  H38  1  0.70968000  0.64465000  0.65009000  1.0
  H  H39  1  0.50442000  0.85528000  0.85008000  1.0
  H  H40  1  0.26993000  0.78153000  0.50352000  1.0
  H  H41  1  0.05467000  0.71837000  0.99671000  1.0
  H  H42  1  0.27295000  0.49672000  0.28143000  1.0
  H  H43  1  0.55122000  0.00342000  0.21839000  1.0
  H  H44  1  0.73006000  0.21848000  0.49648000  1.0
  H  H45  1  0.94535000  0.28163000  0.00328000  1.0
  H  H46  1  0.72705000  0.50329000  0.71856000  1.0
  H  H47  1  0.44878000  0.99658000  0.78161000  1.0
  H  H48  1  0.24308000  0.57222000  0.43780000  1.0
  H  H49  1  0.75309000  0.92773000  0.06218000  1.0
  H  H50  1  0.18083000  0.56223000  0.07247000  1.0
  H  H51  1  0.31554000  0.93779000  0.42762000  1.0
  H  H52  1  0.75693000  0.42778000  0.56220000  1.0
  H  H53  1  0.24690000  0.07227000  0.93783000  1.0
  H  H54  1  0.81917000  0.43777000  0.92753000  1.0
  H  H55  1  0.68447000  0.06220000  0.57238000  1.0
  H  H56  1  0.25063000  0.73181000  0.21593000  1.0
  H  H57  1  0.69808000  0.76817000  0.28407000  1.0
  H  H58  1  0.96653000  0.78407000  0.23194000  1.0
  H  H59  1  0.48228000  0.71599000  0.26810000  1.0
  H  H60  1  0.74938000  0.26819000  0.78407000  1.0
  H  H61  1  0.30193000  0.23182000  0.71593000  1.0
  H  H62  1  0.03347000  0.21593000  0.76806000  1.0
  H  H63  1  0.51773000  0.28400000  0.73190000  1.0
  H  H64  1  0.06526000  0.81996000  0.28999000  1.0
  H  H65  1  0.67491000  0.68008000  0.20994000  1.0
  H  H66  1  0.85502000  0.71008000  0.32004000  1.0
  H  H67  1  0.38505000  0.79016000  0.17995000  1.0
  H  H68  1  0.93475000  0.18004000  0.71000000  1.0
  H  H69  1  0.32509000  0.31992000  0.79005000  1.0
  H  H70  1  0.14499000  0.28992000  0.67995000  1.0
  H  H71  1  0.61495000  0.20984000  0.82005000  1.0
  H  H72  1  0.05662000  0.66091000  0.51238000  1.0
  H  H73  1  0.72980000  0.83915000  0.98755000  1.0
  H  H74  1  0.06877000  0.48769000  0.16104000  1.0
  H  H75  1  0.21768000  0.01247000  0.33901000  1.0
  H  H76  1  0.94340000  0.33909000  0.48761000  1.0
  H  H77  1  0.27020000  0.16085000  0.01245000  1.0
  H  H78  1  0.93122000  0.51232000  0.83896000  1.0
  H  H79  1  0.78232000  0.98753000  0.66099000  1.0
  H  H80  1  0.89266000  0.80552000  0.41369000  1.0
  H  H81  1  0.61153000  0.69460000  0.08628000  1.0
  H  H82  1  0.80613000  0.58634000  0.30557000  1.0
  H  H83  1  0.19817000  0.91364000  0.19449000  1.0
  H  H84  1  0.10734000  0.19448000  0.58631000  1.0
  H  H85  1  0.38846000  0.30540000  0.91373000  1.0
  H  H86  1  0.19388000  0.41365000  0.69443000  1.0
  H  H87  1  0.80183000  0.08636000  0.80551000  1.0
  H  H88  1  0.91839000  0.86560000  0.46214000  1.0
  H  H89  1  0.74575000  0.63448000  0.03779000  1.0
  H  H90  1  0.88032000  0.53793000  0.36562000  1.0
  H  H91  1  0.28388000  0.96216000  0.13436000  1.0
  H  H92  1  0.08161000  0.13440000  0.53786000  1.0
  H  H93  1  0.25424000  0.36552000  0.96221000  1.0
  H  H94  1  0.11968000  0.46207000  0.63438000  1.0
  H  H95  1  0.71612000  0.03784000  0.86564000  1.0
  H  H96  1  0.90002000  0.77297000  0.51358000  1.0
  H  H97  1  0.68623000  0.72717000  0.98636000  1.0
  H  H98  1  0.91339000  0.48652000  0.27297000  1.0
  H  H99  1  0.17283000  0.01361000  0.22698000  1.0
  H  H100  1  0.10000000  0.22703000  0.48641000  1.0
  H  H101  1  0.31377000  0.27283000  0.01364000  1.0
  H  H102  1  0.08661000  0.51348000  0.72703000  1.0
  H  H103  1  0.82716000  0.98639000  0.77303000  1.0
  C  C104  1  0.59375000  0.49001000  0.09055000  1.0
  C  C105  1  0.67415000  0.01015000  0.40940000  1.0
  C  C106  1  0.18428000  0.90948000  0.98992000  1.0
  C  C107  1  0.58368000  0.59053000  0.51005000  1.0
  C  C108  1  0.40626000  0.50999000  0.90945000  1.0
  C  C109  1  0.32584000  0.98986000  0.59060000  1.0
  C  C110  1  0.81572000  0.09052000  0.01008000  1.0
  C  C111  1  0.41634000  0.40947000  0.48994000  1.0
  C  C112  1  0.62903000  0.51695000  0.25432000  1.0
  C  C113  1  0.90013000  0.98309000  0.24560000  1.0
  C  C114  1  0.38316000  0.74572000  0.01685000  1.0
  C  C115  1  0.64575000  0.75432000  0.48313000  1.0
  C  C116  1  0.37097000  0.48305000  0.74568000  1.0
  C  C117  1  0.09986000  0.01691000  0.75440000  1.0
  C  C118  1  0.61683000  0.25428000  0.98315000  1.0
  C  C119  1  0.35423000  0.24569000  0.51689000  1.0
  C  C120  1  0.13579000  0.73213000  0.70653000  1.0
  C  C121  1  0.07442000  0.76782000  0.79362000  1.0
  C  C122  1  0.34242000  0.29356000  0.23203000  1.0
  C  C123  1  0.36803000  0.20652000  0.26782000  1.0
  C  C124  1  0.86421000  0.26787000  0.29347000  1.0
  C  C125  1  0.92558000  0.23217000  0.20638000  1.0
  C  C126  1  0.65758000  0.70644000  0.76797000  1.0
  C  C127  1  0.63196000  0.79349000  0.73218000  1.0
  C  C128  1  0.53524000  0.53771000  0.24418000  1.0
  C  C129  1  0.81687000  0.96241000  0.25577000  1.0
  C  C130  1  0.27927000  0.75586000  0.03761000  1.0
  C  C131  1  0.57276000  0.74414000  0.46236000  1.0
  C  C132  1  0.46477000  0.46229000  0.75582000  1.0
  C  C133  1  0.18312000  0.03759000  0.74423000  1.0
  C  C134  1  0.72073000  0.24414000  0.96239000  1.0
  C  C135  1  0.42723000  0.25586000  0.53765000  1.0
  C  C136  1  0.37083000  0.59657000  0.27708000  1.0
  C  C137  1  0.74424000  0.90346000  0.22294000  1.0
  C  C138  1  0.14778000  0.72297000  0.09668000  1.0
  C  C139  1  0.46736000  0.77700000  0.40338000  1.0
  C  C140  1  0.62917000  0.40343000  0.72292000  1.0
  C  C141  1  0.25576000  0.09654000  0.77706000  1.0
  C  C142  1  0.85222000  0.27703000  0.90332000  1.0
  C  C143  1  0.53264000  0.22300000  0.59662000  1.0
  C  C144  1  0.25986000  0.64636000  0.32202000  1.0
  C  C145  1  0.72807000  0.85362000  0.17798000  1.0
  C  C146  1  0.08176000  0.67801000  0.14653000  1.0
  C  C147  1  0.40622000  0.82201000  0.35357000  1.0
  C  C148  1  0.74015000  0.35364000  0.67798000  1.0
  C  C149  1  0.27193000  0.14638000  0.82202000  1.0
  C  C150  1  0.91824000  0.32199000  0.85347000  1.0
  C  C151  1  0.59379000  0.17798000  0.64643000  1.0
  C  C152  1  0.16990000  0.64593000  0.69108000  1.0
  C  C153  1  0.00689000  0.85401000  0.80905000  1.0
  C  C154  1  0.36118000  0.30895000  0.14580000  1.0
  C  C155  1  0.31600000  0.19109000  0.35405000  1.0
  C  C156  1  0.83010000  0.35407000  0.30892000  1.0
  C  C157  1  0.99310000  0.14599000  0.19095000  1.0
  C  C158  1  0.63883000  0.69105000  0.85419000  1.0
  C  C159  1  0.68400000  0.80891000  0.64595000  1.0
  C  C160  1  0.23894000  0.61299000  0.60976000  1.0
  C  C161  1  0.96168000  0.88694000  0.89037000  1.0
  C  C162  1  0.34884000  0.39027000  0.11284000  1.0
  C  C163  1  0.35211000  0.10979000  0.38700000  1.0
  C  C164  1  0.76106000  0.38701000  0.39024000  1.0
  C  C165  1  0.03832000  0.11306000  0.10963000  1.0
  C  C166  1  0.65116000  0.60973000  0.88716000  1.0
  C  C167  1  0.64789000  0.89021000  0.61300000  1.0
  C  C168  1  0.16925000  0.78262000  0.63668000  1.0
  C  C169  1  0.08840000  0.71729000  0.86349000  1.0
  C  C170  1  0.30580000  0.36347000  0.28251000  1.0
  C  C171  1  0.45179000  0.13663000  0.21732000  1.0
  C  C172  1  0.83074000  0.21738000  0.36333000  1.0
  C  C173  1  0.91160000  0.28271000  0.13651000  1.0
  C  C174  1  0.69420000  0.63653000  0.71749000  1.0
  C  C175  1  0.54820000  0.86338000  0.78268000  1.0
  C  C176  1  0.23933000  0.74445000  0.55776000  1.0
  C  C177  1  0.04135000  0.75542000  0.94243000  1.0
  C  C178  1  0.29681000  0.44242000  0.24434000  1.0
  C  C179  1  0.48369000  0.05770000  0.25547000  1.0
  C  C180  1  0.76067000  0.25555000  0.44224000  1.0
  C  C181  1  0.95866000  0.24457000  0.05757000  1.0
  C  C182  1  0.70319000  0.55758000  0.75566000  1.0
  C  C183  1  0.51631000  0.94230000  0.74453000  1.0
  C  C184  1  0.51988000  0.53029000  0.17462000  1.0
  C  C185  1  0.72452000  0.96989000  0.32534000  1.0
  C  C186  1  0.19436000  0.82544000  0.03027000  1.0
  C  C187  1  0.55013000  0.67453000  0.46967000  1.0
  C  C188  1  0.48013000  0.46971000  0.82538000  1.0
  C  C189  1  0.27549000  0.03011000  0.67466000  1.0
  C  C190  1  0.80564000  0.17456000  0.96973000  1.0
  C  C191  1  0.44987000  0.32547000  0.53033000  1.0
  C  C192  1  0.20414000  0.62734000  0.40602000  1.0
  C  C193  1  0.73742000  0.87263000  0.09395000  1.0
  C  C194  1  0.11004000  0.59401000  0.12752000  1.0
  C  C195  1  0.33161000  0.90605000  0.37253000  1.0
  C  C196  1  0.79587000  0.37266000  0.59398000  1.0
  C  C197  1  0.26258000  0.12736000  0.90606000  1.0
  C  C198  1  0.88996000  0.40599000  0.87248000  1.0
  C  C199  1  0.66839000  0.09395000  0.62747000  1.0
  C  C200  1  0.20800000  0.71588000  0.28080000  1.0
  C  C201  1  0.70449000  0.78409000  0.21916000  1.0
  C  C202  1  0.98869000  0.71920000  0.21605000  1.0
  C  C203  1  0.42379000  0.78089000  0.28403000  1.0
  C  C204  1  0.79199000  0.28413000  0.71920000  1.0
  C  C205  1  0.29550000  0.21591000  0.78085000  1.0
  C  C206  1  0.01131000  0.28080000  0.78395000  1.0
  C  C207  1  0.57621000  0.21911000  0.71597000  1.0
  C  C208  1  0.04693000  0.74677000  0.40681000  1.0
  C  C209  1  0.70026000  0.75329000  0.09312000  1.0
  C  C210  1  0.95349000  0.59329000  0.24682000  1.0
  C  C211  1  0.29364000  0.90692000  0.25317000  1.0
  C  C212  1  0.95308000  0.25323000  0.59319000  1.0
  C  C213  1  0.29974000  0.24671000  0.90688000  1.0
  C  C214  1  0.04650000  0.40671000  0.75318000  1.0
  C  C215  1  0.70636000  0.09308000  0.74683000  1.0
  C  C216  1  0.10351000  0.76540000  0.32278000  1.0
  C  C217  1  0.69147000  0.73461000  0.17715000  1.0
  C  C218  1  0.92607000  0.67728000  0.26551000  1.0
  C  C219  1  0.36881000  0.82289000  0.23452000  1.0
  C  C220  1  0.89650000  0.23460000  0.67722000  1.0
  C  C221  1  0.30853000  0.26539000  0.82285000  1.0
  C  C222  1  0.07393000  0.32272000  0.73449000  1.0
  C  C223  1  0.63119000  0.17711000  0.76548000  1.0
  C  C224  1  0.09910000  0.67708000  0.44727000  1.0
  C  C225  1  0.72331000  0.82295000  0.05267000  1.0
  C  C226  1  0.04620000  0.55278000  0.17719000  1.0
  C  C227  1  0.27626000  0.94735000  0.32283000  1.0
  C  C228  1  0.90089000  0.32293000  0.55273000  1.0
  C  C229  1  0.27669000  0.17705000  0.94733000  1.0
  C  C230  1  0.95380000  0.44722000  0.82281000  1.0
  C  C231  1  0.72373000  0.05265000  0.67718000  1.0
  C  C232  1  0.93373000  0.80029000  0.45146000  1.0
  C  C233  1  0.68516000  0.69979000  0.04848000  1.0
  C  C234  1  0.88495000  0.54862000  0.30031000  1.0
  C  C235  1  0.23392000  0.95150000  0.19968000  1.0
  C  C236  1  0.06627000  0.19971000  0.54855000  1.0
  C  C237  1  0.31484000  0.30021000  0.95152000  1.0
  C  C238  1  0.11505000  0.45138000  0.69968000  1.0
  C  C239  1  0.76608000  0.04850000  0.80032000  1.0
  N  N240  1  0.27578000  0.66051000  0.54446000  1.0
  N  N241  1  0.98067000  0.83938000  0.95568000  1.0
  N  N242  1  0.32015000  0.45565000  0.16036000  1.0
  N  N243  1  0.43632000  0.04445000  0.33946000  1.0
  N  N244  1  0.72422000  0.33949000  0.45554000  1.0
  N  N245  1  0.01933000  0.16062000  0.04432000  1.0
  N  N246  1  0.67985000  0.54435000  0.83963000  1.0
  N  N247  1  0.56368000  0.95555000  0.66054000  1.0
  N  N248  1  0.44053000  0.57827000  0.30838000  1.0
  N  N249  1  0.82694000  0.92179000  0.19160000  1.0
  N  N250  1  0.24880000  0.69165000  0.07824000  1.0
  N  N251  1  0.51862000  0.80835000  0.42181000  1.0
  N  N252  1  0.55948000  0.42173000  0.69162000  1.0
  N  N253  1  0.17306000  0.07821000  0.80840000  1.0
  N  N254  1  0.75121000  0.30834000  0.92176000  1.0
  N  N255  1  0.48138000  0.19165000  0.57819000  1.0
  N  N256  1  0.41658000  0.56757000  0.19644000  1.0
  N  N257  1  0.68036000  0.93248000  0.30356000  1.0
  N  N258  1  0.11284000  0.80361000  0.06772000  1.0
  N  N259  1  0.48414000  0.69636000  0.43231000  1.0
  N  N260  1  0.58344000  0.43243000  0.80355000  1.0
  N  N261  1  0.31964000  0.06752000  0.69644000  1.0
  N  N262  1  0.88716000  0.19639000  0.93228000  1.0
  N  N263  1  0.51586000  0.30364000  0.56769000  1.0
  O  O264  1  0.62396000  0.53243000  0.32238000  1.0
  O  O265  1  0.97862000  0.96748000  0.17755000  1.0
  O  O266  1  0.44608000  0.67767000  0.03239000  1.0
  O  O267  1  0.65616000  0.82237000  0.46760000  1.0
  O  O268  1  0.37605000  0.46756000  0.67762000  1.0
  O  O269  1  0.02139000  0.03251000  0.82245000  1.0
  O  O270  1  0.55391000  0.32234000  0.96760000  1.0
  O  O271  1  0.34383000  0.17764000  0.53241000  1.0
  O  O272  1  0.68960000  0.46452000  0.06818000  1.0
  O  O273  1  0.72215000  0.03574000  0.43168000  1.0
  O  O274  1  0.25784000  0.93180000  0.96431000  1.0
  O  O275  1  0.65407000  0.56815000  0.53551000  1.0
  O  O276  1  0.31039000  0.53549000  0.93182000  1.0
  O  O277  1  0.27785000  0.96427000  0.56832000  1.0
  O  O278  1  0.74215000  0.06820000  0.03569000  1.0
  O  O279  1  0.34593000  0.43185000  0.46449000  1.0
  O  O280  1  0.55567000  0.48363000  0.04382000  1.0
  O  O281  1  0.58302000  0.01643000  0.45620000  1.0
  O  O282  1  0.09945000  0.95622000  0.98359000  1.0
  O  O283  1  0.53907000  0.54387000  0.51657000  1.0
  O  O284  1  0.44434000  0.51637000  0.95618000  1.0
  O  O285  1  0.41698000  0.98358000  0.54380000  1.0
  O  O286  1  0.90055000  0.04378000  0.01641000  1.0
  O  O287  1  0.46094000  0.45612000  0.48343000  1.0
  O  O288  1  0.71810000  0.48402000  0.18812000  1.0
  O  O289  1  0.89011000  0.01608000  0.31174000  1.0
  O  O290  1  0.40616000  0.81186000  0.98387000  1.0
  O  O291  1  0.70195000  0.68815000  0.51604000  1.0
  O  O292  1  0.28191000  0.51598000  0.81188000  1.0
  O  O293  1  0.10990000  0.98391000  0.68826000  1.0
  O  O294  1  0.59385000  0.18814000  0.01612000  1.0
  O  O295  1  0.29803000  0.31186000  0.48398000  1.0
