# generated using pymatgen
data_H18Pb(C5O2)2
_symmetry_space_group_name_H-M   'P 1'
_cell_length_a   4.65888000
_cell_length_b   7.20922000
_cell_length_c   18.18290000
_cell_angle_alpha   87.41770000
_cell_angle_beta   82.93980000
_cell_angle_gamma   88.96270000
_symmetry_Int_Tables_number   1
_chemical_formula_structural   H18Pb(C5O2)2
_chemical_formula_sum   'H36 Pb2 C20 O8'
_cell_volume   605.41234448
_cell_formula_units_Z   2
loop_
 _symmetry_equiv_pos_site_id
 _symmetry_equiv_pos_as_xyz
  1  'x, y, z'
loop_
 _atom_site_type_symbol
 _atom_site_label
 _atom_site_symmetry_multiplicity
 _atom_site_fract_x
 _atom_site_fract_y
 _atom_site_fract_z
 _atom_site_occupancy
  H  H0  1  0.15857000  0.72349000  0.61025000  1.0
  H  H1  1  0.84144000  0.27652000  0.38975000  1.0
  H  H2  1  0.28395000  0.95297000  0.60575000  1.0
  H  H3  1  0.71607000  0.04702000  0.39425000  1.0
  H  H4  1  0.23378000  0.95983000  0.74866000  1.0
  H  H5  1  0.76622000  0.04018000  0.25134000  1.0
  H  H6  1  0.08444000  0.73988000  0.75190000  1.0
  H  H7  1  0.91557000  0.26012000  0.24811000  1.0
  H  H8  1  0.64712000  0.35076000  0.77403000  1.0
  H  H9  1  0.35288000  0.64923000  0.22597000  1.0
  H  H10  1  0.76956000  0.11699000  0.77244000  1.0
  H  H11  1  0.23043000  0.88300000  0.22756000  1.0
  H  H12  1  0.45492000  0.79439000  0.48798000  1.0
  H  H13  1  0.54507000  0.20562000  0.51202000  1.0
  H  H14  1  0.63082000  0.61958000  0.53864000  1.0
  H  H15  1  0.36919000  0.38043000  0.46135000  1.0
  H  H16  1  0.75402000  0.85176000  0.53383000  1.0
  H  H17  1  0.24597000  0.14824000  0.46617000  1.0
  H  H18  1  0.03130000  0.31909000  0.57962000  1.0
  H  H19  1  0.96872000  0.68090000  0.42038000  1.0
  H  H20  1  0.68895000  0.35853000  0.63103000  1.0
  H  H21  1  0.31108000  0.64147000  0.36896000  1.0
  H  H22  1  0.83754000  0.13092000  0.62703000  1.0
  H  H23  1  0.16248000  0.86908000  0.37296000  1.0
  H  H24  1  0.16886000  0.18715000  0.84380000  1.0
  H  H25  1  0.83112000  0.81283000  0.15620000  1.0
  H  H26  1  0.08444000  0.42896000  0.83872000  1.0
  H  H27  1  0.91555000  0.57102000  0.16128000  1.0
  H  H28  1  0.69411000  0.84714000  0.67728000  1.0
  H  H29  1  0.30590000  0.15287000  0.32272000  1.0
  H  H30  1  0.56293000  0.62004000  0.68276000  1.0
  H  H31  1  0.43709000  0.37997000  0.31724000  1.0
  H  H32  1  0.23924000  0.22783000  0.69782000  1.0
  H  H33  1  0.76077000  0.77216000  0.30218000  1.0
  H  H34  1  0.10013000  0.45586000  0.69986000  1.0
  H  H35  1  0.89988000  0.54413000  0.30014000  1.0
  Pb  Pb36  1  0.72380000  0.75186000  0.95143000  1.0
  Pb  Pb37  1  0.27623000  0.24818000  0.04857000  1.0
  C  C38  1  0.35593000  0.80656000  0.60826000  1.0
  C  C39  1  0.64408000  0.19345000  0.39174000  1.0
  C  C40  1  0.29264000  0.81122000  0.74889000  1.0
  C  C41  1  0.70737000  0.18878000  0.25111000  1.0
  C  C42  1  0.84212000  0.26173000  0.77165000  1.0
  C  C43  1  0.15787000  0.73827000  0.22835000  1.0
  C  C44  1  0.55932000  0.76588000  0.53834000  1.0
  C  C45  1  0.44067000  0.23412000  0.46166000  1.0
  C  C46  1  0.41306000  0.76776000  0.82118000  1.0
  C  C47  1  0.58696000  0.23225000  0.17883000  1.0
  C  C48  1  0.89149000  0.27790000  0.63057000  1.0
  C  C49  1  0.10853000  0.72209000  0.36943000  1.0
  C  C50  1  0.99177000  0.28968000  0.84084000  1.0
  C  C51  1  0.00821000  0.71031000  0.15916000  1.0
  C  C52  1  0.49443000  0.76677000  0.67934000  1.0
  C  C53  1  0.50558000  0.23322000  0.32067000  1.0
  C  C54  1  0.78515000  0.26295000  0.91146000  1.0
  C  C55  1  0.21480000  0.73703000  0.08854000  1.0
  C  C56  1  0.03652000  0.30955000  0.69968000  1.0
  C  C57  1  0.96349000  0.69044000  0.30032000  1.0
  O  O58  1  0.65286000  0.11038000  0.92471000  1.0
  O  O59  1  0.34708000  0.88964000  0.07529000  1.0
  O  O60  1  0.26163000  0.80529000  0.88270000  1.0
  O  O61  1  0.73835000  0.19473000  0.11730000  1.0
  O  O62  1  0.66734000  0.69869000  0.82014000  1.0
  O  O63  1  0.33265000  0.30134000  0.17987000  1.0
  O  O64  1  0.74563000  0.39482000  0.95727000  1.0
  O  O65  1  0.25436000  0.60519000  0.04273000  1.0
