# generated using pymatgen
data_BaH8(CO2)4
_symmetry_space_group_name_H-M   'P 1'
_cell_length_a   6.51204000
_cell_length_b   8.05284000
_cell_length_c   16.28650000
_cell_angle_alpha   90.00000000
_cell_angle_beta   95.25430000
_cell_angle_gamma   90.00000000
_symmetry_Int_Tables_number   1
_chemical_formula_structural   BaH8(CO2)4
_chemical_formula_sum   'Ba4 H32 C16 O32'
_cell_volume   850.48208191
_cell_formula_units_Z   4
loop_
 _symmetry_equiv_pos_site_id
 _symmetry_equiv_pos_as_xyz
  1  'x, y, z'
loop_
 _atom_site_type_symbol
 _atom_site_label
 _atom_site_symmetry_multiplicity
 _atom_site_fract_x
 _atom_site_fract_y
 _atom_site_fract_z
 _atom_site_occupancy
  Ba  Ba0  1  0.99682000  0.24502000  0.14458000  1.0
  Ba  Ba1  1  0.00318000  0.74502000  0.35542000  1.0
  Ba  Ba2  1  0.00318000  0.75498000  0.85542000  1.0
  Ba  Ba3  1  0.99681000  0.25498000  0.64458000  1.0
  H  H4  1  0.54961000  0.72353000  0.29316000  1.0
  H  H5  1  0.45039000  0.22353000  0.20684000  1.0
  H  H6  1  0.45039000  0.27647000  0.70684000  1.0
  H  H7  1  0.54961000  0.77647000  0.79316000  1.0
  H  H8  1  0.92691000  0.64403000  0.08078000  1.0
  H  H9  1  0.07309000  0.14403000  0.41922000  1.0
  H  H10  1  0.07309000  0.35597000  0.91922000  1.0
  H  H11  1  0.92691000  0.85597000  0.58078000  1.0
  H  H12  1  0.28002000  0.05053000  0.00081000  1.0
  H  H13  1  0.71998000  0.55053000  0.49919000  1.0
  H  H14  1  0.71998000  0.94947000  0.99919000  1.0
  H  H15  1  0.28002000  0.44947000  0.50081000  1.0
  H  H16  1  0.42078000  0.02685000  0.08243000  1.0
  H  H17  1  0.57922000  0.52685000  0.41757000  1.0
  H  H18  1  0.57922000  0.97315000  0.91757000  1.0
  H  H19  1  0.42078000  0.47315000  0.58243000  1.0
  H  H20  1  0.83081000  0.16031000  0.94930000  1.0
  H  H21  1  0.16919000  0.66031000  0.55070000  1.0
  H  H22  1  0.16919000  0.83969000  0.05070000  1.0
  H  H23  1  0.83081000  0.33969000  0.44930000  1.0
  H  H24  1  0.79415000  0.35846000  0.94557000  1.0
  H  H25  1  0.20585000  0.85846000  0.55443000  1.0
  H  H26  1  0.20585000  0.64154000  0.05443000  1.0
  H  H27  1  0.79415000  0.14154000  0.44557000  1.0
  H  H28  1  0.43912000  0.78261000  0.16676000  1.0
  H  H29  1  0.56088000  0.28261000  0.33324000  1.0
  H  H30  1  0.56088000  0.21739000  0.83324000  1.0
  H  H31  1  0.43912000  0.71739000  0.66676000  1.0
  H  H32  1  0.58477000  0.66703000  0.04775000  1.0
  H  H33  1  0.41523000  0.16703000  0.45225000  1.0
  H  H34  1  0.41523000  0.33296000  0.95225000  1.0
  H  H35  1  0.58477000  0.83297000  0.54775000  1.0
  C  C36  1  0.73792000  0.89252000  0.16340000  1.0
  C  C37  1  0.26208000  0.39252000  0.33660000  1.0
  C  C38  1  0.26208000  0.10748000  0.83660000  1.0
  C  C39  1  0.73792000  0.60748000  0.66340000  1.0
  C  C40  1  0.60093000  0.74091000  0.17607000  1.0
  C  C41  1  0.39907000  0.24091000  0.32393000  1.0
  C  C42  1  0.39907000  0.25909000  0.82393000  1.0
  C  C43  1  0.60093000  0.75909000  0.67607000  1.0
  C  C44  1  0.63620000  0.61200000  0.10819000  1.0
  C  C45  1  0.36380000  0.11199000  0.39181000  1.0
  C  C46  1  0.36380000  0.38800000  0.89181000  1.0
  C  C47  1  0.63620000  0.88801000  0.60819000  1.0
  C  C48  1  0.50128000  0.46039000  0.12154000  1.0
  C  C49  1  0.49872000  0.96039000  0.37846000  1.0
  C  C50  1  0.49873000  0.53961000  0.87846000  1.0
  C  C51  1  0.50127000  0.03961000  0.62154000  1.0
  O  O52  1  0.68629000  0.98283000  0.09973000  1.0
  O  O53  1  0.31371000  0.48283000  0.40027000  1.0
  O  O54  1  0.31371000  0.01717000  0.90027000  1.0
  O  O55  1  0.68629000  0.51717000  0.59973000  1.0
  O  O56  1  0.89344000  0.92204000  0.21318000  1.0
  O  O57  1  0.10656000  0.42203000  0.28682000  1.0
  O  O58  1  0.10656000  0.07797000  0.78682000  1.0
  O  O59  1  0.89344000  0.57796000  0.71318000  1.0
  O  O60  1  0.64127000  0.66645000  0.25474000  1.0
  O  O61  1  0.35873000  0.16644000  0.24526000  1.0
  O  O62  1  0.35873000  0.33356000  0.74526000  1.0
  O  O63  1  0.64127000  0.83355000  0.75474000  1.0
  O  O64  1  0.84552000  0.56300000  0.11148000  1.0
  O  O65  1  0.15449000  0.06300000  0.38852000  1.0
  O  O66  1  0.15449000  0.43700000  0.88852000  1.0
  O  O67  1  0.84551000  0.93700000  0.61148000  1.0
  O  O68  1  0.58940000  0.33107000  0.15241000  1.0
  O  O69  1  0.41060000  0.83108000  0.34759000  1.0
  O  O70  1  0.41060000  0.66892000  0.84759000  1.0
  O  O71  1  0.58939000  0.16893000  0.65241000  1.0
  O  O72  1  0.30845000  0.47511000  0.10273000  1.0
  O  O73  1  0.69155000  0.97511000  0.39727000  1.0
  O  O74  1  0.69155000  0.52490000  0.89727000  1.0
  O  O75  1  0.30845000  0.02490000  0.60273000  1.0
  O  O76  1  0.27269000  0.03990000  0.06147000  1.0
  O  O77  1  0.72731000  0.53990000  0.43853000  1.0
  O  O78  1  0.72731000  0.96010000  0.93853000  1.0
  O  O79  1  0.27269000  0.46010000  0.56147000  1.0
  O  O80  1  0.88938000  0.26875000  0.96979000  1.0
  O  O81  1  0.11062000  0.76875000  0.53021000  1.0
  O  O82  1  0.11062000  0.73125000  0.03021000  1.0
  O  O83  1  0.88938000  0.23125000  0.46979000  1.0
