# generated using pymatgen
data_Zn4H12C24N3Cl3O13
_symmetry_space_group_name_H-M   'P 1'
_cell_length_a   17.92640000
_cell_length_b   18.10170000
_cell_length_c   18.16980000
_cell_angle_alpha   62.35990000
_cell_angle_beta   62.09570000
_cell_angle_gamma   61.67330000
_symmetry_Int_Tables_number   1
_chemical_formula_structural   Zn4H12C24N3Cl3O13
_chemical_formula_sum   'Zn8 H24 C48 N6 Cl6 O26'
_cell_volume   4359.30619662
_cell_formula_units_Z   2
loop_
 _symmetry_equiv_pos_site_id
 _symmetry_equiv_pos_as_xyz
  1  'x, y, z'
loop_
 _atom_site_type_symbol
 _atom_site_label
 _atom_site_symmetry_multiplicity
 _atom_site_fract_x
 _atom_site_fract_y
 _atom_site_fract_z
 _atom_site_occupancy
  Zn  Zn0  1  0.85412000  0.99570000  0.08583000  1.0
  Zn  Zn1  1  0.02966000  0.99732000  0.08735000  1.0
  Zn  Zn2  1  0.01846000  0.00207000  0.91473000  1.0
  Zn  Zn3  1  0.02354000  0.82501000  0.08029000  1.0
  Zn  Zn4  1  0.61308000  0.41199000  0.50720000  1.0
  Zn  Zn5  1  0.44030000  0.40530000  0.49821000  1.0
  Zn  Zn6  1  0.43990000  0.58423000  0.49742000  1.0
  Zn  Zn7  1  0.43413000  0.41779000  0.67110000  1.0
  H  H8  1  0.89437000  0.10308000  0.29453000  1.0
  H  H9  1  0.58094000  0.28790000  0.30943000  1.0
  H  H10  1  0.59968000  0.25056000  0.19209000  1.0
  H  H11  1  0.69810000  0.17370000  0.14727000  1.0
  H  H12  1  0.86773000  0.22771000  0.77078000  1.0
  H  H13  1  0.56745000  0.22101000  0.84501000  1.0
  H  H14  1  0.59152000  0.09607000  0.96966000  1.0
  H  H15  1  0.68627000  0.05642000  0.00043000  1.0
  H  H16  1  0.88259000  0.65563000  0.19049000  1.0
  H  H17  1  0.58045000  0.75520000  0.39407000  1.0
  H  H18  1  0.60152000  0.89029000  0.35443000  1.0
  H  H19  1  0.69504000  0.91730000  0.26980000  1.0
  H  H20  1  0.22146000  0.10135000  0.74640000  1.0
  H  H21  1  0.24809000  0.30229000  0.83924000  1.0
  H  H22  1  0.13910000  0.26298000  0.97634000  1.0
  H  H23  1  0.09794000  0.17906000  0.00546000  1.0
  H  H24  1  0.11927000  0.66156000  0.29030000  1.0
  H  H25  1  0.36181000  0.73204000  0.27551000  1.0
  H  H26  1  0.32466000  0.86623000  0.16393000  1.0
  H  H27  1  0.23412000  0.89952000  0.12988000  1.0
  H  H28  1  0.22623000  0.66778000  0.93399000  1.0
  H  H29  1  0.22769000  0.76399000  0.63031000  1.0
  H  H30  1  0.11721000  0.90054000  0.64936000  1.0
  H  H31  1  0.07526000  0.92432000  0.74776000  1.0
  C  C32  1  0.85036000  0.09403000  0.18002000  1.0
  C  C33  1  0.79104000  0.14707000  0.24064000  1.0
  C  C34  1  0.82566000  0.14469000  0.29732000  1.0
  C  C35  1  0.77528000  0.19236000  0.35625000  1.0
  C  C36  1  0.68573000  0.24601000  0.35947000  1.0
  C  C37  1  0.65045000  0.24746000  0.30485000  1.0
  C  C38  1  0.70028000  0.19927000  0.24458000  1.0
  C  C39  1  0.62573000  0.30497000  0.41623000  1.0
  C  C40  1  0.83261000  0.09819000  0.91445000  1.0
  C  C41  1  0.77112000  0.16211000  0.86314000  1.0
  C  C42  1  0.80189000  0.22621000  0.78636000  1.0
  C  C43  1  0.75112000  0.28635000  0.73132000  1.0
  C  C44  1  0.66640000  0.28222000  0.75199000  1.0
  C  C45  1  0.63380000  0.22162000  0.82947000  1.0
  C  C46  1  0.68363000  0.16067000  0.88744000  1.0
  C  C47  1  0.61106000  0.33592000  0.69162000  1.0
  C  C48  1  0.84041000  0.81925000  0.18091000  1.0
  C  C49  1  0.78300000  0.76341000  0.23931000  1.0
  C  C50  1  0.81648000  0.67680000  0.23615000  1.0
  C  C51  1  0.76791000  0.61913000  0.28818000  1.0
  C  C52  1  0.68159000  0.64821000  0.34647000  1.0
  C  C53  1  0.64765000  0.73388000  0.34961000  1.0
  C  C54  1  0.69590000  0.79372000  0.29755000  1.0
  C  C55  1  0.62301000  0.59181000  0.40646000  1.0
  C  C56  1  0.12076000  0.09328000  0.90906000  1.0
  C  C57  1  0.17787000  0.14980000  0.85230000  1.0
  C  C58  1  0.22707000  0.14625000  0.76619000  1.0
  C  C59  1  0.28219000  0.19680000  0.70728000  1.0
  C  C60  1  0.28904000  0.25461000  0.73427000  1.0
  C  C61  1  0.24088000  0.25818000  0.81952000  1.0
  C  C62  1  0.18480000  0.20698000  0.88082000  1.0
  C  C63  1  0.34545000  0.31348000  0.67703000  1.0
  C  C64  1  0.12787000  0.81504000  0.17229000  1.0
  C  C65  1  0.18844000  0.75564000  0.22583000  1.0
  C  C66  1  0.17370000  0.67600000  0.28636000  1.0
  C  C67  1  0.22448000  0.61745000  0.34198000  1.0
  C  C68  1  0.29319000  0.63843000  0.33780000  1.0
  C  C69  1  0.30897000  0.71665000  0.27722000  1.0
  C  C70  1  0.25870000  0.77684000  0.21968000  1.0
  C  C71  1  0.34962000  0.58236000  0.39727000  1.0
  C  C72  1  0.10894000  0.82513000  0.89630000  1.0
  C  C73  1  0.16722000  0.77165000  0.83598000  1.0
  C  C74  1  0.22610000  0.68808000  0.86755000  1.0
  C  C75  1  0.28357000  0.63263000  0.81664000  1.0
  C  C76  1  0.28280000  0.66030000  0.73019000  1.0
  C  C77  1  0.22631000  0.74349000  0.69754000  1.0
  C  C78  1  0.16718000  0.80139000  0.74819000  1.0
  C  C79  1  0.33827000  0.60267000  0.67221000  1.0
  N  N80  1  0.65986000  0.20406000  0.19420000  1.0
  N  N81  1  0.64695000  0.10369000  0.96288000  1.0
  N  N82  1  0.65741000  0.87693000  0.30391000  1.0
  N  N83  1  0.14108000  0.21333000  0.96351000  1.0
  N  N84  1  0.28004000  0.85071000  0.15944000  1.0
  N  N85  1  0.11183000  0.88095000  0.71299000  1.0
  Cl  Cl86  1  0.82386000  0.17959000  0.42615000  1.0
  Cl  Cl87  1  0.79192000  0.36654000  0.64166000  1.0
  Cl  Cl88  1  0.81366000  0.51590000  0.27507000  1.0
  Cl  Cl89  1  0.34360000  0.18216000  0.60503000  1.0
  Cl  Cl90  1  0.19678000  0.52423000  0.41847000  1.0
  Cl  Cl91  1  0.35809000  0.53402000  0.85966000  1.0
  O  O92  1  0.98345000  0.95428000  0.04236000  1.0
  O  O93  1  0.93288000  0.05515000  0.17543000  1.0
  O  O94  1  0.81511000  0.08990000  0.13476000  1.0
  O  O95  1  0.54194000  0.32023000  0.43943000  1.0
  O  O96  1  0.66285000  0.33676000  0.43400000  1.0
  O  O97  1  0.91428000  0.09524000  0.87941000  1.0
  O  O98  1  0.80085000  0.04846000  0.99191000  1.0
  O  O99  1  0.52653000  0.36336000  0.72738000  1.0
  O  O100  1  0.65327000  0.34580000  0.61056000  1.0
  O  O101  1  0.91991000  0.78415000  0.13603000  1.0
  O  O102  1  0.80658000  0.90124000  0.17798000  1.0
  O  O103  1  0.53909000  0.63192000  0.42016000  1.0
  O  O104  1  0.66097000  0.51023000  0.43975000  1.0
  O  O105  1  0.11111000  0.05343000  0.87319000  1.0
  O  O106  1  0.08429000  0.08715000  0.99122000  1.0
  O  O107  1  0.37538000  0.33042000  0.71697000  1.0
  O  O108  1  0.35755000  0.34291000  0.59518000  1.0
  O  O109  1  0.08130000  0.78209000  0.16811000  1.0
  O  O110  1  0.12472000  0.89661000  0.13420000  1.0
  O  O111  1  0.36528000  0.62494000  0.42516000  1.0
  O  O112  1  0.37796000  0.49910000  0.41352000  1.0
  O  O113  1  0.10609000  0.78717000  0.97658000  1.0
  O  O114  1  0.06490000  0.90691000  0.86450000  1.0
  O  O115  1  0.37158000  0.64041000  0.59087000  1.0
  O  O116  1  0.34531000  0.52142000  0.70865000  1.0
  O  O117  1  0.48174000  0.45492000  0.54266000  1.0
