# generated using pymatgen
data_CdH30C18S2(N2O3)2
_symmetry_space_group_name_H-M   'P 1'
_cell_length_a   7.56196000
_cell_length_b   11.82470000
_cell_length_c   12.75340000
_cell_angle_alpha   90.00000000
_cell_angle_beta   103.03500000
_cell_angle_gamma   90.00000000
_symmetry_Int_Tables_number   1
_chemical_formula_structural   CdH30C18S2(N2O3)2
_chemical_formula_sum   'Cd2 H60 C36 S4 N8 O12'
_cell_volume   1110.99751461
_cell_formula_units_Z   2
loop_
 _symmetry_equiv_pos_site_id
 _symmetry_equiv_pos_as_xyz
  1  'x, y, z'
loop_
 _atom_site_type_symbol
 _atom_site_label
 _atom_site_symmetry_multiplicity
 _atom_site_fract_x
 _atom_site_fract_y
 _atom_site_fract_z
 _atom_site_occupancy
  Cd  Cd0  1  0.00000000  0.50000000  0.00000000  1.0
  Cd  Cd1  1  0.00000000  0.00000000  0.50000000  1.0
  H  H2  1  0.71563000  0.65528000  0.96439000  1.0
  H  H3  1  0.71562000  0.84472000  0.46439000  1.0
  H  H4  1  0.28438000  0.34471000  0.03561000  1.0
  H  H5  1  0.28437000  0.15528000  0.53561000  1.0
  H  H6  1  0.75165000  0.43743000  0.12468000  1.0
  H  H7  1  0.75165000  0.06257000  0.62468000  1.0
  H  H8  1  0.24835000  0.56257000  0.87532000  1.0
  H  H9  1  0.24835000  0.93743000  0.37532000  1.0
  H  H10  1  0.53293000  0.26595000  0.48828000  1.0
  H  H11  1  0.53293000  0.23405000  0.98828000  1.0
  H  H12  1  0.46707000  0.73405000  0.51172000  1.0
  H  H13  1  0.46707000  0.76595000  0.01172000  1.0
  H  H14  1  0.50676000  0.37075000  0.31794000  1.0
  H  H15  1  0.50677000  0.12925000  0.81794000  1.0
  H  H16  1  0.49324000  0.62925000  0.68206000  1.0
  H  H17  1  0.49324000  0.87075000  0.18206000  1.0
  H  H18  1  0.44724000  0.73406000  0.31485000  1.0
  H  H19  1  0.44724000  0.76594000  0.81485000  1.0
  H  H20  1  0.55276000  0.26594000  0.68515000  1.0
  H  H21  1  0.55276000  0.23406000  0.18515000  1.0
  H  H22  1  0.77689000  0.66894000  0.80249000  1.0
  H  H23  1  0.77688000  0.83106000  0.30249000  1.0
  H  H24  1  0.22311000  0.33106000  0.19752000  1.0
  H  H25  1  0.22312000  0.16894000  0.69751000  1.0
  H  H26  1  0.84015000  0.80549000  0.85352000  1.0
  H  H27  1  0.84015000  0.69451000  0.35352000  1.0
  H  H28  1  0.15985000  0.19451000  0.14648000  1.0
  H  H29  1  0.15985000  0.30549000  0.64648000  1.0
  H  H30  1  0.83658000  0.26733000  0.07756000  1.0
  H  H31  1  0.83658000  0.23267000  0.57756000  1.0
  H  H32  1  0.16342000  0.73267000  0.92244000  1.0
  H  H33  1  0.16342000  0.76733000  0.42244000  1.0
  H  H34  1  0.90946000  0.26469000  0.21927000  1.0
  H  H35  1  0.90946000  0.23532000  0.71927000  1.0
  H  H36  1  0.09054000  0.73531000  0.78073000  1.0
  H  H37  1  0.09054000  0.76469000  0.28073000  1.0
  H  H38  1  0.90134000  0.44400000  0.31343000  1.0
  H  H39  1  0.90135000  0.05600000  0.81343000  1.0
  H  H40  1  0.09865000  0.55600000  0.68657000  1.0
  H  H41  1  0.09865000  0.94400000  0.18657000  1.0
  H  H42  1  0.91768000  0.57202000  0.24245000  1.0
  H  H43  1  0.91768000  0.92798000  0.74245000  1.0
  H  H44  1  0.08232000  0.42798000  0.75755000  1.0
  H  H45  1  0.08232000  0.07202000  0.25756000  1.0
  H  H46  1  0.10690000  0.47878000  0.27320000  1.0
  H  H47  1  0.10690000  0.02122000  0.77320000  1.0
  H  H48  1  0.89310000  0.52122000  0.72680000  1.0
  H  H49  1  0.89310000  0.97878000  0.22680000  1.0
  H  H50  1  0.14675000  0.15603000  0.96759000  1.0
  H  H51  1  0.14675000  0.34397000  0.46759000  1.0
  H  H52  1  0.85325000  0.84397000  0.03241000  1.0
  H  H53  1  0.85325000  0.65603000  0.53241000  1.0
  H  H54  1  0.13788000  0.26763000  0.87250000  1.0
  H  H55  1  0.13788000  0.23237000  0.37250000  1.0
  H  H56  1  0.86212000  0.73237000  0.12750000  1.0
  H  H57  1  0.86212000  0.76763000  0.62750000  1.0
  H  H58  1  0.94177000  0.23578000  0.92283000  1.0
  H  H59  1  0.94177000  0.26422000  0.42283000  1.0
  H  H60  1  0.05824000  0.76422000  0.07717000  1.0
  H  H61  1  0.05823000  0.73578000  0.57717000  1.0
  C  C62  1  0.52838000  0.34515000  0.53162000  1.0
  C  C63  1  0.52838000  0.15485000  0.03162000  1.0
  C  C64  1  0.47162000  0.65484000  0.46838000  1.0
  C  C65  1  0.47162000  0.84516000  0.96838000  1.0
  C  C66  1  0.50671000  0.44788000  0.47240000  1.0
  C  C67  1  0.50671000  0.05212000  0.97240000  1.0
  C  C68  1  0.49330000  0.55212000  0.52760000  1.0
  C  C69  1  0.49330000  0.94788000  0.02760000  1.0
  C  C70  1  0.49665000  0.44996000  0.35989000  1.0
  C  C71  1  0.49665000  0.05004000  0.85989000  1.0
  C  C72  1  0.50335000  0.55004000  0.64010000  1.0
  C  C73  1  0.50335000  0.94996000  0.14010000  1.0
  C  C74  1  0.47367000  0.55137000  0.30489000  1.0
  C  C75  1  0.47367000  0.94863000  0.80489000  1.0
  C  C76  1  0.52633000  0.44863000  0.69511000  1.0
  C  C77  1  0.52633000  0.05137000  0.19511000  1.0
  C  C78  1  0.46173000  0.65466000  0.35925000  1.0
  C  C79  1  0.46173000  0.84534000  0.85925000  1.0
  C  C80  1  0.53827000  0.34534000  0.64075000  1.0
  C  C81  1  0.53827000  0.15466000  0.14075000  1.0
  C  C82  1  0.87373000  0.71489000  0.86513000  1.0
  C  C83  1  0.87373000  0.78511000  0.36513000  1.0
  C  C84  1  0.12627000  0.28511000  0.13487000  1.0
  C  C85  1  0.12628000  0.21489000  0.63487000  1.0
  C  C86  1  0.06795000  0.69414000  0.85415000  1.0
  C  C87  1  0.06795000  0.80586000  0.35415000  1.0
  C  C88  1  0.93205000  0.30586000  0.14585000  1.0
  C  C89  1  0.93205000  0.19414000  0.64585000  1.0
  C  C90  1  0.95833000  0.48304000  0.24973000  1.0
  C  C91  1  0.95833000  0.01696000  0.74973000  1.0
  C  C92  1  0.04166000  0.51696000  0.75027000  1.0
  C  C93  1  0.04166000  0.98304000  0.25027000  1.0
  C  C94  1  0.09049000  0.24062000  0.94352000  1.0
  C  C95  1  0.09048000  0.25938000  0.44351000  1.0
  C  C96  1  0.90951000  0.75938000  0.05648000  1.0
  C  C97  1  0.90951000  0.74062000  0.55649000  1.0
  S  S98  1  0.45701000  0.55669000  0.16297000  1.0
  S  S99  1  0.45701000  0.94330000  0.66297000  1.0
  S  S100  1  0.54299000  0.44331000  0.83703000  1.0
  S  S101  1  0.54299000  0.05670000  0.33703000  1.0
  N  N102  1  0.84911000  0.67616000  0.97054000  1.0
  N  N103  1  0.84911000  0.82384000  0.47054000  1.0
  N  N104  1  0.15089000  0.32384000  0.02946000  1.0
  N  N105  1  0.15089000  0.17616000  0.52946000  1.0
  N  N106  1  0.10960000  0.57242000  0.85485000  1.0
  N  N107  1  0.10960000  0.92758000  0.35485000  1.0
  N  N108  1  0.89040000  0.42758000  0.14515000  1.0
  N  N109  1  0.89040000  0.07242000  0.64515000  1.0
  O  O110  1  0.49466000  0.44132000  0.13006000  1.0
  O  O111  1  0.49466000  0.05868000  0.63006000  1.0
  O  O112  1  0.50534000  0.55868000  0.86994000  1.0
  O  O113  1  0.50534000  0.94132000  0.36994000  1.0
  O  O114  1  0.59096000  0.64064000  0.14726000  1.0
  O  O115  1  0.59096000  0.85936000  0.64726000  1.0
  O  O116  1  0.40904000  0.35936000  0.85274000  1.0
  O  O117  1  0.40904000  0.14064000  0.35274000  1.0
  O  O118  1  0.26829000  0.59358000  0.11670000  1.0
  O  O119  1  0.26829000  0.90642000  0.61670000  1.0
  O  O120  1  0.73171000  0.40642000  0.88330000  1.0
  O  O121  1  0.73171000  0.09358000  0.38330000  1.0
