# generated using pymatgen
data_ZnH10C14N9
_symmetry_space_group_name_H-M   'P 1'
_cell_length_a   6.76546000
_cell_length_b   10.59400000
_cell_length_c   20.33100000
_cell_angle_alpha   90.00000000
_cell_angle_beta   94.05700000
_cell_angle_gamma   90.00000000
_symmetry_Int_Tables_number   1
_chemical_formula_structural   ZnH10C14N9
_chemical_formula_sum   'Zn4 H40 C56 N36'
_cell_volume   1453.53803814
_cell_formula_units_Z   4
loop_
 _symmetry_equiv_pos_site_id
 _symmetry_equiv_pos_as_xyz
  1  'x, y, z'
loop_
 _atom_site_type_symbol
 _atom_site_label
 _atom_site_symmetry_multiplicity
 _atom_site_fract_x
 _atom_site_fract_y
 _atom_site_fract_z
 _atom_site_occupancy
  Zn  Zn0  1  0.57755000  0.65798000  0.78278000  1.0
  Zn  Zn1  1  0.92245000  0.15798000  0.21722000  1.0
  Zn  Zn2  1  0.42245000  0.34202000  0.21722000  1.0
  Zn  Zn3  1  0.07755000  0.84202000  0.78278000  1.0
  H  H4  1  0.75301000  0.65441000  0.92537000  1.0
  H  H5  1  0.74699000  0.15442000  0.07463000  1.0
  H  H6  1  0.24699000  0.34558000  0.07463000  1.0
  H  H7  1  0.25302000  0.84559000  0.92537000  1.0
  H  H8  1  0.79825000  0.49611000  0.01942000  1.0
  H  H9  1  0.70175000  0.99611000  0.98058000  1.0
  H  H10  1  0.20175000  0.50389000  0.98058000  1.0
  H  H11  1  0.29825000  0.00389000  0.01942000  1.0
  H  H12  1  0.69319000  0.27215000  0.99565000  1.0
  H  H13  1  0.80681000  0.77215000  0.00435000  1.0
  H  H14  1  0.30681000  0.72785000  0.00435000  1.0
  H  H15  1  0.19319000  0.22785000  0.99565000  1.0
  H  H16  1  0.54565000  0.21529000  0.88439000  1.0
  H  H17  1  0.95435000  0.71529000  0.11561000  1.0
  H  H18  1  0.45435000  0.78471000  0.11561000  1.0
  H  H19  1  0.04565000  0.28471000  0.88439000  1.0
  H  H20  1  0.44439000  0.18048000  0.78695000  1.0
  H  H21  1  0.05561000  0.68048000  0.21305000  1.0
  H  H22  1  0.55561000  0.81952000  0.21305000  1.0
  H  H23  1  0.94439000  0.31952000  0.78695000  1.0
  H  H24  1  0.29946000  0.15828000  0.67270000  1.0
  H  H25  1  0.20053000  0.65828000  0.32730000  1.0
  H  H26  1  0.70053000  0.84172000  0.32730000  1.0
  H  H27  1  0.79946000  0.34172000  0.67270000  1.0
  H  H28  1  0.25124000  0.35446000  0.60148000  1.0
  H  H29  1  0.24875000  0.85446000  0.39852000  1.0
  H  H30  1  0.74876000  0.64554000  0.39852000  1.0
  H  H31  1  0.75124000  0.14554000  0.60148000  1.0
  H  H32  1  0.35270000  0.56348000  0.65150000  1.0
  H  H33  1  0.14730000  0.06348000  0.34850000  1.0
  H  H34  1  0.64731000  0.43652000  0.34850000  1.0
  H  H35  1  0.85270000  0.93652000  0.65150000  1.0
  H  H36  1  0.21082000  0.67473000  0.54745000  1.0
  H  H37  1  0.28918000  0.17473000  0.45255000  1.0
  H  H38  1  0.78918000  0.32527000  0.45255000  1.0
  H  H39  1  0.71082000  0.82527000  0.54745000  1.0
  H  H40  1  0.72015000  0.41923000  0.56103000  1.0
  H  H41  1  0.77984000  0.91924000  0.43897000  1.0
  H  H42  1  0.27984000  0.58077000  0.43897000  1.0
  H  H43  1  0.22016000  0.08077000  0.56103000  1.0
  C  C44  1  0.70543000  0.55632000  0.92027000  1.0
  C  C45  1  0.79457000  0.05632000  0.07973000  1.0
  C  C46  1  0.29457000  0.44368000  0.07973000  1.0
  C  C47  1  0.20543000  0.94368000  0.92027000  1.0
  C  C48  1  0.73205000  0.46851000  0.97103000  1.0
  C  C49  1  0.76795000  0.96851000  0.02897000  1.0
  C  C50  1  0.26796000  0.53149000  0.02897000  1.0
  C  C51  1  0.23205000  0.03149000  0.97103000  1.0
  C  C52  1  0.67301000  0.34442000  0.95768000  1.0
  C  C53  1  0.82699000  0.84442000  0.04232000  1.0
  C  C54  1  0.32698000  0.65558000  0.04232000  1.0
  C  C55  1  0.17301000  0.15558000  0.95768000  1.0
  C  C56  1  0.58829000  0.31241000  0.89549000  1.0
  C  C57  1  0.91171000  0.81242000  0.10451000  1.0
  C  C58  1  0.41171000  0.68759000  0.10451000  1.0
  C  C59  1  0.08829000  0.18759000  0.89549000  1.0
  C  C60  1  0.56127000  0.40716000  0.84768000  1.0
  C  C61  1  0.93873000  0.90717000  0.15232000  1.0
  C  C62  1  0.43873000  0.59284000  0.15232000  1.0
  C  C63  1  0.06127000  0.09284000  0.84768000  1.0
  C  C64  1  0.46933000  0.38437000  0.78040000  1.0
  C  C65  1  0.03066000  0.88437000  0.21960000  1.0
  C  C66  1  0.53067000  0.61563000  0.21960000  1.0
  C  C67  1  0.96933000  0.11563000  0.78040000  1.0
  C  C68  1  0.41832000  0.26418000  0.75639000  1.0
  C  C69  1  0.08168000  0.76417000  0.24361000  1.0
  C  C70  1  0.58168000  0.73582000  0.24361000  1.0
  C  C71  1  0.91832000  0.23583000  0.75639000  1.0
  C  C72  1  0.33875000  0.25212000  0.69158000  1.0
  C  C73  1  0.16124000  0.75212000  0.30842000  1.0
  C  C74  1  0.66124000  0.74787000  0.30842000  1.0
  C  C75  1  0.83875000  0.24788000  0.69158000  1.0
  C  C76  1  0.31256000  0.35970000  0.65244000  1.0
  C  C77  1  0.18744000  0.85970000  0.34756000  1.0
  C  C78  1  0.68744000  0.64030000  0.34756000  1.0
  C  C79  1  0.81256000  0.14030000  0.65244000  1.0
  C  C80  1  0.36699000  0.47627000  0.67980000  1.0
  C  C81  1  0.13301000  0.97627000  0.32020000  1.0
  C  C82  1  0.63301000  0.52373000  0.32020000  1.0
  C  C83  1  0.86699000  0.02373000  0.67980000  1.0
  C  C84  1  0.92726000  0.60371000  0.62610000  1.0
  C  C85  1  0.57274000  0.10371000  0.37390000  1.0
  C  C86  1  0.07274000  0.39628000  0.37390000  1.0
  C  C87  1  0.42726000  0.89629000  0.62610000  1.0
  C  C88  1  0.96163000  0.55246000  0.56140000  1.0
  C  C89  1  0.53837000  0.05246000  0.43860000  1.0
  C  C90  1  0.03837000  0.44754000  0.43860000  1.0
  C  C91  1  0.46163000  0.94754000  0.56140000  1.0
  C  C92  1  0.11845000  0.59852000  0.52627000  1.0
  C  C93  1  0.38155000  0.09852000  0.47373000  1.0
  C  C94  1  0.88155000  0.40148000  0.47373000  1.0
  C  C95  1  0.61845000  0.90148000  0.52627000  1.0
  C  C96  1  0.84342000  0.45363000  0.53425000  1.0
  C  C97  1  0.65658000  0.95363000  0.46575000  1.0
  C  C98  1  0.15658000  0.54637000  0.46575000  1.0
  C  C99  1  0.34342000  0.04637000  0.53425000  1.0
  N  N100  1  0.62144000  0.52667000  0.86076000  1.0
  N  N101  1  0.87856000  0.02667000  0.13924000  1.0
  N  N102  1  0.37856000  0.47334000  0.13924000  1.0
  N  N103  1  0.12144000  0.97334000  0.86076000  1.0
  N  N104  1  0.44254000  0.48792000  0.74211000  1.0
  N  N105  1  0.05746000  0.98792000  0.25789000  1.0
  N  N106  1  0.55746000  0.51208000  0.25789000  1.0
  N  N107  1  0.94254000  0.01208000  0.74211000  1.0
  N  N108  1  0.82043000  0.62627000  0.72108000  1.0
  N  N109  1  0.67957000  0.12627000  0.27892000  1.0
  N  N110  1  0.17957000  0.37373000  0.27892000  1.0
  N  N111  1  0.32043000  0.87373000  0.72108000  1.0
  N  N112  1  0.80252000  0.55326000  0.66788000  1.0
  N  N113  1  0.69748000  0.05326000  0.33212000  1.0
  N  N114  1  0.19748000  0.44674000  0.33212000  1.0
  N  N115  1  0.30252000  0.94674000  0.66788000  1.0
  N  N116  1  0.95119000  0.71752000  0.71173000  1.0
  N  N117  1  0.54881000  0.21752000  0.28827000  1.0
  N  N118  1  0.04881000  0.28248000  0.28827000  1.0
  N  N119  1  0.45119000  0.78248000  0.71173000  1.0
  N  N120  1  0.02164000  0.70580000  0.65274000  1.0
  N  N121  1  0.47836000  0.20580000  0.34726000  1.0
  N  N122  1  0.97836000  0.29420000  0.34726000  1.0
  N  N123  1  0.52164000  0.79420000  0.65274000  1.0
  N  N124  1  0.74609000  0.80013000  0.83429000  1.0
  N  N125  1  0.75392000  0.30013000  0.16571000  1.0
  N  N126  1  0.25392000  0.19987000  0.16571000  1.0
  N  N127  1  0.24609000  0.69987000  0.83429000  1.0
  N  N128  1  0.67441000  0.89942000  0.84890000  1.0
  N  N129  1  0.82560000  0.39942000  0.15110000  1.0
  N  N130  1  0.32559000  0.10058000  0.15110000  1.0
  N  N131  1  0.17441000  0.60058000  0.84890000  1.0
  N  N132  1  0.61154000  0.99742000  0.86375000  1.0
  N  N133  1  0.88846000  0.49742000  0.13625000  1.0
  N  N134  1  0.38846000  0.00258000  0.13625000  1.0
  N  N135  1  0.11154000  0.50258000  0.86375000  1.0
