# generated using pymatgen
data_AlH5C8O7
_symmetry_space_group_name_H-M   'P 1'
_cell_length_a   6.62783000
_cell_length_b   8.74168000
_cell_length_c   11.10729604
_cell_angle_alpha   90.25872329
_cell_angle_beta   107.33522896
_cell_angle_gamma   104.50880000
_symmetry_Int_Tables_number   1
_chemical_formula_structural   AlH5C8O7
_chemical_formula_sum   'Al2 H10 C16 O14'
_cell_volume   592.53083921
_cell_formula_units_Z   2
loop_
 _symmetry_equiv_pos_site_id
 _symmetry_equiv_pos_as_xyz
  1  'x, y, z'
loop_
 _atom_site_type_symbol
 _atom_site_label
 _atom_site_symmetry_multiplicity
 _atom_site_fract_x
 _atom_site_fract_y
 _atom_site_fract_z
 _atom_site_occupancy
  Al  Al0  1  0.01544000  0.52611000  0.50224000  1.0
  Al  Al1  1  0.51392000  0.52454000  0.50062000  1.0
  H  H2  1  0.85823000  0.60247000  0.65794000  1.0
  H  H3  1  0.14879000  0.41935000  0.34995000  1.0
  H  H4  1  0.56908000  0.26305000  0.75876000  1.0
  H  H5  1  0.77188000  0.07860000  0.86853000  1.0
  H  H6  1  0.77859000  0.27078000  0.22629000  1.0
  H  H7  1  0.87558000  0.08150000  0.10515000  1.0
  H  H8  1  0.73428000  0.88597000  0.53808000  1.0
  H  H9  1  0.29843000  0.16374000  0.46319000  1.0
  H  H10  1  0.37164000  0.65123000  0.21802000  1.0
  H  H11  1  0.18323000  0.64576000  0.79073000  1.0
  C  C12  1  0.38316000  0.50335000  0.72894000  1.0
  C  C13  1  0.34536000  0.80993000  0.49872000  1.0
  C  C14  1  0.64171000  0.51816000  0.27298000  1.0
  C  C15  1  0.68493000  0.23960000  0.50358000  1.0
  C  C16  1  0.62385000  0.06677000  0.51137000  1.0
  C  C17  1  0.40699000  0.98271000  0.49082000  1.0
  C  C18  1  0.43250000  0.48500000  0.86555000  1.0
  C  C19  1  0.56434000  0.38226000  0.92883000  1.0
  C  C20  1  0.34829000  0.57323000  0.93480000  1.0
  C  C21  1  0.62039000  0.26956000  0.86149000  1.0
  C  C22  1  0.73331000  0.16487000  0.92332000  1.0
  C  C23  1  0.55889000  0.49241000  0.13413000  1.0
  C  C24  1  0.41057000  0.57618000  0.07015000  1.0
  C  C25  1  0.62732000  0.38581000  0.06424000  1.0
  C  C26  1  0.73969000  0.27494000  0.12437000  1.0
  C  C27  1  0.79259000  0.16693000  0.05589000  1.0
  O  O28  1  0.20835000  0.54902000  0.67328000  1.0
  O  O29  1  0.50254000  0.73991000  0.52443000  1.0
  O  O30  1  0.51897000  0.56227000  0.33088000  1.0
  O  O31  1  0.88533000  0.30983000  0.52373000  1.0
  O  O32  1  0.82874000  0.50017000  0.33231000  1.0
  O  O33  1  0.52655000  0.30875000  0.47441000  1.0
  O  O34  1  0.51234000  0.48198000  0.66972000  1.0
  O  O35  1  0.14530000  0.74075000  0.48122000  1.0
  O  O36  1  0.81806000  0.59517000  0.56615000  1.0
  O  O37  1  0.21109000  0.45355000  0.43967000  1.0
  O  O38  1  0.79544000  0.00240000  0.53895000  1.0
  O  O39  1  0.23588000  0.04757000  0.46330000  1.0
  O  O40  1  0.32416000  0.66822000  0.12628000  1.0
  O  O41  1  0.21549000  0.66547000  0.88402000  1.0
