# generated using pymatgen
data_AgH8C4SNO4
_symmetry_space_group_name_H-M   'P 1'
_cell_length_a   6.08090000
_cell_length_b   7.33164000
_cell_length_c   17.70390000
_cell_angle_alpha   89.99990000
_cell_angle_beta   97.47470000
_cell_angle_gamma   90.00000000
_symmetry_Int_Tables_number   1
_chemical_formula_structural   AgH8C4SNO4
_chemical_formula_sum   'Ag4 H32 C16 S4 N4 O16'
_cell_volume   782.58534618
_cell_formula_units_Z   4
loop_
 _symmetry_equiv_pos_site_id
 _symmetry_equiv_pos_as_xyz
  1  'x, y, z'
loop_
 _atom_site_type_symbol
 _atom_site_label
 _atom_site_symmetry_multiplicity
 _atom_site_fract_x
 _atom_site_fract_y
 _atom_site_fract_z
 _atom_site_occupancy
  Ag  Ag0  1  0.66757000  0.51305000  0.22483000  1.0
  Ag  Ag1  1  0.66757000  0.98695000  0.72483000  1.0
  Ag  Ag2  1  0.33242000  0.48695000  0.77517000  1.0
  Ag  Ag3  1  0.33242000  0.01305000  0.27517000  1.0
  H  H4  1  0.45533000  0.55241000  0.39075000  1.0
  H  H5  1  0.45533000  0.94759000  0.89075000  1.0
  H  H6  1  0.54467000  0.44759000  0.60926000  1.0
  H  H7  1  0.54467000  0.05241000  0.10925000  1.0
  H  H8  1  0.21227000  0.44989000  0.33953000  1.0
  H  H9  1  0.21227000  0.05012000  0.83953000  1.0
  H  H10  1  0.78773000  0.55012000  0.66047000  1.0
  H  H11  1  0.78773000  0.94988000  0.16047000  1.0
  H  H12  1  0.24150000  0.39196000  0.48157000  1.0
  H  H13  1  0.24150000  0.10805000  0.98157000  1.0
  H  H14  1  0.75851000  0.60804000  0.51843000  1.0
  H  H15  1  0.75850000  0.89195000  0.01843000  1.0
  H  H16  1  0.24673000  0.18441000  0.42847000  1.0
  H  H17  1  0.24673000  0.31559000  0.92847000  1.0
  H  H18  1  0.75327000  0.81559000  0.57154000  1.0
  H  H19  1  0.75327000  0.68441000  0.07153000  1.0
  H  H20  1  0.82326000  0.12025000  0.49827000  1.0
  H  H21  1  0.82326000  0.37975000  0.99826000  1.0
  H  H22  1  0.17674000  0.87975000  0.50173000  1.0
  H  H23  1  0.17674000  0.62025000  0.00173000  1.0
  H  H24  1  0.59564000  0.02271000  0.43722000  1.0
  H  H25  1  0.59564000  0.47729000  0.93722000  1.0
  H  H26  1  0.40437000  0.97729000  0.56278000  1.0
  H  H27  1  0.40436000  0.52271000  0.06278000  1.0
  H  H28  1  0.85155000  0.37157000  0.40286000  1.0
  H  H29  1  0.85155000  0.12843000  0.90286000  1.0
  H  H30  1  0.14846000  0.62843000  0.59714000  1.0
  H  H31  1  0.14845000  0.87157000  0.09714000  1.0
  H  H32  1  0.87597000  0.15132000  0.36005000  1.0
  H  H33  1  0.87596000  0.34868000  0.86005000  1.0
  H  H34  1  0.12404000  0.84868000  0.63995000  1.0
  H  H35  1  0.12404000  0.65132000  0.13995000  1.0
  C  C36  1  0.37066000  0.42295000  0.37508000  1.0
  C  C37  1  0.37066000  0.07705000  0.87508000  1.0
  C  C38  1  0.62935000  0.57705000  0.62492000  1.0
  C  C39  1  0.62934000  0.92294000  0.12492000  1.0
  C  C40  1  0.33797000  0.31143000  0.44524000  1.0
  C  C41  1  0.33797000  0.18858000  0.94524000  1.0
  C  C42  1  0.66203000  0.68857000  0.55476000  1.0
  C  C43  1  0.66203000  0.81142000  0.05476000  1.0
  C  C44  1  0.68241000  0.15165000  0.45482000  1.0
  C  C45  1  0.68240000  0.34836000  0.95482000  1.0
  C  C46  1  0.31760000  0.84836000  0.54518000  1.0
  C  C47  1  0.31760000  0.65164000  0.04518000  1.0
  C  C48  1  0.76635000  0.24243000  0.38698000  1.0
  C  C49  1  0.76634000  0.25757000  0.88698000  1.0
  C  C50  1  0.23366000  0.75757000  0.61302000  1.0
  C  C51  1  0.23365000  0.74243000  0.11302000  1.0
  S  S52  1  0.53703000  0.29738000  0.31449000  1.0
  S  S53  1  0.53703000  0.20262000  0.81449000  1.0
  S  S54  1  0.46297000  0.70262000  0.68551000  1.0
  S  S55  1  0.46297000  0.79737000  0.18551000  1.0
  N  N56  1  0.01521000  0.26950000  0.15942000  1.0
  N  N57  1  0.01520000  0.23050000  0.65942000  1.0
  N  N58  1  0.98481000  0.73049000  0.84057000  1.0
  N  N59  1  0.98481000  0.76951000  0.34057000  1.0
  O  O60  1  0.89200000  0.40410000  0.13447000  1.0
  O  O61  1  0.89199000  0.09589000  0.63447000  1.0
  O  O62  1  0.10800000  0.59590000  0.86553000  1.0
  O  O63  1  0.10800000  0.90410000  0.36553000  1.0
  O  O64  1  0.00149000  0.20949000  0.22642000  1.0
  O  O65  1  0.00150000  0.29051000  0.72642000  1.0
  O  O66  1  0.99850000  0.79052000  0.77358000  1.0
  O  O67  1  0.99850000  0.70948000  0.27358000  1.0
  O  O68  1  0.14543000  0.19982000  0.11833000  1.0
  O  O69  1  0.14541000  0.30019000  0.61833000  1.0
  O  O70  1  0.85455000  0.80020000  0.88167000  1.0
  O  O71  1  0.85455000  0.69980000  0.38167000  1.0
  O  O72  1  0.54140000  0.26890000  0.49172000  1.0
  O  O73  1  0.54140000  0.23110000  0.99172000  1.0
  O  O74  1  0.45861000  0.73110000  0.50828000  1.0
  O  O75  1  0.45860000  0.76890000  0.00828000  1.0
