# generated using pymatgen
data_CoH24C30(NO2)4
_symmetry_space_group_name_H-M   'P 1'
_cell_length_a   8.19695000
_cell_length_b   9.62132000
_cell_length_c   9.91200000
_cell_angle_alpha   111.20000000
_cell_angle_beta   105.18600000
_cell_angle_gamma   107.03200000
_symmetry_Int_Tables_number   1
_chemical_formula_structural   CoH24C30(NO2)4
_chemical_formula_sum   'Co1 H24 C30 N4 O8'
_cell_volume   634.74125844
_cell_formula_units_Z   1
loop_
 _symmetry_equiv_pos_site_id
 _symmetry_equiv_pos_as_xyz
  1  'x, y, z'
loop_
 _atom_site_type_symbol
 _atom_site_label
 _atom_site_symmetry_multiplicity
 _atom_site_fract_x
 _atom_site_fract_y
 _atom_site_fract_z
 _atom_site_occupancy
  Co  Co0  1  0.00000000  0.00000000  0.00000000  1.0
  H  H1  1  0.55209000  0.90233000  0.12747000  1.0
  H  H2  1  0.44791000  0.09766000  0.87253000  1.0
  H  H3  1  0.92629000  0.26525000  0.82654000  1.0
  H  H4  1  0.07371000  0.73474000  0.17346000  1.0
  H  H5  1  0.81339000  0.47690000  0.93904000  1.0
  H  H6  1  0.18661000  0.52310000  0.06095000  1.0
  H  H7  1  0.57637000  0.51560000  0.76017000  1.0
  H  H8  1  0.42363000  0.48440000  0.23983000  1.0
  H  H9  1  0.45346000  0.34864000  0.46921000  1.0
  H  H10  1  0.54655000  0.65136000  0.53079000  1.0
  H  H11  1  0.83230000  0.82375000  0.13960000  1.0
  H  H12  1  0.16770000  0.17625000  0.86040000  1.0
  H  H13  1  0.72320000  0.76350000  0.95750000  1.0
  H  H14  1  0.27679000  0.23650000  0.04250000  1.0
  H  H15  1  0.16751000  0.76858000  0.97186000  1.0
  H  H16  1  0.83249000  0.23142000  0.02814000  1.0
  H  H17  1  0.17752000  0.54555000  0.75773000  1.0
  H  H18  1  0.82248000  0.45445000  0.24227000  1.0
  H  H19  1  0.83101000  0.64477000  0.42526000  1.0
  H  H20  1  0.16899000  0.35524000  0.57474000  1.0
  H  H21  1  0.84854000  0.87014000  0.65456000  1.0
  H  H22  1  0.15146000  0.12986000  0.34544000  1.0
  H  H23  1  0.93739000  0.07885000  0.58961000  1.0
  H  H24  1  0.06260000  0.92115000  0.41039000  1.0
  C  C25  1  0.74937000  0.97012000  0.35988000  1.0
  C  C26  1  0.25063000  0.02988000  0.64012000  1.0
  C  C27  1  0.60474000  0.98412000  0.25433000  1.0
  C  C28  1  0.39526000  0.01587000  0.74567000  1.0
  C  C29  1  0.54277000  0.10136000  0.31184000  1.0
  C  C30  1  0.45723000  0.89864000  0.68816000  1.0
  C  C31  1  0.40136000  0.12391000  0.19904000  1.0
  C  C32  1  0.59863000  0.87609000  0.80097000  1.0
  C  C33  1  0.61320000  0.20649000  0.47981000  1.0
  C  C34  1  0.38681000  0.79351000  0.52019000  1.0
  C  C35  1  0.74990000  0.18641000  0.58338000  1.0
  C  C36  1  0.25011000  0.81360000  0.41662000  1.0
  C  C37  1  0.82216000  0.28349000  0.74915000  1.0
  C  C38  1  0.17784000  0.71651000  0.25085000  1.0
  C  C39  1  0.75771000  0.39940000  0.81098000  1.0
  C  C40  1  0.24229000  0.60059000  0.18902000  1.0
  C  C41  1  0.62352000  0.42227000  0.71025000  1.0
  C  C42  1  0.37648000  0.57773000  0.28975000  1.0
  C  C43  1  0.55393000  0.32823000  0.54725000  1.0
  C  C44  1  0.44608000  0.67177000  0.45275000  1.0
  C  C45  1  0.09626000  0.73736000  0.84868000  1.0
  C  C46  1  0.90375000  0.26264000  0.15132000  1.0
  C  C47  1  0.09826000  0.61027000  0.72598000  1.0
  C  C48  1  0.90174000  0.38973000  0.27402000  1.0
  C  C49  1  0.00178000  0.56820000  0.56681000  1.0
  C  C50  1  0.99822000  0.43180000  0.43319000  1.0
  C  C51  1  0.90946000  0.66535000  0.54329000  1.0
  C  C52  1  0.09054000  0.33466000  0.45671000  1.0
  C  C53  1  0.91746000  0.79344000  0.67181000  1.0
  C  C54  1  0.08254000  0.20657000  0.32819000  1.0
  N  N55  1  0.81329000  0.07175000  0.51876000  1.0
  N  N56  1  0.18672000  0.92825000  0.48124000  1.0
  N  N57  1  0.00766000  0.83042000  0.82450000  1.0
  N  N58  1  0.99234000  0.16958000  0.17550000  1.0
  O  O59  1  0.82312000  0.87236000  0.31409000  1.0
  O  O60  1  0.17688000  0.12764000  0.68592000  1.0
  O  O61  1  0.46084000  0.24108000  0.16978000  1.0
  O  O62  1  0.53915000  0.75892000  0.83023000  1.0
  O  O63  1  0.23110000  0.01893000  0.14542000  1.0
  O  O64  1  0.76890000  0.98106000  0.85458000  1.0
  O  O65  1  0.84768000  0.79202000  0.03751000  1.0
  O  O66  1  0.15231000  0.20798000  0.96249000  1.0
