# generated using pymatgen
data_NdCuH14C18(N2O5)2
_symmetry_space_group_name_H-M   'P 1'
_cell_length_a   9.69331000
_cell_length_b   10.85300000
_cell_length_c   12.47130000
_cell_angle_alpha   65.41480000
_cell_angle_beta   76.41200000
_cell_angle_gamma   63.73880000
_symmetry_Int_Tables_number   1
_chemical_formula_structural   NdCuH14C18(N2O5)2
_chemical_formula_sum   'Nd2 Cu2 H28 C36 N8 O20'
_cell_volume   1067.83594478
_cell_formula_units_Z   2
loop_
 _symmetry_equiv_pos_site_id
 _symmetry_equiv_pos_as_xyz
  1  'x, y, z'
loop_
 _atom_site_type_symbol
 _atom_site_label
 _atom_site_symmetry_multiplicity
 _atom_site_fract_x
 _atom_site_fract_y
 _atom_site_fract_z
 _atom_site_occupancy
  Nd  Nd0  1  0.34983000  0.81079000  0.46960000  1.0
  Nd  Nd1  1  0.65017000  0.18920000  0.53040000  1.0
  Cu  Cu2  1  0.97106000  0.33971000  0.83788000  1.0
  Cu  Cu3  1  0.02893000  0.66030000  0.16212000  1.0
  H  H4  1  0.04892000  0.17255000  0.66244000  1.0
  H  H5  1  0.95108000  0.82746000  0.33755000  1.0
  H  H6  1  0.36856000  0.66823000  0.93256000  1.0
  H  H7  1  0.63145000  0.33178000  0.06743000  1.0
  H  H8  1  0.39746000  0.63475000  0.13852000  1.0
  H  H9  1  0.60254000  0.36526000  0.86148000  1.0
  H  H10  1  0.13305000  0.09770000  0.07217000  1.0
  H  H11  1  0.86694000  0.90231000  0.92783000  1.0
  H  H12  1  0.87662000  0.31555000  0.10830000  1.0
  H  H13  1  0.12339000  0.68445000  0.89169000  1.0
  H  H14  1  0.87172000  0.67812000  0.69123000  1.0
  H  H15  1  0.12828000  0.32189000  0.30877000  1.0
  H  H16  1  0.62231000  0.86095000  0.02784000  1.0
  H  H17  1  0.37769000  0.13904000  0.97217000  1.0
  H  H18  1  0.61863000  0.67840000  0.23099000  1.0
  H  H19  1  0.38137000  0.32158000  0.76902000  1.0
  H  H20  1  0.21110000  0.89349000  0.72630000  1.0
  H  H21  1  0.78892000  0.10652000  0.27368000  1.0
  H  H22  1  0.73829000  0.87012000  0.79123000  1.0
  H  H23  1  0.26170000  0.12989000  0.20878000  1.0
  H  H24  1  0.68990000  0.71021000  0.38595000  1.0
  H  H25  1  0.31010000  0.28979000  0.61405000  1.0
  H  H26  1  0.65458000  0.56784000  0.41526000  1.0
  H  H27  1  0.34542000  0.43215000  0.58475000  1.0
  H  H28  1  0.80207000  0.52595000  0.58949000  1.0
  H  H29  1  0.19795000  0.47404000  0.41051000  1.0
  H  H30  1  0.77692000  0.38264000  0.66414000  1.0
  H  H31  1  0.22309000  0.61735000  0.33586000  1.0
  C  C32  1  0.10092000  0.10325000  0.74686000  1.0
  C  C33  1  0.89908000  0.89677000  0.25313000  1.0
  C  C34  1  0.23005000  0.90220000  0.88993000  1.0
  C  C35  1  0.76995000  0.09781000  0.11006000  1.0
  C  C36  1  0.31642000  0.76034000  0.96333000  1.0
  C  C37  1  0.68358000  0.23967000  0.03666000  1.0
  C  C38  1  0.33213000  0.74280000  0.07719000  1.0
  C  C39  1  0.66787000  0.25721000  0.92281000  1.0
  C  C40  1  0.26910000  0.86391000  0.11561000  1.0
  C  C41  1  0.73090000  0.13610000  0.88439000  1.0
  C  C42  1  0.18397000  0.00561000  0.04130000  1.0
  C  C43  1  0.81603000  0.99440000  0.95870000  1.0
  C  C44  1  0.16464000  0.02414000  0.92760000  1.0
  C  C45  1  0.83536000  0.97587000  0.07239000  1.0
  C  C46  1  0.29919000  0.84068000  0.23539000  1.0
  C  C47  1  0.70080000  0.15933000  0.76461000  1.0
  C  C48  1  0.02161000  0.05857000  0.50524000  1.0
  C  C49  1  0.97838000  0.94143000  0.49477000  1.0
  C  C50  1  0.49261000  0.96199000  0.56861000  1.0
  C  C51  1  0.50738000  0.03801000  0.43139000  1.0
  C  C52  1  0.73278000  0.38349000  0.30234000  1.0
  C  C53  1  0.26723000  0.61649000  0.69766000  1.0
  C  C54  1  0.74827000  0.48791000  0.18114000  1.0
  C  C55  1  0.25174000  0.51208000  0.81886000  1.0
  C  C56  1  0.82154000  0.43356000  0.08967000  1.0
  C  C57  1  0.17848000  0.56643000  0.91033000  1.0
  C  C58  1  0.81969000  0.53537000  0.97516000  1.0
  C  C59  1  0.18032000  0.46463000  0.02484000  1.0
  C  C60  1  0.84329000  0.65203000  0.78547000  1.0
  C  C61  1  0.15671000  0.34797000  0.21454000  1.0
  C  C62  1  0.75005000  0.68844000  0.95407000  1.0
  C  C63  1  0.24995000  0.31156000  0.04593000  1.0
  C  C64  1  0.67868000  0.74340000  0.04502000  1.0
  C  C65  1  0.32132000  0.25659000  0.95499000  1.0
  C  C66  1  0.67921000  0.64092000  0.15820000  1.0
  C  C67  1  0.32080000  0.35907000  0.84181000  1.0
  N  N68  1  0.08537000  0.14906000  0.83517000  1.0
  N  N69  1  0.91463000  0.85095000  0.16482000  1.0
  N  N70  1  0.18612000  0.95683000  0.77656000  1.0
  N  N71  1  0.81388000  0.04318000  0.22344000  1.0
  N  N72  1  0.87588000  0.51657000  0.86671000  1.0
  N  N73  1  0.12412000  0.48343000  0.13329000  1.0
  N  N74  1  0.76880000  0.75731000  0.83400000  1.0
  N  N75  1  0.23120000  0.24269000  0.16601000  1.0
  O  O76  1  0.28443000  0.95089000  0.25831000  1.0
  O  O77  1  0.71555000  0.04911000  0.74169000  1.0
  O  O78  1  0.34303000  0.71155000  0.31444000  1.0
  O  O79  1  0.65696000  0.28845000  0.68556000  1.0
  O  O80  1  0.16139000  0.04474000  0.48101000  1.0
  O  O81  1  0.83861000  0.95525000  0.51901000  1.0
  O  O82  1  0.91540000  0.15872000  0.53799000  1.0
  O  O83  1  0.08459000  0.84128000  0.46200000  1.0
  O  O84  1  0.63390000  0.65122000  0.44179000  1.0
  O  O85  1  0.36610000  0.34877000  0.55821000  1.0
  O  O86  1  0.46258000  0.84805000  0.60719000  1.0
  O  O87  1  0.53741000  0.15195000  0.39281000  1.0
  O  O88  1  0.78175000  0.24663000  0.32129000  1.0
  O  O89  1  0.21825000  0.75336000  0.67871000  1.0
  O  O90  1  0.66402000  0.43149000  0.38752000  1.0
  O  O91  1  0.33598000  0.56850000  0.61248000  1.0
  O  O92  1  0.84857000  0.43099000  0.65150000  1.0
  O  O93  1  0.15145000  0.56900000  0.34851000  1.0
  O  O94  1  0.51139000  0.02081000  0.63021000  1.0
  O  O95  1  0.48860000  0.97919000  0.36979000  1.0
