# generated using pymatgen
data_Ag3PH8(C7O3)2
_symmetry_space_group_name_H-M   'P 1'
_cell_length_a   5.83314000
_cell_length_b   16.20150000
_cell_length_c   16.27880000
_cell_angle_alpha   67.54320000
_cell_angle_beta   80.13560000
_cell_angle_gamma   79.79470000
_symmetry_Int_Tables_number   1
_chemical_formula_structural   Ag3PH8(C7O3)2
_chemical_formula_sum   'Ag12 P4 H32 C56 O24'
_cell_volume   1390.16791851
_cell_formula_units_Z   4
loop_
 _symmetry_equiv_pos_site_id
 _symmetry_equiv_pos_as_xyz
  1  'x, y, z'
loop_
 _atom_site_type_symbol
 _atom_site_label
 _atom_site_symmetry_multiplicity
 _atom_site_fract_x
 _atom_site_fract_y
 _atom_site_fract_z
 _atom_site_occupancy
  Ag  Ag0  1  0.89587000  0.78437000  0.61555000  1.0
  Ag  Ag1  1  0.28653000  0.21516000  0.38433000  1.0
  Ag  Ag2  1  0.78515000  0.38328000  0.21624000  1.0
  Ag  Ag3  1  0.39502000  0.61634000  0.78476000  1.0
  Ag  Ag4  1  0.23762000  0.85880000  0.67313000  1.0
  Ag  Ag5  1  0.75568000  0.14195000  0.32644000  1.0
  Ag  Ag6  1  0.25478000  0.32757000  0.14108000  1.0
  Ag  Ag7  1  0.73814000  0.67222000  0.86096000  1.0
  Ag  Ag8  1  0.98734000  0.95786000  0.47618000  1.0
  Ag  Ag9  1  0.42430000  0.04231000  0.52236000  1.0
  Ag  Ag10  1  0.92438000  0.52070000  0.04430000  1.0
  Ag  Ag11  1  0.49137000  0.47665000  0.95750000  1.0
  P  P12  1  0.87571000  0.08090000  0.60600000  1.0
  P  P13  1  0.55697000  0.92033000  0.39183000  1.0
  P  P14  1  0.06155000  0.39273000  0.91961000  1.0
  P  P15  1  0.37485000  0.60430000  0.08239000  1.0
  H  H16  1  0.41375000  0.88444000  0.87264000  1.0
  H  H17  1  0.15117000  0.11564000  0.12609000  1.0
  H  H18  1  0.64841000  0.12896000  0.11271000  1.0
  H  H19  1  0.91613000  0.87431000  0.88474000  1.0
  H  H20  1  0.22788000  0.00961000  0.92507000  1.0
  H  H21  1  0.14943000  0.99113000  0.07154000  1.0
  H  H22  1  0.64951000  0.07333000  0.98908000  1.0
  H  H23  1  0.72584000  0.92650000  0.00901000  1.0
  H  H24  1  0.32548000  0.16567000  0.83701000  1.0
  H  H25  1  0.32533000  0.83581000  0.15788000  1.0
  H  H26  1  0.83190000  0.15780000  0.83561000  1.0
  H  H27  1  0.81721000  0.83624000  0.16515000  1.0
  H  H28  1  0.59759000  0.19574000  0.69758000  1.0
  H  H29  1  0.49068000  0.80585000  0.29791000  1.0
  H  H30  1  0.99896000  0.29753000  0.80632000  1.0
  H  H31  1  0.09008000  0.69537000  0.19602000  1.0
  H  H32  1  0.13115000  0.15051000  0.69138000  1.0
  H  H33  1  0.96577000  0.85180000  0.30653000  1.0
  H  H34  1  0.47191000  0.30678000  0.85168000  1.0
  H  H35  1  0.62788000  0.69086000  0.15165000  1.0
  H  H36  1  0.21340000  0.30404000  0.66826000  1.0
  H  H37  1  0.18376000  0.69903000  0.33154000  1.0
  H  H38  1  0.68633000  0.33130000  0.69979000  1.0
  H  H39  1  0.70965000  0.66883000  0.30442000  1.0
  H  H40  1  0.06183000  0.43493000  0.54249000  1.0
  H  H41  1  0.04607000  0.56812000  0.45871000  1.0
  H  H42  1  0.54322000  0.45851000  0.56926000  1.0
  H  H43  1  0.56019000  0.54314000  0.43487000  1.0
  H  H44  1  0.84100000  0.41302000  0.43536000  1.0
  H  H45  1  0.69898000  0.58940000  0.56538000  1.0
  H  H46  1  0.19458000  0.56578000  0.59018000  1.0
  H  H47  1  0.34088000  0.43516000  0.41342000  1.0
  C  C48  1  0.71376000  0.89329000  0.72616000  1.0
  C  C49  1  0.31790000  0.10721000  0.27262000  1.0
  C  C50  1  0.81773000  0.27464000  0.10531000  1.0
  C  C51  1  0.21386000  0.72557000  0.89469000  1.0
  C  C52  1  0.60429000  0.96988000  0.75573000  1.0
  C  C53  1  0.31618000  0.03057000  0.24262000  1.0
  C  C54  1  0.81795000  0.24442000  0.02885000  1.0
  C  C55  1  0.10409000  0.75552000  0.97064000  1.0
  C  C56  1  0.45274000  0.95308000  0.83527000  1.0
  C  C57  1  0.22557000  0.04734000  0.16278000  1.0
  C  C58  1  0.72530000  0.16493000  0.04516000  1.0
  C  C59  1  0.95297000  0.83607000  0.95336000  1.0
  C  C60  1  0.35033000  0.02331000  0.86413000  1.0
  C  C61  1  0.22617000  0.97749000  0.13266000  1.0
  C  C62  1  0.72767000  0.13415000  0.97586000  1.0
  C  C63  1  0.84799000  0.86480000  0.02310000  1.0
  C  C64  1  0.40353000  0.11055000  0.81460000  1.0
  C  C65  1  0.32290000  0.89067000  0.18123000  1.0
  C  C66  1  0.82801000  0.18164000  0.89004000  1.0
  C  C67  1  0.89790000  0.81411000  0.11036000  1.0
  C  C68  1  0.55752000  0.12737000  0.73592000  1.0
  C  C69  1  0.41636000  0.87391000  0.26029000  1.0
  C  C70  1  0.92264000  0.26049000  0.87366000  1.0
  C  C71  1  0.05215000  0.73460000  0.12766000  1.0
  C  C72  1  0.65986000  0.05798000  0.70491000  1.0
  C  C73  1  0.41435000  0.94288000  0.29264000  1.0
  C  C74  1  0.91900000  0.29350000  0.94206000  1.0
  C  C75  1  0.15742000  0.70386000  0.05873000  1.0
  C  C76  1  0.93002000  0.19552000  0.57965000  1.0
  C  C77  1  0.70271000  0.80622000  0.41851000  1.0
  C  C78  1  0.20580000  0.41917000  0.80619000  1.0
  C  C79  1  0.42940000  0.57849000  0.19657000  1.0
  C  C80  1  0.06309000  0.20872000  0.63674000  1.0
  C  C81  1  0.90466000  0.79355000  0.36170000  1.0
  C  C82  1  0.40862000  0.36203000  0.79368000  1.0
  C  C83  1  0.56091000  0.63619000  0.20963000  1.0
  C  C84  1  0.10939000  0.29432000  0.62388000  1.0
  C  C85  1  0.02684000  0.70836000  0.37568000  1.0
  C  C86  1  0.52873000  0.37570000  0.70895000  1.0
  C  C87  1  0.60695000  0.62393000  0.29480000  1.0
  C  C88  1  0.02580000  0.36790000  0.55219000  1.0
  C  C89  1  0.95004000  0.63477000  0.44814000  1.0
  C  C90  1  0.44897000  0.44817000  0.63558000  1.0
  C  C91  1  0.52448000  0.55230000  0.36818000  1.0
  C  C92  1  0.89831000  0.35600000  0.49337000  1.0
  C  C93  1  0.75364000  0.64625000  0.50671000  1.0
  C  C94  1  0.25160000  0.50706000  0.64687000  1.0
  C  C95  1  0.39798000  0.49299000  0.35649000  1.0
  C  C96  1  0.84580000  0.27013000  0.50725000  1.0
  C  C97  1  0.62597000  0.73167000  0.49180000  1.0
  C  C98  1  0.12610000  0.49247000  0.73182000  1.0
  C  C99  1  0.34598000  0.50623000  0.27100000  1.0
  C  C100  1  0.70922000  0.25927000  0.44197000  1.0
  C  C101  1  0.41635000  0.74170000  0.55740000  1.0
  C  C102  1  0.91554000  0.55845000  0.74165000  1.0
  C  C103  1  0.20996000  0.44071000  0.26022000  1.0
  O  O104  1  0.86204000  0.83444000  0.77184000  1.0
  O  O105  1  0.44855000  0.16714000  0.22641000  1.0
  O  O106  1  0.94760000  0.22782000  0.16571000  1.0
  O  O107  1  0.36098000  0.77126000  0.83622000  1.0
  O  O108  1  0.65505000  0.89388000  0.65322000  1.0
  O  O109  1  0.19160000  0.10563000  0.34610000  1.0
  O  O110  1  0.69021000  0.34856000  0.10364000  1.0
  O  O111  1  0.15578000  0.65236000  0.89515000  1.0
  O  O112  1  0.10303000  0.01875000  0.63313000  1.0
  O  O113  1  0.74739000  0.98320000  0.36487000  1.0
  O  O114  1  0.25231000  0.36523000  0.98265000  1.0
  O  O115  1  0.60119000  0.63142000  0.02089000  1.0
  O  O116  1  0.78202000  0.07555000  0.52606000  1.0
  O  O117  1  0.38140000  0.92498000  0.47195000  1.0
  O  O118  1  0.88505000  0.47347000  0.92402000  1.0
  O  O119  1  0.28285000  0.52389000  0.07694000  1.0
  O  O120  1  0.49057000  0.25709000  0.46228000  1.0
  O  O121  1  0.21512000  0.74326000  0.53731000  1.0
  O  O122  1  0.71480000  0.53821000  0.74310000  1.0
  O  O123  1  0.99103000  0.46135000  0.25803000  1.0
  O  O124  1  0.83151000  0.25426000  0.37041000  1.0
  O  O125  1  0.46520000  0.74627000  0.62915000  1.0
  O  O126  1  0.96296000  0.63060000  0.74634000  1.0
  O  O127  1  0.33287000  0.36873000  0.25499000  1.0
