# generated using pymatgen
data_Cd5H28C44(N5O9)2
_symmetry_space_group_name_H-M   'P 1'
_cell_length_a   10.11380000
_cell_length_b   10.82180000
_cell_length_c   14.50720000
_cell_angle_alpha   97.73700000
_cell_angle_beta   95.55540000
_cell_angle_gamma   110.17300000
_symmetry_Int_Tables_number   1
_chemical_formula_structural   Cd5H28C44(N5O9)2
_chemical_formula_sum   'Cd5 H28 C44 N10 O18'
_cell_volume   1459.21836756
_cell_formula_units_Z   1
loop_
 _symmetry_equiv_pos_site_id
 _symmetry_equiv_pos_as_xyz
  1  'x, y, z'
loop_
 _atom_site_type_symbol
 _atom_site_label
 _atom_site_symmetry_multiplicity
 _atom_site_fract_x
 _atom_site_fract_y
 _atom_site_fract_z
 _atom_site_occupancy
  Cd  Cd0  1  0.00000000  0.50000000  0.00000000  1.0
  Cd  Cd1  1  0.01844000  0.27234000  0.18044000  1.0
  Cd  Cd2  1  0.98156000  0.72766000  0.81956000  1.0
  Cd  Cd3  1  0.89597000  0.36503000  0.40412000  1.0
  Cd  Cd4  1  0.10403000  0.63497000  0.59588000  1.0
  H  H5  1  0.19416000  0.92864000  0.34335000  1.0
  H  H6  1  0.80584000  0.07136000  0.65665000  1.0
  H  H7  1  0.19194000  0.15264000  0.31636000  1.0
  H  H8  1  0.80806000  0.84736000  0.68364000  1.0
  H  H9  1  0.91655000  0.98463000  0.06546000  1.0
  H  H10  1  0.08345000  0.01537000  0.93454000  1.0
  H  H11  1  0.91245000  0.75467000  0.07750000  1.0
  H  H12  1  0.08755000  0.24533000  0.92250000  1.0
  H  H13  1  0.52868000  0.23070000  0.93072000  1.0
  H  H14  1  0.47132000  0.76930000  0.06928000  1.0
  H  H15  1  0.31873000  0.05647000  0.82291000  1.0
  H  H16  1  0.68127000  0.94353000  0.17709000  1.0
  H  H17  1  0.54167000  0.78170000  0.81287000  1.0
  H  H18  1  0.45833000  0.21830000  0.18713000  1.0
  H  H19  1  0.74122000  0.94851000  0.92989000  1.0
  H  H20  1  0.25878000  0.05149000  0.07011000  1.0
  H  H21  1  0.34292000  0.50824000  0.62038000  1.0
  H  H22  1  0.65708000  0.49176000  0.37961000  1.0
  H  H23  1  0.39496000  0.41879000  0.33045000  1.0
  H  H24  1  0.60504000  0.58121000  0.66955000  1.0
  H  H25  1  0.53506000  0.46031000  0.16419000  1.0
  H  H26  1  0.46494000  0.53969000  0.83581000  1.0
  H  H27  1  0.25650000  0.45899000  0.92003000  1.0
  H  H28  1  0.74350000  0.54101000  0.07997000  1.0
  H  H29  1  0.90220000  0.24744000  0.56687000  1.0
  H  H30  1  0.09780000  0.75256000  0.43313000  1.0
  H  H31  1  0.87448000  0.13366000  0.47697000  1.0
  H  H32  1  0.12552000  0.86633000  0.52303000  1.0
  C  C33  1  0.03127000  0.68889000  0.23244000  1.0
  C  C34  1  0.96873000  0.31111000  0.76756000  1.0
  C  C35  1  0.04840000  0.82259000  0.21396000  1.0
  C  C36  1  0.95160000  0.17741000  0.78604000  1.0
  C  C37  1  0.13085000  0.93654000  0.28080000  1.0
  C  C38  1  0.86915000  0.06346000  0.71920000  1.0
  C  C39  1  0.13115000  0.06094000  0.26628000  1.0
  C  C40  1  0.86886000  0.93906000  0.73372000  1.0
  C  C41  1  0.97812000  0.96690000  0.12478000  1.0
  C  C42  1  0.02188000  0.03310000  0.87522000  1.0
  C  C43  1  0.97431000  0.83936000  0.13293000  1.0
  C  C44  1  0.02568000  0.16064000  0.86707000  1.0
  C  C45  1  0.77402000  0.20237000  0.00130000  1.0
  C  C46  1  0.22598000  0.79763000  0.99870000  1.0
  C  C47  1  0.64778000  0.10011000  0.93636000  1.0
  C  C48  1  0.35222000  0.89990000  0.06364000  1.0
  C  C49  1  0.52916000  0.13123000  0.90568000  1.0
  C  C50  1  0.47084000  0.86877000  0.09432000  1.0
  C  C51  1  0.41330000  0.03501000  0.84528000  1.0
  C  C52  1  0.58670000  0.96499000  0.15472000  1.0
  C  C53  1  0.41785000  0.90912000  0.81104000  1.0
  C  C54  1  0.58215000  0.09088000  0.18896000  1.0
  C  C55  1  0.53762000  0.87885000  0.84051000  1.0
  C  C56  1  0.46238000  0.12115000  0.15949000  1.0
  C  C57  1  0.64959000  0.97253000  0.90483000  1.0
  C  C58  1  0.35041000  0.02747000  0.09517000  1.0
  C  C59  1  0.29887000  0.80871000  0.74152000  1.0
  C  C60  1  0.70113000  0.19129000  0.25848000  1.0
  C  C61  1  0.19577000  0.41289000  0.44207000  1.0
  C  C62  1  0.80423000  0.58712000  0.55793000  1.0
  C  C63  1  0.35266000  0.45816000  0.47242000  1.0
  C  C64  1  0.64734000  0.54184000  0.52758000  1.0
  C  C65  1  0.41180000  0.50433000  0.56783000  1.0
  C  C66  1  0.58820000  0.49567000  0.43217000  1.0
  C  C67  1  0.44164000  0.45375000  0.40451000  1.0
  C  C68  1  0.55836000  0.54625000  0.59549000  1.0
  C  C69  1  0.25833000  0.40146000  0.09680000  1.0
  C  C70  1  0.74167000  0.59854000  0.90320000  1.0
  C  C71  1  0.38297000  0.45400000  0.04713000  1.0
  C  C72  1  0.61703000  0.54600000  0.95287000  1.0
  C  C73  1  0.52077000  0.47836000  0.09243000  1.0
  C  C74  1  0.47923000  0.52164000  0.90757000  1.0
  C  C75  1  0.36318000  0.47601000  0.95451000  1.0
  C  C76  1  0.63682000  0.52399000  0.04549000  1.0
  N  N77  1  0.00795000  0.57755000  0.16871000  1.0
  N  N78  1  0.99205000  0.42245000  0.83129000  1.0
  N  N79  1  0.98945000  0.47978000  0.21916000  1.0
  N  N80  1  0.01055000  0.52022000  0.78084000  1.0
  N  N81  1  0.99957000  0.52863000  0.30879000  1.0
  N  N82  1  0.00042000  0.47137000  0.69121000  1.0
  N  N83  1  0.02626000  0.65939000  0.31983000  1.0
  N  N84  1  0.97373000  0.34061000  0.68017000  1.0
  N  N85  1  0.05304000  0.07532000  0.19077000  1.0
  N  N86  1  0.94696000  0.92468000  0.80923000  1.0
  O  O87  1  0.79696000  0.32511000  0.99818000  1.0
  O  O88  1  0.20304000  0.67489000  0.00183000  1.0
  O  O89  1  0.84830000  0.15756000  0.05370000  1.0
  O  O90  1  0.15170000  0.84244000  0.94630000  1.0
  O  O91  1  0.17631000  0.82131000  0.72943000  1.0
  O  O92  1  0.82369000  0.17869000  0.27057000  1.0
  O  O93  1  0.32201000  0.71328000  0.69269000  1.0
  O  O94  1  0.67799000  0.28671000  0.30731000  1.0
  O  O95  1  0.12033000  0.45471000  0.49739000  1.0
  O  O96  1  0.87967000  0.54529000  0.50261000  1.0
  O  O97  1  0.13716000  0.33384000  0.36523000  1.0
  O  O98  1  0.86284000  0.66616000  0.63477000  1.0
  O  O99  1  0.13215000  0.37998000  0.05355000  1.0
  O  O100  1  0.86785000  0.62002000  0.94645000  1.0
  O  O101  1  0.27519000  0.37241000  0.17751000  1.0
  O  O102  1  0.72481000  0.62759000  0.82249000  1.0
  O  O103  1  0.84253000  0.20407000  0.50325000  1.0
  O  O104  1  0.15747000  0.79593000  0.49675000  1.0
