# generated using pymatgen
data_Al6H33C66O34F5
_symmetry_space_group_name_H-M   'P 1'
_cell_length_a   10.40290000
_cell_length_b   12.39990000
_cell_length_c   23.73420000
_cell_angle_alpha   89.33860000
_cell_angle_beta   84.86100000
_cell_angle_gamma   66.62140000
_symmetry_Int_Tables_number   1
_chemical_formula_structural   Al6H33C66O34F5
_chemical_formula_sum   'Al6 H33 C66 O34 F5'
_cell_volume   2797.98259644
_cell_formula_units_Z   1
loop_
 _symmetry_equiv_pos_site_id
 _symmetry_equiv_pos_as_xyz
  1  'x, y, z'
loop_
 _atom_site_type_symbol
 _atom_site_label
 _atom_site_symmetry_multiplicity
 _atom_site_fract_x
 _atom_site_fract_y
 _atom_site_fract_z
 _atom_site_occupancy
  Al  Al0  1  0.78901000  0.59599000  0.50036000  1.0
  Al  Al1  1  0.06122000  0.35348000  0.49759000  1.0
  Al  Al2  1  0.10412000  0.57894000  0.49153000  1.0
  Al  Al3  1  0.87027000  0.02046000  0.98217000  1.0
  Al  Al4  1  0.55060000  0.03806000  0.99567000  1.0
  Al  Al5  1  0.59601000  0.26100000  0.99609000  1.0
  H  H6  1  0.37770000  0.39965000  0.14095000  1.0
  H  H7  1  0.59448000  0.53031000  0.76338000  1.0
  H  H8  1  0.63929000  0.55304000  0.65910000  1.0
  H  H9  1  0.01546000  0.23682000  0.65177000  1.0
  H  H10  1  0.22654000  0.11833000  0.25118000  1.0
  H  H11  1  0.23315000  0.58701000  0.70387000  1.0
  H  H12  1  0.41826000  0.52370000  0.68149000  1.0
  H  H13  1  0.35499000  0.61077000  0.74595000  1.0
  H  H14  1  0.46154000  0.83386000  0.89105000  1.0
  H  H15  1  0.37834000  0.85486000  0.82582000  1.0
  H  H16  1  0.30016000  0.95781000  0.88440000  1.0
  H  H17  1  0.95788000  0.32029000  0.23417000  1.0
  H  H18  1  0.55685000  0.50325000  0.25260000  1.0
  H  H19  1  0.53102000  0.55831000  0.18200000  1.0
  H  H20  1  0.57196000  0.40590000  0.19453000  1.0
  H  H21  1  0.18418000  0.68091000  0.34024000  1.0
  H  H22  1  0.32542000  0.67811000  0.29001000  1.0
  H  H23  1  0.33684000  0.69098000  0.36491000  1.0
  H  H24  1  0.80234000  0.59812000  0.16953000  1.0
  H  H25  1  0.63262000  0.68632000  0.20457000  1.0
  H  H26  1  0.74183000  0.55043000  0.23453000  1.0
  H  H27  1  0.57807000  0.28181000  0.34588000  1.0
  H  H28  1  0.30704000  0.19861000  0.74092000  1.0
  H  H29  1  0.70609000  0.13242000  0.33938000  1.0
  H  H30  1  0.55051000  0.17661000  0.30243000  1.0
  H  H31  1  0.94895000  0.85071000  0.82904000  1.0
  H  H32  1  0.09101000  0.79258000  0.73730000  1.0
  H  H33  1  0.11131000  0.73692000  0.63490000  1.0
  H  H34  1  0.65840000  0.41372000  0.84951000  1.0
  H  H35  1  0.29289000  0.08683000  0.14738000  1.0
  H  H36  1  0.04180000  0.10144000  0.84307000  1.0
  H  H37  1  0.56845000  0.73799000  0.53158000  1.0
  H  H38  1  0.09318000  0.88913000  0.00320000  1.0
  C  C39  1  0.85515000  0.37697000  0.42816000  1.0
  C  C40  1  0.82452000  0.77742000  0.22392000  1.0
  C  C41  1  0.87269000  0.83767000  0.25918000  1.0
  C  C42  1  0.23018000  0.40077000  0.40648000  1.0
  C  C43  1  0.89373000  0.80890000  0.31531000  1.0
  C  C44  1  0.79734000  0.81124000  0.16812000  1.0
  C  C45  1  0.90455000  0.77317000  0.36362000  1.0
  C  C46  1  0.83741000  0.24616000  0.12369000  1.0
  C  C47  1  0.87669000  0.28839000  0.22728000  1.0
  C  C48  1  0.79701000  0.27442000  0.27375000  1.0
  C  C49  1  0.81377000  0.30691000  0.32867000  1.0
  C  C50  1  0.31958000  0.45587000  0.31137000  1.0
  C  C51  1  0.85757000  0.26441000  0.17192000  1.0
  C  C52  1  0.82504000  0.33757000  0.37590000  1.0
  C  C53  1  0.35744000  0.25468000  0.86979000  1.0
  C  C54  1  0.91870000  0.71443000  0.41657000  1.0
  C  C55  1  0.32420000  0.26928000  0.76160000  1.0
  C  C56  1  0.33227000  0.35879000  0.72845000  1.0
  C  C57  1  0.31687000  0.36016000  0.66984000  1.0
  C  C58  1  0.33990000  0.26388000  0.81935000  1.0
  C  C59  1  0.30118000  0.36851000  0.61936000  1.0
  C  C60  1  0.72784000  0.89781000  0.84092000  1.0
  C  C61  1  0.24888000  0.29079000  0.31547000  1.0
  C  C62  1  0.89234000  0.77079000  0.63362000  1.0
  C  C63  1  0.99945000  0.79695000  0.71681000  1.0
  C  C64  1  0.01094000  0.76686000  0.66065000  1.0
  C  C65  1  0.76201000  0.81215000  0.66497000  1.0
  C  C66  1  0.85404000  0.41132000  0.58850000  1.0
  C  C67  1  0.74481000  0.84541000  0.72320000  1.0
  C  C68  1  0.86808000  0.83399000  0.74996000  1.0
  C  C69  1  0.85585000  0.86009000  0.80832000  1.0
  C  C70  1  0.60266000  0.91652000  0.81455000  1.0
  C  C71  1  0.61484000  0.88920000  0.75714000  1.0
  C  C72  1  0.27025000  0.27512000  0.25587000  1.0
  C  C73  1  0.84629000  0.25768000  0.85184000  1.0
  C  C74  1  0.82824000  0.39404000  0.64992000  1.0
  C  C75  1  0.68592000  0.46660000  0.73866000  1.0
  C  C76  1  0.70952000  0.47891000  0.68150000  1.0
  C  C77  1  0.92372000  0.30001000  0.67646000  1.0
  C  C78  1  0.24926000  0.38955000  0.56450000  1.0
  C  C79  1  0.90197000  0.28701000  0.73527000  1.0
  C  C80  1  0.77963000  0.37033000  0.76726000  1.0
  C  C81  1  0.75390000  0.35355000  0.82553000  1.0
  C  C82  1  0.97046000  0.17633000  0.82154000  1.0
  C  C83  1  0.30971000  0.35771000  0.22416000  1.0
  C  C84  1  0.99506000  0.19295000  0.76522000  1.0
  C  C85  1  0.74638000  0.89354000  0.06533000  1.0
  C  C86  1  0.40451000  0.21380000  0.07906000  1.0
  C  C87  1  0.80257000  0.21754000  0.07015000  1.0
  C  C88  1  0.72625000  0.92423000  0.90236000  1.0
  C  C89  1  0.41274000  0.22949000  0.92353000  1.0
  C  C90  1  0.91607000  0.72009000  0.57519000  1.0
  C  C91  1  0.81014000  0.22963000  0.91063000  1.0
  C  C92  1  0.34049000  0.24187000  0.13841000  1.0
  C  C93  1  0.27079000  0.37867000  0.34452000  1.0
  C  C94  1  0.34282000  0.33958000  0.16509000  1.0
  C  C95  1  0.33008000  0.44896000  0.25262000  1.0
  C  C96  1  0.33913000  0.54823000  0.71811000  1.0
  C  C97  1  0.39938000  0.89898000  0.86171000  1.0
  C  C98  1  0.51652000  0.49575000  0.21219000  1.0
  C  C99  1  0.29854000  0.65237000  0.33240000  1.0
  C  C100  1  0.74114000  0.62674000  0.21084000  1.0
  C  C101  1  0.62930000  0.20448000  0.31735000  1.0
  C  C102  1  0.29529000  0.16242000  0.16945000  1.0
  C  C103  1  0.25949000  0.17956000  0.22694000  1.0
  C  C104  1  0.77100000  0.84122000  0.11991000  1.0
  O  O105  1  0.82660000  0.67480000  0.43157000  1.0
  O  O106  1  0.44778000  0.28676000  0.05400000  1.0
  O  O107  1  0.68934000  0.29499000  0.05193000  1.0
  O  O108  1  0.77700000  0.47822000  0.44740000  1.0
  O  O109  1  0.88644000  0.12951000  0.92751000  1.0
  O  O110  1  0.83124000  0.93865000  0.91801000  1.0
  O  O111  1  0.61728000  0.93178000  0.93544000  1.0
  O  O112  1  0.41726000  0.13531000  0.94767000  1.0
  O  O113  1  0.46127000  0.30090000  0.94285000  1.0
  O  O114  1  0.70115000  0.30507000  0.93935000  1.0
  O  O115  1  0.67118000  0.10623000  0.99215000  1.0
  O  O116  1  0.20544000  0.31449000  0.54629000  1.0
  O  O117  1  0.96607000  0.30335000  0.44899000  1.0
  O  O118  1  0.19961000  0.32481000  0.43508000  1.0
  O  O119  1  0.21918000  0.49895000  0.42758000  1.0
  O  O120  1  0.02603000  0.70351000  0.44325000  1.0
  O  O121  1  0.81685000  0.71012000  0.55188000  1.0
  O  O122  1  0.77646000  0.50765000  0.56833000  1.0
  O  O123  1  0.95676000  0.32810000  0.56035000  1.0
  O  O124  1  0.35415000  0.44798000  0.75244000  1.0
  O  O125  1  0.47202000  0.97193000  0.84193000  1.0
  O  O126  1  0.36704000  0.52663000  0.22026000  1.0
  O  O127  1  0.24268000  0.48341000  0.53992000  1.0
  O  O128  1  0.36698000  0.52660000  0.33867000  1.0
  O  O129  1  0.80434000  0.68262000  0.24555000  1.0
  O  O130  1  0.69651000  0.23270000  0.26692000  1.0
  O  O131  1  0.04493000  0.68288000  0.55291000  1.0
  O  O132  1  0.98644000  0.50819000  0.49722000  1.0
  O  O133  1  0.88035000  0.12012000  0.04635000  1.0
  O  O134  1  0.84639000  0.91487000  0.04093000  1.0
  O  O135  1  0.62510000  0.91781000  0.04758000  1.0
  O  O136  1  0.42159000  0.11396000  0.05787000  1.0
  O  O137  1  0.60699000  0.67624000  0.50272000  1.0
  O  O138  1  0.05289000  0.93792000  0.97197000  1.0
  F  F139  1  0.49367000  0.91010000  0.73320000  1.0
  F  F140  1  0.64629000  0.82006000  0.64073000  1.0
  F  F141  1  0.11337000  0.11489000  0.73536000  1.0
  F  F142  1  0.20550000  0.21393000  0.34359000  1.0
  F  F143  1  0.90293000  0.92863000  0.23793000  1.0
