# generated using pymatgen
data_Zn2H32C45N2(Cl3O4)2
_symmetry_space_group_name_H-M   'P 1'
_cell_length_a   12.43750000
_cell_length_b   12.63480000
_cell_length_c   22.46740000
_cell_angle_alpha   89.90480000
_cell_angle_beta   89.83360000
_cell_angle_gamma   89.33000000
_symmetry_Int_Tables_number   1
_chemical_formula_structural   Zn2H32C45N2(Cl3O4)2
_chemical_formula_sum   'Zn4 H64 C90 N4 Cl12 O16'
_cell_volume   3530.38591701
_cell_formula_units_Z   2
loop_
 _symmetry_equiv_pos_site_id
 _symmetry_equiv_pos_as_xyz
  1  'x, y, z'
loop_
 _atom_site_type_symbol
 _atom_site_label
 _atom_site_symmetry_multiplicity
 _atom_site_fract_x
 _atom_site_fract_y
 _atom_site_fract_z
 _atom_site_occupancy
  Zn  Zn0  1  0.61844000  0.50073000  0.49752000  1.0
  Zn  Zn1  1  0.38645000  0.50172000  0.49998000  1.0
  Zn  Zn2  1  0.00645000  0.89044000  0.00089000  1.0
  Zn  Zn3  1  0.99772000  0.12026000  0.00012000  1.0
  H  H4  1  0.64435000  0.17260000  0.74607000  1.0
  H  H5  1  0.34806000  0.84696000  0.73653000  1.0
  H  H6  1  0.30939000  0.12909000  0.74900000  1.0
  H  H7  1  0.69547000  0.88092000  0.75148000  1.0
  H  H8  1  0.37571000  0.04670000  0.65081000  1.0
  H  H9  1  0.64304000  0.95151000  0.65763000  1.0
  H  H10  1  0.47099000  0.86981000  0.83577000  1.0
  H  H11  1  0.52261000  0.13181000  0.83966000  1.0
  H  H12  1  0.64445000  0.83324000  0.25374000  1.0
  H  H13  1  0.36953000  0.18442000  0.24773000  1.0
  H  H14  1  0.30484000  0.89408000  0.25055000  1.0
  H  H15  1  0.69808000  0.11717000  0.25247000  1.0
  H  H16  1  0.36743000  0.96109000  0.34415000  1.0
  H  H17  1  0.62380000  0.03917000  0.34928000  1.0
  H  H18  1  0.48247000  0.12967000  0.15525000  1.0
  H  H19  1  0.52774000  0.87778000  0.15709000  1.0
  H  H20  1  0.32456000  0.60546000  0.66643000  1.0
  H  H21  1  0.25446000  0.70138000  0.62486000  1.0
  H  H22  1  0.25649000  0.71054000  0.70419000  1.0
  H  H23  1  0.69811000  0.88855000  0.56754000  1.0
  H  H24  1  0.63256000  0.78553000  0.52789000  1.0
  H  H25  1  0.72548000  0.75347000  0.58403000  1.0
  H  H26  1  0.86095000  0.80494000  0.85268000  1.0
  H  H27  1  0.94436000  0.90977000  0.83188000  1.0
  H  H28  1  0.87133000  0.84055000  0.77628000  1.0
  H  H29  1  0.58008000  0.20804000  0.92389000  1.0
  H  H30  1  0.72055000  0.23557000  0.92193000  1.0
  H  H31  1  0.67197000  0.13735000  0.97027000  1.0
  H  H32  1  0.72488000  0.32453000  0.72000000  1.0
  H  H33  1  0.66134000  0.41697000  0.67093000  1.0
  H  H34  1  0.75194000  0.32236000  0.64202000  1.0
  H  H35  1  0.33374000  0.10439000  0.55780000  1.0
  H  H36  1  0.40684000  0.20369000  0.51929000  1.0
  H  H37  1  0.30150000  0.24089000  0.56719000  1.0
  H  H38  1  0.13954000  0.20463000  0.84902000  1.0
  H  H39  1  0.05560000  0.10166000  0.82635000  1.0
  H  H40  1  0.13218000  0.17167000  0.77219000  1.0
  H  H41  1  0.40764000  0.78996000  0.91731000  1.0
  H  H42  1  0.26635000  0.76701000  0.91416000  1.0
  H  H43  1  0.31660000  0.86051000  0.96445000  1.0
  H  H44  1  0.29914000  0.34595000  0.27107000  1.0
  H  H45  1  0.35904000  0.42941000  0.32538000  1.0
  H  H46  1  0.25989000  0.33908000  0.34733000  1.0
  H  H47  1  0.66896000  0.09804000  0.44126000  1.0
  H  H48  1  0.58797000  0.19204000  0.48019000  1.0
  H  H49  1  0.69558000  0.23613000  0.43644000  1.0
  H  H50  1  0.87460000  0.18891000  0.15529000  1.0
  H  H51  1  0.95323000  0.07988000  0.17765000  1.0
  H  H52  1  0.87704000  0.15162000  0.23170000  1.0
  H  H53  1  0.72581000  0.76372000  0.08119000  1.0
  H  H54  1  0.69560000  0.86579000  0.03029000  1.0
  H  H55  1  0.58965000  0.80569000  0.07136000  1.0
  H  H56  1  0.65565000  0.58684000  0.32370000  1.0
  H  H57  1  0.74193000  0.67566000  0.35927000  1.0
  H  H58  1  0.72571000  0.68225000  0.28042000  1.0
  H  H59  1  0.31444000  0.89712000  0.43453000  1.0
  H  H60  1  0.38420000  0.79373000  0.47298000  1.0
  H  H61  1  0.28500000  0.76195000  0.42076000  1.0
  H  H62  1  0.13151000  0.82306000  0.15254000  1.0
  H  H63  1  0.05358000  0.93351000  0.17332000  1.0
  H  H64  1  0.12662000  0.86195000  0.22859000  1.0
  H  H65  1  0.28820000  0.24376000  0.07580000  1.0
  H  H66  1  0.32101000  0.13998000  0.02655000  1.0
  H  H67  1  0.42475000  0.20117000  0.06831000  1.0
  C  C68  1  0.52150000  0.65006000  0.41960000  1.0
  C  C69  1  0.47194000  0.35277000  0.42177000  1.0
  C  C70  1  0.53468000  0.35152000  0.57538000  1.0
  C  C71  1  0.48186000  0.65233000  0.57654000  1.0
  C  C72  1  0.14799000  0.03904000  0.07993000  1.0
  C  C73  1  0.14374000  0.98034000  0.91628000  1.0
  C  C74  1  0.85176000  0.02855000  0.92072000  1.0
  C  C75  1  0.86338000  0.97116000  0.08401000  1.0
  C  C76  1  0.14124000  0.49681000  0.46913000  1.0
  C  C77  1  0.15692000  0.45872000  0.56959000  1.0
  C  C78  1  0.04574000  0.46206000  0.57819000  1.0
  C  C79  1  0.97860000  0.47828000  0.52765000  1.0
  C  C80  1  0.86427000  0.49456000  0.52818000  1.0
  C  C81  1  0.85019000  0.45429000  0.42809000  1.0
  C  C82  1  0.96120000  0.45963000  0.41941000  1.0
  C  C83  1  0.02766000  0.47829000  0.46979000  1.0
  C  C84  1  0.50163000  0.00355000  0.74698000  1.0
  C  C85  1  0.40173000  0.00115000  0.78771000  1.0
  C  C86  1  0.59820000  0.00558000  0.78996000  1.0
  C  C87  1  0.49942000  0.90690000  0.70495000  1.0
  C  C88  1  0.50662000  0.10066000  0.70521000  1.0
  C  C89  1  0.58683000  0.17651000  0.70970000  1.0
  C  C90  1  0.41283000  0.83775000  0.70422000  1.0
  C  C91  1  0.31271000  0.06864000  0.78371000  1.0
  C  C92  1  0.68888000  0.94011000  0.78660000  1.0
  C  C93  1  0.59873000  0.25731000  0.66756000  1.0
  C  C94  1  0.40343000  0.75731000  0.66190000  1.0
  C  C95  1  0.22650000  0.06197000  0.82423000  1.0
  C  C96  1  0.77287000  0.94694000  0.82819000  1.0
  C  C97  1  0.52662000  0.26285000  0.61938000  1.0
  C  C98  1  0.48606000  0.74316000  0.61934000  1.0
  C  C99  1  0.22980000  0.98407000  0.86937000  1.0
  C  C100  1  0.76580000  0.02300000  0.87401000  1.0
  C  C101  1  0.44434000  0.18690000  0.61365000  1.0
  C  C102  1  0.57390000  0.81380000  0.61824000  1.0
  C  C103  1  0.31803000  0.91246000  0.87273000  1.0
  C  C104  1  0.67501000  0.09124000  0.87762000  1.0
  C  C105  1  0.43622000  0.10763000  0.65676000  1.0
  C  C106  1  0.57808000  0.89439000  0.66071000  1.0
  C  C107  1  0.40192000  0.92347000  0.83225000  1.0
  C  C108  1  0.59337000  0.08033000  0.83595000  1.0
  C  C109  1  0.50200000  0.00454000  0.25046000  1.0
  C  C110  1  0.40458000  0.01056000  0.20821000  1.0
  C  C111  1  0.60169000  0.99911000  0.20963000  1.0
  C  C112  1  0.49914000  0.10179000  0.29216000  1.0
  C  C113  1  0.50289000  0.90657000  0.29188000  1.0
  C  C114  1  0.58366000  0.82923000  0.28855000  1.0
  C  C115  1  0.42406000  0.18386000  0.28552000  1.0
  C  C116  1  0.31178000  0.95087000  0.21419000  1.0
  C  C117  1  0.69348000  0.05997000  0.21628000  1.0
  C  C118  1  0.59238000  0.74682000  0.32996000  1.0
  C  C119  1  0.41317000  0.26531000  0.32731000  1.0
  C  C120  1  0.22633000  0.96033000  0.17366000  1.0
  C  C121  1  0.78082000  0.05082000  0.17667000  1.0
  C  C122  1  0.51571000  0.74002000  0.37605000  1.0
  C  C123  1  0.48090000  0.26495000  0.37734000  1.0
  C  C124  1  0.23438000  0.03330000  0.12628000  1.0
  C  C125  1  0.77570000  0.97673000  0.12982000  1.0
  C  C126  1  0.43246000  0.81712000  0.38051000  1.0
  C  C127  1  0.55928000  0.18385000  0.38483000  1.0
  C  C128  1  0.32700000  0.09612000  0.11998000  1.0
  C  C129  1  0.68420000  0.91251000  0.12309000  1.0
  C  C130  1  0.42845000  0.89905000  0.33861000  1.0
  C  C131  1  0.56657000  0.10403000  0.34203000  1.0
  C  C132  1  0.41007000  0.08269000  0.16083000  1.0
  C  C133  1  0.59921000  0.92590000  0.16288000  1.0
  C  C134  1  0.05699000  0.36677000  0.99849000  1.0
  C  C135  1  0.87772000  0.35409000  0.02481000  1.0
  C  C136  1  0.86076000  0.46315000  0.01964000  1.0
  C  C137  1  0.95149000  0.52820000  0.00866000  1.0
  C  C138  1  0.95058000  0.64091000  0.00011000  1.0
  C  C139  1  0.12994000  0.65288000  0.02529000  1.0
  C  C140  1  0.14710000  0.54405000  0.01876000  1.0
  C  C141  1  0.05621000  0.47921000  0.00798000  1.0
  C  C142  1  0.30440000  0.69010000  0.66466000  1.0
  C  C143  1  0.66157000  0.81013000  0.57172000  1.0
  C  C144  1  0.86751000  0.87210000  0.82175000  1.0
  C  C145  1  0.66095000  0.17254000  0.92593000  1.0
  C  C146  1  0.68890000  0.33449000  0.67576000  1.0
  C  C147  1  0.36801000  0.18379000  0.56166000  1.0
  C  C148  1  0.13344000  0.13864000  0.81743000  1.0
  C  C149  1  0.32785000  0.82783000  0.91960000  1.0
  C  C150  1  0.32850000  0.34960000  0.31704000  1.0
  C  C151  1  0.63162000  0.17705000  0.43846000  1.0
  C  C152  1  0.87651000  0.12110000  0.18597000  1.0
  C  C153  1  0.67309000  0.83281000  0.07379000  1.0
  C  C154  1  0.68384000  0.66879000  0.32278000  1.0
  C  C155  1  0.35015000  0.81764000  0.42993000  1.0
  C  C156  1  0.12937000  0.89149000  0.18265000  1.0
  C  C157  1  0.34113000  0.17433000  0.06997000  1.0
  N  N158  1  0.20255000  0.48434000  0.51666000  1.0
  N  N159  1  0.80349000  0.48049000  0.48075000  1.0
  N  N160  1  0.97220000  0.30751000  0.00891000  1.0
  N  N161  1  0.03535000  0.69989000  0.01043000  1.0
  Cl  Cl162  1  0.76875000  0.41670000  0.37162000  1.0
  Cl  Cl163  1  0.01273000  0.43176000  0.35055000  1.0
  Cl  Cl164  1  0.20202000  0.55009000  0.40825000  1.0
  Cl  Cl165  1  0.23968000  0.42484000  0.62666000  1.0
  Cl  Cl166  1  0.99553000  0.43482000  0.64734000  1.0
  Cl  Cl167  1  0.80116000  0.54679000  0.58887000  1.0
  Cl  Cl168  1  0.22878000  0.73179000  0.05147000  1.0
  Cl  Cl169  1  0.27286000  0.49283000  0.03117000  1.0
  Cl  Cl170  1  0.16459000  0.30426000  0.96649000  1.0
  Cl  Cl171  1  0.77886000  0.27431000  0.05049000  1.0
  Cl  Cl172  1  0.73545000  0.51424000  0.03384000  1.0
  Cl  Cl173  1  0.84260000  0.70436000  0.96928000  1.0
  O  O174  1  0.61366000  0.62563000  0.44158000  1.0
  O  O175  1  0.43405000  0.60334000  0.43133000  1.0
  O  O176  1  0.37884000  0.37867000  0.44180000  1.0
  O  O177  1  0.55930000  0.39680000  0.43612000  1.0
  O  O178  1  0.44673000  0.39705000  0.56134000  1.0
  O  O179  1  0.62732000  0.37703000  0.55536000  1.0
  O  O180  1  0.56995000  0.60409000  0.56549000  1.0
  O  O181  1  0.39030000  0.62793000  0.55456000  1.0
  O  O182  1  0.11990000  0.95127000  0.05768000  1.0
  O  O183  1  0.10977000  0.12985000  0.06501000  1.0
  O  O184  1  0.11411000  0.06814000  0.93888000  1.0
  O  O185  1  0.10762000  0.88936000  0.93148000  1.0
  O  O186  1  0.88765000  0.12003000  0.93475000  1.0
  O  O187  1  0.88219000  0.94149000  0.94391000  1.0
  O  O188  1  0.90121000  0.88022000  0.06892000  1.0
  O  O189  1  0.89264000  0.05893000  0.06206000  1.0
