# generated using pymatgen
data_CdH20C20SN4O5
_symmetry_space_group_name_H-M   'P 1'
_cell_length_a   7.41304000
_cell_length_b   10.69580000
_cell_length_c   31.69870000
_cell_angle_alpha   89.99750000
_cell_angle_beta   89.99890000
_cell_angle_gamma   89.99920000
_symmetry_Int_Tables_number   1
_chemical_formula_structural   CdH20C20SN4O5
_chemical_formula_sum   'Cd4 H80 C80 S4 N16 O20'
_cell_volume   2513.33898744
_cell_formula_units_Z   4
loop_
 _symmetry_equiv_pos_site_id
 _symmetry_equiv_pos_as_xyz
  1  'x, y, z'
loop_
 _atom_site_type_symbol
 _atom_site_label
 _atom_site_symmetry_multiplicity
 _atom_site_fract_x
 _atom_site_fract_y
 _atom_site_fract_z
 _atom_site_occupancy
  Cd  Cd0  1  0.53800000  0.32127000  0.25000000  1.0
  Cd  Cd1  1  0.96197000  0.82125000  0.74999000  1.0
  Cd  Cd2  1  0.03806000  0.17876000  0.25001000  1.0
  Cd  Cd3  1  0.46196000  0.67873000  0.75000000  1.0
  H  H4  1  0.61232000  0.49427000  0.33887000  1.0
  H  H5  1  0.88768000  0.99427000  0.66113000  1.0
  H  H6  1  0.11234000  0.00570000  0.16113000  1.0
  H  H7  1  0.38767000  0.50575000  0.83887000  1.0
  H  H8  1  0.38769000  0.50571000  0.66113000  1.0
  H  H9  1  0.11229000  0.00575000  0.33887000  1.0
  H  H10  1  0.88769000  0.99429000  0.83887000  1.0
  H  H11  1  0.61230000  0.49428000  0.16113000  1.0
  H  H12  1  0.49387000  0.10928000  0.33020000  1.0
  H  H13  1  0.00613000  0.60926000  0.66980000  1.0
  H  H14  1  0.99386000  0.39069000  0.16979000  1.0
  H  H15  1  0.50611000  0.89074000  0.83020000  1.0
  H  H16  1  0.50615000  0.89071000  0.66979000  1.0
  H  H17  1  0.99385000  0.39076000  0.33020000  1.0
  H  H18  1  0.00611000  0.60928000  0.83021000  1.0
  H  H19  1  0.49385000  0.10929000  0.16979000  1.0
  H  H20  1  0.54534000  0.17218000  0.41557000  1.0
  H  H21  1  0.95468000  0.67219000  0.58443000  1.0
  H  H22  1  0.04528000  0.32777000  0.08442000  1.0
  H  H23  1  0.45466000  0.82783000  0.91557000  1.0
  H  H24  1  0.45470000  0.82779000  0.58443000  1.0
  H  H25  1  0.04536000  0.32783000  0.41557000  1.0
  H  H26  1  0.95466000  0.67222000  0.91558000  1.0
  H  H27  1  0.54532000  0.17220000  0.08443000  1.0
  H  H28  1  0.66661000  0.51782000  0.41783000  1.0
  H  H29  1  0.83341000  0.01782000  0.58217000  1.0
  H  H30  1  0.16659000  0.98214000  0.08216000  1.0
  H  H31  1  0.33333333  0.48218000  0.91783000  1.0
  H  H32  1  0.33341000  0.48217000  0.58217000  1.0
  H  H33  1  0.16660000  0.98219000  0.41783000  1.0
  H  H34  1  0.83343000  0.01785000  0.91783000  1.0
  H  H35  1  0.66657000  0.51784000  0.08216000  1.0
  H  H36  1  0.69701000  0.37984000  0.44802000  1.0
  H  H37  1  0.80304000  0.87985000  0.55198000  1.0
  H  H38  1  0.19700000  0.12013000  0.05198000  1.0
  H  H39  1  0.30300000  0.62015000  0.94802000  1.0
  H  H40  1  0.30304000  0.62014000  0.55198000  1.0
  H  H41  1  0.19701000  0.12016000  0.44801000  1.0
  H  H42  1  0.80301000  0.87988000  0.94802000  1.0
  H  H43  1  0.69698000  0.37987000  0.05198000  1.0
  H  H44  1  0.45502000  0.29596000  0.49147000  1.0
  H  H45  1  0.04506000  0.79597000  0.50854000  1.0
  H  H46  1  0.95498000  0.20404000  0.00853000  1.0
  H  H47  1  0.54499000  0.70405000  0.99146000  1.0
  H  H48  1  0.54504000  0.70402000  0.50854000  1.0
  H  H49  1  0.95501000  0.20405000  0.49147000  1.0
  H  H50  1  0.04503000  0.79596000  0.99147000  1.0
  H  H51  1  0.45496000  0.29598000  0.00854000  1.0
  H  H52  1  0.16666000  0.32845000  0.52670000  1.0
  H  H53  1  0.33341000  0.82846000  0.47331000  1.0
  H  H54  1  0.66661000  0.17154000  0.97330000  1.0
  H  H55  1  0.83335000  0.67156000  0.02669000  1.0
  H  H56  1  0.83339000  0.67154000  0.47331000  1.0
  H  H57  1  0.66666667  0.17155000  0.52670000  1.0
  H  H58  1  0.33333333  0.82844000  0.02669000  1.0
  H  H59  1  0.16661000  0.32846000  0.97331000  1.0
  H  H60  1  0.05782000  0.63966000  0.44336000  1.0
  H  H61  1  0.44221000  0.13968000  0.55664000  1.0
  H  H62  1  0.55780000  0.86032000  0.05665000  1.0
  H  H63  1  0.94218000  0.36032000  0.94336000  1.0
  H  H64  1  0.94223000  0.36031000  0.55665000  1.0
  H  H65  1  0.55781000  0.86035000  0.44336000  1.0
  H  H66  1  0.44220000  0.13968000  0.94336000  1.0
  H  H67  1  0.05775000  0.63966000  0.05665000  1.0
  H  H68  1  0.34694000  0.60462000  0.40843000  1.0
  H  H69  1  0.15309000  0.10463000  0.59158000  1.0
  H  H70  1  0.84694000  0.89537000  0.09157000  1.0
  H  H71  1  0.65306000  0.39537000  0.90843000  1.0
  H  H72  1  0.65311000  0.39536000  0.59158000  1.0
  H  H73  1  0.84695000  0.89539000  0.40843000  1.0
  H  H74  1  0.15308000  0.10464000  0.90843000  1.0
  H  H75  1  0.34690000  0.60462000  0.09158000  1.0
  H  H76  1  0.69920000  0.02944000  0.22619000  1.0
  H  H77  1  0.80079000  0.52946000  0.77382000  1.0
  H  H78  1  0.19924000  0.47053000  0.27383000  1.0
  H  H79  1  0.30077000  0.97055000  0.72617000  1.0
  H  H80  1  0.30085000  0.97056000  0.77380000  1.0
  H  H81  1  0.19912000  0.47055000  0.22620000  1.0
  H  H82  1  0.80080000  0.52946000  0.72619000  1.0
  H  H83  1  0.69917000  0.02944000  0.27382000  1.0
  C  C84  1  0.58242000  0.39858000  0.34801000  1.0
  C  C85  1  0.91760000  0.89857000  0.65199000  1.0
  C  C86  1  0.08242000  0.10139000  0.15199000  1.0
  C  C87  1  0.41757000  0.60144000  0.84801000  1.0
  C  C88  1  0.41759000  0.60141000  0.65199000  1.0
  C  C89  1  0.08238000  0.10143000  0.34801000  1.0
  C  C90  1  0.91760000  0.89859000  0.84801000  1.0
  C  C91  1  0.58239000  0.39858000  0.15199000  1.0
  C  C92  1  0.52438000  0.19846000  0.34529000  1.0
  C  C93  1  0.97562000  0.69844000  0.65471000  1.0
  C  C94  1  0.02437000  0.30151000  0.15470000  1.0
  C  C95  1  0.47559000  0.80156000  0.84529000  1.0
  C  C96  1  0.47564000  0.80154000  0.65470000  1.0
  C  C97  1  0.02437000  0.30157000  0.34529000  1.0
  C  C98  1  0.97561000  0.69847000  0.84530000  1.0
  C  C99  1  0.52436000  0.19846000  0.15470000  1.0
  C  C100  1  0.54854000  0.22800000  0.38707000  1.0
  C  C101  1  0.95148000  0.72798000  0.61293000  1.0
  C  C102  1  0.04851000  0.27196000  0.11292000  1.0
  C  C103  1  0.45145000  0.77201000  0.88707000  1.0
  C  C104  1  0.45149000  0.77199000  0.61293000  1.0
  C  C105  1  0.04856000  0.27202000  0.38707000  1.0
  C  C106  1  0.95145000  0.72801000  0.88707000  1.0
  C  C107  1  0.54852000  0.22800000  0.11293000  1.0
  C  C108  1  0.60414000  0.42851000  0.42660000  1.0
  C  C109  1  0.89589000  0.92852000  0.57340000  1.0
  C  C110  1  0.10412000  0.07147000  0.07340000  1.0
  C  C111  1  0.39587000  0.57150000  0.92660000  1.0
  C  C112  1  0.39590000  0.57146000  0.57340000  1.0
  C  C113  1  0.10413000  0.07150000  0.42660000  1.0
  C  C114  1  0.89587000  0.92854000  0.92660000  1.0
  C  C115  1  0.60411000  0.42854000  0.07340000  1.0
  C  C116  1  0.42461000  0.44955000  0.44804000  1.0
  C  C117  1  0.07544000  0.94956000  0.55196000  1.0
  C  C118  1  0.92460000  0.05043000  0.05195000  1.0
  C  C119  1  0.57538000  0.55045000  0.94804000  1.0
  C  C120  1  0.57544000  0.55042000  0.55196000  1.0
  C  C121  1  0.92462000  0.05045000  0.44804000  1.0
  C  C122  1  0.07542000  0.94957000  0.94804000  1.0
  C  C123  1  0.42456000  0.44957000  0.05195000  1.0
  C  C124  1  0.36776000  0.37182000  0.48090000  1.0
  C  C125  1  0.13230000  0.87182000  0.51911000  1.0
  C  C126  1  0.86772000  0.12817000  0.01910000  1.0
  C  C127  1  0.63225000  0.62817000  0.98089000  1.0
  C  C128  1  0.63230000  0.62817000  0.51910000  1.0
  C  C129  1  0.86775000  0.12818000  0.48089000  1.0
  C  C130  1  0.13229000  0.87182000  0.98090000  1.0
  C  C131  1  0.36771000  0.37182000  0.01910000  1.0
  C  C132  1  0.20283000  0.39078000  0.50086000  1.0
  C  C133  1  0.29721000  0.89079000  0.49915000  1.0
  C  C134  1  0.70280000  0.10921000  0.99914000  1.0
  C  C135  1  0.79719000  0.60921000  0.00086000  1.0
  C  C136  1  0.79720000  0.60921000  0.49914000  1.0
  C  C137  1  0.70283000  0.10922000  0.50086000  1.0
  C  C138  1  0.29719000  0.89078000  0.00086000  1.0
  C  C139  1  0.20281000  0.39079000  0.99915000  1.0
  C  C140  1  0.08671000  0.48879000  0.48889000  1.0
  C  C141  1  0.41335000  0.98881000  0.51111000  1.0
  C  C142  1  0.58669000  0.01120000  0.01111000  1.0
  C  C143  1  0.91328000  0.51121000  0.98890000  1.0
  C  C144  1  0.91334000  0.51118000  0.51111000  1.0
  C  C145  1  0.58671000  0.01122000  0.48890000  1.0
  C  C146  1  0.41332000  0.98880000  0.98889000  1.0
  C  C147  1  0.08665000  0.48880000  0.01111000  1.0
  C  C148  1  0.14344000  0.56433000  0.45491000  1.0
  C  C149  1  0.35660000  0.06434000  0.54509000  1.0
  C  C150  1  0.64342000  0.93566000  0.04509000  1.0
  C  C151  1  0.85655000  0.43566000  0.95492000  1.0
  C  C152  1  0.85662000  0.43566000  0.54509000  1.0
  C  C153  1  0.64344000  0.93568000  0.45491000  1.0
  C  C154  1  0.35658000  0.06434000  0.95492000  1.0
  C  C155  1  0.14338000  0.56433000  0.04509000  1.0
  C  C156  1  0.30854000  0.54509000  0.43494000  1.0
  C  C157  1  0.19149000  0.04511000  0.56506000  1.0
  C  C158  1  0.80852000  0.95489000  0.06506000  1.0
  C  C159  1  0.69147000  0.45490000  0.93494000  1.0
  C  C160  1  0.69150000  0.45489000  0.56506000  1.0
  C  C161  1  0.80855000  0.95491000  0.43494000  1.0
  C  C162  1  0.19147000  0.04511000  0.93494000  1.0
  C  C163  1  0.30850000  0.54510000  0.06506000  1.0
  S  S164  1  0.36313000  0.00564000  0.25000000  1.0
  S  S165  1  0.13685000  0.50565000  0.75000000  1.0
  S  S166  1  0.86312000  0.49435000  0.24999000  1.0
  S  S167  1  0.63685000  0.99435000  0.74999000  1.0
  N  N168  1  0.54593000  0.30581000  0.32163000  1.0
  N  N169  1  0.95407000  0.80579000  0.67837000  1.0
  N  N170  1  0.04593000  0.19417000  0.17837000  1.0
  N  N171  1  0.45405000  0.69422000  0.82162000  1.0
  N  N172  1  0.45408000  0.69419000  0.67837000  1.0
  N  N173  1  0.04590000  0.19421000  0.32162000  1.0
  N  N174  1  0.95408000  0.80580000  0.82163000  1.0
  N  N175  1  0.54591000  0.30580000  0.17837000  1.0
  N  N176  1  0.58524000  0.35486000  0.38833000  1.0
  N  N177  1  0.91478000  0.85486000  0.61167000  1.0
  N  N178  1  0.08522000  0.14511000  0.11167000  1.0
  N  N179  1  0.41476000  0.64515000  0.88833000  1.0
  N  N180  1  0.41478000  0.64512000  0.61167000  1.0
  N  N181  1  0.08523000  0.14515000  0.38833000  1.0
  N  N182  1  0.91477000  0.85487000  0.88834000  1.0
  N  N183  1  0.58522000  0.35487000  0.11166000  1.0
  O  O184  1  0.76449000  0.06806000  0.25001000  1.0
  O  O185  1  0.73549000  0.56806000  0.75000000  1.0
  O  O186  1  0.26447000  0.43193000  0.25000000  1.0
  O  O187  1  0.23549000  0.93194000  0.74999000  1.0
  O  O188  1  0.46105000  0.96653000  0.28867000  1.0
  O  O189  1  0.03893000  0.46653000  0.71134000  1.0
  O  O190  1  0.96109000  0.53345000  0.21133000  1.0
  O  O191  1  0.53890000  0.03347000  0.78866000  1.0
  O  O192  1  0.53896000  0.03345000  0.71132000  1.0
  O  O193  1  0.96095000  0.53347000  0.28867000  1.0
  O  O194  1  0.03894000  0.46655000  0.78868000  1.0
  O  O195  1  0.46102000  0.96654000  0.21133000  1.0
  O  O196  1  0.35137000  0.15046000  0.25000000  1.0
  O  O197  1  0.14861000  0.65046000  0.75000000  1.0
  O  O198  1  0.85137000  0.34954000  0.25000000  1.0
  O  O199  1  0.64861000  0.84953000  0.75000000  1.0
  O  O200  1  0.17188000  0.96402000  0.25001000  1.0
  O  O201  1  0.32809000  0.46402000  0.75000000  1.0
  O  O202  1  0.67187000  0.53598000  0.24997000  1.0
  O  O203  1  0.82810000  0.03599000  0.75000000  1.0
