# generated using pymatgen
data_CdH32C48N3O4
_symmetry_space_group_name_H-M   'P 1'
_cell_length_a   8.81437000
_cell_length_b   19.67060000
_cell_length_c   26.02860000
_cell_angle_alpha   89.99990000
_cell_angle_beta   83.21000000
_cell_angle_gamma   89.99990000
_symmetry_Int_Tables_number   1
_chemical_formula_structural   CdH32C48N3O4
_chemical_formula_sum   'Cd4 H128 C192 N12 O16'
_cell_volume   4481.28833425
_cell_formula_units_Z   4
loop_
 _symmetry_equiv_pos_site_id
 _symmetry_equiv_pos_as_xyz
  1  'x, y, z'
loop_
 _atom_site_type_symbol
 _atom_site_label
 _atom_site_symmetry_multiplicity
 _atom_site_fract_x
 _atom_site_fract_y
 _atom_site_fract_z
 _atom_site_occupancy
  Cd  Cd0  1  0.27473000  0.88049000  0.52107000  1.0
  Cd  Cd1  1  0.72527000  0.38049000  0.97894000  1.0
  Cd  Cd2  1  0.72527000  0.11951000  0.47894000  1.0
  Cd  Cd3  1  0.27474000  0.61951000  0.02106000  1.0
  H  H4  1  0.38610000  0.02151000  0.46638000  1.0
  H  H5  1  0.61389000  0.52151000  0.03362000  1.0
  H  H6  1  0.61389000  0.97848000  0.53362000  1.0
  H  H7  1  0.38610000  0.47849000  0.96638000  1.0
  H  H8  1  0.47223000  0.06925000  0.38106000  1.0
  H  H9  1  0.52776000  0.56925000  0.11894000  1.0
  H  H10  1  0.52775000  0.93076000  0.61894000  1.0
  H  H11  1  0.47224000  0.43075000  0.88106000  1.0
  H  H12  1  0.39987000  0.87084000  0.31540000  1.0
  H  H13  1  0.60013000  0.37085000  0.18460000  1.0
  H  H14  1  0.60014000  0.12916000  0.68460000  1.0
  H  H15  1  0.39988000  0.62915000  0.81540000  1.0
  H  H16  1  0.32118000  0.83043000  0.40476000  1.0
  H  H17  1  0.67881000  0.33043000  0.09525000  1.0
  H  H18  1  0.67881000  0.16957000  0.59524000  1.0
  H  H19  1  0.32119000  0.66957000  0.90475000  1.0
  H  H20  1  0.40942000  0.10337000  0.30565000  1.0
  H  H21  1  0.59058000  0.60337000  0.19435000  1.0
  H  H22  1  0.59058000  0.89663000  0.69435000  1.0
  H  H23  1  0.40943000  0.39663000  0.80565000  1.0
  H  H24  1  0.47205000  0.14696000  0.21692000  1.0
  H  H25  1  0.52795000  0.64696000  0.28308000  1.0
  H  H26  1  0.52796000  0.85304000  0.78308000  1.0
  H  H27  1  0.47206000  0.35304000  0.71692000  1.0
  H  H28  1  0.64133000  0.94936000  0.16653000  1.0
  H  H29  1  0.35866000  0.44936000  0.33347000  1.0
  H  H30  1  0.35866000  0.05064000  0.83347000  1.0
  H  H31  1  0.64134000  0.55064000  0.66653000  1.0
  H  H32  1  0.58119000  0.90616000  0.25526000  1.0
  H  H33  1  0.41880000  0.40616000  0.24474000  1.0
  H  H34  1  0.41880000  0.09384000  0.74474000  1.0
  H  H35  1  0.58120000  0.59384000  0.75526000  1.0
  H  H36  1  0.28373000  0.05398000  0.14599000  1.0
  H  H37  1  0.71627000  0.55398000  0.35401000  1.0
  H  H38  1  0.71627000  0.94602000  0.85401000  1.0
  H  H39  1  0.28373000  0.44602000  0.64599000  1.0
  H  H40  1  0.08699000  0.12751000  0.11416000  1.0
  H  H41  1  0.91301000  0.62751000  0.38584000  1.0
  H  H42  1  0.91302000  0.87249000  0.88584000  1.0
  H  H43  1  0.08699000  0.37249000  0.61416000  1.0
  H  H44  1  0.43734000  0.26958000  0.05458000  1.0
  H  H45  1  0.56267000  0.76959000  0.44542000  1.0
  H  H46  1  0.56267000  0.73042000  0.94542000  1.0
  H  H47  1  0.43733000  0.23042000  0.55458000  1.0
  H  H48  1  0.63313000  0.19605000  0.08685000  1.0
  H  H49  1  0.36687000  0.69605000  0.41315000  1.0
  H  H50  1  0.36688000  0.80395000  0.91315000  1.0
  H  H51  1  0.63312000  0.30395000  0.58685000  1.0
  H  H52  1  0.99251000  0.15783000  0.04229000  1.0
  H  H53  1  0.00750000  0.65783000  0.45771000  1.0
  H  H54  1  0.00750000  0.84217000  0.95771000  1.0
  H  H55  1  0.99251000  0.34217000  0.54229000  1.0
  H  H56  1  0.79987000  0.23016000  0.00497000  1.0
  H  H57  1  0.20013000  0.73016000  0.49503000  1.0
  H  H58  1  0.20013000  0.76984000  0.99503000  1.0
  H  H59  1  0.79987000  0.26984000  0.50497000  1.0
  H  H60  1  0.03711000  0.40673000  0.03086000  1.0
  H  H61  1  0.96289000  0.90673000  0.46914000  1.0
  H  H62  1  0.96289000  0.59327000  0.96914000  1.0
  H  H63  1  0.03711000  0.09327000  0.53086000  1.0
  H  H64  1  0.23862000  0.34309000  0.06803000  1.0
  H  H65  1  0.76138000  0.84309000  0.43197000  1.0
  H  H66  1  0.76138000  0.65691000  0.93197000  1.0
  H  H67  1  0.23862000  0.15691000  0.56803000  1.0
  H  H68  1  0.56821000  0.06687000  0.03301000  1.0
  H  H69  1  0.43177000  0.56687000  0.46699000  1.0
  H  H70  1  0.43179000  0.93313000  0.96699000  1.0
  H  H71  1  0.56821000  0.43313000  0.53301000  1.0
  H  H72  1  0.77111000  0.03158000  0.96705000  1.0
  H  H73  1  0.22887000  0.53159000  0.53295000  1.0
  H  H74  1  0.22889000  0.96842000  0.03295000  1.0
  H  H75  1  0.77110000  0.46842000  0.46705000  1.0
  H  H76  1  0.06540000  0.99499000  0.08580000  1.0
  H  H77  1  0.93460000  0.49499000  0.41419000  1.0
  H  H78  1  0.93461000  0.00501000  0.91420000  1.0
  H  H79  1  0.06539000  0.50501000  0.58580000  1.0
  H  H80  1  0.86476000  0.03350000  0.15127000  1.0
  H  H81  1  0.13524000  0.53350000  0.34873000  1.0
  H  H82  1  0.13525000  0.96651000  0.84873000  1.0
  H  H83  1  0.86475000  0.46650000  0.65127000  1.0
  H  H84  1  0.54411000  0.66315000  0.55503000  1.0
  H  H85  1  0.45590000  0.16316000  0.94496000  1.0
  H  H86  1  0.45590000  0.33685000  0.44496000  1.0
  H  H87  1  0.54410000  0.83684000  0.05504000  1.0
  H  H88  1  0.75632000  0.60066000  0.59068000  1.0
  H  H89  1  0.24369000  0.10067000  0.90932000  1.0
  H  H90  1  0.24368000  0.39933000  0.40932000  1.0
  H  H91  1  0.75632000  0.89934000  0.09068000  1.0
  H  H92  1  0.98000000  0.79201000  0.61219000  1.0
  H  H93  1  0.02000000  0.29201000  0.88782000  1.0
  H  H94  1  0.02000000  0.20799000  0.38781000  1.0
  H  H95  1  0.98000000  0.70799000  0.11218000  1.0
  H  H96  1  0.76692000  0.85268000  0.57796000  1.0
  H  H97  1  0.23307000  0.35269000  0.92204000  1.0
  H  H98  1  0.23308000  0.14732000  0.42204000  1.0
  H  H99  1  0.76692000  0.64732000  0.07796000  1.0
  H  H100  1  0.19155000  0.68555000  0.57542000  1.0
  H  H101  1  0.80844000  0.18555000  0.92458000  1.0
  H  H102  1  0.80844000  0.31445000  0.42458000  1.0
  H  H103  1  0.19155000  0.81445000  0.07542000  1.0
  H  H104  1  0.38031000  0.62078000  0.61927000  1.0
  H  H105  1  0.61970000  0.12078000  0.88073000  1.0
  H  H106  1  0.61970000  0.37922000  0.38073000  1.0
  H  H107  1  0.38030000  0.87922000  0.11927000  1.0
  H  H108  1  0.30032000  0.55894000  0.70091000  1.0
  H  H109  1  0.69969000  0.05894000  0.79909000  1.0
  H  H110  1  0.69968000  0.44106000  0.29909000  1.0
  H  H111  1  0.30031000  0.94106000  0.20091000  1.0
  H  H112  1  0.83573000  0.62158000  0.69329000  1.0
  H  H113  1  0.16428000  0.12159000  0.80672000  1.0
  H  H114  1  0.16428000  0.37841000  0.30671000  1.0
  H  H115  1  0.83572000  0.87841000  0.19328000  1.0
  H  H116  1  0.16005000  0.46590000  0.73946000  1.0
  H  H117  1  0.83996000  0.96591000  0.76054000  1.0
  H  H118  1  0.83995000  0.53409000  0.26054000  1.0
  H  H119  1  0.16005000  0.03409000  0.23946000  1.0
  H  H120  1  0.07119000  0.41089000  0.82374000  1.0
  H  H121  1  0.92881000  0.91090000  0.67626000  1.0
  H  H122  1  0.92880000  0.58911000  0.17626000  1.0
  H  H123  1  0.07120000  0.08910000  0.32374000  1.0
  H  H124  1  0.77504000  0.57980000  0.86565000  1.0
  H  H125  1  0.22497000  0.07980000  0.63435000  1.0
  H  H126  1  0.22496000  0.42020000  0.13435000  1.0
  H  H127  1  0.77503000  0.92020000  0.36565000  1.0
  H  H128  1  0.86097000  0.63548000  0.78108000  1.0
  H  H129  1  0.13904000  0.13549000  0.71892000  1.0
  H  H130  1  0.13903000  0.36452000  0.21892000  1.0
  H  H131  1  0.86096000  0.86452000  0.28108000  1.0
  C  C132  1  0.39170000  0.98934000  0.43211000  1.0
  C  C133  1  0.60828000  0.48934000  0.06789000  1.0
  C  C134  1  0.60829000  0.01066000  0.56789000  1.0
  C  C135  1  0.39171000  0.51066000  0.93211000  1.0
  C  C136  1  0.43843000  0.01602000  0.38344000  1.0
  C  C137  1  0.56156000  0.51602000  0.11656000  1.0
  C  C138  1  0.56156000  0.98398000  0.61656000  1.0
  C  C139  1  0.43844000  0.48398000  0.88344000  1.0
  C  C140  1  0.44435000  0.97430000  0.33951000  1.0
  C  C141  1  0.55565000  0.47430000  0.16049000  1.0
  C  C142  1  0.55565000  0.02570000  0.66049000  1.0
  C  C143  1  0.44435000  0.52570000  0.83951000  1.0
  C  C144  1  0.40212000  0.90580000  0.34777000  1.0
  C  C145  1  0.59788000  0.40581000  0.15224000  1.0
  C  C146  1  0.59788000  0.09419000  0.65223000  1.0
  C  C147  1  0.40213000  0.59419000  0.84777000  1.0
  C  C148  1  0.35696000  0.88302000  0.39759000  1.0
  C  C149  1  0.64303000  0.38302000  0.10241000  1.0
  C  C150  1  0.64303000  0.11698000  0.60241000  1.0
  C  C151  1  0.35697000  0.61698000  0.89759000  1.0
  C  C152  1  0.48918000  0.00103000  0.28728000  1.0
  C  C153  1  0.51082000  0.50103000  0.21273000  1.0
  C  C154  1  0.51082000  0.99897000  0.71272000  1.0
  C  C155  1  0.48918000  0.49897000  0.78728000  1.0
  C  C156  1  0.46192000  0.06942000  0.27549000  1.0
  C  C157  1  0.53808000  0.56942000  0.22451000  1.0
  C  C158  1  0.53807000  0.93058000  0.72451000  1.0
  C  C159  1  0.46193000  0.43058000  0.77549000  1.0
  C  C160  1  0.49652000  0.09417000  0.22560000  1.0
  C  C161  1  0.50348000  0.59418000  0.27441000  1.0
  C  C162  1  0.50348000  0.90582000  0.77441000  1.0
  C  C163  1  0.49652000  0.40583000  0.72559000  1.0
  C  C164  1  0.56021000  0.05124000  0.18543000  1.0
  C  C165  1  0.43979000  0.55124000  0.31458000  1.0
  C  C166  1  0.43978000  0.94876000  0.81457000  1.0
  C  C167  1  0.56022000  0.44876000  0.68543000  1.0
  C  C168  1  0.59208000  0.98338000  0.19707000  1.0
  C  C169  1  0.40792000  0.48338000  0.30293000  1.0
  C  C170  1  0.40791000  0.01662000  0.80293000  1.0
  C  C171  1  0.59208000  0.51662000  0.69707000  1.0
  C  C172  1  0.55650000  0.95911000  0.24717000  1.0
  C  C173  1  0.44350000  0.45911000  0.25284000  1.0
  C  C174  1  0.44349000  0.04089000  0.75284000  1.0
  C  C175  1  0.55651000  0.54090000  0.74717000  1.0
  C  C176  1  0.47053000  0.12075000  0.11851000  1.0
  C  C177  1  0.52947000  0.62076000  0.38149000  1.0
  C  C178  1  0.52948000  0.87925000  0.88149000  1.0
  C  C179  1  0.47053000  0.37924000  0.61851000  1.0
  C  C180  1  0.31628000  0.10173000  0.12642000  1.0
  C  C181  1  0.68372000  0.60173000  0.37358000  1.0
  C  C182  1  0.68373000  0.89827000  0.87358000  1.0
  C  C183  1  0.31628000  0.39827000  0.62642000  1.0
  C  C184  1  0.20651000  0.14294000  0.10823000  1.0
  C  C185  1  0.79349000  0.64294000  0.39177000  1.0
  C  C186  1  0.79350000  0.85705000  0.89176000  1.0
  C  C187  1  0.20651000  0.35705000  0.60823000  1.0
  C  C188  1  0.24783000  0.20375000  0.08184000  1.0
  C  C189  1  0.75218000  0.70376000  0.41816000  1.0
  C  C190  1  0.75218000  0.79624000  0.91816000  1.0
  C  C191  1  0.24782000  0.29624000  0.58184000  1.0
  C  C192  1  0.40222000  0.22318000  0.07544000  1.0
  C  C193  1  0.59778000  0.72318000  0.42456000  1.0
  C  C194  1  0.59778000  0.77682000  0.92455000  1.0
  C  C195  1  0.40222000  0.27682000  0.57545000  1.0
  C  C196  1  0.51272000  0.18202000  0.09337000  1.0
  C  C197  1  0.48728000  0.68202000  0.40663000  1.0
  C  C198  1  0.48729000  0.81798000  0.90662000  1.0
  C  C199  1  0.51272000  0.31798000  0.59338000  1.0
  C  C200  1  0.13182000  0.24444000  0.05977000  1.0
  C  C201  1  0.86818000  0.74444000  0.44024000  1.0
  C  C202  1  0.86819000  0.75556000  0.94023000  1.0
  C  C203  1  0.13182000  0.25556000  0.55976000  1.0
  C  C204  1  0.00553000  0.21294000  0.04147000  1.0
  C  C205  1  0.99448000  0.71294000  0.45854000  1.0
  C  C206  1  0.99448000  0.78705000  0.95854000  1.0
  C  C207  1  0.00552000  0.28705000  0.54146000  1.0
  C  C208  1  0.89858000  0.25244000  0.02026000  1.0
  C  C209  1  0.10142000  0.75244000  0.47974000  1.0
  C  C210  1  0.10142000  0.74755000  0.97974000  1.0
  C  C211  1  0.89858000  0.24756000  0.52026000  1.0
  C  C212  1  0.03029000  0.35143000  0.03397000  1.0
  C  C213  1  0.96970000  0.85142000  0.46603000  1.0
  C  C214  1  0.96971000  0.64857000  0.96603000  1.0
  C  C215  1  0.03029000  0.14857000  0.53397000  1.0
  C  C216  1  0.14318000  0.31539000  0.05512000  1.0
  C  C217  1  0.85683000  0.81539000  0.44488000  1.0
  C  C218  1  0.85682000  0.68461000  0.94488000  1.0
  C  C219  1  0.14317000  0.18461000  0.55512000  1.0
  C  C220  1  0.70102000  0.05377000  0.09725000  1.0
  C  C221  1  0.29898000  0.55377000  0.40275000  1.0
  C  C222  1  0.29898000  0.94623000  0.90275000  1.0
  C  C223  1  0.70102000  0.44623000  0.59726000  1.0
  C  C224  1  0.67812000  0.05178000  0.04464000  1.0
  C  C225  1  0.32187000  0.55179000  0.45537000  1.0
  C  C226  1  0.32189000  0.94822000  0.95537000  1.0
  C  C227  1  0.67811000  0.44822000  0.54464000  1.0
  C  C228  1  0.79446000  0.03144000  0.00722000  1.0
  C  C229  1  0.20553000  0.53144000  0.49278000  1.0
  C  C230  1  0.20554000  0.96856000  0.99278000  1.0
  C  C231  1  0.79445000  0.46856000  0.50722000  1.0
  C  C232  1  0.93846000  0.01077000  0.02002000  1.0
  C  C233  1  0.06153000  0.51077000  0.47998000  1.0
  C  C234  1  0.06155000  0.98922000  0.97998000  1.0
  C  C235  1  0.93844000  0.48922000  0.52002000  1.0
  C  C236  1  0.95805000  0.01153000  0.07303000  1.0
  C  C237  1  0.04194000  0.51153000  0.42697000  1.0
  C  C238  1  0.04194000  0.98847000  0.92697000  1.0
  C  C239  1  0.95805000  0.48847000  0.57303000  1.0
  C  C240  1  0.84362000  0.03310000  0.11085000  1.0
  C  C241  1  0.15638000  0.53310000  0.38915000  1.0
  C  C242  1  0.15639000  0.96690000  0.88915000  1.0
  C  C243  1  0.84361000  0.46690000  0.61084000  1.0
  C  C244  1  0.50895000  0.79857000  0.54707000  1.0
  C  C245  1  0.49106000  0.29857000  0.95293000  1.0
  C  C246  1  0.49106000  0.20143000  0.45293000  1.0
  C  C247  1  0.50895000  0.70143000  0.04708000  1.0
  C  C248  1  0.64006000  0.76161000  0.56581000  1.0
  C  C249  1  0.35995000  0.26161000  0.93419000  1.0
  C  C250  1  0.35995000  0.23839000  0.43419000  1.0
  C  C251  1  0.64006000  0.73839000  0.06581000  1.0
  C  C252  1  0.63911000  0.69048000  0.56872000  1.0
  C  C253  1  0.36089000  0.19049000  0.93128000  1.0
  C  C254  1  0.36089000  0.30952000  0.43127000  1.0
  C  C255  1  0.63911000  0.80952000  0.06872000  1.0
  C  C256  1  0.75700000  0.65608000  0.58877000  1.0
  C  C257  1  0.24300000  0.15609000  0.91123000  1.0
  C  C258  1  0.24300000  0.34392000  0.41123000  1.0
  C  C259  1  0.75700000  0.84392000  0.08877000  1.0
  C  C260  1  0.87986000  0.69210000  0.60553000  1.0
  C  C261  1  0.12015000  0.19210000  0.89447000  1.0
  C  C262  1  0.12014000  0.30790000  0.39447000  1.0
  C  C263  1  0.87986000  0.80790000  0.10553000  1.0
  C  C264  1  0.88433000  0.76313000  0.60034000  1.0
  C  C265  1  0.11568000  0.26314000  0.89966000  1.0
  C  C266  1  0.11568000  0.23686000  0.39966000  1.0
  C  C267  1  0.88433000  0.73687000  0.10034000  1.0
  C  C268  1  0.76479000  0.79743000  0.58111000  1.0
  C  C269  1  0.23521000  0.29743000  0.91889000  1.0
  C  C270  1  0.23521000  0.20257000  0.41889000  1.0
  C  C271  1  0.76479000  0.70257000  0.08111000  1.0
  C  C272  1  0.99894000  0.65592000  0.63066000  1.0
  C  C273  1  0.00106000  0.15592000  0.86934000  1.0
  C  C274  1  0.00106000  0.34408000  0.36934000  1.0
  C  C275  1  0.99894000  0.84408000  0.13066000  1.0
  C  C276  1  0.15368000  0.65660000  0.61031000  1.0
  C  C277  1  0.84632000  0.15660000  0.88969000  1.0
  C  C278  1  0.84632000  0.34340000  0.38969000  1.0
  C  C279  1  0.15368000  0.84340000  0.11031000  1.0
  C  C280  1  0.26010000  0.62030000  0.63517000  1.0
  C  C281  1  0.73990000  0.12029000  0.86483000  1.0
  C  C282  1  0.73989000  0.37970000  0.36483000  1.0
  C  C283  1  0.26010000  0.87970000  0.13517000  1.0
  C  C284  1  0.21528000  0.58510000  0.68097000  1.0
  C  C285  1  0.78473000  0.08510000  0.81903000  1.0
  C  C286  1  0.78472000  0.41490000  0.31903000  1.0
  C  C287  1  0.21527000  0.91490000  0.18097000  1.0
  C  C288  1  0.06209000  0.58643000  0.70325000  1.0
  C  C289  1  0.93792000  0.08643000  0.79675000  1.0
  C  C290  1  0.93791000  0.41357000  0.29675000  1.0
  C  C291  1  0.06208000  0.91356000  0.20325000  1.0
  C  C292  1  0.95549000  0.62105000  0.67699000  1.0
  C  C293  1  0.04452000  0.12105000  0.82301000  1.0
  C  C294  1  0.04451000  0.37895000  0.32301000  1.0
  C  C295  1  0.95548000  0.87895000  0.17699000  1.0
  C  C296  1  0.01452000  0.55412000  0.75381000  1.0
  C  C297  1  0.98549000  0.05412000  0.74619000  1.0
  C  C298  1  0.98548000  0.44588000  0.24619000  1.0
  C  C299  1  0.01451000  0.94588000  0.25381000  1.0
  C  C300  1  0.07574000  0.49133000  0.76700000  1.0
  C  C301  1  0.92427000  0.99134000  0.73300000  1.0
  C  C302  1  0.92426000  0.50867000  0.23300000  1.0
  C  C303  1  0.07573000  0.00866000  0.26700000  1.0
  C  C304  1  0.02716000  0.46051000  0.81417000  1.0
  C  C305  1  0.97285000  0.96052000  0.68582000  1.0
  C  C306  1  0.97284000  0.53949000  0.18583000  1.0
  C  C307  1  0.02716000  0.03948000  0.31417000  1.0
  C  C308  1  0.91829000  0.49229000  0.84994000  1.0
  C  C309  1  0.08171000  0.99230000  0.65005000  1.0
  C  C310  1  0.08170000  0.50771000  0.15005000  1.0
  C  C311  1  0.91829000  0.00770000  0.34995000  1.0
  C  C312  1  0.85975000  0.55565000  0.83766000  1.0
  C  C313  1  0.14026000  0.05565000  0.66234000  1.0
  C  C314  1  0.14025000  0.44436000  0.16234000  1.0
  C  C315  1  0.85973000  0.94435000  0.33766000  1.0
  C  C316  1  0.90656000  0.58592000  0.79015000  1.0
  C  C317  1  0.09346000  0.08592000  0.70985000  1.0
  C  C318  1  0.09344000  0.41408000  0.20985000  1.0
  C  C319  1  0.90654000  0.91408000  0.29015000  1.0
  C  C320  1  0.85853000  0.45744000  0.89927000  1.0
  C  C321  1  0.14147000  0.95744000  0.60073000  1.0
  C  C322  1  0.14147000  0.54257000  0.10073000  1.0
  C  C323  1  0.85853000  0.04256000  0.39927000  1.0
  N  N324  1  0.58376000  0.07676000  0.13460000  1.0
  N  N325  1  0.41623000  0.57677000  0.36541000  1.0
  N  N326  1  0.41624000  0.92324000  0.86540000  1.0
  N  N327  1  0.58376000  0.42323000  0.63460000  1.0
  N  N328  1  0.35117000  0.92376000  0.43941000  1.0
  N  N329  1  0.64882000  0.42376000  0.06059000  1.0
  N  N330  1  0.64883000  0.07623000  0.56059000  1.0
  N  N331  1  0.35117000  0.57624000  0.93941000  1.0
  N  N332  1  0.90960000  0.32060000  0.01682000  1.0
  N  N333  1  0.09040000  0.82060000  0.48319000  1.0
  N  N334  1  0.09040000  0.67939000  0.98319000  1.0
  N  N335  1  0.90960000  0.17940000  0.51681000  1.0
  O  O336  1  0.39497000  0.76544000  0.53453000  1.0
  O  O337  1  0.60503000  0.26544000  0.96547000  1.0
  O  O338  1  0.60503000  0.23457000  0.46548000  1.0
  O  O339  1  0.39497000  0.73456000  0.03453000  1.0
  O  O340  1  0.51638000  0.86374000  0.54451000  1.0
  O  O341  1  0.48363000  0.36375000  0.95549000  1.0
  O  O342  1  0.48362000  0.13626000  0.45549000  1.0
  O  O343  1  0.51638000  0.63625000  0.04452000  1.0
  O  O344  1  0.78674000  0.49134000  0.93624000  1.0
  O  O345  1  0.21325000  0.99134000  0.56376000  1.0
  O  O346  1  0.21326000  0.50866000  0.06376000  1.0
  O  O347  1  0.78675000  0.00866000  0.43624000  1.0
  O  O348  1  0.87841000  0.39296000  0.90156000  1.0
  O  O349  1  0.12159000  0.89296000  0.59844000  1.0
  O  O350  1  0.12159000  0.60705000  0.09844000  1.0
  O  O351  1  0.87841000  0.10704000  0.40156000  1.0
