# generated using pymatgen
data_SmP2H12C6NO11
_symmetry_space_group_name_H-M   'P 1'
_cell_length_a   8.90610000
_cell_length_b   12.62800000
_cell_length_c   14.51870000
_cell_angle_alpha   113.80700000
_cell_angle_beta   90.00000000
_cell_angle_gamma   90.00000000
_symmetry_Int_Tables_number   1
_chemical_formula_structural   SmP2H12C6NO11
_chemical_formula_sum   'Sm4 P8 H48 C24 N4 O44'
_cell_volume   1493.92369852
_cell_formula_units_Z   4
loop_
 _symmetry_equiv_pos_site_id
 _symmetry_equiv_pos_as_xyz
  1  'x, y, z'
loop_
 _atom_site_type_symbol
 _atom_site_label
 _atom_site_symmetry_multiplicity
 _atom_site_fract_x
 _atom_site_fract_y
 _atom_site_fract_z
 _atom_site_occupancy
  Sm  Sm0  1  0.75232000  0.91030000  0.83160000  1.0
  Sm  Sm1  1  0.25233000  0.08970000  0.66840000  1.0
  Sm  Sm2  1  0.24767000  0.08970000  0.16840000  1.0
  Sm  Sm3  1  0.74768000  0.91030000  0.33160000  1.0
  P  P4  1  0.60246000  0.17898000  0.81365000  1.0
  P  P5  1  0.10247000  0.82102000  0.68635000  1.0
  P  P6  1  0.39753000  0.82102000  0.18635000  1.0
  P  P7  1  0.89753000  0.17898000  0.31365000  1.0
  P  P8  1  0.11209000  0.38982000  0.72594000  1.0
  P  P9  1  0.61209000  0.61018000  0.77406000  1.0
  P  P10  1  0.88791000  0.61018000  0.27406000  1.0
  P  P11  1  0.38791000  0.38982000  0.22594000  1.0
  H  H12  1  0.23182000  0.41013000  0.86155000  1.0
  H  H13  1  0.73182000  0.58987000  0.63845000  1.0
  H  H14  1  0.76818000  0.58987000  0.13845000  1.0
  H  H15  1  0.26818000  0.41013000  0.36155000  1.0
  H  H16  1  0.56343000  0.87672000  0.64096000  1.0
  H  H17  1  0.06343000  0.12328000  0.85904000  1.0
  H  H18  1  0.43656000  0.12327000  0.35904000  1.0
  H  H19  1  0.93657000  0.87673000  0.14096000  1.0
  H  H20  1  0.70351000  0.79439000  0.61265000  1.0
  H  H21  1  0.20351000  0.20561000  0.88735000  1.0
  H  H22  1  0.29649000  0.20561000  0.38735000  1.0
  H  H23  1  0.79649000  0.79439000  0.11265000  1.0
  H  H24  1  0.91469000  0.22152000  0.76285000  1.0
  H  H25  1  0.41470000  0.77848000  0.73715000  1.0
  H  H26  1  0.08530000  0.77848000  0.23715000  1.0
  H  H27  1  0.58530000  0.22152000  0.26285000  1.0
  H  H28  1  0.70235000  0.18974000  0.66154000  1.0
  H  H29  1  0.20236000  0.81026000  0.83846000  1.0
  H  H30  1  0.29765000  0.81026000  0.33847000  1.0
  H  H31  1  0.79765000  0.18974000  0.16153000  1.0
  H  H32  1  0.62490000  0.32681000  0.74721000  1.0
  H  H33  1  0.12490000  0.67319000  0.75279000  1.0
  H  H34  1  0.37510000  0.67319000  0.25279000  1.0
  H  H35  1  0.87510000  0.32681000  0.24721000  1.0
  H  H36  1  0.84519000  0.44104000  0.74604000  1.0
  H  H37  1  0.34519000  0.55896000  0.75396000  1.0
  H  H38  1  0.15481000  0.55896000  0.25396000  1.0
  H  H39  1  0.65481000  0.44104000  0.24604000  1.0
  H  H40  1  0.88640000  0.30874000  0.64151000  1.0
  H  H41  1  0.38640000  0.69126000  0.85849000  1.0
  H  H42  1  0.11360000  0.69126000  0.35849000  1.0
  H  H43  1  0.61360000  0.30874000  0.14151000  1.0
  H  H44  1  0.95921000  0.39621000  0.91342000  1.0
  H  H45  1  0.45921000  0.60379000  0.58658000  1.0
  H  H46  1  0.04079000  0.60379000  0.08658000  1.0
  H  H47  1  0.54079000  0.39621000  0.41342000  1.0
  H  H48  1  0.77319000  0.44249000  0.89929000  1.0
  H  H49  1  0.27319000  0.55751000  0.60071000  1.0
  H  H50  1  0.22681000  0.55751000  0.10071000  1.0
  H  H51  1  0.72681000  0.44249000  0.39929000  1.0
  H  H52  1  0.85050000  0.22640000  0.94075000  1.0
  H  H53  1  0.35050000  0.77360000  0.55925000  1.0
  H  H54  1  0.14950000  0.77360000  0.05925000  1.0
  H  H55  1  0.64950000  0.22640000  0.44075000  1.0
  H  H56  1  0.78786000  0.36314000  0.03117000  1.0
  H  H57  1  0.28786000  0.63686000  0.46883000  1.0
  H  H58  1  0.21214000  0.63686000  0.96883000  1.0
  H  H59  1  0.71214000  0.36314000  0.53117000  1.0
  C  C60  1  0.69128000  0.25076000  0.74056000  1.0
  C  C61  1  0.19128000  0.74924000  0.75944000  1.0
  C  C62  1  0.30872000  0.74924000  0.25944000  1.0
  C  C63  1  0.80872000  0.25076000  0.24056000  1.0
  C  C64  1  0.90951000  0.36028000  0.72159000  1.0
  C  C65  1  0.40951000  0.63972000  0.77841000  1.0
  C  C66  1  0.09049000  0.63972000  0.27841000  1.0
  C  C67  1  0.59049000  0.36028000  0.22159000  1.0
  C  C68  1  0.84394000  0.36772000  0.89073000  1.0
  C  C69  1  0.34394000  0.63228000  0.60927000  1.0
  C  C70  1  0.15606000  0.63228000  0.10927000  1.0
  C  C71  1  0.65606000  0.36772000  0.39073000  1.0
  C  C72  1  0.78396000  0.30381000  0.95151000  1.0
  C  C73  1  0.28396000  0.69619000  0.54849000  1.0
  C  C74  1  0.21604000  0.69619000  0.04849000  1.0
  C  C75  1  0.71604000  0.30381000  0.45151000  1.0
  C  C76  1  0.98083000  0.94940000  0.01504000  1.0
  C  C77  1  0.48084000  0.05060000  0.48495000  1.0
  C  C78  1  0.01917000  0.05060000  0.98495000  1.0
  C  C79  1  0.51918000  0.94940000  0.51504000  1.0
  C  C80  1  0.55846000  0.03888000  0.03892000  1.0
  C  C81  1  0.05846000  0.96112000  0.46108000  1.0
  C  C82  1  0.44154000  0.96112000  0.96108000  1.0
  C  C83  1  0.94154000  0.03888000  0.53892000  1.0
  N  N84  1  0.84704000  0.29379000  0.77898000  1.0
  N  N85  1  0.34704000  0.70621000  0.72102000  1.0
  N  N86  1  0.15296000  0.70621000  0.22103000  1.0
  N  N87  1  0.65296000  0.29379000  0.27898000  1.0
  O  O88  1  0.43535000  0.17255000  0.79521000  1.0
  O  O89  1  0.93535000  0.82745000  0.70479000  1.0
  O  O90  1  0.56465000  0.82746000  0.20479000  1.0
  O  O91  1  0.06465000  0.17255000  0.29521000  1.0
  O  O92  1  0.68830000  0.06899000  0.79462000  1.0
  O  O93  1  0.18831000  0.93100000  0.70538000  1.0
  O  O94  1  0.31169000  0.93101000  0.20538000  1.0
  O  O95  1  0.81169000  0.06899000  0.29462000  1.0
  O  O96  1  0.62733000  0.27150000  0.92778000  1.0
  O  O97  1  0.12733000  0.72850000  0.57222000  1.0
  O  O98  1  0.37267000  0.72850000  0.07222000  1.0
  O  O99  1  0.87267000  0.27150000  0.42778000  1.0
  O  O100  1  0.19794000  0.27673000  0.68811000  1.0
  O  O101  1  0.69794000  0.72327000  0.81189000  1.0
  O  O102  1  0.80206000  0.72327000  0.31189000  1.0
  O  O103  1  0.30206000  0.27673000  0.18812000  1.0
  O  O104  1  0.15512000  0.45563000  0.84590000  1.0
  O  O105  1  0.65513000  0.54437000  0.65410000  1.0
  O  O106  1  0.84487000  0.54437000  0.15410000  1.0
  O  O107  1  0.34488000  0.45563000  0.34590000  1.0
  O  O108  1  0.12853000  0.47173000  0.67594000  1.0
  O  O109  1  0.62853000  0.52827000  0.82406000  1.0
  O  O110  1  0.87146000  0.52827000  0.32406000  1.0
  O  O111  1  0.37146000  0.47173000  0.17594000  1.0
  O  O112  1  0.03266000  0.95816000  0.09995000  1.0
  O  O113  1  0.53266000  0.04184000  0.40005000  1.0
  O  O114  1  0.96733000  0.04184000  0.90005000  1.0
  O  O115  1  0.46735000  0.95816000  0.59995000  1.0
  O  O116  1  0.90298000  0.86734000  0.95573000  1.0
  O  O117  1  0.40298000  0.13266000  0.54426000  1.0
  O  O118  1  0.09703000  0.13266000  0.04426000  1.0
  O  O119  1  0.59703000  0.86734000  0.45574000  1.0
  O  O120  1  0.51430000  0.08915000  0.12949000  1.0
  O  O121  1  0.01431000  0.91086000  0.37052000  1.0
  O  O122  1  0.48569000  0.91085000  0.87051000  1.0
  O  O123  1  0.98570000  0.08915000  0.62950000  1.0
  O  O124  1  0.68741000  0.04616000  0.00588000  1.0
  O  O125  1  0.18742000  0.95385000  0.49412000  1.0
  O  O126  1  0.31259000  0.95384000  0.99412000  1.0
  O  O127  1  0.81259000  0.04616000  0.50589000  1.0
  O  O128  1  0.62349000  0.82283000  0.66258000  1.0
  O  O129  1  0.12349000  0.17717000  0.83742000  1.0
  O  O130  1  0.37650000  0.17717000  0.33742000  1.0
  O  O131  1  0.87651000  0.82283000  0.16258000  1.0
