# generated using pymatgen
data_Ag2H4C4SO4
_symmetry_space_group_name_H-M   'P 1'
_cell_length_a   5.20902000
_cell_length_b   6.61168000
_cell_length_c   20.46330000
_cell_angle_alpha   89.99970000
_cell_angle_beta   90.00000000
_cell_angle_gamma   109.15800000
_symmetry_Int_Tables_number   1
_chemical_formula_structural   Ag2H4C4SO4
_chemical_formula_sum   'Ag8 H16 C16 S4 O16'
_cell_volume   665.73189721
_cell_formula_units_Z   4
loop_
 _symmetry_equiv_pos_site_id
 _symmetry_equiv_pos_as_xyz
  1  'x, y, z'
loop_
 _atom_site_type_symbol
 _atom_site_label
 _atom_site_symmetry_multiplicity
 _atom_site_fract_x
 _atom_site_fract_y
 _atom_site_fract_z
 _atom_site_occupancy
  Ag  Ag0  1  0.36974000  0.37405000  0.09774000  1.0
  Ag  Ag1  1  0.63027000  0.12596000  0.59774000  1.0
  Ag  Ag2  1  0.63026000  0.62594000  0.90226000  1.0
  Ag  Ag3  1  0.36975000  0.87406000  0.40226000  1.0
  Ag  Ag4  1  0.65335000  0.11106000  0.15416000  1.0
  Ag  Ag5  1  0.34666000  0.38895000  0.65416000  1.0
  Ag  Ag6  1  0.34665000  0.88894000  0.84584000  1.0
  Ag  Ag7  1  0.65334000  0.61105000  0.34585000  1.0
  H  H8  1  0.06154000  0.41924000  0.43574000  1.0
  H  H9  1  0.93845000  0.08076000  0.93574000  1.0
  H  H10  1  0.93846000  0.58076000  0.56426000  1.0
  H  H11  1  0.06155000  0.91924000  0.06425000  1.0
  H  H12  1  0.90586000  0.13723000  0.44053000  1.0
  H  H13  1  0.09414000  0.36277000  0.94053000  1.0
  H  H14  1  0.09415000  0.86277000  0.55946000  1.0
  H  H15  1  0.90586000  0.63723000  0.05947000  1.0
  H  H16  1  0.92704000  0.03183000  0.31292000  1.0
  H  H17  1  0.07297000  0.46817000  0.81292000  1.0
  H  H18  1  0.07296000  0.96818000  0.68708000  1.0
  H  H19  1  0.92703000  0.53183000  0.18708000  1.0
  H  H20  1  0.98930000  0.31245000  0.30791000  1.0
  H  H21  1  0.01070000  0.18755000  0.80790000  1.0
  H  H22  1  0.01070000  0.68756000  0.69210000  1.0
  H  H23  1  0.98930000  0.81245000  0.19210000  1.0
  C  C24  1  0.10219000  0.26747000  0.44204000  1.0
  C  C25  1  0.89781000  0.23252000  0.94203000  1.0
  C  C26  1  0.89782000  0.73253000  0.55796000  1.0
  C  C27  1  0.10219000  0.76747000  0.05796000  1.0
  C  C28  1  0.08709000  0.18878000  0.30831000  1.0
  C  C29  1  0.91292000  0.31122000  0.80831000  1.0
  C  C30  1  0.91291000  0.81122000  0.69169000  1.0
  C  C31  1  0.08708000  0.68878000  0.19169000  1.0
  C  C32  1  0.23769000  0.26683000  0.50779000  1.0
  C  C33  1  0.76231000  0.23316000  0.00778000  1.0
  C  C34  1  0.76230000  0.73316000  0.49222000  1.0
  C  C35  1  0.23769000  0.76683000  0.99222000  1.0
  C  C36  1  0.24361000  0.19456000  0.24522000  1.0
  C  C37  1  0.75639000  0.30544000  0.74522000  1.0
  C  C38  1  0.75638000  0.80544000  0.75478000  1.0
  C  C39  1  0.24362000  0.69456000  0.25478000  1.0
  S  S40  1  0.32031000  0.23191000  0.37676000  1.0
  S  S41  1  0.67969000  0.26809000  0.87675000  1.0
  S  S42  1  0.67969000  0.76810000  0.62324000  1.0
  S  S43  1  0.32031000  0.73191000  0.12325000  1.0
  O  O44  1  0.10882000  0.29411000  0.55801000  1.0
  O  O45  1  0.89117000  0.20589000  0.05801000  1.0
  O  O46  1  0.89118000  0.70590000  0.44199000  1.0
  O  O47  1  0.10883000  0.79411000  0.94199000  1.0
  O  O48  1  0.46644000  0.23764000  0.50806000  1.0
  O  O49  1  0.53356000  0.26236000  0.00805000  1.0
  O  O50  1  0.53356000  0.76234000  0.49194000  1.0
  O  O51  1  0.46645000  0.73763000  0.99194000  1.0
  O  O52  1  0.11860000  0.19551000  0.19181000  1.0
  O  O53  1  0.88141000  0.30449000  0.69181000  1.0
  O  O54  1  0.88139000  0.80449000  0.80819000  1.0
  O  O55  1  0.11860000  0.69552000  0.30819000  1.0
  O  O56  1  0.48651000  0.19466000  0.24968000  1.0
  O  O57  1  0.51350000  0.30534000  0.74968000  1.0
  O  O58  1  0.51348000  0.80533000  0.75032000  1.0
  O  O59  1  0.48650000  0.69466000  0.25032000  1.0
