# generated using pymatgen
data_CuH15C15N3O2
_symmetry_space_group_name_H-M   'P 1'
_cell_length_a   13.71040000
_cell_length_b   13.71860000
_cell_length_c   25.55110000
_cell_angle_alpha   89.99990000
_cell_angle_beta   89.99880000
_cell_angle_gamma   89.98110000
_symmetry_Int_Tables_number   1
_chemical_formula_structural   CuH15C15N3O2
_chemical_formula_sum   'Cu8 H120 C120 N24 O16'
_cell_volume   4805.84209111
_cell_formula_units_Z   8
loop_
 _symmetry_equiv_pos_site_id
 _symmetry_equiv_pos_as_xyz
  1  'x, y, z'
loop_
 _atom_site_type_symbol
 _atom_site_label
 _atom_site_symmetry_multiplicity
 _atom_site_fract_x
 _atom_site_fract_y
 _atom_site_fract_z
 _atom_site_occupancy
  Cu  Cu0  1  0.09011000  0.74629000  0.48012000  1.0
  Cu  Cu1  1  0.90985000  0.25372000  0.48013000  1.0
  Cu  Cu2  1  0.75316000  0.40969000  0.01971000  1.0
  Cu  Cu3  1  0.24687000  0.59031000  0.01970000  1.0
  Cu  Cu4  1  0.25408000  0.09047000  0.51974000  1.0
  Cu  Cu5  1  0.74589000  0.90957000  0.51975000  1.0
  Cu  Cu6  1  0.59036000  0.75311000  0.98010000  1.0
  Cu  Cu7  1  0.40971000  0.24683000  0.98012000  1.0
  H  H8  1  0.17512000  0.84097000  0.54026000  1.0
  H  H9  1  0.04339000  0.73622000  0.60856000  1.0
  H  H10  1  0.10173000  0.95219000  0.60002000  1.0
  H  H11  1  0.02393000  0.90006000  0.64806000  1.0
  H  H12  1  0.14987000  0.86615000  0.64579000  1.0
  H  H13  1  0.12898000  0.76390000  0.36674000  1.0
  H  H14  1  0.06335000  0.69758000  0.28337000  1.0
  H  H15  1  0.83737000  0.55690000  0.37442000  1.0
  H  H16  1  0.91221000  0.63227000  0.45407000  1.0
  H  H17  1  0.84172000  0.52465000  0.28272000  1.0
  H  H18  1  0.29366000  0.81870000  0.46153000  1.0
  H  H19  1  0.45656000  0.74095000  0.44664000  1.0
  H  H20  1  0.30684000  0.46325000  0.43730000  1.0
  H  H21  1  0.15238000  0.55303000  0.45027000  1.0
  H  H22  1  0.55361000  0.59912000  0.43622000  1.0
  H  H23  1  0.82484000  0.15905000  0.54027000  1.0
  H  H24  1  0.95663000  0.26376000  0.60855000  1.0
  H  H25  1  0.89821000  0.04781000  0.60004000  1.0
  H  H26  1  0.97602000  0.09993000  0.64806000  1.0
  H  H27  1  0.85009000  0.13386000  0.64580000  1.0
  H  H28  1  0.87098000  0.23612000  0.36675000  1.0
  H  H29  1  0.93662000  0.30245000  0.28338000  1.0
  H  H30  1  0.16260000  0.44310000  0.37443000  1.0
  H  H31  1  0.08775000  0.36772000  0.45407000  1.0
  H  H32  1  0.15827000  0.47534000  0.28272000  1.0
  H  H33  1  0.70632000  0.18129000  0.46155000  1.0
  H  H34  1  0.54342000  0.25904000  0.44663000  1.0
  H  H35  1  0.69313000  0.53674000  0.43728000  1.0
  H  H36  1  0.84759000  0.44696000  0.45027000  1.0
  H  H37  1  0.44637000  0.40087000  0.43622000  1.0
  H  H38  1  0.66085000  0.32397000  0.95876000  1.0
  H  H39  1  0.76352000  0.45880000  0.89154000  1.0
  H  H40  1  0.54813000  0.39796000  0.89992000  1.0
  H  H41  1  0.59958000  0.47632000  0.85195000  1.0
  H  H42  1  0.63472000  0.35078000  0.85413000  1.0
  H  H43  1  0.74010000  0.36925000  0.13255000  1.0
  H  H44  1  0.80283000  0.43676000  0.21624000  1.0
  H  H45  1  0.94202000  0.66433000  0.12571000  1.0
  H  H46  1  0.87044000  0.58738000  0.04568000  1.0
  H  H47  1  0.97536000  0.65851000  0.21731000  1.0
  H  H48  1  0.67987000  0.20446000  0.03849000  1.0
  H  H49  1  0.75843000  0.04199000  0.05347000  1.0
  H  H50  1  0.03557000  0.19300000  0.06268000  1.0
  H  H51  1  0.94492000  0.34689000  0.04962000  1.0
  H  H52  1  0.90117000  0.94571000  0.06386000  1.0
  H  H53  1  0.33921000  0.67599000  0.95874000  1.0
  H  H54  1  0.23663000  0.54104000  0.89154000  1.0
  H  H55  1  0.45199000  0.60199000  0.89989000  1.0
  H  H56  1  0.40054000  0.52361000  0.85194000  1.0
  H  H57  1  0.36536000  0.64913000  0.85412000  1.0
  H  H58  1  0.25986000  0.63071000  0.13253000  1.0
  H  H59  1  0.19717000  0.56321000  0.21623000  1.0
  H  H60  1  0.05789000  0.33567000  0.12572000  1.0
  H  H61  1  0.12945000  0.41260000  0.04567000  1.0
  H  H62  1  0.02458000  0.34150000  0.21733000  1.0
  H  H63  1  0.32010000  0.79559000  0.03851000  1.0
  H  H64  1  0.24152000  0.95805000  0.05349000  1.0
  H  H65  1  0.96439000  0.80702000  0.06269000  1.0
  H  H66  1  0.05505000  0.65314000  0.04961000  1.0
  H  H67  1  0.09877000  0.05433000  0.06387000  1.0
  H  H68  1  0.16057000  0.17576000  0.45903000  1.0
  H  H69  1  0.26386000  0.04178000  0.39150000  1.0
  H  H70  1  0.04810000  0.10115000  0.40018000  1.0
  H  H71  1  0.09988000  0.02314000  0.35214000  1.0
  H  H72  1  0.13414000  0.14888000  0.35431000  1.0
  H  H73  1  0.23869000  0.13013000  0.63300000  1.0
  H  H74  1  0.30297000  0.06323000  0.71655000  1.0
  H  H75  1  0.44242000  0.83617000  0.62575000  1.0
  H  H76  1  0.36910000  0.91236000  0.54588000  1.0
  H  H77  1  0.47502000  0.84105000  0.71742000  1.0
  H  H78  1  0.18063000  0.29483000  0.53889000  1.0
  H  H79  1  0.25865000  0.45741000  0.55404000  1.0
  H  H80  1  0.53626000  0.30708000  0.56328000  1.0
  H  H81  1  0.44615000  0.15301000  0.55005000  1.0
  H  H82  1  0.40098000  0.55403000  0.56443000  1.0
  H  H83  1  0.83940000  0.82424000  0.45904000  1.0
  H  H84  1  0.73613000  0.95826000  0.39152000  1.0
  H  H85  1  0.95187000  0.89884000  0.40019000  1.0
  H  H86  1  0.90011000  0.97686000  0.35215000  1.0
  H  H87  1  0.86584000  0.85112000  0.35431000  1.0
  H  H88  1  0.76128000  0.86989000  0.63299000  1.0
  H  H89  1  0.69703000  0.93680000  0.71655000  1.0
  H  H90  1  0.55756000  0.16386000  0.62576000  1.0
  H  H91  1  0.63085000  0.08765000  0.54588000  1.0
  H  H92  1  0.52498000  0.15897000  0.71742000  1.0
  H  H93  1  0.81934000  0.70519000  0.53888000  1.0
  H  H94  1  0.74132000  0.54261000  0.55402000  1.0
  H  H95  1  0.46370000  0.69295000  0.56327000  1.0
  H  H96  1  0.55383000  0.84702000  0.55005000  1.0
  H  H97  1  0.59899000  0.44600000  0.56443000  1.0
  H  H98  1  0.67633000  0.66118000  0.04115000  1.0
  H  H99  1  0.54096000  0.76354000  0.10825000  1.0
  H  H100  1  0.60216000  0.54833000  0.09988000  1.0
  H  H101  1  0.52368000  0.59973000  0.14784000  1.0
  H  H102  1  0.64927000  0.63488000  0.14567000  1.0
  H  H103  1  0.63087000  0.74043000  0.86739000  1.0
  H  H104  1  0.56291000  0.80266000  0.78367000  1.0
  H  H105  1  0.33522000  0.94186000  0.87421000  1.0
  H  H106  1  0.41267000  0.87086000  0.95430000  1.0
  H  H107  1  0.34105000  0.97509000  0.78258000  1.0
  H  H108  1  0.79581000  0.67996000  0.96116000  1.0
  H  H109  1  0.95830000  0.75857000  0.94615000  1.0
  H  H110  1  0.80690000  0.03550000  0.93703000  1.0
  H  H111  1  0.65302000  0.94481000  0.95012000  1.0
  H  H112  1  0.05446000  0.90132000  0.93582000  1.0
  H  H113  1  0.32372000  0.33871000  0.04120000  1.0
  H  H114  1  0.45923000  0.23645000  0.10825000  1.0
  H  H115  1  0.39790000  0.45162000  0.09989000  1.0
  H  H116  1  0.47641000  0.40026000  0.14785000  1.0
  H  H117  1  0.35084000  0.36505000  0.14569000  1.0
  H  H118  1  0.36912000  0.25951000  0.86741000  1.0
  H  H119  1  0.43710000  0.19734000  0.78368000  1.0
  H  H120  1  0.66487000  0.05822000  0.87420000  1.0
  H  H121  1  0.58739000  0.12917000  0.95430000  1.0
  H  H122  1  0.65901000  0.02497000  0.78258000  1.0
  H  H123  1  0.20420000  0.32007000  0.96117000  1.0
  H  H124  1  0.04170000  0.24150000  0.94616000  1.0
  H  H125  1  0.19304000  0.96454000  0.93702000  1.0
  H  H126  1  0.34693000  0.05519000  0.95012000  1.0
  H  H127  1  0.94550000  0.09875000  0.93581000  1.0
  C  C128  1  0.96598000  0.82109000  0.55474000  1.0
  C  C129  1  0.06091000  0.80170000  0.58479000  1.0
  C  C130  1  0.08589000  0.88516000  0.62197000  1.0
  C  C131  1  0.06510000  0.71669000  0.36626000  1.0
  C  C132  1  0.02725000  0.67988000  0.32016000  1.0
  C  C133  1  0.94335000  0.62009000  0.32126000  1.0
  C  C134  1  0.90255000  0.60194000  0.37096000  1.0
  C  C135  1  0.94401000  0.64269000  0.41533000  1.0
  C  C136  1  0.89902000  0.57824000  0.27513000  1.0
  C  C137  1  0.30093000  0.74039000  0.45549000  1.0
  C  C138  1  0.39064000  0.69645000  0.44743000  1.0
  C  C139  1  0.39748000  0.59445000  0.44056000  1.0
  C  C140  1  0.30853000  0.54219000  0.44191000  1.0
  C  C141  1  0.22195000  0.59165000  0.44947000  1.0
  C  C142  1  0.49171000  0.54894000  0.43574000  1.0
  C  C143  1  0.03396000  0.17882000  0.55472000  1.0
  C  C144  1  0.93906000  0.19828000  0.58479000  1.0
  C  C145  1  0.91407000  0.11484000  0.62198000  1.0
  C  C146  1  0.93486000  0.28332000  0.36627000  1.0
  C  C147  1  0.97271000  0.32013000  0.32017000  1.0
  C  C148  1  0.05662000  0.37992000  0.32127000  1.0
  C  C149  1  0.09742000  0.39806000  0.37097000  1.0
  C  C150  1  0.05596000  0.35731000  0.41534000  1.0
  C  C151  1  0.10095000  0.42176000  0.27514000  1.0
  C  C152  1  0.69905000  0.25960000  0.45550000  1.0
  C  C153  1  0.60934000  0.30353000  0.44743000  1.0
  C  C154  1  0.60250000  0.40553000  0.44054000  1.0
  C  C155  1  0.69144000  0.45780000  0.44189000  1.0
  C  C156  1  0.77803000  0.40834000  0.44946000  1.0
  C  C157  1  0.50827000  0.45104000  0.43574000  1.0
  C  C158  1  0.67763000  0.53407000  0.94574000  1.0
  C  C159  1  0.69829000  0.43994000  0.91525000  1.0
  C  C160  1  0.61506000  0.41448000  0.87800000  1.0
  C  C161  1  0.78607000  0.43400000  0.13321000  1.0
  C  C162  1  0.82070000  0.47299000  0.17952000  1.0
  C  C163  1  0.87970000  0.55740000  0.17864000  1.0
  C  C164  1  0.89769000  0.59864000  0.12901000  1.0
  C  C165  1  0.85915000  0.55593000  0.08442000  1.0
  C  C166  1  0.92166000  0.60130000  0.22485000  1.0
  C  C167  1  0.75828000  0.19757000  0.04448000  1.0
  C  C168  1  0.80265000  0.10808000  0.05258000  1.0
  C  C169  1  0.90475000  0.10175000  0.05947000  1.0
  C  C170  1  0.95659000  0.19092000  0.05806000  1.0
  C  C171  1  0.90669000  0.27716000  0.05044000  1.0
  C  C172  1  0.95092000  0.00793000  0.06433000  1.0
  C  C173  1  0.32258000  0.46589000  0.94578000  1.0
  C  C174  1  0.30184000  0.55997000  0.91526000  1.0
  C  C175  1  0.38506000  0.58544000  0.87799000  1.0
  C  C176  1  0.21389000  0.56597000  0.13319000  1.0
  C  C177  1  0.17928000  0.52698000  0.17951000  1.0
  C  C178  1  0.12026000  0.44259000  0.17864000  1.0
  C  C179  1  0.10224000  0.40135000  0.12901000  1.0
  C  C180  1  0.14077000  0.44406000  0.08442000  1.0
  C  C181  1  0.07830000  0.39870000  0.22486000  1.0
  C  C182  1  0.24168000  0.80247000  0.04449000  1.0
  C  C183  1  0.19731000  0.89195000  0.05260000  1.0
  C  C184  1  0.09520000  0.89827000  0.05948000  1.0
  C  C185  1  0.04337000  0.80911000  0.05806000  1.0
  C  C186  1  0.09328000  0.72287000  0.05043000  1.0
  C  C187  1  0.04903000  0.99210000  0.06434000  1.0
  C  C188  1  0.17889000  0.96572000  0.44573000  1.0
  C  C189  1  0.19863000  0.06014000  0.41533000  1.0
  C  C190  1  0.11506000  0.08504000  0.37819000  1.0
  C  C191  1  0.28509000  0.06566000  0.63356000  1.0
  C  C192  1  0.32068000  0.02710000  0.67977000  1.0
  C  C193  1  0.37983000  0.94279000  0.67872000  1.0
  C  C194  1  0.39789000  0.90173000  0.62910000  1.0
  C  C195  1  0.35834000  0.94398000  0.58462000  1.0
  C  C196  1  0.42145000  0.89845000  0.72491000  1.0
  C  C197  1  0.25899000  0.30191000  0.54496000  1.0
  C  C198  1  0.30307000  0.39144000  0.55316000  1.0
  C  C199  1  0.40516000  0.39802000  0.56008000  1.0
  C  C200  1  0.45729000  0.30897000  0.55865000  1.0
  C  C201  1  0.40766000  0.22263000  0.55094000  1.0
  C  C202  1  0.45095000  0.49195000  0.56493000  1.0
  C  C203  1  0.82119000  0.03427000  0.44575000  1.0
  C  C204  1  0.80136000  0.93987000  0.41535000  1.0
  C  C205  1  0.88492000  0.91496000  0.37820000  1.0
  C  C206  1  0.71489000  0.93436000  0.63356000  1.0
  C  C207  1  0.67931000  0.97293000  0.67977000  1.0
  C  C208  1  0.62018000  0.05725000  0.67872000  1.0
  C  C209  1  0.60210000  0.09830000  0.62910000  1.0
  C  C210  1  0.64163000  0.05605000  0.58462000  1.0
  C  C211  1  0.57856000  0.10159000  0.72491000  1.0
  C  C212  1  0.74098000  0.69812000  0.54495000  1.0
  C  C213  1  0.69689000  0.60859000  0.55315000  1.0
  C  C214  1  0.59481000  0.60200000  0.56007000  1.0
  C  C215  1  0.54268000  0.69106000  0.55864000  1.0
  C  C216  1  0.59231000  0.77740000  0.55093000  1.0
  C  C217  1  0.54901000  0.50808000  0.56492000  1.0
  C  C218  1  0.46594000  0.67752000  0.05400000  1.0
  C  C219  1  0.56001000  0.69837000  0.08454000  1.0
  C  C220  1  0.58556000  0.61521000  0.12180000  1.0
  C  C221  1  0.56599000  0.78627000  0.86672000  1.0
  C  C222  1  0.52674000  0.82057000  0.82041000  1.0
  C  C223  1  0.44223000  0.87948000  0.82134000  1.0
  C  C224  1  0.40098000  0.89756000  0.87094000  1.0
  C  C225  1  0.44397000  0.85935000  0.91554000  1.0
  C  C226  1  0.39827000  0.92132000  0.77511000  1.0
  C  C227  1  0.80265000  0.75834000  0.95516000  1.0
  C  C228  1  0.89213000  0.80273000  0.94704000  1.0
  C  C229  1  0.89832000  0.90479000  0.94017000  1.0
  C  C230  1  0.80905000  0.95656000  0.94161000  1.0
  C  C231  1  0.72283000  0.90663000  0.94926000  1.0
  C  C232  1  0.99214000  0.95100000  0.93534000  1.0
  C  C233  1  0.53414000  0.32249000  0.05398000  1.0
  C  C234  1  0.44011000  0.30160000  0.08455000  1.0
  C  C235  1  0.41454000  0.38476000  0.12182000  1.0
  C  C236  1  0.43401000  0.21370000  0.86674000  1.0
  C  C237  1  0.47328000  0.17942000  0.82042000  1.0
  C  C238  1  0.55781000  0.12055000  0.82134000  1.0
  C  C239  1  0.59908000  0.10248000  0.87094000  1.0
  C  C240  1  0.55608000  0.14065000  0.91555000  1.0
  C  C241  1  0.60177000  0.07872000  0.77512000  1.0
  C  C242  1  0.19735000  0.24169000  0.95518000  1.0
  C  C243  1  0.10786000  0.19732000  0.94705000  1.0
  C  C244  1  0.10164000  0.09527000  0.94017000  1.0
  C  C245  1  0.19090000  0.04348000  0.94160000  1.0
  C  C246  1  0.27713000  0.09339000  0.94926000  1.0
  C  C247  1  0.00782000  0.04907000  0.93534000  1.0
  N  N248  1  0.02459000  0.69886000  0.41353000  1.0
  N  N249  1  0.21682000  0.68930000  0.45588000  1.0
  N  N250  1  0.14056000  0.77617000  0.54915000  1.0
  N  N251  1  0.97538000  0.30115000  0.41353000  1.0
  N  N252  1  0.78316000  0.31070000  0.45589000  1.0
  N  N253  1  0.85941000  0.22385000  0.54917000  1.0
  N  N254  1  0.80551000  0.47366000  0.08591000  1.0
  N  N255  1  0.80895000  0.28187000  0.04404000  1.0
  N  N256  1  0.72506000  0.35998000  0.95037000  1.0
  N  N257  1  0.19441000  0.52632000  0.08589000  1.0
  N  N258  1  0.19102000  0.71816000  0.04403000  1.0
  N  N259  1  0.27501000  0.63995000  0.95035000  1.0
  N  N260  1  0.30365000  0.02553000  0.58629000  1.0
  N  N261  1  0.30995000  0.21771000  0.54446000  1.0
  N  N262  1  0.22494000  0.14015000  0.45050000  1.0
  N  N263  1  0.69632000  0.97449000  0.58628000  1.0
  N  N264  1  0.69003000  0.78232000  0.54446000  1.0
  N  N265  1  0.77503000  0.85987000  0.45051000  1.0
  N  N266  1  0.52650000  0.80605000  0.91403000  1.0
  N  N267  1  0.71826000  0.80894000  0.95565000  1.0
  N  N268  1  0.64004000  0.72527000  0.04946000  1.0
  N  N269  1  0.47352000  0.19391000  0.91405000  1.0
  N  N270  1  0.28173000  0.19107000  0.95567000  1.0
  N  N271  1  0.36008000  0.27465000  0.04949000  1.0
  O  O272  1  0.96436000  0.78665000  0.50693000  1.0
  O  O273  1  0.89372000  0.86168000  0.57466000  1.0
  O  O274  1  0.03560000  0.21336000  0.50693000  1.0
  O  O275  1  0.10618000  0.13809000  0.57461000  1.0
  O  O276  1  0.71097000  0.53515000  0.99378000  1.0
  O  O277  1  0.63709000  0.60640000  0.92584000  1.0
  O  O278  1  0.28937000  0.46488000  0.99385000  1.0
  O  O279  1  0.36309000  0.39353000  0.92589000  1.0
  O  O280  1  0.21296000  0.96446000  0.49358000  1.0
  O  O281  1  0.13830000  0.89332000  0.42592000  1.0
  O  O282  1  0.78702000  0.03558000  0.49358000  1.0
  O  O283  1  0.86194000  0.10661000  0.42596000  1.0
  O  O284  1  0.46498000  0.71045000  0.00587000  1.0
  O  O285  1  0.39353000  0.63714000  0.07390000  1.0
  O  O286  1  0.53515000  0.28937000  0.00589000  1.0
  O  O287  1  0.60649000  0.36305000  0.07384000  1.0
