# generated using pymatgen
data_NaH11C4(N6O)3
_symmetry_space_group_name_H-M   'P 1'
_cell_length_a   6.34097000
_cell_length_b   12.38280000
_cell_length_c   18.30540000
_cell_angle_alpha   90.00010000
_cell_angle_beta   90.00030000
_cell_angle_gamma   90.00000000
_symmetry_Int_Tables_number   1
_chemical_formula_structural   NaH11C4(N6O)3
_chemical_formula_sum   'Na4 H44 C16 N72 O12'
_cell_volume   1437.32103106
_cell_formula_units_Z   4
loop_
 _symmetry_equiv_pos_site_id
 _symmetry_equiv_pos_as_xyz
  1  'x, y, z'
loop_
 _atom_site_type_symbol
 _atom_site_label
 _atom_site_symmetry_multiplicity
 _atom_site_fract_x
 _atom_site_fract_y
 _atom_site_fract_z
 _atom_site_occupancy
  Na  Na0  1  0.78828000  0.75417000  0.07038000  1.0
  Na  Na1  1  0.71172000  0.24583000  0.57038000  1.0
  Na  Na2  1  0.28828000  0.74583000  0.92962000  1.0
  Na  Na3  1  0.21172000  0.25417000  0.42962000  1.0
  H  H4  1  0.71076000  0.50851000  0.12379000  1.0
  H  H5  1  0.78924000  0.49149000  0.62379000  1.0
  H  H6  1  0.21076000  0.99149000  0.87621000  1.0
  H  H7  1  0.28925000  0.00851000  0.37621000  1.0
  H  H8  1  0.51125000  0.57551000  0.10388000  1.0
  H  H9  1  0.98874000  0.42449000  0.60388000  1.0
  H  H10  1  0.01125000  0.92449000  0.89612000  1.0
  H  H11  1  0.48875000  0.07551000  0.39612000  1.0
  H  H12  1  0.88496000  0.63842000  0.94028000  1.0
  H  H13  1  0.61504000  0.36158000  0.44028000  1.0
  H  H14  1  0.38496000  0.86158000  0.05972000  1.0
  H  H15  1  0.11504000  0.13842000  0.55972000  1.0
  H  H16  1  0.80849000  0.75426000  0.92341000  1.0
  H  H17  1  0.69151000  0.24574000  0.42341000  1.0
  H  H18  1  0.30849000  0.74574000  0.07659000  1.0
  H  H19  1  0.19151000  0.25426000  0.57659000  1.0
  H  H20  1  0.14771000  0.61060000  0.12513000  1.0
  H  H21  1  0.35229000  0.38940000  0.62513000  1.0
  H  H22  1  0.64771000  0.88940000  0.87487000  1.0
  H  H23  1  0.85229000  0.11060000  0.37487000  1.0
  H  H24  1  0.15571000  0.71147000  0.17844000  1.0
  H  H25  1  0.34429000  0.28853000  0.67844000  1.0
  H  H26  1  0.65571000  0.78853000  0.82156000  1.0
  H  H27  1  0.84429000  0.21147000  0.32156000  1.0
  H  H28  1  0.78047000  0.30328000  0.01098000  1.0
  H  H29  1  0.71953000  0.69672000  0.51098000  1.0
  H  H30  1  0.28047000  0.19672000  0.98902000  1.0
  H  H31  1  0.21953000  0.80328000  0.48902000  1.0
  H  H32  1  0.78827000  0.04162000  0.12772000  1.0
  H  H33  1  0.71173000  0.95838000  0.62772000  1.0
  H  H34  1  0.28827000  0.45838000  0.87228000  1.0
  H  H35  1  0.21173000  0.54162000  0.37228000  1.0
  H  H36  1  0.68682000  0.63851000  0.20534000  1.0
  H  H37  1  0.81319000  0.36149000  0.70533000  1.0
  H  H38  1  0.18682000  0.86149000  0.79466000  1.0
  H  H39  1  0.31318000  0.13851000  0.29467000  1.0
  H  H40  1  0.72644000  0.45569000  0.28528000  1.0
  H  H41  1  0.77356000  0.54431000  0.78528000  1.0
  H  H42  1  0.22644000  0.04431000  0.71472000  1.0
  H  H43  1  0.27356000  0.95569000  0.21472000  1.0
  H  H44  1  0.72819000  0.85108000  0.36489000  1.0
  H  H45  1  0.77181000  0.14893000  0.86489000  1.0
  H  H46  1  0.22819000  0.64892000  0.63511000  1.0
  H  H47  1  0.27182000  0.35107000  0.13511000  1.0
  C  C48  1  0.77840000  0.27256000  0.12199000  1.0
  C  C49  1  0.72160000  0.72744000  0.62199000  1.0
  C  C50  1  0.27840000  0.22744000  0.87801000  1.0
  C  C51  1  0.22160000  0.77256000  0.37801000  1.0
  C  C52  1  0.78786000  0.13817000  0.02715000  1.0
  C  C53  1  0.71214000  0.86184000  0.52715000  1.0
  C  C54  1  0.28786000  0.36183000  0.97285000  1.0
  C  C55  1  0.21214000  0.63816000  0.47285000  1.0
  C  C56  1  0.71058000  0.62475000  0.31971000  1.0
  C  C57  1  0.78942000  0.37525000  0.81971000  1.0
  C  C58  1  0.21058000  0.87525000  0.68029000  1.0
  C  C59  1  0.28942000  0.12475000  0.18029000  1.0
  C  C60  1  0.73057000  0.78891000  0.25215000  1.0
  C  C61  1  0.76943000  0.21110000  0.75215000  1.0
  C  C62  1  0.23056000  0.71109000  0.74785000  1.0
  C  C63  1  0.26943000  0.28890000  0.24785000  1.0
  N  N64  1  0.78119000  0.24281000  0.04943000  1.0
  N  N65  1  0.71881000  0.75719000  0.54943000  1.0
  N  N66  1  0.28119000  0.25719000  0.95057000  1.0
  N  N67  1  0.21882000  0.74281000  0.45057000  1.0
  N  N68  1  0.76089000  0.37487000  0.14612000  1.0
  N  N69  1  0.73911000  0.62513000  0.64612000  1.0
  N  N70  1  0.26089000  0.12513000  0.85388000  1.0
  N  N71  1  0.23911000  0.87487000  0.35388000  1.0
  N  N72  1  0.76275000  0.36467000  0.21949000  1.0
  N  N73  1  0.73725000  0.63533000  0.71949000  1.0
  N  N74  1  0.26275000  0.13533000  0.78051000  1.0
  N  N75  1  0.23725000  0.86467000  0.28051000  1.0
  N  N76  1  0.78132000  0.26222000  0.23754000  1.0
  N  N77  1  0.71868000  0.73778000  0.73754000  1.0
  N  N78  1  0.28132000  0.23778000  0.76246000  1.0
  N  N79  1  0.21868000  0.76222000  0.26246000  1.0
  N  N80  1  0.79200000  0.20121000  0.17714000  1.0
  N  N81  1  0.70801000  0.79880000  0.67714000  1.0
  N  N82  1  0.29200000  0.29879000  0.82286000  1.0
  N  N83  1  0.20801000  0.70120000  0.32286000  1.0
  N  N84  1  0.79166000  0.10393000  0.95753000  1.0
  N  N85  1  0.70834000  0.89607000  0.45753000  1.0
  N  N86  1  0.29167000  0.39607000  0.04247000  1.0
  N  N87  1  0.20834000  0.60393000  0.54247000  1.0
  N  N88  1  0.79862000  0.99468000  0.96096000  1.0
  N  N89  1  0.70137000  0.00532000  0.46096000  1.0
  N  N90  1  0.29863000  0.50532000  0.03904000  1.0
  N  N91  1  0.20138000  0.49468000  0.53904000  1.0
  N  N92  1  0.79921000  0.96081000  0.02801000  1.0
  N  N93  1  0.70079000  0.03919000  0.52801000  1.0
  N  N94  1  0.29921000  0.53919000  0.97199000  1.0
  N  N95  1  0.20079000  0.46081000  0.47199000  1.0
  N  N96  1  0.79229000  0.04972000  0.07077000  1.0
  N  N97  1  0.70771000  0.95028000  0.57077000  1.0
  N  N98  1  0.29229000  0.45028000  0.92923000  1.0
  N  N99  1  0.20771000  0.54972000  0.42923000  1.0
  N  N100  1  0.71101000  0.67940000  0.25548000  1.0
  N  N101  1  0.78899000  0.32061000  0.75548000  1.0
  N  N102  1  0.21101000  0.82060000  0.74452000  1.0
  N  N103  1  0.28899000  0.17940000  0.24452000  1.0
  N  N104  1  0.71097000  0.51646000  0.32688000  1.0
  N  N105  1  0.78902000  0.48355000  0.82688000  1.0
  N  N106  1  0.21097000  0.98354000  0.67312000  1.0
  N  N107  1  0.28903000  0.01645000  0.17312000  1.0
  N  N108  1  0.70921000  0.49337000  0.39922000  1.0
  N  N109  1  0.79079000  0.50664000  0.89922000  1.0
  N  N110  1  0.20921000  0.00663000  0.60078000  1.0
  N  N111  1  0.29079000  0.99336000  0.10078000  1.0
  N  N112  1  0.70855000  0.58537000  0.43365000  1.0
  N  N113  1  0.79145000  0.41463000  0.93365000  1.0
  N  N114  1  0.20855000  0.91463000  0.56635000  1.0
  N  N115  1  0.29145000  0.08537000  0.06635000  1.0
  N  N116  1  0.70922000  0.66923000  0.38634000  1.0
  N  N117  1  0.79078000  0.33077000  0.88634000  1.0
  N  N118  1  0.20922000  0.83077000  0.61366000  1.0
  N  N119  1  0.29078000  0.16923000  0.11366000  1.0
  N  N120  1  0.74633000  0.84355000  0.18934000  1.0
  N  N121  1  0.75367000  0.15645000  0.68934000  1.0
  N  N122  1  0.24633000  0.65645000  0.81066000  1.0
  N  N123  1  0.25367000  0.34355000  0.31066000  1.0
  N  N124  1  0.76576000  0.94861000  0.20872000  1.0
  N  N125  1  0.73424000  0.05140000  0.70872000  1.0
  N  N126  1  0.26576000  0.55140000  0.79128000  1.0
  N  N127  1  0.23424000  0.44860000  0.29128000  1.0
  N  N128  1  0.76257000  0.96060000  0.27924000  1.0
  N  N129  1  0.73743000  0.03940000  0.77924000  1.0
  N  N130  1  0.26257000  0.53940000  0.72076000  1.0
  N  N131  1  0.23743000  0.46060000  0.22076000  1.0
  N  N132  1  0.74026000  0.86023000  0.30783000  1.0
  N  N133  1  0.75975000  0.13977000  0.80783000  1.0
  N  N134  1  0.24026000  0.63977000  0.69217000  1.0
  N  N135  1  0.25975000  0.36023000  0.19217000  1.0
  O  O136  1  0.65583000  0.58492000  0.12249000  1.0
  O  O137  1  0.84417000  0.41508000  0.62249000  1.0
  O  O138  1  0.15582000  0.91508000  0.87751000  1.0
  O  O139  1  0.34417000  0.08492000  0.37751000  1.0
  O  O140  1  0.91406000  0.71414000  0.95388000  1.0
  O  O141  1  0.58594000  0.28586000  0.45388000  1.0
  O  O142  1  0.41406000  0.78586000  0.04612000  1.0
  O  O143  1  0.08594000  0.21414000  0.54612000  1.0
  O  O144  1  0.11756000  0.68798000  0.12737000  1.0
  O  O145  1  0.38244000  0.31202000  0.62737000  1.0
  O  O146  1  0.61756000  0.81202000  0.87263000  1.0
  O  O147  1  0.88244000  0.18798000  0.37263000  1.0
