# generated using pymatgen
data_ZnH14C33(N3O7)2
_symmetry_space_group_name_H-M   'P 1'
_cell_length_a   15.90080000
_cell_length_b   16.99520000
_cell_length_c   17.65230000
_cell_angle_alpha   91.09230000
_cell_angle_beta   91.38890000
_cell_angle_gamma   90.23830000
_symmetry_Int_Tables_number   1
_chemical_formula_structural   ZnH14C33(N3O7)2
_chemical_formula_sum   'Zn2 H28 C66 N12 O28'
_cell_volume   4767.99042219
_cell_formula_units_Z   2
loop_
 _symmetry_equiv_pos_site_id
 _symmetry_equiv_pos_as_xyz
  1  'x, y, z'
loop_
 _atom_site_type_symbol
 _atom_site_label
 _atom_site_symmetry_multiplicity
 _atom_site_fract_x
 _atom_site_fract_y
 _atom_site_fract_z
 _atom_site_occupancy
  Zn  Zn0  1  0.49921000  0.41224000  0.49688000  1.0
  Zn  Zn1  1  0.50591000  0.58707000  0.50307000  1.0
  H  H2  1  0.06203000  0.37079000  0.53860000  1.0
  H  H3  1  0.94003000  0.61455000  0.44007000  1.0
  H  H4  1  0.41953000  0.58139000  0.25273000  1.0
  H  H5  1  0.61138000  0.42875000  0.73156000  1.0
  H  H6  1  0.43886000  0.58731000  0.11300000  1.0
  H  H7  1  0.63863000  0.44545000  0.87124000  1.0
  H  H8  1  0.56736000  0.13258000  0.60444000  1.0
  H  H9  1  0.38027000  0.86257000  0.43191000  1.0
  H  H10  1  0.50618000  0.25348000  0.29648000  1.0
  H  H11  1  0.43148000  0.31842000  0.19013000  1.0
  H  H12  1  0.29509000  0.38653000  0.21172000  1.0
  H  H13  1  0.23365000  0.38826000  0.33968000  1.0
  H  H14  1  0.30788000  0.32253000  0.44636000  1.0
  H  H15  1  0.72114000  0.73741000  0.51221000  1.0
  H  H16  1  0.83210000  0.67683000  0.59402000  1.0
  H  H17  1  0.79633000  0.62470000  0.71919000  1.0
  H  H18  1  0.64930000  0.63418000  0.76443000  1.0
  H  H19  1  0.53771000  0.69304000  0.68274000  1.0
  H  H20  1  0.98430000  0.71142000  0.52539000  1.0
  H  H21  1  0.03618000  0.82223000  0.60723000  1.0
  H  H22  1  0.13933000  0.79762000  0.71263000  1.0
  H  H23  1  0.19051000  0.66145000  0.73505000  1.0
  H  H24  1  0.13872000  0.55086000  0.65400000  1.0
  H  H25  1  0.08163000  0.32265000  0.38843000  1.0
  H  H26  1  0.04833000  0.21216000  0.29928000  1.0
  H  H27  1  0.90048000  0.18880000  0.25376000  1.0
  H  H28  1  0.78626000  0.27742000  0.29853000  1.0
  H  H29  1  0.81936000  0.38808000  0.38647000  1.0
  C  C30  1  0.49734000  0.50167000  0.64454000  1.0
  C  C31  1  0.51668000  0.50924000  0.35676000  1.0
  C  C32  1  0.66084000  0.48871000  0.50491000  1.0
  C  C33  1  0.34370000  0.50020000  0.49427000  1.0
  C  C34  1  0.03542000  0.42515000  0.51672000  1.0
  C  C35  1  0.96832000  0.56170000  0.46359000  1.0
  C  C36  1  0.97800000  0.48129000  0.56099000  1.0
  C  C37  1  0.02703000  0.50634000  0.41987000  1.0
  C  C38  1  0.75138000  0.48859000  0.50249000  1.0
  C  C39  1  0.25321000  0.50271000  0.49257000  1.0
  C  C40  1  0.97556000  0.43015000  0.44481000  1.0
  C  C41  1  0.02734000  0.55706000  0.53555000  1.0
  C  C42  1  0.91552000  0.48880000  0.48983000  1.0
  C  C43  1  0.08830000  0.49764000  0.49046000  1.0
  C  C44  1  0.82727000  0.48741000  0.49570000  1.0
  C  C45  1  0.17675000  0.50171000  0.49047000  1.0
  C  C46  1  0.61148000  0.47946000  0.16124000  1.0
  C  C47  1  0.46915000  0.56567000  0.85049000  1.0
  C  C48  1  0.59701000  0.47270000  0.23865000  1.0
  C  C49  1  0.45418000  0.55526000  0.77289000  1.0
  C  C50  1  0.52887000  0.50980000  0.27231000  1.0
  C  C51  1  0.50555000  0.50647000  0.72940000  1.0
  C  C52  1  0.47237000  0.55176000  0.22645000  1.0
  C  C53  1  0.57171000  0.46676000  0.76579000  1.0
  C  C54  1  0.48353000  0.55596000  0.14905000  1.0
  C  C55  1  0.58717000  0.47638000  0.84306000  1.0
  C  C56  1  0.55354000  0.52047000  0.11462000  1.0
  C  C57  1  0.53606000  0.52589000  0.88747000  1.0
  C  C58  1  0.55819000  0.52407000  0.03515000  1.0
  C  C59  1  0.54805000  0.52897000  0.96671000  1.0
  C  C60  1  0.53623000  0.16139000  0.55699000  1.0
  C  C61  1  0.43162000  0.83516000  0.46339000  1.0
  C  C62  1  0.53309000  0.24260000  0.55363000  1.0
  C  C63  1  0.43715000  0.75407000  0.46757000  1.0
  C  C64  1  0.45593000  0.24322000  0.44083000  1.0
  C  C65  1  0.55681000  0.75679000  0.54491000  1.0
  C  C66  1  0.45714000  0.16092000  0.44034000  1.0
  C  C67  1  0.55644000  0.83882000  0.54123000  1.0
  C  C68  1  0.49730000  0.11768000  0.49775000  1.0
  C  C69  1  0.49454000  0.88041000  0.50047000  1.0
  C  C70  1  0.49650000  0.03480000  0.49775000  1.0
  C  C71  1  0.49481000  0.96324000  0.49838000  1.0
  C  C72  1  0.41182000  0.28428000  0.37828000  1.0
  C  C73  1  0.44600000  0.28205000  0.30573000  1.0
  C  C74  1  0.40410000  0.31918000  0.24616000  1.0
  C  C75  1  0.32791000  0.35747000  0.25833000  1.0
  C  C76  1  0.29313000  0.35840000  0.33028000  1.0
  C  C77  1  0.33476000  0.32169000  0.39028000  1.0
  C  C78  1  0.62230000  0.71785000  0.59201000  1.0
  C  C79  1  0.70557000  0.71475000  0.56752000  1.0
  C  C80  1  0.76763000  0.68090000  0.61330000  1.0
  C  C81  1  0.74745000  0.65144000  0.68394000  1.0
  C  C82  1  0.66489000  0.65606000  0.70882000  1.0
  C  C83  1  0.60201000  0.68903000  0.66321000  1.0
  C  C84  1  0.05692000  0.62335000  0.58448000  1.0
  C  C85  1  0.02891000  0.70021000  0.57178000  1.0
  C  C86  1  0.05827000  0.76267000  0.61777000  1.0
  C  C87  1  0.11604000  0.74887000  0.67681000  1.0
  C  C88  1  0.14456000  0.67244000  0.68973000  1.0
  C  C89  1  0.11524000  0.61008000  0.64392000  1.0
  C  C90  1  0.95271000  0.36305000  0.39386000  1.0
  C  C91  1  0.01677000  0.31255000  0.36901000  1.0
  C  C92  1  0.99802000  0.25041000  0.31873000  1.0
  C  C93  1  0.91508000  0.23742000  0.29319000  1.0
  C  C94  1  0.85115000  0.28692000  0.31811000  1.0
  C  C95  1  0.86973000  0.34967000  0.36801000  1.0
  N  N96  1  0.49574000  0.28419000  0.49863000  1.0
  N  N97  1  0.49667000  0.71417000  0.50558000  1.0
  N  N98  1  0.94661000  0.47023000  0.63710000  1.0
  N  N99  1  0.05457000  0.51723000  0.34256000  1.0
  N  N100  1  0.41214000  0.11637000  0.37911000  1.0
  N  N101  1  0.62194000  0.88499000  0.58303000  1.0
  N  N102  1  0.68645000  0.44408000  0.12766000  1.0
  N  N103  1  0.41286000  0.61528000  0.89581000  1.0
  N  N104  1  0.65724000  0.43109000  0.28932000  1.0
  N  N105  1  0.38284000  0.59674000  0.73584000  1.0
  N  N106  1  0.57712000  0.28458000  0.61822000  1.0
  N  N107  1  0.37040000  0.71061000  0.42278000  1.0
  O  O108  1  0.51629000  0.43688000  0.61312000  1.0
  O  O109  1  0.53499000  0.57355000  0.39107000  1.0
  O  O110  1  0.47552000  0.56505000  0.61259000  1.0
  O  O111  1  0.48897000  0.44636000  0.38406000  1.0
  O  O112  1  0.62426000  0.42504000  0.48331000  1.0
  O  O113  1  0.38245000  0.56227000  0.47622000  1.0
  O  O114  1  0.62633000  0.55203000  0.52760000  1.0
  O  O115  1  0.37637000  0.43475000  0.51318000  1.0
  O  O116  1  0.90613000  0.52607000  0.66389000  1.0
  O  O117  1  0.96117000  0.40685000  0.66838000  1.0
  O  O118  1  0.01815000  0.56743000  0.30393000  1.0
  O  O119  1  0.11185000  0.47324000  0.32102000  1.0
  O  O120  1  0.33490000  0.11274000  0.38334000  1.0
  O  O121  1  0.45610000  0.08471000  0.33065000  1.0
  O  O122  1  0.61041000  0.89752000  0.65100000  1.0
  O  O123  1  0.68105000  0.90883000  0.54543000  1.0
  O  O124  1  0.71293000  0.47409000  0.06948000  1.0
  O  O125  1  0.71775000  0.38644000  0.15977000  1.0
  O  O126  1  0.44644000  0.66061000  0.94321000  1.0
  O  O127  1  0.33623000  0.60679000  0.88382000  1.0
  O  O128  1  0.63966000  0.36314000  0.30621000  1.0
  O  O129  1  0.71817000  0.47042000  0.31316000  1.0
  O  O130  1  0.38669000  0.66939000  0.73554000  1.0
  O  O131  1  0.32568000  0.55505000  0.70885000  1.0
  O  O132  1  0.64471000  0.31624000  0.60511000  1.0
  O  O133  1  0.54309000  0.27915000  0.68005000  1.0
  O  O134  1  0.29899000  0.71438000  0.44795000  1.0
  O  O135  1  0.39223000  0.68019000  0.36257000  1.0
