# generated using pymatgen
data_CuH2C4N3
_symmetry_space_group_name_H-M   'P 1'
_cell_length_a   14.91370000
_cell_length_b   22.71100000
_cell_length_c   23.20570000
_cell_angle_alpha   89.78810000
_cell_angle_beta   90.44720000
_cell_angle_gamma   89.84490000
_symmetry_Int_Tables_number   1
_chemical_formula_structural   CuH2C4N3
_chemical_formula_sum   'Cu12 H24 C48 N36'
_cell_volume   7859.56498486
_cell_formula_units_Z   12
loop_
 _symmetry_equiv_pos_site_id
 _symmetry_equiv_pos_as_xyz
  1  'x, y, z'
loop_
 _atom_site_type_symbol
 _atom_site_label
 _atom_site_symmetry_multiplicity
 _atom_site_fract_x
 _atom_site_fract_y
 _atom_site_fract_z
 _atom_site_occupancy
  Cu  Cu0  1  0.38444000  0.42011000  0.33681000  1.0
  Cu  Cu1  1  0.34723000  0.39585000  0.46072000  1.0
  Cu  Cu2  1  0.40700000  0.29207000  0.36400000  1.0
  Cu  Cu3  1  0.62855000  0.08693000  0.83324000  1.0
  Cu  Cu4  1  0.65064000  0.10627000  0.96045000  1.0
  Cu  Cu5  1  0.58155000  0.20992000  0.86462000  1.0
  Cu  Cu6  1  0.88129000  0.58129000  0.16294000  1.0
  Cu  Cu7  1  0.84302000  0.60473000  0.03834000  1.0
  Cu  Cu8  1  0.90474000  0.70846000  0.13506000  1.0
  Cu  Cu9  1  0.12398000  0.91501000  0.66567000  1.0
  Cu  Cu10  1  0.14558000  0.89472000  0.53941000  1.0
  Cu  Cu11  1  0.08310000  0.79039000  0.63568000  1.0
  H  H12  1  0.25244000  0.52662000  0.31095000  1.0
  H  H13  1  0.24050000  0.52070000  0.49746000  1.0
  H  H14  1  0.50639000  0.24653000  0.24161000  1.0
  H  H15  1  0.52047000  0.43696000  0.23473000  1.0
  H  H16  1  0.37698000  0.31853000  0.57207000  1.0
  H  H17  1  0.37040000  0.18198000  0.44243000  1.0
  H  H18  1  0.76884000  0.98560000  0.81080000  1.0
  H  H19  1  0.75513000  0.97949000  0.99721000  1.0
  H  H20  1  0.47306000  0.25378000  0.74358000  1.0
  H  H21  1  0.49915000  0.06446000  0.72689000  1.0
  H  H22  1  0.61873000  0.17995000  0.07295000  1.0
  H  H23  1  0.61174000  0.31894000  0.94483000  1.0
  H  H24  1  0.74992000  0.47569000  0.18894000  1.0
  H  H25  1  0.73510000  0.48016000  0.00235000  1.0
  H  H26  1  0.00488000  0.75450000  0.25802000  1.0
  H  H27  1  0.01882000  0.56401000  0.26567000  1.0
  H  H28  1  0.87444000  0.68114000  0.92677000  1.0
  H  H29  1  0.87242000  0.81832000  0.05580000  1.0
  H  H30  1  0.26273000  0.01722000  0.68854000  1.0
  H  H31  1  0.24998000  0.02086000  0.50190000  1.0
  H  H32  1  0.97922000  0.74633000  0.75725000  1.0
  H  H33  1  0.99600000  0.93628000  0.77098000  1.0
  H  H34  1  0.11354000  0.82023000  0.42752000  1.0
  H  H35  1  0.11736000  0.68148000  0.55596000  1.0
  C  C36  1  0.25929000  0.51596000  0.35636000  1.0
  C  C37  1  0.22270000  0.54546000  0.40381000  1.0
  C  C38  1  0.25360000  0.51359000  0.45211000  1.0
  C  C39  1  0.50001000  0.29357000  0.24838000  1.0
  C  C40  1  0.53589000  0.34048000  0.21637000  1.0
  C  C41  1  0.50801000  0.39127000  0.24560000  1.0
  C  C42  1  0.37584000  0.29274000  0.53281000  1.0
  C  C43  1  0.37226000  0.23142000  0.52617000  1.0
  C  C44  1  0.37097000  0.22290000  0.46634000  1.0
  C  C45  1  0.75658000  0.99365000  0.85609000  1.0
  C  C46  1  0.78524000  0.96050000  0.90402000  1.0
  C  C47  1  0.74865000  0.98979000  0.95170000  1.0
  C  C48  1  0.48957000  0.20742000  0.74788000  1.0
  C  C49  1  0.46305000  0.15966000  0.71342000  1.0
  C  C50  1  0.50216000  0.11019000  0.74007000  1.0
  C  C51  1  0.61560000  0.20651000  0.03403000  1.0
  C  C52  1  0.61584000  0.26800000  0.02804000  1.0
  C  C53  1  0.61374000  0.27758000  0.96830000  1.0
  C  C54  1  0.75595000  0.48595000  0.14346000  1.0
  C  C55  1  0.71918000  0.45593000  0.09611000  1.0
  C  C56  1  0.74897000  0.48749000  0.04770000  1.0
  C  C57  1  0.99845000  0.70746000  0.25138000  1.0
  C  C58  1  0.03495000  0.66055000  0.28365000  1.0
  C  C59  1  0.00655000  0.60974000  0.25453000  1.0
  C  C60  1  0.87444000  0.70711000  0.96591000  1.0
  C  C61  1  0.87319000  0.76851000  0.97228000  1.0
  C  C62  1  0.87184000  0.77729000  0.03206000  1.0
  C  C63  1  0.25046000  0.00875000  0.64321000  1.0
  C  C64  1  0.27983000  0.04089000  0.59515000  1.0
  C  C65  1  0.24312000  0.01120000  0.54745000  1.0
  C  C66  1  0.99319000  0.79290000  0.75224000  1.0
  C  C67  1  0.96516000  0.84071000  0.78601000  1.0
  C  C68  1  0.00108000  0.89043000  0.75855000  1.0
  C  C69  1  0.11280000  0.79376000  0.46651000  1.0
  C  C70  1  0.11617000  0.73232000  0.47257000  1.0
  C  C71  1  0.11635000  0.72278000  0.53233000  1.0
  C  C72  1  0.83654000  0.90624000  0.89878000  1.0
  C  C73  1  0.87333000  0.81380000  0.92773000  1.0
  C  C74  1  0.91360000  0.84530000  0.83889000  1.0
  C  C75  1  0.16782000  0.59826000  0.39778000  1.0
  C  C76  1  0.08672000  0.65734000  0.33707000  1.0
  C  C77  1  0.12022000  0.68789000  0.42756000  1.0
  C  C78  1  0.33208000  0.09463000  0.60032000  1.0
  C  C79  1  0.41067000  0.15507000  0.66035000  1.0
  C  C80  1  0.37094000  0.18632000  0.57087000  1.0
  C  C81  1  0.66559000  0.40280000  0.10234000  1.0
  C  C82  1  0.58661000  0.34363000  0.16305000  1.0
  C  C83  1  0.61934000  0.31268000  0.07288000  1.0
  N  N84  1  0.30463000  0.46812000  0.43441000  1.0
  N  N85  1  0.30909000  0.47050000  0.37497000  1.0
  N  N86  1  0.45839000  0.37591000  0.29100000  1.0
  N  N87  1  0.45433000  0.31514000  0.29361000  1.0
  N  N88  1  0.37431000  0.27525000  0.43914000  1.0
  N  N89  1  0.37553000  0.31897000  0.48070000  1.0
  N  N90  1  0.70188000  0.03720000  0.93325000  1.0
  N  N91  1  0.70602000  0.03880000  0.87374000  1.0
  N  N92  1  0.54951000  0.12722000  0.78631000  1.0
  N  N93  1  0.54055000  0.18748000  0.79214000  1.0
  N  N94  1  0.61134000  0.22570000  0.94059000  1.0
  N  N95  1  0.61441000  0.18120000  0.98160000  1.0
  N  N96  1  0.79981000  0.53316000  0.06521000  1.0
  N  N97  1  0.80503000  0.53130000  0.12468000  1.0
  N  N98  1  0.95616000  0.62511000  0.20894000  1.0
  N  N99  1  0.95204000  0.68588000  0.20609000  1.0
  N  N100  1  0.87301000  0.72501000  0.05946000  1.0
  N  N101  1  0.87288000  0.68110000  0.01812000  1.0
  N  N102  1  0.19553000  0.96454000  0.56599000  1.0
  N  N103  1  0.19934000  0.96386000  0.62557000  1.0
  N  N104  1  0.04797000  0.87354000  0.71254000  1.0
  N  N105  1  0.04203000  0.81304000  0.70767000  1.0
  N  N106  1  0.11232000  0.77465000  0.55996000  1.0
  N  N107  1  0.11198000  0.81912000  0.51887000  1.0
  N  N108  1  0.83856000  0.86673000  0.94216000  1.0
  N  N109  1  0.90841000  0.79966000  0.87598000  1.0
  N  N110  1  0.87656000  0.89858000  0.84758000  1.0
  N  N111  1  0.13084000  0.60620000  0.34525000  1.0
  N  N112  1  0.08491000  0.70175000  0.37538000  1.0
  N  N113  1  0.15911000  0.63596000  0.44201000  1.0
  N  N114  1  0.37251000  0.10217000  0.65182000  1.0
  N  N115  1  0.40642000  0.20041000  0.62284000  1.0
  N  N116  1  0.33470000  0.13377000  0.55662000  1.0
  N  N117  1  0.62981000  0.39488000  0.15482000  1.0
  N  N118  1  0.58482000  0.29900000  0.12493000  1.0
  N  N119  1  0.65714000  0.36470000  0.05833000  1.0
