# generated using pymatgen
data_Zn2H10C15O8
_symmetry_space_group_name_H-M   'P 1'
_cell_length_a   6.63853000
_cell_length_b   19.61550000
_cell_length_c   28.33430000
_cell_angle_alpha   89.99920000
_cell_angle_beta   89.99960000
_cell_angle_gamma   89.99990000
_symmetry_Int_Tables_number   1
_chemical_formula_structural   Zn2H10C15O8
_chemical_formula_sum   'Zn16 H80 C120 O64'
_cell_volume   3689.63829145
_cell_formula_units_Z   8
loop_
 _symmetry_equiv_pos_site_id
 _symmetry_equiv_pos_as_xyz
  1  'x, y, z'
loop_
 _atom_site_type_symbol
 _atom_site_label
 _atom_site_symmetry_multiplicity
 _atom_site_fract_x
 _atom_site_fract_y
 _atom_site_fract_z
 _atom_site_occupancy
  Zn  Zn0  1  0.51176000  0.77890000  0.16321000  1.0
  Zn  Zn1  1  0.82926000  0.89026000  0.13438000  1.0
  Zn  Zn2  1  0.67074000  0.39027000  0.86562000  1.0
  Zn  Zn3  1  0.67075000  0.89027000  0.63438000  1.0
  Zn  Zn4  1  0.98824000  0.77891000  0.66321000  1.0
  Zn  Zn5  1  0.32925000  0.60973000  0.13438000  1.0
  Zn  Zn6  1  0.82927000  0.39028000  0.36563000  1.0
  Zn  Zn7  1  0.32923000  0.10973000  0.36562000  1.0
  Zn  Zn8  1  0.48823000  0.72110000  0.66321000  1.0
  Zn  Zn9  1  0.48823000  0.22110000  0.83679000  1.0
  Zn  Zn10  1  0.51176000  0.27891000  0.33679000  1.0
  Zn  Zn11  1  0.17072000  0.10973000  0.86562000  1.0
  Zn  Zn12  1  0.01176000  0.72109000  0.16321000  1.0
  Zn  Zn13  1  0.01175000  0.22110000  0.33678000  1.0
  Zn  Zn14  1  0.98823000  0.27890000  0.83679000  1.0
  Zn  Zn15  1  0.17074000  0.60973000  0.63438000  1.0
  H  H16  1  0.79375000  0.27955000  0.39958000  1.0
  H  H17  1  0.52277000  0.00539000  0.84553000  1.0
  H  H18  1  0.16239000  0.36199000  0.97714000  1.0
  H  H19  1  0.97721000  0.00540000  0.34552000  1.0
  H  H20  1  0.19616000  0.29286000  0.26620000  1.0
  H  H21  1  0.97720000  0.50540000  0.15448000  1.0
  H  H22  1  0.80383000  0.20714000  0.76620000  1.0
  H  H23  1  0.06988000  0.53572000  0.76323000  1.0
  H  H24  1  0.33759000  0.36200000  0.47714000  1.0
  H  H25  1  0.56985000  0.96428000  0.76324000  1.0
  H  H26  1  0.80623000  0.05998000  0.54652000  1.0
  H  H27  1  0.67399000  0.89319000  0.45388000  1.0
  H  H28  1  0.06986000  0.03573000  0.73677000  1.0
  H  H29  1  0.29374000  0.72045000  0.10041000  1.0
  H  H30  1  0.69377000  0.56000000  0.45348000  1.0
  H  H31  1  0.12899000  0.83894000  0.19063000  1.0
  H  H32  1  0.12527000  0.86756000  0.80371000  1.0
  H  H33  1  0.69616000  0.70713000  0.23380000  1.0
  H  H34  1  0.30384000  0.79286000  0.73380000  1.0
  H  H35  1  0.87474000  0.63244000  0.30371000  1.0
  H  H36  1  0.80623000  0.55998000  0.95347000  1.0
  H  H37  1  0.12527000  0.36755000  0.69630000  1.0
  H  H38  1  0.30384000  0.29286000  0.76620000  1.0
  H  H39  1  0.17401000  0.60681000  0.45388000  1.0
  H  H40  1  0.62530000  0.63244000  0.80371000  1.0
  H  H41  1  0.30622000  0.44002000  0.54653000  1.0
  H  H42  1  0.62898000  0.66105000  0.19063000  1.0
  H  H43  1  0.20625000  0.72045000  0.60041000  1.0
  H  H44  1  0.91350000  0.08682000  0.11473000  1.0
  H  H45  1  0.47722000  0.99461000  0.15448000  1.0
  H  H46  1  0.29373000  0.22045000  0.39958000  1.0
  H  H47  1  0.32602000  0.10680000  0.54611000  1.0
  H  H48  1  0.19616000  0.79286000  0.23380000  1.0
  H  H49  1  0.80384000  0.70714000  0.73380000  1.0
  H  H50  1  0.82600000  0.89319000  0.95389000  1.0
  H  H51  1  0.33763000  0.86200000  0.02286000  1.0
  H  H52  1  0.56985000  0.46427000  0.73677000  1.0
  H  H53  1  0.41349000  0.91317000  0.38526000  1.0
  H  H54  1  0.20625000  0.22045000  0.89959000  1.0
  H  H55  1  0.87472000  0.13244000  0.19629000  1.0
  H  H56  1  0.47726000  0.49462000  0.34552000  1.0
  H  H57  1  0.83761000  0.63801000  0.02286000  1.0
  H  H58  1  0.66240000  0.63801000  0.52287000  1.0
  H  H59  1  0.93012000  0.46429000  0.23677000  1.0
  H  H60  1  0.08652000  0.41318000  0.61474000  1.0
  H  H61  1  0.87099000  0.16105000  0.80937000  1.0
  H  H62  1  0.02278000  0.99461000  0.65448000  1.0
  H  H63  1  0.62528000  0.13244000  0.69629000  1.0
  H  H64  1  0.62896000  0.16105000  0.30937000  1.0
  H  H65  1  0.16239000  0.86199000  0.52286000  1.0
  H  H66  1  0.37471000  0.86756000  0.30371000  1.0
  H  H67  1  0.37101000  0.33895000  0.80937000  1.0
  H  H68  1  0.91353000  0.58683000  0.38526000  1.0
  H  H69  1  0.19376000  0.94001000  0.45347000  1.0
  H  H70  1  0.02281000  0.49461000  0.84552000  1.0
  H  H71  1  0.43015000  0.53573000  0.26323000  1.0
  H  H72  1  0.79374000  0.77955000  0.10041000  1.0
  H  H73  1  0.83759000  0.13800000  0.47714000  1.0
  H  H74  1  0.93012000  0.96428000  0.26323000  1.0
  H  H75  1  0.87101000  0.66106000  0.69063000  1.0
  H  H76  1  0.52278000  0.50539000  0.65448000  1.0
  H  H77  1  0.69616000  0.20713000  0.26620000  1.0
  H  H78  1  0.67397000  0.39319000  0.04612000  1.0
  H  H79  1  0.70625000  0.27955000  0.89959000  1.0
  H  H80  1  0.70627000  0.77955000  0.60041000  1.0
  H  H81  1  0.41350000  0.41317000  0.11474000  1.0
  H  H82  1  0.69376000  0.05998000  0.04653000  1.0
  H  H83  1  0.19375000  0.44001000  0.04653000  1.0
  H  H84  1  0.82603000  0.39320000  0.54612000  1.0
  H  H85  1  0.58655000  0.58682000  0.88526000  1.0
  H  H86  1  0.17398000  0.10681000  0.04612000  1.0
  H  H87  1  0.12900000  0.33895000  0.30937000  1.0
  H  H88  1  0.32603000  0.60680000  0.95388000  1.0
  H  H89  1  0.08649000  0.91317000  0.88526000  1.0
  H  H90  1  0.66238000  0.13800000  0.97714000  1.0
  H  H91  1  0.30623000  0.94002000  0.95347000  1.0
  H  H92  1  0.37474000  0.36755000  0.19630000  1.0
  H  H93  1  0.43013000  0.03573000  0.23676000  1.0
  H  H94  1  0.58651000  0.08683000  0.61474000  1.0
  H  H95  1  0.37101000  0.83895000  0.69063000  1.0
  C  C96  1  0.49393000  0.60199000  0.81303000  1.0
  C  C97  1  0.35034000  0.58660000  0.77832000  1.0
  C  C98  1  0.27891000  0.39046000  0.38690000  1.0
  C  C99  1  0.29352000  0.05273000  0.54152000  1.0
  C  C100  1  0.18151000  0.04708000  0.70971000  1.0
  C  C101  1  0.86919000  0.88720000  0.72926000  1.0
  C  C102  1  0.28207000  0.95879000  0.98914000  1.0
  C  C103  1  0.79352000  0.44728000  0.54153000  1.0
  C  C104  1  0.69725000  0.46247000  0.12912000  1.0
  C  C105  1  0.80024000  0.58437000  0.02774000  1.0
  C  C106  1  0.81847000  0.95293000  0.29029000  1.0
  C  C107  1  0.63079000  0.38720000  0.27074000  1.0
  C  C108  1  0.23565000  0.02773000  0.99583000  1.0
  C  C109  1  0.23233000  0.44037000  0.92653000  1.0
  C  C110  1  0.26769000  0.44037000  0.42653000  1.0
  C  C111  1  0.29353000  0.55273000  0.95847000  1.0
  C  C112  1  0.28524000  0.07397000  0.45412000  1.0
  C  C113  1  0.22134000  0.00987000  0.08089000  1.0
  C  C114  1  0.81848000  0.45293000  0.20971000  1.0
  C  C115  1  0.71792000  0.04121000  0.01086000  1.0
  C  C116  1  0.19727000  0.03753000  0.12912000  1.0
  C  C117  1  0.70649000  0.94726000  0.45847000  1.0
  C  C118  1  0.99388000  0.89801000  0.81304000  1.0
  C  C119  1  0.21793000  0.95879000  0.48914000  1.0
  C  C120  1  0.72111000  0.60954000  0.61311000  1.0
  C  C121  1  0.85030000  0.91340000  0.77832000  1.0
  C  C122  1  0.77889000  0.60954000  0.11310000  1.0
  C  C123  1  0.69725000  0.96247000  0.37088000  1.0
  C  C124  1  0.84297000  0.47633000  0.16383000  1.0
  C  C125  1  0.99391000  0.39801000  0.68697000  1.0
  C  C126  1  0.27891000  0.89046000  0.11310000  1.0
  C  C127  1  0.80022000  0.08436000  0.47225000  1.0
  C  C128  1  0.22110000  0.39046000  0.88690000  1.0
  C  C129  1  0.30024000  0.41563000  0.47226000  1.0
  C  C130  1  0.14968000  0.08660000  0.22168000  1.0
  C  C131  1  0.76767000  0.55963000  0.07347000  1.0
  C  C132  1  0.68151000  0.45292000  0.70971000  1.0
  C  C133  1  0.47099000  0.57728000  0.85877000  1.0
  C  C134  1  0.22111000  0.89046000  0.61311000  1.0
  C  C135  1  0.28525000  0.57398000  0.04587000  1.0
  C  C136  1  0.13077000  0.11280000  0.27074000  1.0
  C  C137  1  0.73566000  0.97226000  0.50417000  1.0
  C  C138  1  0.78207000  0.54121000  0.98914000  1.0
  C  C139  1  0.79350000  0.94726000  0.95848000  1.0
  C  C140  1  0.20649000  0.05273000  0.04152000  1.0
  C  C141  1  0.26434000  0.52773000  0.00417000  1.0
  C  C142  1  0.76436000  0.47228000  0.49583000  1.0
  C  C143  1  0.97093000  0.92271000  0.85878000  1.0
  C  C144  1  0.69975000  0.08437000  0.97226000  1.0
  C  C145  1  0.78526000  0.42604000  0.45413000  1.0
  C  C146  1  0.49390000  0.10199000  0.68696000  1.0
  C  C147  1  0.71794000  0.54122000  0.48914000  1.0
  C  C148  1  0.47095000  0.07728000  0.64123000  1.0
  C  C149  1  0.97096000  0.42272000  0.64123000  1.0
  C  C150  1  0.22136000  0.50987000  0.41911000  1.0
  C  C151  1  0.50609000  0.89801000  0.31303000  1.0
  C  C152  1  0.72132000  0.49013000  0.08089000  1.0
  C  C153  1  0.72108000  0.10954000  0.88690000  1.0
  C  C154  1  0.36920000  0.11280000  0.77074000  1.0
  C  C155  1  0.64969000  0.41341000  0.22169000  1.0
  C  C156  1  0.15704000  0.52367000  0.83617000  1.0
  C  C157  1  0.64967000  0.91340000  0.27831000  1.0
  C  C158  1  0.77866000  0.99013000  0.91911000  1.0
  C  C159  1  0.80272000  0.96247000  0.87088000  1.0
  C  C160  1  0.71477000  0.92602000  0.54588000  1.0
  C  C161  1  0.76766000  0.05962000  0.42653000  1.0
  C  C162  1  0.77868000  0.49014000  0.58090000  1.0
  C  C163  1  0.84297000  0.97633000  0.33617000  1.0
  C  C164  1  0.26769000  0.94037000  0.07347000  1.0
  C  C165  1  0.65702000  0.47633000  0.66383000  1.0
  C  C166  1  0.20652000  0.55274000  0.45847000  1.0
  C  C167  1  0.27868000  0.00987000  0.58089000  1.0
  C  C168  1  0.85032000  0.41340000  0.72169000  1.0
  C  C169  1  0.52906000  0.42271000  0.14123000  1.0
  C  C170  1  0.35032000  0.08660000  0.72168000  1.0
  C  C171  1  0.23567000  0.52774000  0.50417000  1.0
  C  C172  1  0.30025000  0.91563000  0.02774000  1.0
  C  C173  1  0.73234000  0.55963000  0.57347000  1.0
  C  C174  1  0.52905000  0.92271000  0.35877000  1.0
  C  C175  1  0.68149000  0.95293000  0.79030000  1.0
  C  C176  1  0.30277000  0.53753000  0.87088000  1.0
  C  C177  1  0.31851000  0.54708000  0.29029000  1.0
  C  C178  1  0.30275000  0.03753000  0.62912000  1.0
  C  C179  1  0.70648000  0.44727000  0.04153000  1.0
  C  C180  1  0.00609000  0.10199000  0.18696000  1.0
  C  C181  1  0.19729000  0.53754000  0.37088000  1.0
  C  C182  1  0.80276000  0.46247000  0.62913000  1.0
  C  C183  1  0.73231000  0.05962000  0.92653000  1.0
  C  C184  1  0.13078000  0.61280000  0.22926000  1.0
  C  C185  1  0.14968000  0.58660000  0.27832000  1.0
  C  C186  1  0.34299000  0.02367000  0.16383000  1.0
  C  C187  1  0.78207000  0.04120000  0.51086000  1.0
  C  C188  1  0.65699000  0.97633000  0.83618000  1.0
  C  C189  1  0.28208000  0.45880000  0.51086000  1.0
  C  C190  1  0.76433000  0.97227000  0.00417000  1.0
  C  C191  1  0.77888000  0.10953000  0.38689000  1.0
  C  C192  1  0.26434000  0.02772000  0.49583000  1.0
  C  C193  1  0.21792000  0.45879000  0.01086000  1.0
  C  C194  1  0.18153000  0.54707000  0.79029000  1.0
  C  C195  1  0.71475000  0.42602000  0.95413000  1.0
  C  C196  1  0.27869000  0.50986000  0.91911000  1.0
  C  C197  1  0.50611000  0.39801000  0.18697000  1.0
  C  C198  1  0.36922000  0.61280000  0.72926000  1.0
  C  C199  1  0.86922000  0.38720000  0.77074000  1.0
  C  C200  1  0.02908000  0.57729000  0.35877000  1.0
  C  C201  1  0.21473000  0.07398000  0.95412000  1.0
  C  C202  1  0.15703000  0.02368000  0.66383000  1.0
  C  C203  1  0.78524000  0.92602000  0.04588000  1.0
  C  C204  1  0.00610000  0.60199000  0.31304000  1.0
  C  C205  1  0.63079000  0.88720000  0.22926000  1.0
  C  C206  1  0.21476000  0.57399000  0.54587000  1.0
  C  C207  1  0.73565000  0.47227000  0.99583000  1.0
  C  C208  1  0.19976000  0.41562000  0.97226000  1.0
  C  C209  1  0.34302000  0.52368000  0.33617000  1.0
  C  C210  1  0.23234000  0.94037000  0.57347000  1.0
  C  C211  1  0.69977000  0.58438000  0.52775000  1.0
  C  C212  1  0.72132000  0.99013000  0.41910000  1.0
  C  C213  1  0.02905000  0.07728000  0.14122000  1.0
  C  C214  1  0.19977000  0.91563000  0.52774000  1.0
  C  C215  1  0.31849000  0.04708000  0.20970000  1.0
  O  O216  1  0.26572000  0.54363000  0.08669000  1.0
  O  O217  1  0.49405000  0.16138000  0.77865000  1.0
  O  O218  1  0.79960000  0.78581000  0.13474000  1.0
  O  O219  1  0.63556000  0.11280000  0.35640000  1.0
  O  O220  1  0.41380000  0.80008000  0.71152000  1.0
  O  O221  1  0.82268000  0.36376000  0.45847000  1.0
  O  O222  1  0.36441000  0.38719000  0.85640000  1.0
  O  O223  1  0.58620000  0.69992000  0.21152000  1.0
  O  O224  1  0.17733000  0.13625000  0.95847000  1.0
  O  O225  1  0.08621000  0.30008000  0.28848000  1.0
  O  O226  1  0.29959000  0.71418000  0.13474000  1.0
  O  O227  1  0.86440000  0.11280000  0.85640000  1.0
  O  O228  1  0.29959000  0.21418000  0.36525000  1.0
  O  O229  1  0.67733000  0.36375000  0.95847000  1.0
  O  O230  1  0.75619000  0.91491000  0.69827000  1.0
  O  O231  1  0.25620000  0.08509000  0.80173000  1.0
  O  O232  1  0.08621000  0.80008000  0.21152000  1.0
  O  O233  1  0.25621000  0.58509000  0.69827000  1.0
  O  O234  1  0.73426000  0.45637000  0.91331000  1.0
  O  O235  1  0.41380000  0.30008000  0.78848000  1.0
  O  O236  1  0.86442000  0.61281000  0.64361000  1.0
  O  O237  1  0.82264000  0.86375000  0.04154000  1.0
  O  O238  1  0.93244000  0.14800000  0.38555000  1.0
  O  O239  1  0.13560000  0.38719000  0.35640000  1.0
  O  O240  1  0.91378000  0.19992000  0.78848000  1.0
  O  O241  1  0.32267000  0.63625000  0.04153000  1.0
  O  O242  1  0.24377000  0.08509000  0.30173000  1.0
  O  O243  1  0.06756000  0.85199000  0.61445000  1.0
  O  O244  1  0.58620000  0.19992000  0.28848000  1.0
  O  O245  1  0.70040000  0.28581000  0.86526000  1.0
  O  O246  1  0.32264000  0.13625000  0.45846000  1.0
  O  O247  1  0.36442000  0.88719000  0.64360000  1.0
  O  O248  1  0.20040000  0.21419000  0.86526000  1.0
  O  O249  1  0.06755000  0.35199000  0.88556000  1.0
  O  O250  1  0.00592000  0.16139000  0.27864000  1.0
  O  O251  1  0.93244000  0.64801000  0.11444000  1.0
  O  O252  1  0.24378000  0.58508000  0.19827000  1.0
  O  O253  1  0.74380000  0.41492000  0.30173000  1.0
  O  O254  1  0.76575000  0.95637000  0.08670000  1.0
  O  O255  1  0.49407000  0.66139000  0.72135000  1.0
  O  O256  1  0.26572000  0.04362000  0.41330000  1.0
  O  O257  1  0.17735000  0.63626000  0.54153000  1.0
  O  O258  1  0.99405000  0.83862000  0.72135000  1.0
  O  O259  1  0.56756000  0.64801000  0.61445000  1.0
  O  O260  1  0.43245000  0.85199000  0.11444000  1.0
  O  O261  1  0.50593000  0.83861000  0.22135000  1.0
  O  O262  1  0.99406000  0.33861000  0.77865000  1.0
  O  O263  1  0.43246000  0.35199000  0.38556000  1.0
  O  O264  1  0.20040000  0.71419000  0.63474000  1.0
  O  O265  1  0.67736000  0.86374000  0.54153000  1.0
  O  O266  1  0.63558000  0.61280000  0.14360000  1.0
  O  O267  1  0.23424000  0.04363000  0.91331000  1.0
  O  O268  1  0.00592000  0.66138000  0.22135000  1.0
  O  O269  1  0.73427000  0.95637000  0.58669000  1.0
  O  O270  1  0.13559000  0.88719000  0.14360000  1.0
  O  O271  1  0.23426000  0.54364000  0.58669000  1.0
  O  O272  1  0.76575000  0.45638000  0.41331000  1.0
  O  O273  1  0.74380000  0.91491000  0.19827000  1.0
  O  O274  1  0.75622000  0.41491000  0.80174000  1.0
  O  O275  1  0.79960000  0.28582000  0.36525000  1.0
  O  O276  1  0.91380000  0.69992000  0.71152000  1.0
  O  O277  1  0.70041000  0.78581000  0.63474000  1.0
  O  O278  1  0.56754000  0.14801000  0.88556000  1.0
  O  O279  1  0.50593000  0.33862000  0.27865000  1.0
