# generated using pymatgen
data_Zr6H24C52S10N4O37
_symmetry_space_group_name_H-M   'P 1'
_cell_length_a   16.44300000
_cell_length_b   16.47070000
_cell_length_c   16.47571348
_cell_angle_alpha   88.46327271
_cell_angle_beta   60.23012918
_cell_angle_gamma   60.25930000
_symmetry_Int_Tables_number   1
_chemical_formula_structural   Zr6H24C52S10N4O37
_chemical_formula_sum   'Zr6 H24 C52 S10 N4 O37'
_cell_volume   3217.25275007
_cell_formula_units_Z   1
loop_
 _symmetry_equiv_pos_site_id
 _symmetry_equiv_pos_as_xyz
  1  'x, y, z'
loop_
 _atom_site_type_symbol
 _atom_site_label
 _atom_site_symmetry_multiplicity
 _atom_site_fract_x
 _atom_site_fract_y
 _atom_site_fract_z
 _atom_site_occupancy
  Zr  Zr0  1  0.51033000  0.09811000  0.59967000  1.0
  Zr  Zr1  1  0.49376000  0.89463000  0.39646000  1.0
  Zr  Zr2  1  0.29104000  0.10266000  0.60468000  1.0
  Zr  Zr3  1  0.71147000  0.89064000  0.39299000  1.0
  Zr  Zr4  1  0.50113000  0.10621000  0.38923000  1.0
  Zr  Zr5  1  0.50104000  0.88755000  0.60845000  1.0
  H  H6  1  0.34206000  0.24569000  0.57732000  1.0
  H  H7  1  0.66130000  0.91766000  0.24948000  1.0
  H  H8  1  0.32892000  0.91469000  0.58765000  1.0
  H  H9  1  0.67500000  0.90753000  0.58075000  1.0
  H  H10  1  0.51431000  0.38824000  0.36080000  1.0
  H  H11  1  0.48779000  0.87294000  0.90211000  1.0
  H  H12  1  0.01432000  0.87520000  0.11943000  1.0
  H  H13  1  0.01360000  0.60451000  0.36497000  1.0
  H  H14  1  0.30440000  0.35224000  0.82849000  1.0
  H  H15  1  0.70197000  0.66399000  0.14358000  1.0
  H  H16  1  0.76891000  0.12772000  0.60966000  1.0
  H  H17  1  0.51766000  0.54524000  0.67432000  1.0
  H  H18  1  0.49100000  0.18631000  0.06007000  1.0
  H  H19  1  0.89353000  0.18527000  0.93523000  1.0
  H  H20  1  0.89315000  0.41622000  0.67122000  1.0
  H  H21  1  0.24561000  0.82740000  0.31692000  1.0
  H  H22  1  0.84398000  0.50476000  0.92134000  1.0
  H  H23  1  0.72325000  0.57165000  0.02960000  1.0
  H  H24  1  0.05995000  0.27942000  0.83820000  1.0
  H  H25  1  0.92362000  0.37071000  0.93938000  1.0
  H  H26  1  0.16543000  0.57424000  0.98342000  1.0
  H  H27  1  0.28462000  0.46461000  0.92051000  1.0
  H  H28  1  0.94546000  0.66259000  0.21067000  1.0
  H  H29  1  0.08326000  0.56145000  0.11994000  1.0
  C  C30  1  0.51878000  0.26136000  0.48501000  1.0
  C  C31  1  0.48611000  0.01002000  0.23360000  1.0
  C  C32  1  0.50141000  0.72452000  0.50405000  1.0
  C  C33  1  0.50299000  0.99195000  0.77084000  1.0
  C  C34  1  0.24930000  0.25686000  0.76622000  1.0
  C  C35  1  0.77844000  0.99731000  0.48985000  1.0
  C  C36  1  0.75674000  0.72857000  0.23754000  1.0
  C  C37  1  0.22718000  0.00416000  0.49635000  1.0
  C  C38  1  0.23054000  0.26641000  0.49467000  1.0
  C  C39  1  0.23067000  0.00042000  0.77636000  1.0
  C  C40  1  0.77261000  0.71937000  0.49614000  1.0
  C  C41  1  0.77303000  0.00155000  0.22965000  1.0
  C  C42  1  0.51308000  0.57469000  0.56319000  1.0
  C  C43  1  0.51624000  0.40669000  0.42244000  1.0
  C  C44  1  0.50776000  0.63295000  0.50059000  1.0
  C  C45  1  0.51988000  0.35007000  0.48554000  1.0
  C  C46  1  0.51441000  0.48843000  0.45000000  1.0
  C  C47  1  0.51687000  0.49204000  0.53396000  1.0
  C  C48  1  0.48790000  0.07430000  0.08848000  1.0
  C  C49  1  0.48945000  0.93464000  0.92097000  1.0
  C  C50  1  0.48404000  0.01089000  0.14601000  1.0
  C  C51  1  0.49580000  0.99662000  0.86333000  1.0
  C  C52  1  0.48610000  0.96278000  0.00342000  1.0
  C  C53  1  0.48939000  0.04633000  0.00682000  1.0
  C  C54  1  0.02471000  0.07177000  0.91777000  1.0
  C  C55  1  0.97802000  0.93758000  0.09496000  1.0
  C  C56  1  0.14117000  0.00409000  0.86731000  1.0
  C  C57  1  0.86273000  0.00381000  0.14314000  1.0
  C  C58  1  0.03758000  0.96222000  0.01305000  1.0
  C  C59  1  0.96583000  0.04743000  0.00088000  1.0
  C  C60  1  0.02411000  0.40120000  0.55978000  1.0
  C  C61  1  0.97716000  0.57901000  0.42631000  1.0
  C  C62  1  0.14066000  0.35241000  0.49353000  1.0
  C  C63  1  0.86192000  0.62796000  0.49344000  1.0
  C  C64  1  0.03687000  0.49587000  0.44957000  1.0
  C  C65  1  0.96518000  0.48323000  0.53441000  1.0
  C  C66  1  0.05123000  0.38723000  0.90739000  1.0
  C  C67  1  0.21369000  0.38572000  0.87602000  1.0
  C  C68  1  0.14801000  0.46548000  0.95552000  1.0
  C  C69  1  0.02792000  0.51118000  0.01554000  1.0
  C  C70  1  0.95560000  0.58951000  0.10513000  1.0
  C  C71  1  0.79281000  0.61741000  0.10951000  1.0
  C  C72  1  0.85891000  0.53737000  0.03013000  1.0
  C  C73  1  0.97898000  0.47807000  0.98428000  1.0
  C  C74  1  0.16926000  0.34336000  0.85165000  1.0
  C  C75  1  0.83737000  0.64335000  0.15057000  1.0
  C  C76  1  0.15481000  0.94024000  0.42531000  1.0
  C  C77  1  0.85230000  0.06821000  0.55043000  1.0
  C  C78  1  0.14046000  0.00595000  0.49092000  1.0
  C  C79  1  0.86708000  0.00133000  0.48690000  1.0
  C  C80  1  0.95685000  0.04699000  0.52789000  1.0
  C  C81  1  0.04933000  0.96407000  0.44692000  1.0
  S  S82  1  0.50791000  0.58632000  0.40649000  1.0
  S  S83  1  0.52170000  0.39503000  0.57884000  1.0
  S  S84  1  0.48092000  0.91842000  0.10070000  1.0
  S  S85  1  0.49661000  0.09025000  0.90892000  1.0
  S  S86  1  0.17762000  0.91195000  0.92250000  1.0
  S  S87  1  0.82540000  0.09723000  0.09002000  1.0
  S  S88  1  0.17702000  0.40664000  0.40042000  1.0
  S  S89  1  0.82472000  0.57313000  0.58529000  1.0
  S  S90  1  0.99895000  0.09645000  0.57753000  1.0
  S  S91  1  0.00796000  0.91251000  0.39841000  1.0
  N  N92  1  0.80601000  0.51594000  0.99497000  1.0
  N  N93  1  0.00612000  0.34456000  0.89085000  1.0
  N  N94  1  0.20141000  0.50117000  0.97564000  1.0
  N  N95  1  0.00096000  0.61003000  0.14524000  1.0
  O  O96  1  0.52132000  0.22385000  0.55339000  1.0
  O  O97  1  0.48494000  0.94059000  0.27015000  1.0
  O  O98  1  0.49598000  0.76312000  0.43679000  1.0
  O  O99  1  0.50969000  0.05821000  0.73132000  1.0
  O  O100  1  0.21233000  0.22193000  0.73405000  1.0
  O  O101  1  0.80990000  0.92864000  0.42457000  1.0
  O  O102  1  0.79340000  0.76120000  0.27280000  1.0
  O  O103  1  0.19468000  0.07009000  0.56534000  1.0
  O  O104  1  0.33254000  0.23472000  0.42561000  1.0
  O  O105  1  0.33258000  0.92973000  0.74278000  1.0
  O  O106  1  0.67100000  0.75350000  0.56668000  1.0
  O  O107  1  0.67132000  0.07027000  0.26173000  1.0
  O  O108  1  0.19973000  0.06742000  0.73669000  1.0
  O  O109  1  0.80555000  0.75735000  0.42805000  1.0
  O  O110  1  0.80551000  0.92988000  0.26391000  1.0
  O  O111  1  0.20007000  0.23041000  0.56540000  1.0
  O  O112  1  0.35494000  0.22089000  0.72510000  1.0
  O  O113  1  0.32922000  0.93519000  0.43202000  1.0
  O  O114  1  0.65146000  0.76887000  0.27378000  1.0
  O  O115  1  0.67727000  0.06258000  0.55919000  1.0
  O  O116  1  0.50338000  0.92247000  0.73758000  1.0
  O  O117  1  0.51328000  0.23079000  0.41861000  1.0
  O  O118  1  0.49105000  0.07624000  0.26591000  1.0
  O  O119  1  0.50057000  0.75941000  0.57322000  1.0
  O  O120  1  0.62587000  0.93217000  0.55744000  1.0
  O  O121  1  0.37822000  0.93787000  0.56301000  1.0
  O  O122  1  0.61606000  0.94139000  0.32023000  1.0
  O  O123  1  0.38864000  0.17491000  0.55341000  1.0
  O  O124  1  0.41139000  0.04386000  0.45511000  1.0
  O  O125  1  0.59344000  0.04017000  0.45061000  1.0
  O  O126  1  0.58529000  0.86548000  0.45871000  1.0
  O  O127  1  0.41881000  0.03673000  0.62962000  1.0
  O  O128  1  0.51384000  0.59608000  0.64184000  1.0
  O  O129  1  0.49097000  0.15169000  0.10895000  1.0
  O  O130  1  0.97504000  0.15040000  0.88974000  1.0
  O  O131  1  0.97463000  0.37344000  0.63871000  1.0
  O  O132  1  0.25694000  0.86336000  0.35179000  1.0
