# generated using pymatgen
data_MnH10C6O5
_symmetry_space_group_name_H-M   'P 1'
_cell_length_a   4.66177000
_cell_length_b   7.99455000
_cell_length_c   10.36610000
_cell_angle_alpha   108.11500000
_cell_angle_beta   90.00000000
_cell_angle_gamma   90.00000000
_symmetry_Int_Tables_number   1
_chemical_formula_structural   MnH10C6O5
_chemical_formula_sum   'Mn2 H20 C12 O10'
_cell_volume   367.18285154
_cell_formula_units_Z   2
loop_
 _symmetry_equiv_pos_site_id
 _symmetry_equiv_pos_as_xyz
  1  'x, y, z'
loop_
 _atom_site_type_symbol
 _atom_site_label
 _atom_site_symmetry_multiplicity
 _atom_site_fract_x
 _atom_site_fract_y
 _atom_site_fract_z
 _atom_site_occupancy
  Mn  Mn0  1  0.82982000  0.20036000  0.57017000  1.0
  Mn  Mn1  1  0.32981000  0.79963000  0.42983000  1.0
  H  H2  1  0.00272000  0.22078000  0.25712000  1.0
  H  H3  1  0.50272000  0.77922000  0.74288000  1.0
  H  H4  1  0.16056000  0.02019000  0.16719000  1.0
  H  H5  1  0.66056000  0.97981000  0.83281000  1.0
  H  H6  1  0.61160000  0.19216000  0.13677000  1.0
  H  H7  1  0.11159000  0.80785000  0.86323000  1.0
  H  H8  1  0.41106000  0.38728000  0.20277000  1.0
  H  H9  1  0.91106000  0.61272000  0.79723000  1.0
  H  H10  1  0.23615000  0.08022000  0.95359000  1.0
  H  H11  1  0.73615000  0.91978000  0.04641000  1.0
  H  H12  1  0.04588000  0.27745000  0.01973000  1.0
  H  H13  1  0.54587000  0.72255000  0.98027000  1.0
  H  H14  1  0.46551000  0.44803000  0.97367000  1.0
  H  H15  1  0.96551000  0.55197000  0.02633000  1.0
  H  H16  1  0.66570000  0.25558000  0.91044000  1.0
  H  H17  1  0.16570000  0.74442000  0.08956000  1.0
  H  H18  1  0.26052000  0.40872000  0.60739000  1.0
  H  H19  1  0.76052000  0.59128000  0.39261000  1.0
  H  H20  1  0.04902000  0.54928000  0.57677000  1.0
  H  H21  1  0.54902000  0.45072000  0.42323000  1.0
  C  C22  1  0.34148000  0.14066000  0.35844000  1.0
  C  C23  1  0.84148000  0.85934000  0.64156000  1.0
  C  C24  1  0.21185000  0.15554000  0.22931000  1.0
  C  C25  1  0.71185000  0.84447000  0.77068000  1.0
  C  C26  1  0.39254000  0.24592000  0.14794000  1.0
  C  C27  1  0.89254000  0.75408000  0.85206000  1.0
  C  C28  1  0.26336000  0.22135000  0.00799000  1.0
  C  C29  1  0.76337000  0.77865000  0.99201000  1.0
  C  C30  1  0.44391000  0.30542000  0.92247000  1.0
  C  C31  1  0.94391000  0.69457000  0.07753000  1.0
  C  C32  1  0.33059000  0.28478000  0.78156000  1.0
  C  C33  1  0.83059000  0.71521000  0.21844000  1.0
  O  O34  1  0.58272000  0.21275000  0.39840000  1.0
  O  O35  1  0.08272000  0.78725000  0.60160000  1.0
  O  O36  1  0.19906000  0.05409000  0.42373000  1.0
  O  O37  1  0.69906000  0.94591000  0.57626000  1.0
  O  O38  1  0.49025000  0.34323000  0.70310000  1.0
  O  O39  1  0.99025000  0.65677000  0.29690000  1.0
  O  O40  1  0.08490000  0.21778000  0.74843000  1.0
  O  O41  1  0.58490000  0.78222000  0.25156000  1.0
  O  O42  1  0.08558000  0.42207000  0.55471000  1.0
  O  O43  1  0.58558000  0.57793000  0.44529000  1.0
