# generated using pymatgen
data_CuH4(CN)8
_symmetry_space_group_name_H-M   'P 1'
_cell_length_a   11.35050000
_cell_length_b   13.09100000
_cell_length_c   13.09100000
_cell_angle_alpha   90.00050000
_cell_angle_beta   90.00000000
_cell_angle_gamma   90.00000000
_symmetry_Int_Tables_number   1
_chemical_formula_structural   CuH4(CN)8
_chemical_formula_sum   'Cu8 H32 C64 N64'
_cell_volume   1945.18377642
_cell_formula_units_Z   8
loop_
 _symmetry_equiv_pos_site_id
 _symmetry_equiv_pos_as_xyz
  1  'x, y, z'
loop_
 _atom_site_type_symbol
 _atom_site_label
 _atom_site_symmetry_multiplicity
 _atom_site_fract_x
 _atom_site_fract_y
 _atom_site_fract_z
 _atom_site_occupancy
  Cu  Cu0  1  0.54436000  0.49652000  0.70693000  1.0
  Cu  Cu1  1  0.04436000  0.50348000  0.29307000  1.0
  Cu  Cu2  1  0.79435000  0.79307000  0.99652000  1.0
  Cu  Cu3  1  0.29435000  0.20693000  0.00348000  1.0
  Cu  Cu4  1  0.70565000  0.00348000  0.20693000  1.0
  Cu  Cu5  1  0.20565000  0.99652000  0.79307000  1.0
  Cu  Cu6  1  0.45564000  0.70693000  0.49652000  1.0
  Cu  Cu7  1  0.95564000  0.29307000  0.50348000  1.0
  H  H8  1  0.66861000  0.33977000  0.84765000  1.0
  H  H9  1  0.16861000  0.66023000  0.15235000  1.0
  H  H10  1  0.91861000  0.65235000  0.83977000  1.0
  H  H11  1  0.41861000  0.34765000  0.16023000  1.0
  H  H12  1  0.58139000  0.16023000  0.34765000  1.0
  H  H13  1  0.08139000  0.83977000  0.65235000  1.0
  H  H14  1  0.33139000  0.84765000  0.33977000  1.0
  H  H15  1  0.83139000  0.15235000  0.66023000  1.0
  H  H16  1  0.87876000  0.29546000  0.88686000  1.0
  H  H17  1  0.37876000  0.70454000  0.11314000  1.0
  H  H18  1  0.12876000  0.61314000  0.79546000  1.0
  H  H19  1  0.62876000  0.38686000  0.20454000  1.0
  H  H20  1  0.37124000  0.20454000  0.38686000  1.0
  H  H21  1  0.87124000  0.79546000  0.61314000  1.0
  H  H22  1  0.12124000  0.88686000  0.29546000  1.0
  H  H23  1  0.62124000  0.11314000  0.70454000  1.0
  H  H24  1  0.04021000  0.38290000  0.78767000  1.0
  H  H25  1  0.54021000  0.61710000  0.21233000  1.0
  H  H26  1  0.29021000  0.71233000  0.88290000  1.0
  H  H27  1  0.79021000  0.28767000  0.11710000  1.0
  H  H28  1  0.20979000  0.11710000  0.28767000  1.0
  H  H29  1  0.70979000  0.88290000  0.71233000  1.0
  H  H30  1  0.95979000  0.78767000  0.38290000  1.0
  H  H31  1  0.45979000  0.21233000  0.61710000  1.0
  H  H32  1  0.98513000  0.50900000  0.65231000  1.0
  H  H33  1  0.48513000  0.49101000  0.34769000  1.0
  H  H34  1  0.23513000  0.84769000  0.00900000  1.0
  H  H35  1  0.73513000  0.15231000  0.99100000  1.0
  H  H36  1  0.26487000  0.99100000  0.15231000  1.0
  H  H37  1  0.76487000  0.00900000  0.84769000  1.0
  H  H38  1  0.01487000  0.65231000  0.50900000  1.0
  H  H39  1  0.51487000  0.34769000  0.49100000  1.0
  C  C40  1  0.74149000  0.37503000  0.80633000  1.0
  C  C41  1  0.24149000  0.62497000  0.19367000  1.0
  C  C42  1  0.99149000  0.69367000  0.87503000  1.0
  C  C43  1  0.49149000  0.30633000  0.12497000  1.0
  C  C44  1  0.50851000  0.12497000  0.30633000  1.0
  C  C45  1  0.00851000  0.87503000  0.69367000  1.0
  C  C46  1  0.25851000  0.80633000  0.37503000  1.0
  C  C47  1  0.75851000  0.19367000  0.62497000  1.0
  C  C48  1  0.85875000  0.35161000  0.82801000  1.0
  C  C49  1  0.35875000  0.64839000  0.17199000  1.0
  C  C50  1  0.10875000  0.67199000  0.85161000  1.0
  C  C51  1  0.60875000  0.32801000  0.14839000  1.0
  C  C52  1  0.39125000  0.14839000  0.32801000  1.0
  C  C53  1  0.89125000  0.85161000  0.67199000  1.0
  C  C54  1  0.14125000  0.82801000  0.35161000  1.0
  C  C55  1  0.64125000  0.17199000  0.64839000  1.0
  C  C56  1  0.94765000  0.39969000  0.77232000  1.0
  C  C57  1  0.44765000  0.60031000  0.22768000  1.0
  C  C58  1  0.19765000  0.72768000  0.89969000  1.0
  C  C59  1  0.69765000  0.27232000  0.10031000  1.0
  C  C60  1  0.30235000  0.10031000  0.27232000  1.0
  C  C61  1  0.80235000  0.89969000  0.72768000  1.0
  C  C62  1  0.05235000  0.77232000  0.39969000  1.0
  C  C63  1  0.55235000  0.22768000  0.60031000  1.0
  C  C64  1  0.91720000  0.47026000  0.69672000  1.0
  C  C65  1  0.41720000  0.52974000  0.30327000  1.0
  C  C66  1  0.16720000  0.80328000  0.97026000  1.0
  C  C67  1  0.66720000  0.19672000  0.02974000  1.0
  C  C68  1  0.33280000  0.02974000  0.19672000  1.0
  C  C69  1  0.83280000  0.97026000  0.80328000  1.0
  C  C70  1  0.08280000  0.69672000  0.47026000  1.0
  C  C71  1  0.58280000  0.30327000  0.52974000  1.0
  C  C72  1  0.79832000  0.49079000  0.67979000  1.0
  C  C73  1  0.29832000  0.50921000  0.32021000  1.0
  C  C74  1  0.04832000  0.82021000  0.99079000  1.0
  C  C75  1  0.54832000  0.17979000  0.00921000  1.0
  C  C76  1  0.45168000  0.00921000  0.17979000  1.0
  C  C77  1  0.95168000  0.99079000  0.82021000  1.0
  C  C78  1  0.20168000  0.67979000  0.49079000  1.0
  C  C79  1  0.70168000  0.32021000  0.50921000  1.0
  C  C80  1  0.75191000  0.56410000  0.60631000  1.0
  C  C81  1  0.25191000  0.43590000  0.39369000  1.0
  C  C82  1  0.00191000  0.89369000  0.06410000  1.0
  C  C83  1  0.50191000  0.10631000  0.93590000  1.0
  C  C84  1  0.49809000  0.93590000  0.10631000  1.0
  C  C85  1  0.99809000  0.06410000  0.89369000  1.0
  C  C86  1  0.24809000  0.60631000  0.56410000  1.0
  C  C87  1  0.74809000  0.39369000  0.43590000  1.0
  C  C88  1  0.70794000  0.67853000  0.49949000  1.0
  C  C89  1  0.20794000  0.32147000  0.50051000  1.0
  C  C90  1  0.95794000  0.00051000  0.17853000  1.0
  C  C91  1  0.45795000  0.99949000  0.82147000  1.0
  C  C92  1  0.54205000  0.82147000  0.99949000  1.0
  C  C93  1  0.04205000  0.17853000  0.00051000  1.0
  C  C94  1  0.29206000  0.49949000  0.67853000  1.0
  C  C95  1  0.79205000  0.50051000  0.32147000  1.0
  C  C96  1  0.68790000  0.75983000  0.42607000  1.0
  C  C97  1  0.18790000  0.24017000  0.57393000  1.0
  C  C98  1  0.93790000  0.07393000  0.25984000  1.0
  C  C99  1  0.43790000  0.92607000  0.74016000  1.0
  C  C100  1  0.56210000  0.74016000  0.92607000  1.0
  C  C101  1  0.06210000  0.25984000  0.07393000  1.0
  C  C102  1  0.31210000  0.42607000  0.75983000  1.0
  C  C103  1  0.81210000  0.57393000  0.24017000  1.0
  N  N104  1  0.71179000  0.44244000  0.73398000  1.0
  N  N105  1  0.21179000  0.55756000  0.26602000  1.0
  N  N106  1  0.96179000  0.76602000  0.94244000  1.0
  N  N107  1  0.46179000  0.23398000  0.05756000  1.0
  N  N108  1  0.53821000  0.05756000  0.23398000  1.0
  N  N109  1  0.03821000  0.94244000  0.76602000  1.0
  N  N110  1  0.28821000  0.73398000  0.44244000  1.0
  N  N111  1  0.78821000  0.26602000  0.55756000  1.0
  N  N112  1  0.63353000  0.56863000  0.60280000  1.0
  N  N113  1  0.13353000  0.43137000  0.39720000  1.0
  N  N114  1  0.88353000  0.89721000  0.06863000  1.0
  N  N115  1  0.38353000  0.10279000  0.93137000  1.0
  N  N116  1  0.61647000  0.93137000  0.10279000  1.0
  N  N117  1  0.11648000  0.06863000  0.89721000  1.0
  N  N118  1  0.36647000  0.60280000  0.56863000  1.0
  N  N119  1  0.86647000  0.39720000  0.43137000  1.0
  N  N120  1  0.60542000  0.64110000  0.53617000  1.0
  N  N121  1  0.10542000  0.35890000  0.46383000  1.0
  N  N122  1  0.85542000  0.96383000  0.14110000  1.0
  N  N123  1  0.35542000  0.03617000  0.85890000  1.0
  N  N124  1  0.64458000  0.85890000  0.03617000  1.0
  N  N125  1  0.14458000  0.14110000  0.96383000  1.0
  N  N126  1  0.39458000  0.53617000  0.64110000  1.0
  N  N127  1  0.89458000  0.46383000  0.35890000  1.0
  N  N128  1  0.80300000  0.63219000  0.54161000  1.0
  N  N129  1  0.30300000  0.36781000  0.45839000  1.0
  N  N130  1  0.05300000  0.95839000  0.13219000  1.0
  N  N131  1  0.55300000  0.04161000  0.86781000  1.0
  N  N132  1  0.44700000  0.86781000  0.04161000  1.0
  N  N133  1  0.94700000  0.13219000  0.95839000  1.0
  N  N134  1  0.19700000  0.54161000  0.63219000  1.0
  N  N135  1  0.69700000  0.45839000  0.36781000  1.0
  N  N136  1  0.57201000  0.78128000  0.40767000  1.0
  N  N137  1  0.07201000  0.21872000  0.59233000  1.0
  N  N138  1  0.82201000  0.09233000  0.28128000  1.0
  N  N139  1  0.32201000  0.90766000  0.71872000  1.0
  N  N140  1  0.67799000  0.71872000  0.90766000  1.0
  N  N141  1  0.17799000  0.28128000  0.09234000  1.0
  N  N142  1  0.42799000  0.40767000  0.78128000  1.0
  N  N143  1  0.92799000  0.59233000  0.21872000  1.0
  N  N144  1  0.56992000  0.85798000  0.34166000  1.0
  N  N145  1  0.06992000  0.14202000  0.65834000  1.0
  N  N146  1  0.81992000  0.15834000  0.35799000  1.0
  N  N147  1  0.31992000  0.84166000  0.64201000  1.0
  N  N148  1  0.68008000  0.64201000  0.84166000  1.0
  N  N149  1  0.18008000  0.35799000  0.15834000  1.0
  N  N150  1  0.43008000  0.34166000  0.85799000  1.0
  N  N151  1  0.93008000  0.65834000  0.14202000  1.0
  N  N152  1  0.68058000  0.88214000  0.32065000  1.0
  N  N153  1  0.18058000  0.11786000  0.67935000  1.0
  N  N154  1  0.93058000  0.17935000  0.38215000  1.0
  N  N155  1  0.43058000  0.82065000  0.61785000  1.0
  N  N156  1  0.56942000  0.61785000  0.82065000  1.0
  N  N157  1  0.06942000  0.38215000  0.17935000  1.0
  N  N158  1  0.31942000  0.32065000  0.88215000  1.0
  N  N159  1  0.81942000  0.67935000  0.11786000  1.0
  N  N160  1  0.75721000  0.82206000  0.37227000  1.0
  N  N161  1  0.25721000  0.17794000  0.62773000  1.0
  N  N162  1  0.00721000  0.12773000  0.32206000  1.0
  N  N163  1  0.50721000  0.87227000  0.67794000  1.0
  N  N164  1  0.49279000  0.67794000  0.87227000  1.0
  N  N165  1  0.99279000  0.32206000  0.12773000  1.0
  N  N166  1  0.24279000  0.37227000  0.82206000  1.0
  N  N167  1  0.74279000  0.62773000  0.17794000  1.0
