# generated using pymatgen
data_AlH10C12NClO5
_symmetry_space_group_name_H-M   'P 1'
_cell_length_a   6.63277000
_cell_length_b   10.98430000
_cell_length_c   16.95270000
_cell_angle_alpha   88.29000000
_cell_angle_beta   82.73600000
_cell_angle_gamma   72.54430000
_symmetry_Int_Tables_number   1
_chemical_formula_structural   AlH10C12NClO5
_chemical_formula_sum   'Al2 H20 C24 N2 Cl2 O10'
_cell_volume   1168.73458632
_cell_formula_units_Z   2
loop_
 _symmetry_equiv_pos_site_id
 _symmetry_equiv_pos_as_xyz
  1  'x, y, z'
loop_
 _atom_site_type_symbol
 _atom_site_label
 _atom_site_symmetry_multiplicity
 _atom_site_fract_x
 _atom_site_fract_y
 _atom_site_fract_z
 _atom_site_occupancy
  Al  Al0  1  0.99864000  0.50398000  0.50058000  1.0
  Al  Al1  1  0.50100000  0.49913000  0.50095000  1.0
  H  H2  1  0.16635000  0.64657000  0.55105000  1.0
  H  H3  1  0.84150000  0.35743000  0.44911000  1.0
  H  H4  1  0.65439000  0.44560000  0.26538000  1.0
  H  H5  1  0.72679000  0.43475000  0.11634000  1.0
  H  H6  1  0.06217000  0.62454000  0.10353000  1.0
  H  H7  1  0.95076000  0.37278000  0.89550000  1.0
  H  H8  1  0.28261000  0.55768000  0.88669000  1.0
  H  H9  1  0.34940000  0.55021000  0.73753000  1.0
  H  H10  1  0.54161000  0.12041000  0.37285000  1.0
  H  H11  1  0.74067000  0.10411000  0.43574000  1.0
  H  H12  1  0.82714000  0.88321000  0.41308000  1.0
  H  H13  1  0.58987000  0.90076000  0.37101000  1.0
  H  H14  1  0.80429000  0.90447000  0.56278000  1.0
  H  H15  1  0.58292000  0.88430000  0.62572000  1.0
  H  H16  1  0.64670000  0.12458000  0.58493000  1.0
  H  H17  1  0.40232000  0.10272000  0.62755000  1.0
  H  H18  1  0.17915000  0.09873000  0.43699000  1.0
  H  H19  1  0.10912000  0.11768000  0.54065000  1.0
  H  H20  1  0.24443000  0.89844000  0.56195000  1.0
  H  H21  1  0.25980000  0.87880000  0.45840000  1.0
  C  C22  1  0.63865000  0.73220000  0.49988000  1.0
  C  C23  1  0.70982000  0.47694000  0.64393000  1.0
  C  C24  1  0.35688000  0.27083000  0.50032000  1.0
  C  C25  1  0.29157000  0.52462000  0.35722000  1.0
  C  C26  1  0.31839000  0.53388000  0.26841000  1.0
  C  C27  1  0.52579000  0.48194000  0.22873000  1.0
  C  C28  1  0.56669000  0.47636000  0.14661000  1.0
  C  C29  1  0.39665000  0.52630000  0.10151000  1.0
  C  C30  1  0.19051000  0.58322000  0.13956000  1.0
  C  C31  1  0.15093000  0.58648000  0.22237000  1.0
  C  C32  1  0.82033000  0.41394000  0.86036000  1.0
  C  C33  1  0.61470000  0.46871000  0.89953000  1.0
  C  C34  1  0.44219000  0.51802000  0.85548000  1.0
  C  C35  1  0.47992000  0.51434000  0.77331000  1.0
  C  C36  1  0.68666000  0.46509000  0.73259000  1.0
  C  C37  1  0.85664000  0.41266000  0.77747000  1.0
  C  C38  1  0.59938000  0.07539000  0.42788000  1.0
  C  C39  1  0.65417000  0.92851000  0.42203000  1.0
  C  C40  1  0.55793000  0.87695000  0.49889000  1.0
  C  C41  1  0.62938000  0.93011000  0.57068000  1.0
  C  C42  1  0.52734000  0.07669000  0.57642000  1.0
  C  C43  1  0.42744000  0.12605000  0.49940000  1.0
  C  C44  1  0.24003000  0.07242000  0.49456000  1.0
  C  C45  1  0.31360000  0.92600000  0.50430000  1.0
  N  N46  1  0.41473000  0.52653000  0.01759000  1.0
  N  N47  1  0.59839000  0.46789000  0.98349000  1.0
  Cl  Cl48  1  0.89350000  0.66167000  0.26457000  1.0
  Cl  Cl49  1  0.11344000  0.34030000  0.73338000  1.0
  O  O50  1  0.83949000  0.67972000  0.49175000  1.0
  O  O51  1  0.55459000  0.46685000  0.61018000  1.0
  O  O52  1  0.50231000  0.32588000  0.49217000  1.0
  O  O53  1  0.12174000  0.50504000  0.39066000  1.0
  O  O54  1  0.15828000  0.32844000  0.50872000  1.0
  O  O55  1  0.44825000  0.53105000  0.39145000  1.0
  O  O56  1  0.50087000  0.67204000  0.51041000  1.0
  O  O57  1  0.87487000  0.50210000  0.61032000  1.0
  O  O58  1  0.21140000  0.55697000  0.53625000  1.0
  O  O59  1  0.78968000  0.44647000  0.46513000  1.0
