# generated using pymatgen
data_Mn2H14C10O9
_symmetry_space_group_name_H-M   'P 1'
_cell_length_a   7.57142000
_cell_length_b   9.01838000
_cell_length_c   17.97490000
_cell_angle_alpha   90.00000000
_cell_angle_beta   90.00000000
_cell_angle_gamma   90.00000000
_symmetry_Int_Tables_number   1
_chemical_formula_structural   Mn2H14C10O9
_chemical_formula_sum   'Mn8 H56 C40 O36'
_cell_volume   1227.36109183
_cell_formula_units_Z   4
loop_
 _symmetry_equiv_pos_site_id
 _symmetry_equiv_pos_as_xyz
  1  'x, y, z'
loop_
 _atom_site_type_symbol
 _atom_site_label
 _atom_site_symmetry_multiplicity
 _atom_site_fract_x
 _atom_site_fract_y
 _atom_site_fract_z
 _atom_site_occupancy
  Mn  Mn0  1  0.70629000  0.05513000  0.52508000  1.0
  Mn  Mn1  1  0.70629000  0.05513000  0.97492000  1.0
  Mn  Mn2  1  0.70629000  0.44487000  0.02508000  1.0
  Mn  Mn3  1  0.29371000  0.55513000  0.52508000  1.0
  Mn  Mn4  1  0.29371000  0.94487000  0.47492000  1.0
  Mn  Mn5  1  0.29371000  0.94487000  0.02508000  1.0
  Mn  Mn6  1  0.29371000  0.55513000  0.97492000  1.0
  Mn  Mn7  1  0.70629000  0.44487000  0.47492000  1.0
  H  H8  1  0.29992000  0.12144000  0.32609000  1.0
  H  H9  1  0.29992000  0.12144000  0.17391000  1.0
  H  H10  1  0.29992000  0.37856000  0.82609000  1.0
  H  H11  1  0.70008000  0.62144000  0.32609000  1.0
  H  H12  1  0.70008000  0.87856000  0.67391000  1.0
  H  H13  1  0.70008000  0.87856000  0.82609000  1.0
  H  H14  1  0.70008000  0.62144000  0.17391000  1.0
  H  H15  1  0.29992000  0.37856000  0.67391000  1.0
  H  H16  1  0.48843000  0.01313000  0.31700000  1.0
  H  H17  1  0.48843000  0.01313000  0.18300000  1.0
  H  H18  1  0.48843000  0.48687000  0.81700000  1.0
  H  H19  1  0.51157000  0.51313000  0.31700000  1.0
  H  H20  1  0.51157000  0.98687000  0.68300000  1.0
  H  H21  1  0.51157000  0.98687000  0.81700000  1.0
  H  H22  1  0.51157000  0.51313000  0.18300000  1.0
  H  H23  1  0.48843000  0.48687000  0.68300000  1.0
  H  H24  1  0.64028000  0.23292000  0.25000000  1.0
  H  H25  1  0.64028000  0.26708000  0.75000000  1.0
  H  H26  1  0.35972000  0.73292000  0.25000000  1.0
  H  H27  1  0.35972000  0.76708000  0.75000000  1.0
  H  H28  1  0.43657000  0.32487000  0.25000000  1.0
  H  H29  1  0.43657000  0.17513000  0.75000000  1.0
  H  H30  1  0.56343000  0.82487000  0.25000000  1.0
  H  H31  1  0.56343000  0.67513000  0.75000000  1.0
  H  H32  1  0.81684000  0.47656000  0.75000000  1.0
  H  H33  1  0.81684000  0.02344000  0.25000000  1.0
  H  H34  1  0.18316000  0.97656000  0.75000000  1.0
  H  H35  1  0.18316000  0.52344000  0.25000000  1.0
  H  H36  1  0.04262000  0.42720000  0.75000000  1.0
  H  H37  1  0.04263000  0.07280000  0.25000000  1.0
  H  H38  1  0.95737000  0.92720000  0.75000000  1.0
  H  H39  1  0.95737000  0.57280000  0.25000000  1.0
  H  H40  1  0.88951000  0.70971000  0.67909000  1.0
  H  H41  1  0.88951000  0.70971000  0.82090000  1.0
  H  H42  1  0.88951000  0.79029000  0.17910000  1.0
  H  H43  1  0.11049000  0.20971000  0.67910000  1.0
  H  H44  1  0.11049000  0.29029000  0.32090000  1.0
  H  H45  1  0.11049000  0.29029000  0.17909000  1.0
  H  H46  1  0.11049000  0.20971000  0.82090000  1.0
  H  H47  1  0.88951000  0.79029000  0.32090000  1.0
  H  H48  1  0.11688000  0.65769000  0.67865000  1.0
  H  H49  1  0.11688000  0.65769000  0.82135000  1.0
  H  H50  1  0.11688000  0.84231000  0.17865000  1.0
  H  H51  1  0.88312000  0.15769000  0.67865000  1.0
  H  H52  1  0.88312000  0.34231000  0.32135000  1.0
  H  H53  1  0.88312000  0.34231000  0.17865000  1.0
  H  H54  1  0.88312000  0.15769000  0.82135000  1.0
  H  H55  1  0.11688000  0.84231000  0.32135000  1.0
  H  H56  1  0.98541000  0.18965000  0.46627000  1.0
  H  H57  1  0.98541000  0.18965000  0.03373000  1.0
  H  H58  1  0.98541000  0.31035000  0.96627000  1.0
  H  H59  1  0.01459000  0.68965000  0.46627000  1.0
  H  H60  1  0.01459000  0.81035000  0.53373000  1.0
  H  H61  1  0.01459000  0.81035000  0.96627000  1.0
  H  H62  1  0.01459000  0.68965000  0.03373000  1.0
  H  H63  1  0.98541000  0.31035000  0.53373000  1.0
  C  C64  1  0.51753000  0.18933000  0.39147000  1.0
  C  C65  1  0.51752000  0.18932000  0.10853000  1.0
  C  C66  1  0.51753000  0.31066000  0.89147000  1.0
  C  C67  1  0.48247000  0.68933000  0.39147000  1.0
  C  C68  1  0.48247000  0.81067000  0.60853000  1.0
  C  C69  1  0.48247000  0.81067000  0.89147000  1.0
  C  C70  1  0.48247000  0.68934000  0.10853000  1.0
  C  C71  1  0.51753000  0.31067000  0.60853000  1.0
  C  C72  1  0.44420000  0.12937000  0.31969000  1.0
  C  C73  1  0.44420000  0.12937000  0.18032000  1.0
  C  C74  1  0.44420000  0.37063000  0.81969000  1.0
  C  C75  1  0.55580000  0.62937000  0.31969000  1.0
  C  C76  1  0.55580000  0.87063000  0.68031000  1.0
  C  C77  1  0.55580000  0.87063000  0.81968000  1.0
  C  C78  1  0.55580000  0.62937000  0.18031000  1.0
  C  C79  1  0.44420000  0.37063000  0.68031000  1.0
  C  C80  1  0.49690000  0.21399000  0.25000000  1.0
  C  C81  1  0.49690000  0.28601000  0.75000000  1.0
  C  C82  1  0.50310000  0.71399000  0.25000000  1.0
  C  C83  1  0.50310000  0.78601000  0.75000000  1.0
  C  C84  1  0.95164000  0.52213000  0.75000000  1.0
  C  C85  1  0.95164000  0.97786000  0.25000000  1.0
  C  C86  1  0.04836000  0.02213000  0.75000000  1.0
  C  C87  1  0.04836000  0.47786000  0.25000000  1.0
  C  C88  1  0.98078000  0.61532000  0.67956000  1.0
  C  C89  1  0.98078000  0.61531000  0.82044000  1.0
  C  C90  1  0.98078000  0.88469000  0.17956000  1.0
  C  C91  1  0.01922000  0.11531000  0.67956000  1.0
  C  C92  1  0.01922000  0.38469000  0.32044000  1.0
  C  C93  1  0.01922000  0.38468000  0.17956000  1.0
  C  C94  1  0.01922000  0.11531000  0.82044000  1.0
  C  C95  1  0.98078000  0.88468000  0.32044000  1.0
  C  C96  1  0.94971000  0.52569000  0.60959000  1.0
  C  C97  1  0.94971000  0.52569000  0.89041000  1.0
  C  C98  1  0.94971000  0.97431000  0.10959000  1.0
  C  C99  1  0.05029000  0.02569000  0.60959000  1.0
  C  C100  1  0.05029000  0.47431000  0.39041000  1.0
  C  C101  1  0.05029000  0.47431000  0.10959000  1.0
  C  C102  1  0.05029000  0.02569000  0.89041000  1.0
  C  C103  1  0.94971000  0.97431000  0.39041000  1.0
  O  O104  1  0.90711000  0.25000000  0.50000000  1.0
  O  O105  1  0.90711000  0.25000000  0.00000000  1.0
  O  O106  1  0.09289000  0.75000000  0.50000000  1.0
  O  O107  1  0.09289000  0.75000000  0.00000000  1.0
  O  O108  1  0.79883000  0.53020000  0.57940000  1.0
  O  O109  1  0.79883000  0.53021000  0.92060000  1.0
  O  O110  1  0.79883000  0.96980000  0.07940000  1.0
  O  O111  1  0.20117000  0.03020000  0.57940000  1.0
  O  O112  1  0.20117000  0.46980000  0.42060000  1.0
  O  O113  1  0.20117000  0.46980000  0.07940000  1.0
  O  O114  1  0.20117000  0.03020000  0.92060000  1.0
  O  O115  1  0.79883000  0.96980000  0.42060000  1.0
  O  O116  1  0.61789000  0.30142000  0.39032000  1.0
  O  O117  1  0.61789000  0.30142000  0.10968000  1.0
  O  O118  1  0.61789000  0.19858000  0.89032000  1.0
  O  O119  1  0.38211000  0.80142000  0.39032000  1.0
  O  O120  1  0.38211000  0.69858000  0.60968000  1.0
  O  O121  1  0.38211000  0.69858000  0.89032000  1.0
  O  O122  1  0.38211000  0.80142000  0.10968000  1.0
  O  O123  1  0.61789000  0.19858000  0.60968000  1.0
  O  O124  1  0.07860000  0.44563000  0.58452000  1.0
  O  O125  1  0.07859000  0.44563000  0.91548000  1.0
  O  O126  1  0.07860000  0.05437000  0.08452000  1.0
  O  O127  1  0.92140000  0.94563000  0.58452000  1.0
  O  O128  1  0.92140000  0.55437000  0.41548000  1.0
  O  O129  1  0.92140000  0.55437000  0.08452000  1.0
  O  O130  1  0.92140000  0.94563000  0.91548000  1.0
  O  O131  1  0.07860000  0.05437000  0.41548000  1.0
  O  O132  1  0.47992000  0.11843000  0.45182000  1.0
  O  O133  1  0.47992000  0.11843000  0.04818000  1.0
  O  O134  1  0.47992000  0.38157000  0.95182000  1.0
  O  O135  1  0.52008000  0.61843000  0.45182000  1.0
  O  O136  1  0.52008000  0.88157000  0.54818000  1.0
  O  O137  1  0.52008000  0.88157000  0.95182000  1.0
  O  O138  1  0.52008000  0.61843000  0.04818000  1.0
  O  O139  1  0.47992000  0.38157000  0.54818000  1.0
