# generated using pymatgen
data_ZnH42C39N(ClO3)3
_symmetry_space_group_name_H-M   'P 1'
_cell_length_a   10.78040000
_cell_length_b   18.23050000
_cell_length_c   18.78950000
_cell_angle_alpha   90.03000000
_cell_angle_beta   90.32190000
_cell_angle_gamma   90.72460000
_symmetry_Int_Tables_number   1
_chemical_formula_structural   ZnH42C39N(ClO3)3
_chemical_formula_sum   'Zn2 H84 C78 N2 Cl6 O18'
_cell_volume   3692.38533035
_cell_formula_units_Z   2
loop_
 _symmetry_equiv_pos_site_id
 _symmetry_equiv_pos_as_xyz
  1  'x, y, z'
loop_
 _atom_site_type_symbol
 _atom_site_label
 _atom_site_symmetry_multiplicity
 _atom_site_fract_x
 _atom_site_fract_y
 _atom_site_fract_z
 _atom_site_occupancy
  Zn  Zn0  1  0.51563000  0.42039000  0.49520000  1.0
  Zn  Zn1  1  0.52192000  0.57556000  0.50167000  1.0
  H  H2  1  0.55788000  0.31137000  0.60117000  1.0
  H  H3  1  0.44324000  0.58380000  0.12809000  1.0
  H  H4  1  0.36288000  0.40407000  0.68649000  1.0
  H  H5  1  0.29796000  0.40518000  0.30916000  1.0
  H  H6  1  0.42332000  0.38503000  0.93347000  1.0
  H  H7  1  0.40409000  0.38332000  0.06536000  1.0
  H  H8  1  0.22747000  0.60354000  0.63220000  1.0
  H  H9  1  0.07761000  0.64416000  0.64216000  1.0
  H  H10  1  0.30672000  0.72279000  0.58195000  1.0
  H  H11  1  0.16213000  0.76353000  0.60021000  1.0
  H  H12  1  0.19375000  0.73494000  0.73241000  1.0
  H  H13  1  0.48996000  0.30380000  0.38507000  1.0
  H  H14  1  0.31490000  0.79145000  0.69839000  1.0
  H  H15  1  0.33973000  0.69651000  0.71182000  1.0
  H  H16  1  0.86421000  0.62886000  0.39412000  1.0
  H  H17  1  0.00817000  0.67337000  0.41839000  1.0
  H  H18  1  0.74763000  0.73122000  0.44787000  1.0
  H  H19  1  0.88826000  0.77617000  0.47228000  1.0
  H  H20  1  0.94691000  0.78539000  0.34174000  1.0
  H  H21  1  0.80303000  0.82854000  0.35808000  1.0
  H  H22  1  0.80571000  0.74030000  0.31811000  1.0
  H  H23  1  0.64860000  0.16527000  0.72013000  1.0
  H  H24  1  0.32108000  0.93378000  0.47578000  1.0
  H  H25  1  0.58601000  0.25070000  0.69389000  1.0
  H  H26  1  0.82675000  0.18308000  0.63751000  1.0
  H  H27  1  0.76647000  0.26667000  0.60733000  1.0
  H  H28  1  0.78869000  0.32105000  0.73040000  1.0
  H  H29  1  0.93248000  0.28970000  0.69765000  1.0
  H  H30  1  0.85062000  0.23704000  0.76192000  1.0
  H  H31  1  0.57925000  0.14196000  0.27691000  1.0
  H  H32  1  0.60820000  0.22883000  0.31741000  1.0
  H  H33  1  0.36141000  0.17464000  0.25182000  1.0
  H  H34  1  0.38101000  0.26036000  0.29433000  1.0
  H  H35  1  0.71171000  0.92812000  0.52483000  1.0
  H  H36  1  0.54238000  0.29831000  0.20490000  1.0
  H  H37  1  0.40178000  0.27304000  0.16126000  1.0
  H  H38  1  0.52837000  0.21153000  0.16222000  1.0
  H  H39  1  0.28013000  0.01301000  0.37908000  1.0
  H  H40  1  0.22277000  0.10425000  0.37542000  1.0
  H  H41  1  0.11734000  0.98195000  0.47091000  1.0
  H  H42  1  0.06601000  0.07369000  0.46765000  1.0
  H  H43  1  0.00564000  0.05834000  0.33870000  1.0
  H  H44  1  0.92839000  0.99228000  0.39209000  1.0
  H  H45  1  0.05767000  0.96624000  0.34022000  1.0
  H  H46  1  0.62836000  0.69122000  0.59286000  1.0
  H  H47  1  0.91768000  0.08331000  0.55459000  1.0
  H  H48  1  0.87275000  0.99396000  0.52620000  1.0
  H  H49  1  0.79344000  0.06625000  0.66639000  1.0
  H  H50  1  0.75528000  0.97580000  0.64073000  1.0
  H  H51  1  0.98706000  0.94576000  0.63894000  1.0
  H  H52  1  0.93798000  0.97511000  0.72409000  1.0
  H  H53  1  0.02099000  0.03639000  0.66785000  1.0
  H  H54  1  0.83768000  0.85147000  0.60089000  1.0
  H  H55  1  0.78840000  0.75815000  0.59873000  1.0
  H  H56  1  0.76256000  0.86170000  0.72667000  1.0
  H  H57  1  0.39431000  0.68633000  0.41863000  1.0
  H  H58  1  0.71781000  0.76821000  0.72519000  1.0
  H  H59  1  0.94247000  0.73364000  0.70085000  1.0
  H  H60  1  0.92748000  0.78144000  0.78243000  1.0
  H  H61  1  0.98603000  0.82758000  0.70636000  1.0
  H  H62  1  0.19963000  0.83337000  0.35695000  1.0
  H  H63  1  0.23303000  0.74908000  0.40032000  1.0
  H  H64  1  0.35594000  0.81042000  0.26492000  1.0
  H  H65  1  0.40414000  0.72931000  0.30753000  1.0
  H  H66  1  0.19375000  0.67123000  0.28756000  1.0
  H  H67  1  0.26087000  0.69934000  0.20592000  1.0
  H  H68  1  0.22727000  0.36022000  0.55217000  1.0
  H  H69  1  0.14200000  0.75239000  0.24478000  1.0
  H  H70  1  0.14062000  0.57475000  0.16928000  1.0
  H  H71  1  0.04983000  0.52000000  0.10941000  1.0
  H  H72  1  0.03374000  0.68731000  0.12646000  1.0
  H  H73  1  0.94214000  0.63382000  0.06747000  1.0
  H  H74  1  0.84606000  0.56643000  0.17193000  1.0
  H  H75  1  0.82447000  0.66214000  0.17964000  1.0
  H  H76  1  0.93980000  0.61857000  0.23171000  1.0
  H  H77  1  0.00574000  0.57465000  0.93004000  1.0
  H  H78  1  0.08191000  0.51063000  0.87362000  1.0
  H  H79  1  0.80514000  0.36529000  0.44776000  1.0
  H  H80  1  0.04172000  0.67278000  0.83786000  1.0
  H  H81  1  0.11864000  0.60851000  0.78377000  1.0
  H  H82  1  0.92093000  0.53080000  0.77710000  1.0
  H  H83  1  0.89646000  0.61993000  0.74313000  1.0
  H  H84  1  0.84322000  0.59705000  0.82922000  1.0
  H  H85  1  0.46158000  0.59285000  0.86742000  1.0
  C  C86  1  0.46096000  0.50049000  0.36446000  1.0
  C  C87  1  0.41311000  0.50004000  0.28928000  1.0
  C  C88  1  0.37099000  0.42726000  0.96079000  1.0
  C  C89  1  0.35938000  0.42613000  0.03423000  1.0
  C  C90  1  0.29960000  0.48299000  0.07035000  1.0
  C  C91  1  0.32218000  0.48572000  0.92153000  1.0
  C  C92  1  0.23926000  0.53781000  0.03091000  1.0
  C  C93  1  0.25165000  0.53898000  0.95608000  1.0
  C  C94  1  0.54562000  0.27589000  0.55505000  1.0
  C  C95  1  0.50585000  0.27164000  0.43295000  1.0
  C  C96  1  0.55241000  0.19944000  0.55908000  1.0
  C  C97  1  0.52375000  0.49696000  0.63560000  1.0
  C  C98  1  0.50942000  0.19500000  0.43316000  1.0
  C  C99  1  0.52888000  0.15719000  0.49762000  1.0
  C  C100  1  0.28570000  0.49937000  0.52247000  1.0
  C  C101  1  0.75154000  0.50303000  0.48285000  1.0
  C  C102  1  0.41515000  0.03815000  0.48299000  1.0
  C  C103  1  0.63245000  0.03539000  0.51544000  1.0
  C  C104  1  0.40909000  0.96166000  0.48530000  1.0
  C  C105  1  0.62821000  0.95893000  0.51444000  1.0
  C  C106  1  0.51593000  0.92137000  0.50066000  1.0
  C  C107  1  0.52580000  0.07630000  0.49939000  1.0
  C  C108  1  0.35795000  0.49367000  0.84596000  1.0
  C  C109  1  0.58218000  0.80024000  0.55350000  1.0
  C  C110  1  0.43792000  0.79772000  0.45511000  1.0
  C  C111  1  0.57886000  0.72359000  0.55341000  1.0
  C  C112  1  0.44416000  0.72121000  0.45634000  1.0
  C  C113  1  0.51184000  0.84027000  0.50316000  1.0
  C  C114  1  0.13511000  0.36248000  0.52894000  1.0
  C  C115  1  0.89729000  0.36544000  0.47108000  1.0
  C  C116  1  0.07499000  0.29757000  0.51242000  1.0
  C  C117  1  0.95649000  0.29943000  0.47937000  1.0
  C  C118  1  0.95363000  0.43288000  0.49257000  1.0
  C  C119  1  0.32488000  0.49012000  0.14763000  1.0
  C  C120  1  0.07988000  0.43150000  0.51590000  1.0
  C  C121  1  0.14738000  0.49923000  0.52636000  1.0
  C  C122  1  0.89001000  0.50192000  0.48961000  1.0
  C  C123  1  0.08340000  0.56530000  0.52489000  1.0
  C  C124  1  0.95523000  0.56652000  0.50495000  1.0
  C  C125  1  0.49245000  0.55609000  0.76034000  1.0
  C  C126  1  0.45186000  0.55106000  0.23801000  1.0
  C  C127  1  0.43816000  0.55157000  0.82746000  1.0
  C  C128  1  0.40851000  0.54582000  0.16828000  1.0
  C  C129  1  0.16545000  0.64638000  0.61210000  1.0
  C  C130  1  0.32795000  0.44195000  0.79307000  1.0
  C  C131  1  0.22724000  0.72123000  0.61830000  1.0
  C  C132  1  0.27098000  0.73688000  0.69444000  1.0
  C  C133  1  0.90922000  0.66666667  0.43251000  1.0
  C  C134  1  0.84471000  0.73992000  0.43214000  1.0
  C  C135  1  0.85047000  0.77556000  0.35855000  1.0
  C  C136  1  0.64338000  0.20459000  0.67595000  1.0
  C  C137  1  0.77275000  0.23080000  0.65419000  1.0
  C  C138  1  0.83950000  0.27180000  0.71450000  1.0
  C  C139  1  0.53596000  0.18688000  0.30659000  1.0
  C  C140  1  0.42967000  0.21858000  0.26320000  1.0
  C  C141  1  0.28393000  0.44039000  0.19971000  1.0
  C  C142  1  0.47826000  0.25219000  0.19400000  1.0
  C  C143  1  0.23327000  0.05583000  0.40995000  1.0
  C  C144  1  0.10658000  0.02971000  0.43560000  1.0
  C  C145  1  0.02009000  0.01050000  0.37330000  1.0
  C  C146  1  0.84433000  0.04117000  0.55892000  1.0
  C  C147  1  0.82745000  0.01874000  0.63653000  1.0
  C  C148  1  0.94986000  0.99262000  0.66859000  1.0
  C  C149  1  0.77060000  0.81161000  0.62351000  1.0
  C  C150  1  0.78553000  0.80800000  0.70376000  1.0
  C  C151  1  0.91755000  0.78658000  0.72446000  1.0
  C  C152  1  0.38361000  0.44548000  0.72670000  1.0
  C  C153  1  0.27302000  0.79318000  0.36711000  1.0
  C  C154  1  0.32312000  0.76380000  0.29723000  1.0
  C  C155  1  0.22432000  0.71937000  0.25669000  1.0
  C  C156  1  0.08943000  0.57536000  0.11836000  1.0
  C  C157  1  0.98906000  0.63309000  0.11966000  1.0
  C  C158  1  0.89503000  0.61923000  0.17896000  1.0
  C  C159  1  0.07660000  0.56918000  0.88811000  1.0
  C  C160  1  0.04413000  0.61435000  0.82311000  1.0
  C  C161  1  0.91962000  0.58926000  0.79155000  1.0
  C  C162  1  0.32838000  0.44490000  0.26936000  1.0
  C  C163  1  0.46901000  0.50128000  0.70913000  1.0
  N  N164  1  0.52175000  0.30987000  0.49340000  1.0
  N  N165  1  0.51359000  0.68605000  0.50461000  1.0
  Cl  Cl166  1  0.14703000  0.21543000  0.53037000  1.0
  Cl  Cl167  1  0.88365000  0.21945000  0.45087000  1.0
  Cl  Cl168  1  0.59220000  0.62985000  0.74597000  1.0
  Cl  Cl169  1  0.56242000  0.61797000  0.25803000  1.0
  Cl  Cl170  1  0.22071000  0.37224000  0.80963000  1.0
  Cl  Cl171  1  0.17755000  0.37174000  0.17786000  1.0
  O  O172  1  0.50816000  0.44091000  0.38575000  1.0
  O  O173  1  0.90160000  0.63439000  0.50283000  1.0
  O  O174  1  0.57917000  0.16356000  0.62053000  1.0
  O  O175  1  0.49788000  0.15374000  0.37297000  1.0
  O  O176  1  0.31342000  0.07979000  0.46763000  1.0
  O  O177  1  0.73798000  0.07582000  0.52797000  1.0
  O  O178  1  0.64807000  0.83733000  0.60463000  1.0
  O  O179  1  0.36499000  0.83399000  0.40784000  1.0
  O  O180  1  0.17271000  0.59332000  0.06054000  1.0
  O  O181  1  0.19556000  0.59308000  0.91676000  1.0
  O  O182  1  0.51001000  0.43467000  0.60559000  1.0
  O  O183  1  0.44744000  0.55918000  0.39976000  1.0
  O  O184  1  0.57331000  0.55373000  0.60803000  1.0
  O  O185  1  0.33333333  0.44290000  0.49365000  1.0
  O  O186  1  0.69652000  0.44412000  0.50188000  1.0
  O  O187  1  0.34698000  0.55573000  0.54217000  1.0
  O  O188  1  0.69679000  0.56120000  0.46358000  1.0
  O  O189  1  0.13713000  0.63235000  0.53767000  1.0
