# generated using pymatgen
data_MnH10(C5N4)2
_symmetry_space_group_name_H-M   'P 1'
_cell_length_a   9.99141000
_cell_length_b   11.91220873
_cell_length_c   11.91375501
_cell_angle_alpha   79.98759545
_cell_angle_beta   65.34116175
_cell_angle_gamma   65.37721843
_symmetry_Int_Tables_number   1
_chemical_formula_structural   MnH10(C5N4)2
_chemical_formula_sum   'Mn4 H40 C40 N32'
_cell_volume   1171.48713411
_cell_formula_units_Z   4
loop_
 _symmetry_equiv_pos_site_id
 _symmetry_equiv_pos_as_xyz
  1  'x, y, z'
loop_
 _atom_site_type_symbol
 _atom_site_label
 _atom_site_symmetry_multiplicity
 _atom_site_fract_x
 _atom_site_fract_y
 _atom_site_fract_z
 _atom_site_occupancy
  Mn  Mn0  1  0.99999000  0.00001000  0.00000000  1.0
  Mn  Mn1  1  0.00000000  0.00000000  0.50000000  1.0
  Mn  Mn2  1  1.00000000  0.50000000  0.50000000  1.0
  Mn  Mn3  1  0.50000000  0.50000000  0.00000000  1.0
  H  H4  1  0.11507000  0.09718000  0.15967000  1.0
  H  H5  1  0.21149000  0.16010000  0.40257000  1.0
  H  H6  1  0.37116000  0.40237000  0.33973000  1.0
  H  H7  1  0.77394000  0.33994000  0.09754000  1.0
  H  H8  1  0.88493000  0.90282000  0.84033000  1.0
  H  H9  1  0.78851000  0.83990000  0.59743000  1.0
  H  H10  1  0.62884000  0.59763000  0.66027000  1.0
  H  H11  1  0.22606000  0.66006000  0.90246000  1.0
  H  H12  1  0.19689000  0.26967000  0.16013000  1.0
  H  H13  1  0.46474000  0.16084000  0.23043000  1.0
  H  H14  1  0.62477000  0.23012000  0.33952000  1.0
  H  H15  1  0.85581000  0.34008000  0.27013000  1.0
  H  H16  1  0.80311000  0.73034000  0.83987000  1.0
  H  H17  1  0.53525000  0.83916000  0.76957000  1.0
  H  H18  1  0.37523000  0.76988000  0.66048000  1.0
  H  H19  1  0.14419000  0.65992000  0.72986000  1.0
  H  H20  1  0.19516000  0.42624000  0.99077000  1.0
  H  H21  1  0.62025000  0.99061000  0.07459000  1.0
  H  H22  1  0.61012000  0.07415000  0.50969000  1.0
  H  H23  1  0.68497000  0.50954000  0.42659000  1.0
  H  H24  1  0.80484000  0.57376000  0.00923000  1.0
  H  H25  1  0.37975000  0.00939000  0.92541000  1.0
  H  H26  1  0.38988000  0.92584000  0.49032000  1.0
  H  H27  1  0.31504000  0.49046000  0.57340000  1.0
  H  H28  1  0.10690000  0.40654000  0.82778000  1.0
  H  H29  1  0.51325000  0.82689000  0.09455000  1.0
  H  H30  1  0.34004000  0.09414000  0.67280000  1.0
  H  H31  1  0.43459000  0.67200000  0.40673000  1.0
  H  H32  1  0.89310000  0.59346000  0.17222000  1.0
  H  H33  1  0.48675000  0.17311000  0.90545000  1.0
  H  H34  1  0.65996000  0.90586000  0.32720000  1.0
  H  H35  1  0.56541000  0.32800000  0.59327000  1.0
  H  H36  1  0.02298000  0.23073000  0.84485000  1.0
  H  H37  1  0.25417000  0.84405000  0.26967000  1.0
  H  H38  1  0.09851000  0.26945000  0.65532000  1.0
  H  H39  1  0.36812000  0.65446000  0.23086000  1.0
  H  H40  1  0.97701000  0.76927000  0.15516000  1.0
  H  H41  1  0.74583000  0.15595000  0.73033000  1.0
  H  H42  1  0.90149000  0.73055000  0.34468000  1.0
  H  H43  1  0.63188000  0.34554000  0.76914000  1.0
  C  C44  1  0.11570000  0.16765000  0.08791000  1.0
  C  C45  1  0.28265000  0.08802000  0.33246000  1.0
  C  C46  1  0.37030000  0.33216000  0.41176000  1.0
  C  C47  1  0.70296000  0.41172000  0.16800000  1.0
  C  C48  1  0.88430000  0.83235000  0.91209000  1.0
  C  C49  1  0.71735000  0.91198000  0.66754000  1.0
  C  C50  1  0.62969000  0.66784000  0.58824000  1.0
  C  C51  1  0.29704000  0.58828000  0.83199000  1.0
  C  C52  1  0.16187000  0.26307000  0.08730000  1.0
  C  C53  1  0.42379000  0.08752000  0.23721000  1.0
  C  C54  1  0.51070000  0.23679000  0.41251000  1.0
  C  C55  1  0.74819000  0.41263000  0.26353000  1.0
  C  C56  1  0.83812000  0.73693000  0.91271000  1.0
  C  C57  1  0.57621000  0.91248000  0.76279000  1.0
  C  C58  1  0.48930000  0.76321000  0.58749000  1.0
  C  C59  1  0.25181000  0.58737000  0.73646000  1.0
  C  C60  1  0.15991000  0.35065000  0.99289000  1.0
  C  C61  1  0.50971000  0.99271000  0.15001000  1.0
  C  C62  1  0.50186000  0.14952000  0.50726000  1.0
  C  C63  1  0.65199000  0.50707000  0.35105000  1.0
  C  C64  1  0.84009000  0.64935000  0.00711000  1.0
  C  C65  1  0.49029000  0.00729000  0.84999000  1.0
  C  C66  1  0.49814000  0.85048000  0.49274000  1.0
  C  C67  1  0.34802000  0.49293000  0.64894000  1.0
  C  C68  1  0.11145000  0.33985000  0.90266000  1.0
  C  C69  1  0.45098000  0.90210000  0.16096000  1.0
  C  C70  1  0.35284000  0.16047000  0.59756000  1.0
  C  C71  1  0.51370000  0.59702000  0.34020000  1.0
  C  C72  1  0.88855000  0.66016000  0.09734000  1.0
  C  C73  1  0.54902000  0.09790000  0.83904000  1.0
  C  C74  1  0.64716000  0.83953000  0.40244000  1.0
  C  C75  1  0.48630000  0.40298000  0.65980000  1.0
  C  C76  1  0.06638000  0.24186000  0.91053000  1.0
  C  C77  1  0.30822000  0.91003000  0.25865000  1.0
  C  C78  1  0.21829000  0.25829000  0.58946000  1.0
  C  C79  1  0.47681000  0.58890000  0.24214000  1.0
  C  C80  1  0.93362000  0.75814000  0.08947000  1.0
  C  C81  1  0.69178000  0.08997000  0.74135000  1.0
  C  C82  1  0.78171000  0.74171000  0.41054000  1.0
  C  C83  1  0.52318000  0.41111000  0.75786000  1.0
  N  N84  1  0.79760000  0.12897000  0.95244000  1.0
  N  N85  1  0.92759000  0.95426000  0.37163000  1.0
  N  N86  1  0.88239000  0.37188000  0.54747000  1.0
  N  N87  1  0.25100000  0.54923000  0.12859000  1.0
  N  N88  1  0.20240000  0.87103000  0.04756000  1.0
  N  N89  1  0.07241000  0.04574000  0.62836000  1.0
  N  N90  1  0.11761000  0.62812000  0.45253000  1.0
  N  N91  1  0.74901000  0.45077000  0.87140000  1.0
  N  N92  1  0.67607000  0.21477000  0.99319000  1.0
  N  N93  1  0.89399000  0.99355000  0.28437000  1.0
  N  N94  1  0.88782000  0.28503000  0.50738000  1.0
  N  N95  1  0.17026000  0.50777000  0.21400000  1.0
  N  N96  1  0.32393000  0.78523000  0.00681000  1.0
  N  N97  1  0.10601000  0.00645000  0.71563000  1.0
  N  N98  1  0.11218000  0.71497000  0.49262000  1.0
  N  N99  1  0.82974000  0.49223000  0.78600000  1.0
  N  N100  1  0.14364000  0.96899000  0.80156000  1.0
  N  N101  1  0.11242000  0.80052000  0.53085000  1.0
  N  N102  1  0.91478000  0.53180000  0.70181000  1.0
  N  N103  1  0.44806000  0.70066000  0.96791000  1.0
  N  N104  1  0.85635000  0.03101000  0.19845000  1.0
  N  N105  1  0.88759000  0.19948000  0.46914000  1.0
  N  N106  1  0.08522000  0.46820000  0.29819000  1.0
  N  N107  1  0.55194000  0.29934000  0.03208000  1.0
  N  N108  1  0.06882000  0.15679000  0.00080000  1.0
  N  N109  1  0.22547000  0.00055000  0.34347000  1.0
  N  N110  1  0.22603000  0.34318000  0.49899000  1.0
  N  N111  1  0.56942000  0.49863000  0.15706000  1.0
  N  N112  1  0.93119000  0.84321000  0.99920000  1.0
  N  N113  1  0.77454000  0.99945000  0.65653000  1.0
  N  N114  1  0.77398000  0.65681000  0.50101000  1.0
  N  N115  1  0.43058000  0.50137000  0.84294000  1.0
