# generated using pymatgen
data_ZnH14C8N2O7
_symmetry_space_group_name_H-M   'P 1'
_cell_length_a   6.59509000
_cell_length_b   11.18440000
_cell_length_c   16.25430000
_cell_angle_alpha   73.08400000
_cell_angle_beta   89.99800000
_cell_angle_gamma   89.99910000
_symmetry_Int_Tables_number   1
_chemical_formula_structural   ZnH14C8N2O7
_chemical_formula_sum   'Zn4 H56 C32 N8 O28'
_cell_volume   1147.07589934
_cell_formula_units_Z   4
loop_
 _symmetry_equiv_pos_site_id
 _symmetry_equiv_pos_as_xyz
  1  'x, y, z'
loop_
 _atom_site_type_symbol
 _atom_site_label
 _atom_site_symmetry_multiplicity
 _atom_site_fract_x
 _atom_site_fract_y
 _atom_site_fract_z
 _atom_site_occupancy
  Zn  Zn0  1  0.75634000  0.29666000  0.89830000  1.0
  Zn  Zn1  1  0.25635000  0.70332000  0.60170000  1.0
  Zn  Zn2  1  0.24364000  0.70333000  0.10170000  1.0
  Zn  Zn3  1  0.74367000  0.29668000  0.39830000  1.0
  H  H4  1  0.50441000  0.63231000  0.95337000  1.0
  H  H5  1  0.00441000  0.36766000  0.54662000  1.0
  H  H6  1  0.49560000  0.36770000  0.04663000  1.0
  H  H7  1  0.99557000  0.63236000  0.45337000  1.0
  H  H8  1  0.71094000  0.71013000  0.88931000  1.0
  H  H9  1  0.21096000  0.28986000  0.61069000  1.0
  H  H10  1  0.28908000  0.28986000  0.11069000  1.0
  H  H11  1  0.78902000  0.71015000  0.38931000  1.0
  H  H12  1  0.45063000  0.92531000  0.63497000  1.0
  H  H13  1  0.95063000  0.07470000  0.86505000  1.0
  H  H14  1  0.54938000  0.07470000  0.36503000  1.0
  H  H15  1  0.04937000  0.92530000  0.13495000  1.0
  H  H16  1  0.30869000  0.97799000  0.71082000  1.0
  H  H17  1  0.80868000  0.02200000  0.78918000  1.0
  H  H18  1  0.69131000  0.02201000  0.28917000  1.0
  H  H19  1  0.19130000  0.97800000  0.21082000  1.0
  H  H20  1  0.17790000  0.63248000  0.88549000  1.0
  H  H21  1  0.67788000  0.36748000  0.61449000  1.0
  H  H22  1  0.82214000  0.36752000  0.11451000  1.0
  H  H23  1  0.32210000  0.63253000  0.38551000  1.0
  H  H24  1  0.25813000  0.58325000  0.79634000  1.0
  H  H25  1  0.75811000  0.41673000  0.70366000  1.0
  H  H26  1  0.74190000  0.41676000  0.20367000  1.0
  H  H27  1  0.24188000  0.58326000  0.29634000  1.0
  H  H28  1  0.95607000  0.70685000  0.75343000  1.0
  H  H29  1  0.45605000  0.29310000  0.74655000  1.0
  H  H30  1  0.04395000  0.29314000  0.24657000  1.0
  H  H31  1  0.54394000  0.70690000  0.25345000  1.0
  H  H32  1  0.04518000  0.82730000  0.79546000  1.0
  H  H33  1  0.54521000  0.17265000  0.70454000  1.0
  H  H34  1  0.95485000  0.17269000  0.20454000  1.0
  H  H35  1  0.45479000  0.82737000  0.29547000  1.0
  H  H36  1  0.11680000  0.98623000  0.57918000  1.0
  H  H37  1  0.61679000  0.01377000  0.92082000  1.0
  H  H38  1  0.88322000  0.01378000  0.42081000  1.0
  H  H39  1  0.38321000  0.98623000  0.07918000  1.0
  H  H40  1  0.94747000  0.95807000  0.66793000  1.0
  H  H41  1  0.44746000  0.04192000  0.83208000  1.0
  H  H42  1  0.05255000  0.04193000  0.33207000  1.0
  H  H43  1  0.55252000  0.95809000  0.16792000  1.0
  H  H44  1  0.07468000  0.40210000  0.78966000  1.0
  H  H45  1  0.57469000  0.59787000  0.71033000  1.0
  H  H46  1  0.92531000  0.59789000  0.21034000  1.0
  H  H47  1  0.42532000  0.40211000  0.28967000  1.0
  H  H48  1  0.17299000  0.33019000  0.88236000  1.0
  H  H49  1  0.67300000  0.66980000  0.61764000  1.0
  H  H50  1  0.82700000  0.66980000  0.11763000  1.0
  H  H51  1  0.32701000  0.33019000  0.38237000  1.0
  H  H52  1  0.81526000  0.07902000  0.02585000  1.0
  H  H53  1  0.31528000  0.92097000  0.47415000  1.0
  H  H54  1  0.18471000  0.92097000  0.97415000  1.0
  H  H55  1  0.68474000  0.07903000  0.52585000  1.0
  H  H56  1  0.02059000  0.14337000  0.98952000  1.0
  H  H57  1  0.52059000  0.85662000  0.51049000  1.0
  H  H58  1  0.97940000  0.85663000  0.01049000  1.0
  H  H59  1  0.47942000  0.14338000  0.48951000  1.0
  C  C60  1  0.64311000  0.52855000  0.87692000  1.0
  C  C61  1  0.14308000  0.47144000  0.62308000  1.0
  C  C62  1  0.35691000  0.47145000  0.12309000  1.0
  C  C63  1  0.85688000  0.52855000  0.37693000  1.0
  C  C64  1  0.57639000  0.65196000  0.89000000  1.0
  C  C65  1  0.07640000  0.34803000  0.60999000  1.0
  C  C66  1  0.42362000  0.34804000  0.11000000  1.0
  C  C67  1  0.92357000  0.65198000  0.39001000  1.0
  C  C68  1  0.50350000  0.82535000  0.76413000  1.0
  C  C69  1  0.00352000  0.17462000  0.73587000  1.0
  C  C70  1  0.49651000  0.17464000  0.23587000  1.0
  C  C71  1  0.99647000  0.82538000  0.26412000  1.0
  C  C72  1  0.36063000  0.89422000  0.69398000  1.0
  C  C73  1  0.86063000  0.10577000  0.80603000  1.0
  C  C74  1  0.63940000  0.10578000  0.30602000  1.0
  C  C75  1  0.13938000  0.89423000  0.19397000  1.0
  C  C76  1  0.23948000  0.66515000  0.81985000  1.0
  C  C77  1  0.73948000  0.33483000  0.68014000  1.0
  C  C78  1  0.76054000  0.33486000  0.18015000  1.0
  C  C79  1  0.26050000  0.66517000  0.31986000  1.0
  C  C80  1  0.09200000  0.75684000  0.76396000  1.0
  C  C81  1  0.59201000  0.24313000  0.73603000  1.0
  C  C82  1  0.90802000  0.24316000  0.23603000  1.0
  C  C83  1  0.40799000  0.75689000  0.26397000  1.0
  C  C84  1  0.03330000  0.91323000  0.62708000  1.0
  C  C85  1  0.53330000  0.08676000  0.87292000  1.0
  C  C86  1  0.96671000  0.08676000  0.37292000  1.0
  C  C87  1  0.46669000  0.91325000  0.12708000  1.0
  C  C88  1  0.88282000  0.85388000  0.58005000  1.0
  C  C89  1  0.38282000  0.14610000  0.91994000  1.0
  C  C90  1  0.11718000  0.14611000  0.41995000  1.0
  C  C91  1  0.61715000  0.85390000  0.08006000  1.0
  N  N92  1  0.43808000  0.72156000  0.82392000  1.0
  N  N93  1  0.93807000  0.27841000  0.67608000  1.0
  N  N94  1  0.56194000  0.27844000  0.17608000  1.0
  N  N95  1  0.06191000  0.72159000  0.32393000  1.0
  N  N96  1  0.18193000  0.82277000  0.67894000  1.0
  N  N97  1  0.68191000  0.17722000  0.82106000  1.0
  N  N98  1  0.81810000  0.17722000  0.32107000  1.0
  N  N99  1  0.31809000  0.82279000  0.17894000  1.0
  O  O100  1  0.71137000  0.44601000  0.94321000  1.0
  O  O101  1  0.21135000  0.55398000  0.55678000  1.0
  O  O102  1  0.28862000  0.55399000  0.05679000  1.0
  O  O103  1  0.78863000  0.44602000  0.44323000  1.0
  O  O104  1  0.62957000  0.50826000  0.80430000  1.0
  O  O105  1  0.12953000  0.49173000  0.69568000  1.0
  O  O106  1  0.37042000  0.49173000  0.19570000  1.0
  O  O107  1  0.87046000  0.50827000  0.30432000  1.0
  O  O108  1  0.91687000  0.74347000  0.57685000  1.0
  O  O109  1  0.41684000  0.25651000  0.92317000  1.0
  O  O110  1  0.08312000  0.25653000  0.42315000  1.0
  O  O111  1  0.58315000  0.74349000  0.07684000  1.0
  O  O112  1  0.73085000  0.91982000  0.54543000  1.0
  O  O113  1  0.23084000  0.08017000  0.95457000  1.0
  O  O114  1  0.26914000  0.08018000  0.45457000  1.0
  O  O115  1  0.76913000  0.91982000  0.04543000  1.0
  O  O116  1  0.67553000  0.87101000  0.76630000  1.0
  O  O117  1  0.17552000  0.12900000  0.73370000  1.0
  O  O118  1  0.32449000  0.12901000  0.23370000  1.0
  O  O119  1  0.82447000  0.87100000  0.26629000  1.0
  O  O120  1  0.04406000  0.35261000  0.85085000  1.0
  O  O121  1  0.54407000  0.64735000  0.64914000  1.0
  O  O122  1  0.95593000  0.64737000  0.14915000  1.0
  O  O123  1  0.45594000  0.35263000  0.35086000  1.0
  O  O124  1  0.87951000  0.16331000  0.00462000  1.0
  O  O125  1  0.37953000  0.83668000  0.49538000  1.0
  O  O126  1  0.12047000  0.83668000  0.99538000  1.0
  O  O127  1  0.62049000  0.16332000  0.50463000  1.0
