# generated using pymatgen
data_Zn2H3C12S2O7F
_symmetry_space_group_name_H-M   'P 1'
_cell_length_a   19.66870000
_cell_length_b   19.69050000
_cell_length_c   33.37240000
_cell_angle_alpha   79.15920000
_cell_angle_beta   79.22160000
_cell_angle_gamma   63.96870000
_symmetry_Int_Tables_number   1
_chemical_formula_structural   Zn2H3C12S2O7F
_chemical_formula_sum   'Zn16 H24 C96 S16 O56 F8'
_cell_volume   11326.06958257
_cell_formula_units_Z   8
loop_
 _symmetry_equiv_pos_site_id
 _symmetry_equiv_pos_as_xyz
  1  'x, y, z'
loop_
 _atom_site_type_symbol
 _atom_site_label
 _atom_site_symmetry_multiplicity
 _atom_site_fract_x
 _atom_site_fract_y
 _atom_site_fract_z
 _atom_site_occupancy
  Zn  Zn0  1  0.05621000  0.40006000  0.47853000  1.0
  Zn  Zn1  1  0.98379000  0.48298000  0.56074000  1.0
  Zn  Zn2  1  0.05880000  0.56033000  0.48253000  1.0
  Zn  Zn3  1  0.90122000  0.55528000  0.47964000  1.0
  Zn  Zn4  1  0.69465000  0.34994000  0.27184000  1.0
  Zn  Zn5  1  0.68946000  0.19012000  0.26704000  1.0
  Zn  Zn6  1  0.76857000  0.26660000  0.19085000  1.0
  Zn  Zn7  1  0.84868000  0.19528000  0.27289000  1.0
  Zn  Zn8  1  0.26678000  0.76640000  0.68921000  1.0
  Zn  Zn9  1  0.34890000  0.69495000  0.77156000  1.0
  Zn  Zn10  1  0.19354000  0.84711000  0.77117000  1.0
  Zn  Zn11  1  0.19043000  0.68796000  0.76622000  1.0
  Zn  Zn12  1  0.56070000  0.06013000  0.98338000  1.0
  Zn  Zn13  1  0.40118000  0.05502000  0.97809000  1.0
  Zn  Zn14  1  0.55430000  0.90154000  0.97786000  1.0
  Zn  Zn15  1  0.48415000  0.98354000  0.06032000  1.0
  H  H16  1  0.95383000  0.24880000  0.35126000  1.0
  H  H17  1  0.74671000  0.45559000  0.35115000  1.0
  H  H18  1  0.00098000  0.29775000  0.39931000  1.0
  H  H19  1  0.09766000  0.59758000  0.69999000  1.0
  H  H20  1  0.20141000  0.70133000  0.59660000  1.0
  H  H21  1  0.05008000  0.55022000  0.65134000  1.0
  H  H22  1  0.46311000  0.24030000  0.34104000  1.0
  H  H23  1  0.47930000  0.70265000  0.60141000  1.0
  H  H24  1  0.20271000  0.97902000  0.60179000  1.0
  H  H25  1  0.94864000  0.97010000  0.34797000  1.0
  H  H26  1  0.54982000  0.04988000  0.15267000  1.0
  H  H27  1  0.65324000  0.15333000  0.04899000  1.0
  H  H28  1  0.59840000  0.09839000  0.20020000  1.0
  H  H29  1  0.54762000  0.77050000  0.14826000  1.0
  H  H30  1  0.16303000  0.14118000  0.04065000  1.0
  H  H31  1  0.50121000  0.79610000  0.89880000  1.0
  H  H32  1  0.29450000  0.00335000  0.89887000  1.0
  H  H33  1  0.45198000  0.74945000  0.85068000  1.0
  H  H34  1  0.30119000  0.27969000  0.90211000  1.0
  H  H35  1  0.78681000  0.00947000  0.90904000  1.0
  H  H36  1  0.81003000  0.52752000  0.41879000  1.0
  H  H37  1  0.13586000  0.63603000  0.52664000  1.0
  H  H38  1  0.72325000  0.22307000  0.11445000  1.0
  H  H39  1  0.22218000  0.94016000  0.83124000  1.0
  C  C40  1  0.06151000  0.31603000  0.56180000  1.0
  C  C41  1  0.06960000  0.57009000  0.56954000  1.0
  C  C42  1  0.18370000  0.43980000  0.43871000  1.0
  C  C43  1  0.93716000  0.68395000  0.43880000  1.0
  C  C44  1  0.93064000  0.43007000  0.43058000  1.0
  C  C45  1  0.81641000  0.56100000  0.56201000  1.0
  C  C46  1  0.56571000  0.31146000  0.31134000  1.0
  C  C47  1  0.68051000  0.18010000  0.18068000  1.0
  C  C48  1  0.68921000  0.43339000  0.18817000  1.0
  C  C49  1  0.93486000  0.18766000  0.18972000  1.0
  C  C50  1  0.81857000  0.32068000  0.31989000  1.0
  C  C51  1  0.81113000  0.06610000  0.31164000  1.0
  C  C52  1  0.43383000  0.68945000  0.68830000  1.0
  C  C53  1  0.31937000  0.81993000  0.81944000  1.0
  C  C54  1  0.18898000  0.93364000  0.68859000  1.0
  C  C55  1  0.06611000  0.80984000  0.81113000  1.0
  C  C56  1  0.18123000  0.68066000  0.67968000  1.0
  C  C57  1  0.31252000  0.56592000  0.81121000  1.0
  C  C58  1  0.43854000  0.18387000  0.93867000  1.0
  C  C59  1  0.42944000  0.93124000  0.93034000  1.0
  C  C60  1  0.68386000  0.93857000  0.93858000  1.0
  C  C61  1  0.56133000  0.81627000  0.06132000  1.0
  C  C62  1  0.57016000  0.06991000  0.06928000  1.0
  C  C63  1  0.31628000  0.06146000  0.06135000  1.0
  C  C64  1  0.90106000  0.40332000  0.40218000  1.0
  C  C65  1  0.84744000  0.34941000  0.34846000  1.0
  C  C66  1  0.82834000  0.44859000  0.38841000  1.0
  C  C67  1  0.91959000  0.30426000  0.36191000  1.0
  C  C68  1  0.80245000  0.42068000  0.36153000  1.0
  C  C69  1  0.94544000  0.33144000  0.38843000  1.0
  C  C70  1  0.09868000  0.59890000  0.59712000  1.0
  C  C71  1  0.15233000  0.65218000  0.65102000  1.0
  C  C72  1  0.14194000  0.64208000  0.58135000  1.0
  C  C73  1  0.10951000  0.60945000  0.66689000  1.0
  C  C74  1  0.16831000  0.66831000  0.60880000  1.0
  C  C75  1  0.08331000  0.58341000  0.63998000  1.0
  C  C76  1  0.30441000  0.45386000  0.40093000  1.0
  C  C77  1  0.44612000  0.29708000  0.34896000  1.0
  C  C78  1  0.25827000  0.41513000  0.41395000  1.0
  C  C79  1  0.49094000  0.33694000  0.33640000  1.0
  C  C80  1  0.37804000  0.34010000  0.37255000  1.0
  C  C81  1  0.37286000  0.41195000  0.37732000  1.0
  C  C82  1  0.72532000  0.57634000  0.62929000  1.0
  C  C83  1  0.52408000  0.67375000  0.62139000  1.0
  C  C84  1  0.74205000  0.58560000  0.58685000  1.0
  C  C85  1  0.50900000  0.66387000  0.66373000  1.0
  C  C86  1  0.60327000  0.64160000  0.60901000  1.0
  C  C87  1  0.64649000  0.60794000  0.64246000  1.0
  C  C88  1  0.07663000  0.22502000  0.62918000  1.0
  C  C89  1  0.17382000  0.02385000  0.62167000  1.0
  C  C90  1  0.08597000  0.24166000  0.58673000  1.0
  C  C91  1  0.16377000  0.00884000  0.66403000  1.0
  C  C92  1  0.14186000  0.10294000  0.60915000  1.0
  C  C93  1  0.10815000  0.14626000  0.64249000  1.0
  C  C94  1  0.84408000  0.80083000  0.39721000  1.0
  C  C95  1  0.90425000  0.94973000  0.35249000  1.0
  C  C96  1  0.91237000  0.75823000  0.41379000  1.0
  C  C97  1  0.83563000  0.99103000  0.33641000  1.0
  C  C98  1  0.90704000  0.88019000  0.37463000  1.0
  C  C99  1  0.84010000  0.87043000  0.37480000  1.0
  C  C100  1  0.65274000  0.15265000  0.15168000  1.0
  C  C101  1  0.59875000  0.09874000  0.09801000  1.0
  C  C102  1  0.66844000  0.16841000  0.10843000  1.0
  C  C103  1  0.58291000  0.08296000  0.14083000  1.0
  C  C104  1  0.64097000  0.14100000  0.08206000  1.0
  C  C105  1  0.60981000  0.10983000  0.16699000  1.0
  C  C106  1  0.67358000  0.52453000  0.12070000  1.0
  C  C107  1  0.57654000  0.72579000  0.12830000  1.0
  C  C108  1  0.66428000  0.50777000  0.16315000  1.0
  C  C109  1  0.58653000  0.74100000  0.08595000  1.0
  C  C110  1  0.60843000  0.64661000  0.14077000  1.0
  C  C111  1  0.64209000  0.60335000  0.10741000  1.0
  C  C112  1  0.08155000  0.12402000  0.17763000  1.0
  C  C113  1  0.17057000  0.12468000  0.07305000  1.0
  C  C114  1  0.00944000  0.16280000  0.16488000  1.0
  C  C115  1  0.24168000  0.08600000  0.08666000  1.0
  C  C116  1  0.11224000  0.13843000  0.10643000  1.0
  C  C117  1  0.14072000  0.10966000  0.14478000  1.0
  C  C118  1  0.34642000  0.84943000  0.84777000  1.0
  C  C119  1  0.40067000  0.90258000  0.90163000  1.0
  C  C120  1  0.30130000  0.92201000  0.86156000  1.0
  C  C121  1  0.44567000  0.83053000  0.88816000  1.0
  C  C122  1  0.32935000  0.94771000  0.88847000  1.0
  C  C123  1  0.41836000  0.80491000  0.86157000  1.0
  C  C124  1  0.40565000  0.44900000  0.85285000  1.0
  C  C125  1  0.34560000  0.30005000  0.89759000  1.0
  C  C126  1  0.33737000  0.49158000  0.83625000  1.0
  C  C127  1  0.41417000  0.25877000  0.91373000  1.0
  C  C128  1  0.34286000  0.36947000  0.87533000  1.0
  C  C129  1  0.40977000  0.37928000  0.87519000  1.0
  C  C130  1  0.94542000  0.79585000  0.84912000  1.0
  C  C131  1  0.80376000  0.95268000  0.90114000  1.0
  C  C132  1  0.99163000  0.83448000  0.83606000  1.0
  C  C133  1  0.75882000  0.91292000  0.91366000  1.0
  C  C134  1  0.87189000  0.90958000  0.87758000  1.0
  C  C135  1  0.87702000  0.83775000  0.87279000  1.0
  S  S136  1  0.29933000  0.32554000  0.39703000  1.0
  S  S137  1  0.45122000  0.42669000  0.35296000  1.0
  S  S138  1  0.65984000  0.63385000  0.56242000  1.0
  S  S139  1  0.59021000  0.61563000  0.68894000  1.0
  S  S140  1  0.13424000  0.15939000  0.56248000  1.0
  S  S141  1  0.11557000  0.09012000  0.68906000  1.0
  S  S142  1  0.97313000  0.80411000  0.40177000  1.0
  S  S143  1  0.77399000  0.94622000  0.34786000  1.0
  S  S144  1  0.61597000  0.59004000  0.18742000  1.0
  S  S145  1  0.63458000  0.65970000  0.06088000  1.0
  S  S146  1  0.01399000  0.18223000  0.11152000  1.0
  S  S147  1  0.23863000  0.06589000  0.13990000  1.0
  S  S148  1  0.27675000  0.44555000  0.84819000  1.0
  S  S149  1  0.47586000  0.30353000  0.90217000  1.0
  S  S150  1  0.95067000  0.92404000  0.85307000  1.0
  S  S151  1  0.79854000  0.82315000  0.89711000  1.0
  O  O152  1  0.00042000  0.49890000  0.50028000  1.0
  O  O153  1  0.07819000  0.31497000  0.52281000  1.0
  O  O154  1  0.03151000  0.53157000  0.58533000  1.0
  O  O155  1  0.15561000  0.50617000  0.45001000  1.0
  O  O156  1  0.02622000  0.37452000  0.58094000  1.0
  O  O157  1  0.15365000  0.39196000  0.44666000  1.0
  O  O158  1  0.08502000  0.58623000  0.53031000  1.0
  O  O159  1  0.00377000  0.65754000  0.45020000  1.0
  O  O160  1  0.88706000  0.49649000  0.44243000  1.0
  O  O161  1  0.89093000  0.65236000  0.44703000  1.0
  O  O162  1  0.99610000  0.38745000  0.44184000  1.0
  O  O163  1  0.87516000  0.52617000  0.58105000  1.0
  O  O164  1  0.81515000  0.57717000  0.52298000  1.0
  O  O165  1  0.74983000  0.25023000  0.25081000  1.0
  O  O166  1  0.59641000  0.35863000  0.30311000  1.0
  O  O167  1  0.66442000  0.16470000  0.21905000  1.0
  O  O168  1  0.72516000  0.37462000  0.16919000  1.0
  O  O169  1  0.59283000  0.24502000  0.30018000  1.0
  O  O170  1  0.67237000  0.43456000  0.22712000  1.0
  O  O171  1  0.72022000  0.21879000  0.16490000  1.0
  O  O172  1  0.87695000  0.22288000  0.16959000  1.0
  O  O173  1  0.86191000  0.25460000  0.30929000  1.0
  O  O174  1  0.93397000  0.17236000  0.22862000  1.0
  O  O175  1  0.75316000  0.36427000  0.30841000  1.0
  O  O176  1  0.74459000  0.09350000  0.30017000  1.0
  O  O177  1  0.85815000  0.09672000  0.30393000  1.0
  O  O178  1  0.25024000  0.74920000  0.74953000  1.0
  O  O179  1  0.37587000  0.72515000  0.66861000  1.0
  O  O180  1  0.36229000  0.75488000  0.80793000  1.0
  O  O181  1  0.17237000  0.93353000  0.72759000  1.0
  O  O182  1  0.43394000  0.67332000  0.72728000  1.0
  O  O183  1  0.22481000  0.87581000  0.66893000  1.0
  O  O184  1  0.25243000  0.86300000  0.80793000  1.0
  O  O185  1  0.09605000  0.85790000  0.80336000  1.0
  O  O186  1  0.16556000  0.66379000  0.71808000  1.0
  O  O187  1  0.09433000  0.74384000  0.79949000  1.0
  O  O188  1  0.21926000  0.71950000  0.66347000  1.0
  O  O189  1  0.35890000  0.59735000  0.80313000  1.0
  O  O190  1  0.24602000  0.59230000  0.79975000  1.0
  O  O191  1  0.50002000  0.00010000  0.99995000  1.0
  O  O192  1  0.50541000  0.15610000  0.94972000  1.0
  O  O193  1  0.38612000  0.99688000  0.94153000  1.0
  O  O194  1  0.65292000  0.89158000  0.94666000  1.0
  O  O195  1  0.39107000  0.15372000  0.94694000  1.0
  O  O196  1  0.65679000  0.00496000  0.94975000  1.0
  O  O197  1  0.49522000  0.88762000  0.94138000  1.0
  O  O198  1  0.57726000  0.81625000  0.02234000  1.0
  O  O199  1  0.53177000  0.03147000  0.08560000  1.0
  O  O200  1  0.52612000  0.87423000  0.08096000  1.0
  O  O201  1  0.58639000  0.08588000  0.03083000  1.0
  O  O202  1  0.31572000  0.07811000  0.02253000  1.0
  O  O203  1  0.37475000  0.02560000  0.08085000  1.0
  O  O204  1  0.78213000  0.51793000  0.39993000  1.0
  O  O205  1  0.15929000  0.65939000  0.54085000  1.0
  O  O206  1  0.70891000  0.20890000  0.09109000  1.0
  O  O207  1  0.23188000  0.96821000  0.84996000  1.0
  F  F208  1  0.28706000  0.52399000  0.40952000  1.0
  F  F209  1  0.77774000  0.54123000  0.65570000  1.0
  F  F210  1  0.04153000  0.27744000  0.65551000  1.0
  F  F211  1  0.78682000  0.77929000  0.40163000  1.0
  F  F212  1  0.70876000  0.47212000  0.09435000  1.0
  F  F213  1  0.09514000  0.10182000  0.21705000  1.0
  F  F214  1  0.46290000  0.47058000  0.84849000  1.0
  F  F215  1  0.96278000  0.72573000  0.84050000  1.0
