# generated using pymatgen
data_Zn4C24O13F12
_symmetry_space_group_name_H-M   'P 1'
_cell_length_a   18.54696763
_cell_length_b   18.54700000
_cell_length_c   18.54700000
_cell_angle_alpha   60.00000000
_cell_angle_beta   90.00000000
_cell_angle_gamma   119.99994226
_symmetry_Int_Tables_number   1
_chemical_formula_structural   Zn4C24O13F12
_chemical_formula_sum   'Zn8 C48 O26 F24'
_cell_volume   4511.34082959
_cell_formula_units_Z   2
loop_
 _symmetry_equiv_pos_site_id
 _symmetry_equiv_pos_as_xyz
  1  'x, y, z'
loop_
 _atom_site_type_symbol
 _atom_site_label
 _atom_site_symmetry_multiplicity
 _atom_site_fract_x
 _atom_site_fract_y
 _atom_site_fract_z
 _atom_site_occupancy
  Zn  Zn0  1  0.04330000  0.41341000  0.54330000  1.0
  Zn  Zn1  1  0.87011000  0.41341000  0.54329000  1.0
  Zn  Zn2  1  0.04330000  0.58660000  0.37011000  1.0
  Zn  Zn3  1  0.04330000  0.58660000  0.54329000  1.0
  Zn  Zn4  1  0.45670000  0.58659000  0.95670000  1.0
  Zn  Zn5  1  0.45670000  0.41340000  0.12989000  1.0
  Zn  Zn6  1  0.62989000  0.58659000  0.95671000  1.0
  Zn  Zn7  1  0.45670000  0.41340000  0.95670000  1.0
  C  C8  1  0.86237000  0.22474000  0.63763000  1.0
  C  C9  1  0.86237000  0.50000000  0.36236000  1.0
  C  C10  1  0.13763000  0.50000000  0.36237000  1.0
  C  C11  1  0.13763000  0.77526000  0.36237000  1.0
  C  C12  1  0.13764000  0.50000000  0.63763000  1.0
  C  C13  1  0.86237000  0.50000000  0.63763000  1.0
  C  C14  1  0.36237000  0.50001000  0.13763000  1.0
  C  C15  1  0.63763000  0.50000000  0.13764000  1.0
  C  C16  1  0.63763000  0.77527000  0.86237000  1.0
  C  C17  1  0.63764000  0.50001000  0.86236000  1.0
  C  C18  1  0.36237000  0.50000000  0.86236000  1.0
  C  C19  1  0.36237000  0.22474000  0.13763000  1.0
  C  C20  1  0.19491000  0.50000000  0.69490000  1.0
  C  C21  1  0.30510000  0.50001000  0.80509000  1.0
  C  C22  1  0.22339000  0.56437000  0.72338000  1.0
  C  C23  1  0.27662000  0.43563000  0.77661000  1.0
  C  C24  1  0.27662000  0.56438000  0.77661000  1.0
  C  C25  1  0.22339000  0.43563000  0.72338000  1.0
  C  C26  1  0.80510000  0.50001000  0.30509000  1.0
  C  C27  1  0.69491000  0.50001000  0.19490000  1.0
  C  C28  1  0.84099000  0.56438000  0.21224000  1.0
  C  C29  1  0.65902000  0.43564000  0.28775000  1.0
  C  C30  1  0.78776000  0.56438000  0.15901000  1.0
  C  C31  1  0.71224000  0.43563000  0.34099000  1.0
  C  C32  1  0.19490000  0.50000000  0.30510000  1.0
  C  C33  1  0.30509000  0.49999000  0.19491000  1.0
  C  C34  1  0.22339000  0.56437000  0.21224000  1.0
  C  C35  1  0.27661000  0.43563000  0.28776000  1.0
  C  C36  1  0.27661000  0.56437000  0.15902000  1.0
  C  C37  1  0.22338000  0.43562000  0.34099000  1.0
  C  C38  1  0.80510000  0.50000000  0.69490000  1.0
  C  C39  1  0.69491000  0.50000000  0.80509000  1.0
  C  C40  1  0.84098000  0.56437000  0.72339000  1.0
  C  C41  1  0.65902000  0.43563000  0.77661000  1.0
  C  C42  1  0.78776000  0.56437000  0.77661000  1.0
  C  C43  1  0.71224000  0.43563000  0.72339000  1.0
  C  C44  1  0.80510000  0.11020000  0.69490000  1.0
  C  C45  1  0.69491000  0.88981000  0.80509000  1.0
  C  C46  1  0.71224000  0.05322000  0.72339000  1.0
  C  C47  1  0.78776000  0.94677000  0.77661000  1.0
  C  C48  1  0.65902000  0.94678000  0.77661000  1.0
  C  C49  1  0.84099000  0.05323000  0.72338000  1.0
  C  C50  1  0.19491000  0.88981000  0.30509000  1.0
  C  C51  1  0.30510000  0.11019000  0.19490000  1.0
  C  C52  1  0.22339000  0.94677000  0.34098000  1.0
  C  C53  1  0.27662000  0.05323000  0.15901000  1.0
  C  C54  1  0.27661000  0.05322000  0.28776000  1.0
  C  C55  1  0.22339000  0.94677000  0.21224000  1.0
  O  O56  1  0.00000000  0.50000000  0.50000000  1.0
  O  O57  1  0.94538000  0.26829000  0.61586000  1.0
  O  O58  1  0.82290000  0.43876000  0.44539000  1.0
  O  O59  1  0.11585000  0.56123000  0.32291000  1.0
  O  O60  1  0.82291000  0.26829000  0.61585000  1.0
  O  O61  1  0.11586000  0.43876000  0.44538000  1.0
  O  O62  1  0.94538000  0.56124000  0.32291000  1.0
  O  O63  1  0.11586000  0.73172000  0.32290000  1.0
  O  O64  1  0.11586000  0.56124000  0.61585000  1.0
  O  O65  1  0.11586000  0.73172000  0.44538000  1.0
  O  O66  1  0.11586000  0.43876000  0.61585000  1.0
  O  O67  1  0.82290000  0.43876000  0.61586000  1.0
  O  O68  1  0.94538000  0.56123000  0.61586000  1.0
  O  O69  1  0.50000000  0.50000000  0.00000000  1.0
  O  O70  1  0.38414000  0.56123000  0.05462000  1.0
  O  O71  1  0.55462000  0.43876000  0.17709000  1.0
  O  O72  1  0.67710000  0.73172000  0.88414000  1.0
  O  O73  1  0.38414000  0.43876000  0.17710000  1.0
  O  O74  1  0.55462000  0.73172000  0.88414000  1.0
  O  O75  1  0.67710000  0.56124000  0.05461000  1.0
  O  O76  1  0.67710000  0.56124000  0.88414000  1.0
  O  O77  1  0.38414000  0.43876000  0.88415000  1.0
  O  O78  1  0.55462000  0.43876000  0.88414000  1.0
  O  O79  1  0.38414000  0.56124000  0.88415000  1.0
  O  O80  1  0.38415000  0.26829000  0.17709000  1.0
  O  O81  1  0.38414000  0.26829000  0.05462000  1.0
  F  F82  1  0.20091000  0.62945000  0.70092000  1.0
  F  F83  1  0.29909000  0.37055000  0.79908000  1.0
  F  F84  1  0.29909000  0.62946000  0.79908000  1.0
  F  F85  1  0.20092000  0.37055000  0.70091000  1.0
  F  F86  1  0.92854000  0.62945000  0.16963000  1.0
  F  F87  1  0.57146000  0.37055000  0.33037000  1.0
  F  F88  1  0.83037000  0.62946000  0.07146000  1.0
  F  F89  1  0.66963000  0.37054000  0.42854000  1.0
  F  F90  1  0.20092000  0.62946000  0.16963000  1.0
  F  F91  1  0.29908000  0.37054000  0.33037000  1.0
  F  F92  1  0.29908000  0.62945000  0.07147000  1.0
  F  F93  1  0.20091000  0.37054000  0.42854000  1.0
  F  F94  1  0.92854000  0.62945000  0.70091000  1.0
  F  F95  1  0.57146000  0.37054000  0.79909000  1.0
  F  F96  1  0.83037000  0.62946000  0.79908000  1.0
  F  F97  1  0.66963000  0.37055000  0.70092000  1.0
  F  F98  1  0.66963000  0.09817000  0.70092000  1.0
  F  F99  1  0.83037000  0.90183000  0.79908000  1.0
  F  F100  1  0.57146000  0.90183000  0.79909000  1.0
  F  F101  1  0.92854000  0.09817000  0.70091000  1.0
  F  F102  1  0.20092000  0.90183000  0.42853000  1.0
  F  F103  1  0.29909000  0.09817000  0.07146000  1.0
  F  F104  1  0.29908000  0.09816000  0.33037000  1.0
  F  F105  1  0.20092000  0.90183000  0.16963000  1.0
