# generated using pymatgen
data_Zn4H70C81(N8O3)2
_symmetry_space_group_name_H-M   'P 1'
_cell_length_a   19.25700000
_cell_length_b   19.92300000
_cell_length_c   20.27040000
_cell_angle_alpha   110.45500000
_cell_angle_beta   106.04700000
_cell_angle_gamma   110.18800000
_symmetry_Int_Tables_number   1
_chemical_formula_structural   Zn4H70C81(N8O3)2
_chemical_formula_sum   'Zn4 H70 C81 N16 O6'
_cell_volume   6102.19204085
_cell_formula_units_Z   1
loop_
 _symmetry_equiv_pos_site_id
 _symmetry_equiv_pos_as_xyz
  1  'x, y, z'
loop_
 _atom_site_type_symbol
 _atom_site_label
 _atom_site_symmetry_multiplicity
 _atom_site_fract_x
 _atom_site_fract_y
 _atom_site_fract_z
 _atom_site_occupancy
  Zn  Zn0  1  0.01345000  0.60841000  0.09947000  1.0
  Zn  Zn1  1  0.01097000  0.40482000  0.89518000  1.0
  Zn  Zn2  1  0.13206000  0.61853000  0.99321000  1.0
  Zn  Zn3  1  0.87726000  0.39624000  0.97483000  1.0
  H  H4  1  0.96014000  0.73918000  0.09411000  1.0
  H  H5  1  0.84718000  0.35982000  0.48064000  1.0
  H  H6  1  0.97299000  0.00902000  0.14119000  1.0
  H  H7  1  0.98077000  0.14011000  0.15244000  1.0
  H  H8  1  0.20112000  0.19982000  0.11881000  1.0
  H  H9  1  0.07358000  0.63672000  0.82769000  1.0
  H  H10  1  0.88451000  0.39076000  0.74775000  1.0
  H  H11  1  0.71143000  0.26625000  0.81884000  1.0
  H  H12  1  0.01604000  0.63542000  0.27663000  1.0
  H  H13  1  0.43387000  0.74469000  0.22270000  1.0
  H  H14  1  0.42259000  0.83363000  0.26402000  1.0
  H  H15  1  0.15993000  0.34992000  0.90143000  1.0
  H  H16  1  0.45167000  0.81514000  0.18509000  1.0
  H  H17  1  0.80487000  0.08893000  0.02781000  1.0
  H  H18  1  0.73165000  0.08881000  0.95179000  1.0
  H  H19  1  0.77185000  0.02073000  0.92736000  1.0
  H  H20  1  0.84090000  0.14069000  0.90865000  1.0
  H  H21  1  0.91350000  0.13986000  0.98360000  1.0
  H  H22  1  0.90062000  0.24376000  0.08640000  1.0
  H  H23  1  0.82869000  0.24515000  0.01071000  1.0
  H  H24  1  0.55443000  0.67365000  0.28394000  1.0
  H  H25  1  0.66077000  0.74174000  0.35208000  1.0
  H  H26  1  0.13924000  0.41219000  0.04978000  1.0
  H  H27  1  0.60710000  0.64698000  0.34842000  1.0
  H  H28  1  0.62291000  0.76227000  0.46548000  1.0
  H  H29  1  0.51723000  0.69594000  0.39729000  1.0
  H  H30  1  0.52232000  0.79083000  0.34230000  1.0
  H  H31  1  0.62861000  0.85792000  0.40999000  1.0
  H  H32  1  0.80280000  0.14703000  0.61938000  1.0
  H  H33  1  0.81610000  0.08314000  0.66018000  1.0
  H  H34  1  0.89398000  0.13597000  0.63671000  1.0
  H  H35  1  0.78784000  0.60142000  0.39017000  1.0
  H  H36  1  0.84094000  0.57850000  0.33241000  1.0
  H  H37  1  0.15548000  0.62654000  0.24242000  1.0
  H  H38  1  0.87335000  0.68333000  0.39788000  1.0
  H  H39  1  0.99905000  0.80863000  0.69632000  1.0
  H  H40  1  0.99407000  0.76067000  0.75527000  1.0
  H  H41  1  0.09012000  0.81449000  0.75655000  1.0
  H  H42  1  0.03084000  0.66219000  0.67347000  1.0
  H  H43  1  0.03476000  0.70963000  0.61446000  1.0
  H  H44  1  0.88508000  0.66938000  0.57271000  1.0
  H  H45  1  0.88122000  0.62218000  0.63259000  1.0
  H  H46  1  0.93636000  0.32333000  0.39451000  1.0
  H  H47  1  0.95158000  0.37648000  0.33950000  1.0
  H  H48  1  0.88139000  0.37084000  0.12573000  1.0
  H  H49  1  0.88070000  0.26810000  0.28864000  1.0
  H  H50  1  0.30989000  0.17428000  0.15888000  1.0
  H  H51  1  0.25115000  0.12498000  0.05351000  1.0
  H  H52  1  0.30906000  0.08423000  0.09577000  1.0
  H  H53  1  0.58292000  0.35553000  0.91173000  1.0
  H  H54  1  0.61052000  0.33861000  0.99422000  1.0
  H  H55  1  0.57899000  0.25963000  0.89710000  1.0
  H  H56  1  0.85385000  0.79802000  0.22612000  1.0
  H  H57  1  0.92481000  0.82707000  0.18794000  1.0
  H  H58  1  0.82789000  0.82324000  0.15029000  1.0
  H  H59  1  0.30073000  0.61300000  0.06116000  1.0
  H  H60  1  0.82463000  0.69843000  0.05561000  1.0
  H  H61  1  0.75257000  0.67051000  0.09192000  1.0
  H  H62  1  0.84720000  0.65547000  0.18879000  1.0
  H  H63  1  0.92664000  0.69078000  0.16234000  1.0
  H  H64  1  0.26277000  0.93663000  0.99055000  1.0
  H  H65  1  0.23601000  0.84261000  0.91067000  1.0
  H  H66  1  0.19222000  0.90367000  0.89345000  1.0
  H  H67  1  0.08833000  0.78351000  0.89291000  1.0
  H  H68  1  0.11465000  0.87804000  0.97069000  1.0
  H  H69  1  0.21953000  0.86550000  0.06393000  1.0
  H  H70  1  0.67109000  0.95300000  0.54190000  1.0
  H  H71  1  0.19070000  0.76883000  0.98778000  1.0
  H  H72  1  0.37965000  0.83981000  0.49975000  1.0
  H  H73  1  0.49040000  0.96580000  0.62527000  1.0
  C  C74  1  0.00560000  0.74080000  0.07214000  1.0
  C  C75  1  0.18431000  0.64741000  0.20920000  1.0
  C  C76  1  0.91764000  0.43697000  0.15179000  1.0
  C  C77  1  0.85210000  0.23834000  0.76918000  1.0
  C  C78  1  0.25361000  0.54996000  0.01761000  1.0
  C  C79  1  0.93760000  0.49878000  0.22630000  1.0
  C  C80  1  0.26252000  0.47899000  0.99379000  1.0
  C  C81  1  0.26978000  0.69423000  0.23269000  1.0
  C  C82  1  0.03853000  0.32347000  0.06087000  1.0
  C  C83  1  0.68136000  0.50323000  0.06341000  1.0
  C  C84  1  0.62130000  0.50236000  0.07454000  1.0
  C  C85  1  0.76767000  0.20168000  0.75442000  1.0
  C  C86  1  0.55017000  0.49737000  0.07450000  1.0
  C  C87  1  0.48105000  0.48997000  0.06491000  1.0
  C  C88  1  0.40556000  0.48298000  0.04577000  1.0
  C  C89  1  0.03476000  0.57780000  0.82082000  1.0
  C  C90  1  0.33649000  0.47714000  0.02145000  1.0
  C  C91  1  0.54593000  0.85633000  0.46222000  1.0
  C  C92  1  0.46190000  0.82667000  0.44854000  1.0
  C  C93  1  0.44402000  0.86472000  0.50992000  1.0
  C  C94  1  0.50567000  0.93510000  0.57988000  1.0
  C  C95  1  0.58814000  0.97027000  0.59077000  1.0
  C  C96  1  0.96053000  0.51047000  0.75497000  1.0
  C  C97  1  0.60694000  0.92746000  0.53266000  1.0
  C  C98  1  0.39549000  0.76733000  0.37238000  1.0
  C  C99  1  0.64986000  0.04930000  0.65411000  1.0
  C  C100  1  0.70409000  0.12053000  0.70107000  1.0
  C  C101  1  0.74895000  0.43594000  0.99243000  1.0
  C  C102  1  0.33650000  0.72995000  0.30695000  1.0
  C  C103  1  0.89205000  0.55870000  0.53011000  1.0
  C  C104  1  0.88092000  0.48882000  0.53913000  1.0
  C  C105  1  0.85936000  0.41451000  0.47478000  1.0
  C  C106  1  0.85714000  0.41148000  0.40486000  1.0
  C  C107  1  0.74611000  0.50235000  0.04580000  1.0
  C  C108  1  0.87673000  0.48274000  0.39685000  1.0
  C  C109  1  0.88951000  0.55451000  0.45897000  1.0
  C  C110  1  0.89797000  0.49507000  0.61437000  1.0
  C  C111  1  0.89163000  0.48421000  0.33304000  1.0
  C  C112  1  0.91321000  0.48974000  0.28304000  1.0
  C  C113  1  0.93781000  0.45188000  0.77971000  1.0
  C  C114  1  0.92344000  0.50176000  0.67993000  1.0
  C  C115  1  0.02748000  0.12444000  0.14328000  1.0
  C  C116  1  0.09009000  0.17705000  0.13362000  1.0
  C  C117  1  0.15229000  0.15803000  0.12468000  1.0
  C  C118  1  0.98635000  0.57241000  0.22955000  1.0
  C  C119  1  0.14793000  0.08480000  0.11871000  1.0
  C  C120  1  0.08079000  0.02812000  0.12155000  1.0
  C  C121  1  0.02321000  0.05133000  0.13691000  1.0
  C  C122  1  0.08453000  0.24183000  0.12302000  1.0
  C  C123  1  0.07130000  0.94975000  0.10456000  1.0
  C  C124  1  0.06233000  0.88064000  0.08357000  1.0
  C  C125  1  0.82660000  0.57061000  0.07735000  1.0
  C  C126  1  0.07083000  0.28675000  0.09925000  1.0
  C  C127  1  0.76423000  0.26644000  0.80915000  1.0
  C  C128  1  0.10135000  0.77091000  0.02975000  1.0
  C  C129  1  0.18213000  0.41530000  0.93514000  1.0
  C  C130  1  0.05534000  0.80278000  0.06179000  1.0
  C  C131  1  0.41467000  0.78640000  0.20969000  1.0
  C  C132  1  0.88307000  0.23614000  0.02664000  1.0
  C  C133  1  0.85863000  0.14799000  0.96827000  1.0
  C  C134  1  0.78788000  0.08307000  0.96880000  1.0
  C  C135  1  0.56921000  0.81347000  0.40182000  1.0
  C  C136  1  0.57676000  0.74039000  0.40576000  1.0
  C  C137  1  0.60105000  0.69840000  0.34428000  1.0
  C  C138  1  0.84833000  0.13930000  0.65821000  1.0
  C  C139  1  0.84836000  0.62081000  0.38929000  1.0
  C  C140  1  0.26977000  0.70337000  0.16616000  1.0
  C  C141  1  0.91121000  0.63719000  0.59684000  1.0
  C  C142  1  0.00475000  0.69510000  0.65037000  1.0
  C  C143  1  0.02313000  0.77405000  0.71837000  1.0
  C  C144  1  0.90601000  0.32672000  0.34191000  1.0
  C  C145  1  0.27203000  0.11477000  0.10372000  1.0
  C  C146  1  0.61175000  0.32598000  0.93745000  1.0
  C  C147  1  0.85871000  0.65674000  0.13875000  1.0
  C  C148  1  0.81938000  0.70264000  0.10951000  1.0
  C  C149  1  0.85863000  0.79258000  0.17183000  1.0
  C  C150  1  0.16680000  0.81078000  0.00918000  1.0
  C  C151  1  0.95303000  0.29960000  0.02712000  1.0
  C  C152  1  0.13954000  0.83761000  0.94881000  1.0
  C  C153  1  0.21139000  0.88245000  0.93491000  1.0
  C  C154  1  0.07501000  0.38007000  0.03781000  1.0
  N  N155  1  0.02179000  0.67786000  0.04985000  1.0
  N  N156  1  0.05454000  0.55903000  0.87830000  1.0
  N  N157  1  0.82303000  0.46303000  0.99197000  1.0
  N  N158  1  0.99468000  0.48157000  0.85357000  1.0
  N  N159  1  0.87116000  0.54637000  0.04464000  1.0
  N  N160  1  0.83920000  0.33425000  0.85287000  1.0
  N  N161  1  0.07998000  0.69649000  0.02322000  1.0
  N  N162  1  0.99323000  0.55407000  0.16203000  1.0
  N  N163  1  0.13105000  0.44689000  0.92518000  1.0
  N  N164  1  0.19188000  0.66542000  0.11015000  1.0
  N  N165  1  0.94146000  0.33878000  0.98683000  1.0
  N  N166  1  0.01607000  0.38855000  0.99275000  1.0
  N  N167  1  0.13827000  0.63081000  0.13636000  1.0
  N  N168  1  0.95077000  0.47081000  0.11365000  1.0
  N  N169  1  0.17515000  0.53009000  0.97661000  1.0
  N  N170  1  0.89335000  0.31632000  0.82789000  1.0
  O  O171  1  0.33026000  0.74153000  0.14952000  1.0
  O  O172  1  0.89514000  0.21001000  0.73622000  1.0
  O  O173  1  0.90766000  0.62564000  0.45475000  1.0
  O  O174  1  0.83667000  0.33870000  0.34227000  1.0
  O  O175  1  0.20354000  0.06026000  0.10708000  1.0
  O  O176  1  0.69542000  0.35438000  0.94696000  1.0
