# generated using pymatgen
data_ZnH9C16(N3O2)2
_symmetry_space_group_name_H-M   'P 1'
_cell_length_a   7.16159000
_cell_length_b   7.61791000
_cell_length_c   15.32640000
_cell_angle_alpha   83.37020000
_cell_angle_beta   86.96830000
_cell_angle_gamma   67.09000000
_symmetry_Int_Tables_number   1
_chemical_formula_structural   ZnH9C16(N3O2)2
_chemical_formula_sum   'Zn2 H18 C32 N12 O8'
_cell_volume   765.01535835
_cell_formula_units_Z   2
loop_
 _symmetry_equiv_pos_site_id
 _symmetry_equiv_pos_as_xyz
  1  'x, y, z'
loop_
 _atom_site_type_symbol
 _atom_site_label
 _atom_site_symmetry_multiplicity
 _atom_site_fract_x
 _atom_site_fract_y
 _atom_site_fract_z
 _atom_site_occupancy
  Zn  Zn0  1  0.27597000  0.86422000  0.31008000  1.0
  Zn  Zn1  1  0.72403000  0.13578000  0.68992000  1.0
  H  H2  1  0.45572000  0.67433000  0.72264000  1.0
  H  H3  1  0.54428000  0.32567000  0.27736000  1.0
  H  H4  1  0.87390000  0.94433000  0.44164000  1.0
  H  H5  1  0.12610000  0.05568000  0.55836000  1.0
  H  H6  1  0.53297000  0.92190000  0.43030000  1.0
  H  H7  1  0.46703000  0.07811000  0.56970000  1.0
  H  H8  1  0.65415000  0.80738000  0.17000000  1.0
  H  H9  1  0.34585000  0.19261000  0.83001000  1.0
  H  H10  1  0.15415000  0.63289000  0.77130000  1.0
  H  H11  1  0.84585000  0.36710000  0.22870000  1.0
  H  H12  1  0.03795000  0.67291000  0.92804000  1.0
  H  H13  1  0.96205000  0.32708000  0.07196000  1.0
  H  H14  1  0.57444000  0.77654000  0.97516000  1.0
  H  H15  1  0.42555000  0.22347000  0.02484000  1.0
  H  H16  1  0.67294000  0.72847000  0.81497000  1.0
  H  H17  1  0.32706000  0.27153000  0.18502000  1.0
  H  H18  1  0.79651000  0.31398000  0.47051000  1.0
  H  H19  1  0.20349000  0.68602000  0.52949000  1.0
  C  C20  1  0.82863000  0.90742000  0.38185000  1.0
  C  C21  1  0.17137000  0.09259000  0.61814000  1.0
  C  C22  1  0.63944000  0.89799000  0.37546000  1.0
  C  C23  1  0.36056000  0.10202000  0.62454000  1.0
  C  C24  1  0.70802000  0.83229000  0.23089000  1.0
  C  C25  1  0.29198000  0.16771000  0.76911000  1.0
  C  C26  1  0.90132000  0.83424000  0.23843000  1.0
  C  C27  1  0.09868000  0.16576000  0.76157000  1.0
  C  C28  1  0.05407000  0.80476000  0.16896000  1.0
  C  C29  1  0.94593000  0.19525000  0.83104000  1.0
  C  C30  1  0.22902000  0.76338000  0.05333000  1.0
  C  C31  1  0.77098000  0.23662000  0.94667000  1.0
  C  C32  1  0.24318000  0.66045000  0.81966000  1.0
  C  C33  1  0.75682000  0.33955000  0.18034000  1.0
  C  C34  1  0.17949000  0.68513000  0.90566000  1.0
  C  C35  1  0.82051000  0.31487000  0.09434000  1.0
  C  C36  1  0.29662000  0.72970000  0.96364000  1.0
  C  C37  1  0.70338000  0.27030000  0.03636000  1.0
  C  C38  1  0.47981000  0.74276000  0.93204000  1.0
  C  C39  1  0.52019000  0.25724000  0.06796000  1.0
  C  C40  1  0.53625000  0.71699000  0.84541000  1.0
  C  C41  1  0.46374000  0.28301000  0.15459000  1.0
  C  C42  1  0.17848000  0.47864000  0.45216000  1.0
  C  C43  1  0.82151000  0.52137000  0.54784000  1.0
  C  C44  1  0.06471000  0.37205000  0.43496000  1.0
  C  C45  1  0.93528000  0.62795000  0.56504000  1.0
  C  C46  1  0.88687000  0.39517000  0.48292000  1.0
  C  C47  1  0.11312000  0.60483000  0.51708000  1.0
  C  C48  1  0.36666000  0.46184000  0.40017000  1.0
  C  C49  1  0.63334000  0.53816000  0.59983000  1.0
  C  C50  1  0.13027000  0.23049000  0.36744000  1.0
  C  C51  1  0.86973000  0.76951000  0.63256000  1.0
  N  N52  1  0.95776000  0.87380000  0.31429000  1.0
  N  N53  1  0.04225000  0.12621000  0.68571000  1.0
  N  N54  1  0.57953000  0.86427000  0.29994000  1.0
  N  N55  1  0.42047000  0.13573000  0.70006000  1.0
  N  N56  1  0.22972000  0.82474000  0.18568000  1.0
  N  N57  1  0.77028000  0.17526000  0.81432000  1.0
  N  N58  1  0.34263000  0.79844000  0.11194000  1.0
  N  N59  1  0.65737000  0.20156000  0.88806000  1.0
  N  N60  1  0.04742000  0.76579000  0.08643000  1.0
  N  N61  1  0.95257000  0.23421000  0.91357000  1.0
  N  N62  1  0.41692000  0.67849000  0.79142000  1.0
  N  N63  1  0.58308000  0.32150000  0.20858000  1.0
  O  O64  1  0.40824000  0.61090000  0.38275000  1.0
  O  O65  1  0.59176000  0.38909000  0.61725000  1.0
  O  O66  1  0.47693000  0.30012000  0.37539000  1.0
  O  O67  1  0.52307000  0.69988000  0.62461000  1.0
  O  O68  1  0.11822000  0.28673000  0.28703000  1.0
  O  O69  1  0.88178000  0.71327000  0.71297000  1.0
  O  O70  1  0.18836000  0.05362000  0.40020000  1.0
  O  O71  1  0.81164000  0.94638000  0.59980000  1.0
