# generated using pymatgen
data_CuH22C26(N2O3)2
_symmetry_space_group_name_H-M   'P 1'
_cell_length_a   9.95055000
_cell_length_b   10.90590000
_cell_length_c   12.35650000
_cell_angle_alpha   91.21420000
_cell_angle_beta   111.24200000
_cell_angle_gamma   94.77120000
_symmetry_Int_Tables_number   1
_chemical_formula_structural   CuH22C26(N2O3)2
_chemical_formula_sum   'Cu2 H44 C52 N8 O12'
_cell_volume   1243.58540036
_cell_formula_units_Z   2
loop_
 _symmetry_equiv_pos_site_id
 _symmetry_equiv_pos_as_xyz
  1  'x, y, z'
loop_
 _atom_site_type_symbol
 _atom_site_label
 _atom_site_symmetry_multiplicity
 _atom_site_fract_x
 _atom_site_fract_y
 _atom_site_fract_z
 _atom_site_occupancy
  Cu  Cu0  1  0.67755000  0.87384000  0.50528000  1.0
  Cu  Cu1  1  0.32245000  0.12616000  0.49472000  1.0
  H  H2  1  0.08590000  0.53234000  0.24944000  1.0
  H  H3  1  0.95467000  0.32488000  0.23650000  1.0
  H  H4  1  0.77500000  0.29267000  0.33316000  1.0
  H  H5  1  0.71145000  0.47388000  0.42536000  1.0
  H  H6  1  0.01851000  0.82005000  0.37277000  1.0
  H  H7  1  0.88712000  0.05329000  0.46470000  1.0
  H  H8  1  0.95115000  0.12208000  0.29999000  1.0
  H  H9  1  0.55765000  0.90852000  0.07165000  1.0
  H  H10  1  0.51866000  0.84040000  0.25003000  1.0
  H  H11  1  0.98461000  0.93306000  0.18256000  1.0
  H  H12  1  0.11413000  0.04898000  0.17065000  1.0
  H  H13  1  0.02241000  0.18417000  0.98579000  1.0
  H  H14  1  0.83629000  0.14849000  0.89552000  1.0
  H  H15  1  0.44143000  0.60451000  0.81842000  1.0
  H  H16  1  0.34771000  0.61058000  0.91580000  1.0
  H  H17  1  0.50402000  0.60813000  0.13672000  1.0
  H  H18  1  0.69356000  0.60101000  0.17109000  1.0
  H  H19  1  0.52997000  0.87199000  0.85596000  1.0
  H  H20  1  0.53745000  0.94078000  0.66512000  1.0
  H  H21  1  0.78424000  0.66142000  0.64272000  1.0
  H  H22  1  0.80074000  0.58808000  0.83760000  1.0
  H  H23  1  0.26843000  0.67006000  0.37457000  1.0
  H  H24  1  0.91409000  0.46766000  0.75056000  1.0
  H  H25  1  0.04532000  0.67512000  0.76350000  1.0
  H  H26  1  0.22499000  0.70733000  0.66685000  1.0
  H  H27  1  0.28855000  0.52613000  0.57465000  1.0
  H  H28  1  0.98149000  0.17995000  0.62723000  1.0
  H  H29  1  0.11288000  0.94671000  0.53530000  1.0
  H  H30  1  0.04885000  0.87792000  0.70001000  1.0
  H  H31  1  0.44235000  0.09148000  0.92835000  1.0
  H  H32  1  0.48134000  0.15961000  0.74997000  1.0
  H  H33  1  0.01540000  0.06694000  0.81744000  1.0
  H  H34  1  0.88588000  0.95101000  0.82936000  1.0
  H  H35  1  0.97760000  0.81583000  0.01421000  1.0
  H  H36  1  0.16371000  0.85151000  0.10448000  1.0
  H  H37  1  0.55857000  0.39550000  0.18158000  1.0
  H  H38  1  0.65229000  0.38943000  0.08420000  1.0
  H  H39  1  0.49598000  0.39187000  0.86328000  1.0
  H  H40  1  0.30644000  0.39900000  0.82891000  1.0
  H  H41  1  0.47003000  0.12800000  0.14403000  1.0
  H  H42  1  0.46255000  0.05922000  0.33487000  1.0
  H  H43  1  0.21576000  0.33858000  0.35728000  1.0
  H  H44  1  0.19926000  0.41192000  0.16240000  1.0
  H  H45  1  0.73157000  0.32994000  0.62543000  1.0
  C  C46  1  0.82803000  0.70576000  0.45522000  1.0
  C  C47  1  0.86905000  0.60162000  0.39612000  1.0
  C  C48  1  0.98121000  0.61867000  0.35115000  1.0
  C  C49  1  0.00672000  0.51740000  0.29115000  1.0
  C  C50  1  0.93225000  0.40186000  0.28303000  1.0
  C  C51  1  0.82913000  0.38412000  0.33500000  1.0
  C  C52  1  0.79537000  0.48456000  0.38805000  1.0
  C  C53  1  0.06865000  0.73679000  0.36529000  1.0
  C  C54  1  0.29766000  0.87070000  0.39752000  1.0
  C  C55  1  0.81922000  0.02130000  0.37643000  1.0
  C  C56  1  0.85305000  0.06028000  0.28216000  1.0
  C  C57  1  0.76022000  0.01989000  0.16986000  1.0
  C  C58  1  0.63681000  0.94032000  0.15676000  1.0
  C  C59  1  0.61236000  0.90285000  0.25539000  1.0
  C  C60  1  0.78159000  0.07127000  0.06477000  1.0
  C  C61  1  0.02070000  0.98326000  0.12080000  1.0
  C  C62  1  0.93442000  0.10938000  0.95079000  1.0
  C  C63  1  0.43819000  0.57147000  0.90038000  1.0
  C  C64  1  0.58553000  0.56928000  0.10848000  1.0
  C  C65  1  0.68381000  0.68600000  0.98305000  1.0
  C  C66  1  0.66615000  0.72410000  0.86253000  1.0
  C  C67  1  0.58922000  0.82320000  0.81255000  1.0
  C  C68  1  0.59020000  0.86090000  0.70587000  1.0
  C  C69  1  0.73138000  0.70588000  0.69391000  1.0
  C  C70  1  0.73877000  0.66512000  0.80151000  1.0
  C  C71  1  0.20892000  0.74957000  0.37573000  1.0
  C  C72  1  0.17198000  0.29424000  0.54478000  1.0
  C  C73  1  0.13095000  0.39838000  0.60388000  1.0
  C  C74  1  0.01879000  0.38133000  0.64885000  1.0
  C  C75  1  0.99327000  0.48260000  0.70885000  1.0
  C  C76  1  0.06775000  0.59814000  0.71697000  1.0
  C  C77  1  0.17086000  0.61588000  0.66501000  1.0
  C  C78  1  0.20462000  0.51544000  0.61195000  1.0
  C  C79  1  0.93135000  0.26321000  0.63471000  1.0
  C  C80  1  0.70233000  0.12930000  0.60248000  1.0
  C  C81  1  0.18078000  0.97870000  0.62357000  1.0
  C  C82  1  0.14695000  0.93972000  0.71784000  1.0
  C  C83  1  0.23978000  0.98011000  0.83014000  1.0
  C  C84  1  0.36319000  0.05968000  0.84323000  1.0
  C  C85  1  0.38764000  0.09715000  0.74461000  1.0
  C  C86  1  0.21842000  0.92873000  0.93523000  1.0
  C  C87  1  0.97930000  0.01674000  0.87920000  1.0
  C  C88  1  0.06558000  0.89062000  0.04921000  1.0
  C  C89  1  0.56181000  0.42853000  0.09962000  1.0
  C  C90  1  0.41447000  0.43072000  0.89152000  1.0
  C  C91  1  0.31619000  0.31399000  0.01695000  1.0
  C  C92  1  0.33385000  0.27590000  0.13747000  1.0
  C  C93  1  0.41078000  0.17680000  0.18745000  1.0
  C  C94  1  0.40980000  0.13910000  0.29413000  1.0
  C  C95  1  0.26862000  0.29412000  0.30609000  1.0
  C  C96  1  0.26123000  0.33488000  0.19849000  1.0
  C  C97  1  0.79107000  0.25044000  0.62427000  1.0
  N  N98  1  0.65987000  0.80290000  0.64754000  1.0
  N  N99  1  0.70161000  0.94371000  0.36334000  1.0
  N  N100  1  0.90435000  0.05137000  0.04616000  1.0
  N  N101  1  0.57281000  0.61456000  0.99536000  1.0
  N  N102  1  0.34013000  0.19710000  0.35245000  1.0
  N  N103  1  0.29839000  0.05629000  0.63666000  1.0
  N  N104  1  0.09566000  0.94862000  0.95385000  1.0
  N  N105  1  0.42720000  0.38545000  0.00463000  1.0
  O  O106  1  0.69087000  0.70543000  0.43630000  1.0
  O  O107  1  0.92270000  0.78676000  0.51825000  1.0
  O  O108  1  0.23292000  0.96654000  0.40608000  1.0
  O  O109  1  0.42822000  0.87296000  0.40650000  1.0
  O  O110  1  0.68653000  0.13302000  0.00060000  1.0
  O  O111  1  0.79915000  0.72021000  0.06455000  1.0
  O  O112  1  0.30913000  0.29457000  0.56370000  1.0
  O  O113  1  0.07731000  0.21324000  0.48175000  1.0
  O  O114  1  0.76708000  0.03346000  0.59392000  1.0
  O  O115  1  0.57178000  0.12705000  0.59349000  1.0
  O  O116  1  0.31347000  0.86698000  0.99940000  1.0
  O  O117  1  0.20086000  0.27979000  0.93546000  1.0
