# generated using pymatgen
data_GdH19C24Cl6O11
_symmetry_space_group_name_H-M   'P 1'
_cell_length_a   8.83824000
_cell_length_b   13.65890000
_cell_length_c   31.64000000
_cell_angle_alpha   90.00040000
_cell_angle_beta   90.00020000
_cell_angle_gamma   93.87680000
_symmetry_Int_Tables_number   1
_chemical_formula_structural   GdH19C24Cl6O11
_chemical_formula_sum   'Gd4 H76 C96 Cl24 O44'
_cell_volume   3810.86068416
_cell_formula_units_Z   4
loop_
 _symmetry_equiv_pos_site_id
 _symmetry_equiv_pos_as_xyz
  1  'x, y, z'
loop_
 _atom_site_type_symbol
 _atom_site_label
 _atom_site_symmetry_multiplicity
 _atom_site_fract_x
 _atom_site_fract_y
 _atom_site_fract_z
 _atom_site_occupancy
  Gd  Gd0  1  0.76685000  0.00848000  0.00231000  1.0
  Gd  Gd1  1  0.26685000  0.50848000  0.49769000  1.0
  Gd  Gd2  1  0.23315000  0.99151000  0.99769000  1.0
  Gd  Gd3  1  0.73315000  0.49152000  0.50231000  1.0
  H  H4  1  0.70458000  0.82080000  0.03543000  1.0
  H  H5  1  0.20458000  0.32079000  0.46457000  1.0
  H  H6  1  0.29542000  0.17920000  0.96457000  1.0
  H  H7  1  0.79542000  0.67921000  0.53543000  1.0
  H  H8  1  0.54650000  0.83158000  0.01413000  1.0
  H  H9  1  0.04650000  0.33158000  0.48587000  1.0
  H  H10  1  0.45350000  0.16841000  0.98587000  1.0
  H  H11  1  0.95350000  0.66842000  0.51413000  1.0
  H  H12  1  0.84718000  0.94869000  0.09439000  1.0
  H  H13  1  0.34717000  0.44867000  0.40561000  1.0
  H  H14  1  0.15283000  0.05131000  0.90561000  1.0
  H  H15  1  0.65283000  0.55131000  0.59439000  1.0
  H  H16  1  0.95748000  0.89143000  0.06504000  1.0
  H  H17  1  0.45748000  0.39143000  0.43497000  1.0
  H  H18  1  0.04251000  0.10856000  0.93496000  1.0
  H  H19  1  0.54252000  0.60857000  0.56504000  1.0
  H  H20  1  0.17562000  0.16295000  0.08749000  1.0
  H  H21  1  0.67561000  0.66295000  0.41251000  1.0
  H  H22  1  0.82437000  0.83705000  0.91251000  1.0
  H  H23  1  0.32438000  0.33705000  0.58750000  1.0
  H  H24  1  0.14741000  0.26087000  0.05267000  1.0
  H  H25  1  0.64740000  0.76088000  0.44733000  1.0
  H  H26  1  0.85259000  0.73912000  0.94733000  1.0
  H  H27  1  0.35259000  0.23913000  0.55267000  1.0
  H  H28  1  0.68836000  0.26069000  0.21416000  1.0
  H  H29  1  0.18835000  0.76069000  0.28583000  1.0
  H  H30  1  0.31164000  0.73931000  0.78583000  1.0
  H  H31  1  0.81166000  0.23931000  0.71416000  1.0
  H  H32  1  0.88620000  0.98836000  0.18532000  1.0
  H  H33  1  0.38619000  0.48836000  0.31468000  1.0
  H  H34  1  0.11379000  0.01164000  0.81468000  1.0
  H  H35  1  0.61380000  0.51164000  0.68532000  1.0
  H  H36  1  0.03425000  0.06981000  0.12747000  1.0
  H  H37  1  0.53425000  0.56981000  0.37252000  1.0
  H  H38  1  0.96574000  0.93019000  0.87252000  1.0
  H  H39  1  0.46574000  0.43019000  0.62748000  1.0
  H  H40  1  0.63175000  0.25892000  0.90557000  1.0
  H  H41  1  0.13175000  0.75893000  0.59442000  1.0
  H  H42  1  0.36825000  0.74107000  0.09443000  1.0
  H  H43  1  0.86824000  0.24107000  0.40558000  1.0
  H  H44  1  0.73826000  0.33438000  0.94208000  1.0
  H  H45  1  0.23829000  0.83439000  0.55792000  1.0
  H  H46  1  0.26172000  0.66561000  0.05792000  1.0
  H  H47  1  0.76171000  0.16561000  0.44208000  1.0
  H  H48  1  0.07083000  0.22604000  0.76728000  1.0
  H  H49  1  0.57084000  0.72603000  0.73272000  1.0
  H  H50  1  0.92917000  0.77398000  0.23272000  1.0
  H  H51  1  0.42917000  0.27397000  0.26727000  1.0
  H  H52  1  0.71851000  0.01686000  0.81220000  1.0
  H  H53  1  0.21849000  0.51686000  0.68780000  1.0
  H  H54  1  0.28151000  0.98314000  0.18780000  1.0
  H  H55  1  0.78151000  0.48313000  0.31220000  1.0
  H  H56  1  0.69868000  0.11300000  0.87734000  1.0
  H  H57  1  0.19867000  0.61300000  0.62266000  1.0
  H  H58  1  0.30133000  0.88700000  0.12266000  1.0
  H  H59  1  0.80132000  0.38699000  0.37734000  1.0
  H  H60  1  0.56901000  0.99486000  0.13199000  1.0
  H  H61  1  0.06900000  0.49485000  0.36801000  1.0
  H  H62  1  0.43099000  0.00514000  0.86801000  1.0
  H  H63  1  0.93101000  0.50516000  0.63199000  1.0
  H  H64  1  0.64560000  0.10942000  0.11235000  1.0
  H  H65  1  0.14559000  0.60942000  0.38765000  1.0
  H  H66  1  0.35440000  0.89058000  0.88765000  1.0
  H  H67  1  0.85440000  0.39059000  0.61236000  1.0
  H  H68  1  0.21935000  0.37635000  0.19052000  1.0
  H  H69  1  0.71934000  0.87635000  0.30948000  1.0
  H  H70  1  0.78066000  0.62365000  0.80948000  1.0
  H  H71  1  0.28066000  0.12365000  0.69052000  1.0
  H  H72  1  0.48392000  0.40292000  0.07611000  1.0
  H  H73  1  0.98391000  0.90292000  0.42389000  1.0
  H  H74  1  0.51608000  0.59708000  0.92389000  1.0
  H  H75  1  0.01609000  0.09709000  0.57611000  1.0
  H  H76  1  0.54658000  0.23060000  0.08260000  1.0
  H  H77  1  0.04656000  0.73060000  0.41740000  1.0
  H  H78  1  0.45342000  0.76939000  0.91739000  1.0
  H  H79  1  0.95344000  0.26941000  0.58261000  1.0
  C  C80  1  0.97886000  0.14125000  0.04825000  1.0
  C  C81  1  0.47884000  0.64124000  0.45175000  1.0
  C  C82  1  0.02115000  0.85875000  0.95175000  1.0
  C  C83  1  0.52115000  0.35876000  0.54825000  1.0
  C  C84  1  0.08827000  0.20735000  0.07390000  1.0
  C  C85  1  0.58826000  0.70735000  0.42610000  1.0
  C  C86  1  0.91173000  0.79265000  0.92610000  1.0
  C  C87  1  0.41173000  0.29266000  0.57390000  1.0
  C  C88  1  0.94063000  0.21097000  0.13638000  1.0
  C  C89  1  0.44062000  0.71098000  0.36362000  1.0
  C  C90  1  0.05936000  0.78902000  0.86362000  1.0
  C  C91  1  0.55938000  0.28903000  0.63638000  1.0
  C  C92  1  0.84464000  0.26399000  0.16201000  1.0
  C  C93  1  0.34463000  0.76399000  0.33798000  1.0
  C  C94  1  0.15536000  0.73601000  0.83798000  1.0
  C  C95  1  0.65537000  0.23601000  0.66201000  1.0
  C  C96  1  0.76260000  0.21840000  0.19500000  1.0
  C  C97  1  0.26259000  0.71840000  0.30500000  1.0
  C  C98  1  0.23740000  0.78161000  0.80500000  1.0
  C  C99  1  0.73742000  0.28160000  0.69499000  1.0
  C  C100  1  0.77609000  0.11867000  0.20274000  1.0
  C  C101  1  0.27609000  0.61867000  0.29726000  1.0
  C  C102  1  0.22391000  0.88134000  0.79726000  1.0
  C  C103  1  0.72392000  0.38133000  0.70274000  1.0
  C  C104  1  0.87270000  0.06527000  0.17827000  1.0
  C  C105  1  0.37270000  0.56527000  0.32173000  1.0
  C  C106  1  0.12729000  0.93473000  0.82173000  1.0
  C  C107  1  0.62730000  0.43473000  0.67827000  1.0
  C  C108  1  0.95488000  0.11151000  0.14531000  1.0
  C  C109  1  0.45488000  0.61151000  0.35469000  1.0
  C  C110  1  0.04511000  0.88849000  0.85469000  1.0
  C  C111  1  0.54512000  0.38850000  0.64532000  1.0
  C  C112  1  0.75383000  0.18091000  0.95184000  1.0
  C  C113  1  0.25385000  0.68092000  0.54816000  1.0
  C  C114  1  0.24616000  0.81909000  0.04816000  1.0
  C  C115  1  0.74615000  0.31908000  0.45184000  1.0
  C  C116  1  0.74074000  0.26788000  0.92260000  1.0
  C  C117  1  0.24075000  0.76788000  0.57740000  1.0
  C  C118  1  0.25926000  0.73212000  0.07740000  1.0
  C  C119  1  0.75925000  0.23212000  0.42260000  1.0
  C  C120  1  0.86953000  0.22639000  0.85941000  1.0
  C  C121  1  0.36953000  0.72639000  0.64059000  1.0
  C  C122  1  0.13047000  0.77361000  0.14059000  1.0
  C  C123  1  0.63047000  0.27360000  0.35941000  1.0
  C  C124  1  0.97630000  0.25602000  0.82805000  1.0
  C  C125  1  0.47630000  0.75601000  0.67195000  1.0
  C  C126  1  0.02371000  0.74399000  0.17195000  1.0
  C  C127  1  0.52371000  0.24398000  0.32805000  1.0
  C  C128  1  0.98864000  0.20119000  0.79124000  1.0
  C  C129  1  0.48864000  0.70118000  0.70876000  1.0
  C  C130  1  0.01137000  0.79882000  0.20876000  1.0
  C  C131  1  0.51136000  0.29881000  0.29124000  1.0
  C  C132  1  0.89468000  0.11580000  0.78550000  1.0
  C  C133  1  0.39468000  0.61579000  0.71450000  1.0
  C  C134  1  0.10533000  0.88421000  0.21450000  1.0
  C  C135  1  0.60533000  0.38420000  0.28550000  1.0
  C  C136  1  0.78936000  0.08449000  0.81626000  1.0
  C  C137  1  0.28935000  0.58449000  0.68374000  1.0
  C  C138  1  0.21065000  0.91551000  0.18374000  1.0
  C  C139  1  0.71065000  0.41550000  0.31626000  1.0
  C  C140  1  0.77794000  0.13998000  0.85304000  1.0
  C  C141  1  0.27792000  0.63998000  0.64696000  1.0
  C  C142  1  0.22208000  0.86001000  0.14696000  1.0
  C  C143  1  0.72208000  0.36001000  0.35304000  1.0
  C  C144  1  0.47117000  0.03763000  0.07372000  1.0
  C  C145  1  0.97117000  0.53763000  0.42628000  1.0
  C  C146  1  0.52883000  0.96237000  0.92628000  1.0
  C  C147  1  0.02883000  0.46238000  0.57373000  1.0
  C  C148  1  0.53949000  0.06366000  0.11693000  1.0
  C  C149  1  0.03948000  0.56365000  0.38306000  1.0
  C  C150  1  0.46051000  0.93634000  0.88306000  1.0
  C  C151  1  0.96052000  0.43636000  0.61694000  1.0
  C  C152  1  0.41640000  0.20364000  0.14007000  1.0
  C  C153  1  0.91638000  0.70363000  0.35993000  1.0
  C  C154  1  0.58360000  0.79637000  0.85993000  1.0
  C  C155  1  0.08362000  0.29637000  0.64007000  1.0
  C  C156  1  0.32581000  0.24690000  0.17060000  1.0
  C  C157  1  0.82580000  0.74689000  0.32940000  1.0
  C  C158  1  0.67420000  0.75311000  0.82940000  1.0
  C  C159  1  0.17420000  0.25311000  0.67060000  1.0
  C  C160  1  0.29065000  0.34423000  0.16694000  1.0
  C  C161  1  0.79064000  0.84423000  0.33306000  1.0
  C  C162  1  0.70935000  0.65577000  0.83306000  1.0
  C  C163  1  0.20936000  0.15578000  0.66694000  1.0
  C  C164  1  0.34651000  0.39946000  0.13255000  1.0
  C  C165  1  0.84650000  0.89945000  0.36745000  1.0
  C  C166  1  0.65350000  0.60055000  0.86745000  1.0
  C  C167  1  0.15349000  0.10055000  0.63255000  1.0
  C  C168  1  0.43904000  0.35885000  0.10252000  1.0
  C  C169  1  0.93903000  0.85884000  0.39748000  1.0
  C  C170  1  0.56095000  0.64115000  0.89748000  1.0
  C  C171  1  0.06096000  0.14116000  0.60252000  1.0
  C  C172  1  0.47399000  0.26111000  0.10636000  1.0
  C  C173  1  0.97398000  0.76111000  0.39364000  1.0
  C  C174  1  0.52600000  0.73889000  0.89364000  1.0
  C  C175  1  0.02602000  0.23890000  0.60636000  1.0
  Cl  Cl176  1  0.25628000  0.17786000  0.21295000  1.0
  Cl  Cl177  1  0.75626000  0.67785000  0.28705000  1.0
  Cl  Cl178  1  0.74373000  0.82215000  0.78705000  1.0
  Cl  Cl179  1  0.24373000  0.32215000  0.71295000  1.0
  Cl  Cl180  1  0.83083000  0.38698000  0.15192000  1.0
  Cl  Cl181  1  0.33083000  0.88698000  0.34808000  1.0
  Cl  Cl182  1  0.16917000  0.61302000  0.84807000  1.0
  Cl  Cl183  1  0.66918000  0.11302000  0.65192000  1.0
  Cl  Cl184  1  0.29643000  0.51927000  0.12754000  1.0
  Cl  Cl185  1  0.79643000  0.01927000  0.37245000  1.0
  Cl  Cl186  1  0.70358000  0.48073000  0.87246000  1.0
  Cl  Cl187  1  0.20358000  0.98073000  0.62754000  1.0
  Cl  Cl188  1  0.67143000  0.06158000  0.24320000  1.0
  Cl  Cl189  1  0.17142000  0.56158000  0.25680000  1.0
  Cl  Cl190  1  0.32857000  0.93843000  0.75680000  1.0
  Cl  Cl191  1  0.82858000  0.43841000  0.74320000  1.0
  Cl  Cl192  1  0.91271000  0.04786000  0.73970000  1.0
  Cl  Cl193  1  0.41270000  0.54786000  0.76029000  1.0
  Cl  Cl194  1  0.08731000  0.95215000  0.26029000  1.0
  Cl  Cl195  1  0.58731000  0.45214000  0.23971000  1.0
  Cl  Cl196  1  0.09207000  0.36152000  0.83491000  1.0
  Cl  Cl197  1  0.59208000  0.86152000  0.66509000  1.0
  Cl  Cl198  1  0.90792000  0.63849000  0.16509000  1.0
  Cl  Cl199  1  0.40792000  0.13848000  0.33491000  1.0
  O  O200  1  0.87235000  0.13291000  0.95212000  1.0
  O  O201  1  0.37236000  0.63291000  0.54788000  1.0
  O  O202  1  0.12765000  0.86708000  0.04788000  1.0
  O  O203  1  0.62764000  0.36708000  0.45213000  1.0
  O  O204  1  0.03584000  0.07820000  0.02364000  1.0
  O  O205  1  0.53584000  0.57820000  0.47636000  1.0
  O  O206  1  0.96416000  0.92180000  0.97635000  1.0
  O  O207  1  0.46415000  0.42180000  0.52364000  1.0
  O  O208  1  0.86429000  0.28527000  0.89436000  1.0
  O  O209  1  0.36430000  0.78527000  0.60564000  1.0
  O  O210  1  0.13571000  0.71473000  0.10564000  1.0
  O  O211  1  0.63570000  0.21472000  0.39436000  1.0
  O  O212  1  0.83746000  0.14566000  0.05081000  1.0
  O  O213  1  0.33745000  0.64566000  0.44919000  1.0
  O  O214  1  0.16255000  0.85434000  0.94919000  1.0
  O  O215  1  0.66255000  0.35434000  0.55081000  1.0
  O  O216  1  0.01401000  0.26237000  0.10466000  1.0
  O  O217  1  0.51399000  0.76237000  0.39534000  1.0
  O  O218  1  0.98599000  0.73763000  0.89533000  1.0
  O  O219  1  0.48600000  0.23763000  0.60466000  1.0
  O  O220  1  0.56553000  0.01282000  0.04607000  1.0
  O  O221  1  0.06553000  0.51282000  0.45393000  1.0
  O  O222  1  0.43447000  0.98717000  0.95393000  1.0
  O  O223  1  0.93446000  0.48719000  0.54607000  1.0
  O  O224  1  0.33008000  0.03764000  0.06738000  1.0
  O  O225  1  0.83008000  0.53763000  0.43262000  1.0
  O  O226  1  0.66991000  0.96236000  0.93262000  1.0
  O  O227  1  0.16992000  0.46236000  0.56738000  1.0
  O  O228  1  0.44052000  0.10666000  0.14579000  1.0
  O  O229  1  0.94050000  0.60665000  0.35421000  1.0
  O  O230  1  0.55948000  0.89334000  0.85421000  1.0
  O  O231  1  0.05949000  0.39335000  0.64580000  1.0
  O  O232  1  0.64309000  0.15642000  0.97617000  1.0
  O  O233  1  0.14310000  0.65642000  0.52383000  1.0
  O  O234  1  0.35691000  0.84357000  0.02383000  1.0
  O  O235  1  0.85690000  0.34358000  0.47617000  1.0
  O  O236  1  0.65761000  0.83564000  0.00838000  1.0
  O  O237  1  0.15760000  0.33564000  0.49162000  1.0
  O  O238  1  0.34239000  0.16435000  0.99162000  1.0
  O  O239  1  0.84239000  0.66436000  0.50838000  1.0
  O  O240  1  0.85352000  0.91597000  0.06718000  1.0
  O  O241  1  0.35352000  0.41596000  0.43282000  1.0
  O  O242  1  0.14648000  0.08403000  0.93281000  1.0
  O  O243  1  0.64648000  0.58403000  0.56719000  1.0
