# generated using pymatgen
data_ZnH6(CO)8
_symmetry_space_group_name_H-M   'P 1'
_cell_length_a   9.66047000
_cell_length_b   11.30770000
_cell_length_c   12.30810000
_cell_angle_alpha   89.98300000
_cell_angle_beta   89.96660000
_cell_angle_gamma   87.19220000
_symmetry_Int_Tables_number   1
_chemical_formula_structural   ZnH6(CO)8
_chemical_formula_sum   'Zn4 H24 C32 O32'
_cell_volume   1342.89410501
_cell_formula_units_Z   4
loop_
 _symmetry_equiv_pos_site_id
 _symmetry_equiv_pos_as_xyz
  1  'x, y, z'
loop_
 _atom_site_type_symbol
 _atom_site_label
 _atom_site_symmetry_multiplicity
 _atom_site_fract_x
 _atom_site_fract_y
 _atom_site_fract_z
 _atom_site_occupancy
  Zn  Zn0  1  0.25312000  0.24761000  0.73456000  1.0
  Zn  Zn1  1  0.23612000  0.26154000  0.24163000  1.0
  Zn  Zn2  1  0.75374000  0.74680000  0.26543000  1.0
  Zn  Zn3  1  0.73560000  0.76212000  0.75881000  1.0
  H  H4  1  0.56666000  0.50633000  0.79787000  1.0
  H  H5  1  0.61484000  0.38179000  0.87559000  1.0
  H  H6  1  0.40973000  0.58669000  0.95061000  1.0
  H  H7  1  0.99317000  0.58809000  0.32535000  1.0
  H  H8  1  0.87678000  0.47726000  0.36727000  1.0
  H  H9  1  0.13359000  0.55867000  0.49479000  1.0
  H  H10  1  0.94348000  0.97913000  0.77474000  1.0
  H  H11  1  0.88312000  0.10133000  0.85325000  1.0
  H  H12  1  0.09475000  0.90081000  0.92713000  1.0
  H  H13  1  0.49064000  0.92727000  0.26285000  1.0
  H  H14  1  0.61294000  0.03172000  0.30849000  1.0
  H  H15  1  0.36073000  0.94587000  0.43932000  1.0
  H  H16  1  0.44410000  0.47836000  0.22528000  1.0
  H  H17  1  0.38334000  0.60092000  0.14746000  1.0
  H  H18  1  0.59486000  0.40098000  0.07213000  1.0
  H  H19  1  0.99125000  0.42855000  0.73721000  1.0
  H  H20  1  0.11298000  0.53339000  0.69113000  1.0
  H  H21  1  0.86094000  0.44669000  0.56084000  1.0
  H  H22  1  0.06820000  0.00480000  0.20180000  1.0
  H  H23  1  0.11549000  0.88050000  0.12348000  1.0
  H  H24  1  0.91048000  0.08612000  0.04997000  1.0
  H  H25  1  0.49246000  0.08847000  0.67411000  1.0
  H  H26  1  0.37618000  0.97726000  0.63273000  1.0
  H  H27  1  0.63320000  0.05812000  0.50480000  1.0
  C  C28  1  0.41351000  0.37931000  0.80853000  1.0
  C  C29  1  0.52784000  0.44592000  0.85990000  1.0
  C  C30  1  0.48242000  0.51028000  0.96111000  1.0
  C  C31  1  0.17223000  0.43044000  0.04722000  1.0
  C  C32  1  0.07705000  0.41186000  0.31381000  1.0
  C  C33  1  0.98423000  0.50415000  0.36966000  1.0
  C  C34  1  0.03339000  0.51890000  0.48473000  1.0
  C  C35  1  0.01200000  0.16947000  0.50166000  1.0
  C  C36  1  0.08540000  0.11364000  0.78898000  1.0
  C  C37  1  0.97408000  0.04169000  0.83801000  1.0
  C  C38  1  0.02222000  0.97704000  0.93866000  1.0
  C  C39  1  0.36061000  0.03132000  0.01074000  1.0
  C  C40  1  0.41017000  0.10665000  0.27179000  1.0
  C  C41  1  0.50499000  0.00628000  0.31286000  1.0
  C  C42  1  0.46145000  0.98457000  0.42860000  1.0
  C  C43  1  0.48401000  0.36050000  0.46976000  1.0
  C  C44  1  0.58590000  0.61299000  0.21105000  1.0
  C  C45  1  0.47441000  0.54125000  0.16215000  1.0
  C  C46  1  0.52217000  0.47718000  0.06110000  1.0
  C  C47  1  0.86077000  0.53125000  0.98881000  1.0
  C  C48  1  0.90997000  0.60767000  0.72806000  1.0
  C  C49  1  0.00517000  0.50752000  0.68698000  1.0
  C  C50  1  0.96166000  0.48543000  0.57138000  1.0
  C  C51  1  0.98203000  0.86133000  0.52945000  1.0
  C  C52  1  0.91455000  0.87823000  0.19142000  1.0
  C  C53  1  0.02882000  0.94477000  0.13975000  1.0
  C  C54  1  0.98296000  0.00967000  0.03892000  1.0
  C  C55  1  0.67242000  0.93067000  0.95356000  1.0
  C  C56  1  0.57638000  0.91225000  0.68654000  1.0
  C  C57  1  0.48360000  0.00425000  0.63028000  1.0
  C  C58  1  0.53300000  0.01840000  0.51513000  1.0
  C  C59  1  0.51194000  0.66904000  0.49923000  1.0
  O  O60  1  0.44242000  0.30925000  0.72734000  1.0
  O  O61  1  0.15389000  0.53195000  0.03117000  1.0
  O  O62  1  0.18684000  0.32802000  0.06575000  1.0
  O  O63  1  0.03699000  0.30696000  0.29820000  1.0
  O  O64  1  0.20035000  0.43738000  0.28548000  1.0
  O  O65  1  0.13219000  0.18161000  0.50582000  1.0
  O  O66  1  0.89242000  0.15532000  0.49749000  1.0
  O  O67  1  0.28952000  0.38791000  0.84397000  1.0
  O  O68  1  0.05122000  0.20996000  0.73705000  1.0
  O  O69  1  0.36304000  0.92724000  0.01597000  1.0
  O  O70  1  0.36180000  0.13495000  0.00622000  1.0
  O  O71  1  0.44817000  0.21302000  0.26947000  1.0
  O  O72  1  0.28412000  0.08501000  0.24627000  1.0
  O  O73  1  0.37956000  0.31710000  0.49172000  1.0
  O  O74  1  0.58785000  0.40546000  0.44819000  1.0
  O  O75  1  0.21380000  0.08308000  0.79986000  1.0
  O  O76  1  0.55188000  0.70906000  0.26340000  1.0
  O  O77  1  0.86301000  0.42720000  0.98345000  1.0
  O  O78  1  0.86215000  0.63487000  0.99346000  1.0
  O  O79  1  0.94750000  0.71421000  0.72997000  1.0
  O  O80  1  0.78419000  0.58561000  0.75407000  1.0
  O  O81  1  0.87707000  0.81898000  0.50723000  1.0
  O  O82  1  0.08638000  0.90530000  0.55122000  1.0
  O  O83  1  0.71425000  0.58250000  0.19969000  1.0
  O  O84  1  0.94360000  0.80758000  0.27216000  1.0
  O  O85  1  0.65424000  0.03214000  0.96987000  1.0
  O  O86  1  0.68689000  0.82830000  0.93481000  1.0
  O  O87  1  0.53676000  0.80715000  0.70195000  1.0
  O  O88  1  0.69929000  0.93819000  0.71533000  1.0
  O  O89  1  0.63217000  0.68098000  0.49498000  1.0
  O  O90  1  0.39231000  0.65508000  0.50342000  1.0
  O  O91  1  0.79034000  0.88749000  0.15657000  1.0
