# generated using pymatgen
data_CoH8(C3N)4
_symmetry_space_group_name_H-M   'P 1'
_cell_length_a   5.73365000
_cell_length_b   7.20949000
_cell_length_c   12.76244412
_cell_angle_alpha   87.32242387
_cell_angle_beta   77.02766842
_cell_angle_gamma   89.95220000
_symmetry_Int_Tables_number   1
_chemical_formula_structural   CoH8(C3N)4
_chemical_formula_sum   'Co2 H16 C24 N8'
_cell_volume   513.50669969
_cell_formula_units_Z   2
loop_
 _symmetry_equiv_pos_site_id
 _symmetry_equiv_pos_as_xyz
  1  'x, y, z'
loop_
 _atom_site_type_symbol
 _atom_site_label
 _atom_site_symmetry_multiplicity
 _atom_site_fract_x
 _atom_site_fract_y
 _atom_site_fract_z
 _atom_site_occupancy
  Co  Co0  1  0.54772000  0.25010000  0.00002000  1.0
  Co  Co1  1  0.45228000  0.74990000  0.99998000  1.0
  H  H2  1  0.28627000  0.36817000  0.60293000  1.0
  H  H3  1  0.88748000  0.13288000  0.39667000  1.0
  H  H4  1  0.71373000  0.63183000  0.39707000  1.0
  H  H5  1  0.11254000  0.86712000  0.60332000  1.0
  H  H6  1  0.36742000  0.34207000  0.40746000  1.0
  H  H7  1  0.77454000  0.15919000  0.59207000  1.0
  H  H8  1  0.63259000  0.65792000  0.59254000  1.0
  H  H9  1  0.22549000  0.84081000  0.40793000  1.0
  H  H10  1  0.29241000  0.19895000  0.24145000  1.0
  H  H11  1  0.53586000  0.30110000  0.75826000  1.0
  H  H12  1  0.70758000  0.80104000  0.75855000  1.0
  H  H13  1  0.46416000  0.69889000  0.24172000  1.0
  H  H14  1  0.01792000  0.74895000  0.19750000  1.0
  H  H15  1  0.21639000  0.75165000  0.80249000  1.0
  H  H16  1  0.98210000  0.25107000  0.80251000  1.0
  H  H17  1  0.78360000  0.24834000  0.19751000  1.0
  C  C18  1  0.15867000  0.42512000  0.55868000  1.0
  C  C19  1  0.71628000  0.07547000  0.44112000  1.0
  C  C20  1  0.84131000  0.57488000  0.44133000  1.0
  C  C21  1  0.28371000  0.92452000  0.55888000  1.0
  C  C22  1  0.20376000  0.40972000  0.44771000  1.0
  C  C23  1  0.65112000  0.09119000  0.55203000  1.0
  C  C24  1  0.79624000  0.59029000  0.55229000  1.0
  C  C25  1  0.34888000  0.90880000  0.44797000  1.0
  C  C26  1  0.04619000  0.48413000  0.38666000  1.0
  C  C27  1  0.43333000  0.01615000  0.61336000  1.0
  C  C28  1  0.95380000  0.51588000  0.61335000  1.0
  C  C29  1  0.56666000  0.98383000  0.38663000  1.0
  C  C30  1  0.10981000  0.47382000  0.26928000  1.0
  C  C31  1  0.38025000  0.02653000  0.73060000  1.0
  C  C32  1  0.89019000  0.52619000  0.73072000  1.0
  C  C33  1  0.61977000  0.97347000  0.26939000  1.0
  C  C34  1  0.24711000  0.33460000  0.21191000  1.0
  C  C35  1  0.46070000  0.16561000  0.78784000  1.0
  C  C36  1  0.75287000  0.66540000  0.78810000  1.0
  C  C37  1  0.53933000  0.83439000  0.21215000  1.0
  C  C38  1  0.09938000  0.61274000  0.18932000  1.0
  C  C39  1  0.29002000  0.88769000  0.81063000  1.0
  C  C40  1  0.90062000  0.38727000  0.81068000  1.0
  C  C41  1  0.70996000  0.11230000  0.18937000  1.0
  N  N42  1  0.32235000  0.38957000  0.10714000  1.0
  N  N43  1  0.43172000  0.11069000  0.89251000  1.0
  N  N44  1  0.67763000  0.61043000  0.89287000  1.0
  N  N45  1  0.56829000  0.88932000  0.10748000  1.0
  N  N46  1  0.23283000  0.56406000  0.09298000  1.0
  N  N47  1  0.32772000  0.93622000  0.90683000  1.0
  N  N48  1  0.76717000  0.43595000  0.90703000  1.0
  N  N49  1  0.67227000  0.06379000  0.09316000  1.0
