# generated using pymatgen
data_Si2HgH20C14(IN)2
_symmetry_space_group_name_H-M   'P 1'
_cell_length_a   8.29362000
_cell_length_b   8.29364000
_cell_length_c   16.01310000
_cell_angle_alpha   93.93240000
_cell_angle_beta   93.93160000
_cell_angle_gamma   109.50300000
_symmetry_Int_Tables_number   1
_chemical_formula_structural   Si2HgH20C14(IN)2
_chemical_formula_sum   'Si4 Hg2 H40 C28 I4 N4'
_cell_volume   1030.89818921
_cell_formula_units_Z   2
loop_
 _symmetry_equiv_pos_site_id
 _symmetry_equiv_pos_as_xyz
  1  'x, y, z'
loop_
 _atom_site_type_symbol
 _atom_site_label
 _atom_site_symmetry_multiplicity
 _atom_site_fract_x
 _atom_site_fract_y
 _atom_site_fract_z
 _atom_site_occupancy
  Si  Si0  1  0.37303000  0.45031000  0.53282000  1.0
  Si  Si1  1  0.54969000  0.62697000  0.96718000  1.0
  Si  Si2  1  0.62697000  0.54969000  0.46718000  1.0
  Si  Si3  1  0.45031000  0.37303000  0.03281000  1.0
  Hg  Hg4  1  0.80354000  0.19647000  0.25000000  1.0
  Hg  Hg5  1  0.19646000  0.80354000  0.75000000  1.0
  H  H6  1  0.92091000  0.87062000  0.31636000  1.0
  H  H7  1  0.12939000  0.07909000  0.18364000  1.0
  H  H8  1  0.07909000  0.12938000  0.68364000  1.0
  H  H9  1  0.87061000  0.92091000  0.81636000  1.0
  H  H10  1  0.10298000  0.39113000  0.39106000  1.0
  H  H11  1  0.60886000  0.89703000  0.10894000  1.0
  H  H12  1  0.89702000  0.60886000  0.60894000  1.0
  H  H13  1  0.39112000  0.10297000  0.89106000  1.0
  H  H14  1  0.12522000  0.81546000  0.42275000  1.0
  H  H15  1  0.18453000  0.87477000  0.07725000  1.0
  H  H16  1  0.87478000  0.18453000  0.57725000  1.0
  H  H17  1  0.81546000  0.12523000  0.92275000  1.0
  H  H18  1  0.32313000  0.06096000  0.52040000  1.0
  H  H19  1  0.93903000  0.67687000  0.97960000  1.0
  H  H20  1  0.67689000  0.93904000  0.47959000  1.0
  H  H21  1  0.06097000  0.32313000  0.02040000  1.0
  H  H22  1  0.24522000  0.64815000  0.46576000  1.0
  H  H23  1  0.35185000  0.75478000  0.03424000  1.0
  H  H24  1  0.75478000  0.35185000  0.53424000  1.0
  H  H25  1  0.64815000  0.24522000  0.96576000  1.0
  H  H26  1  0.13439000  0.56477000  0.55344000  1.0
  H  H27  1  0.43523000  0.86561000  0.94656000  1.0
  H  H28  1  0.86561000  0.43524000  0.44656000  1.0
  H  H29  1  0.56476000  0.13439000  0.05344000  1.0
  H  H30  1  0.33797000  0.73198000  0.57005000  1.0
  H  H31  1  0.26802000  0.66203000  0.92996000  1.0
  H  H32  1  0.66204000  0.26802000  0.42996000  1.0
  H  H33  1  0.73198000  0.33797000  0.07004000  1.0
  H  H34  1  0.46810000  0.29418000  0.64475000  1.0
  H  H35  1  0.70583000  0.53191000  0.85525000  1.0
  H  H36  1  0.53190000  0.70582000  0.35525000  1.0
  H  H37  1  0.29418000  0.46810000  0.14475000  1.0
  H  H38  1  0.52185000  0.51680000  0.67581000  1.0
  H  H39  1  0.48321000  0.47815000  0.82419000  1.0
  H  H40  1  0.47815000  0.48320000  0.32419000  1.0
  H  H41  1  0.51680000  0.52185000  0.17580000  1.0
  H  H42  1  0.30764000  0.37743000  0.67792000  1.0
  H  H43  1  0.62258000  0.69236000  0.82208000  1.0
  H  H44  1  0.69236000  0.62257000  0.32208000  1.0
  H  H45  1  0.37743000  0.30764000  0.17793000  1.0
  C  C46  1  0.00976000  0.97518000  0.35926000  1.0
  C  C47  1  0.02482000  0.99024000  0.14074000  1.0
  C  C48  1  0.99024000  0.02482000  0.64074000  1.0
  C  C49  1  0.97517000  0.00975000  0.85926000  1.0
  C  C50  1  0.22954000  0.25006000  0.46587000  1.0
  C  C51  1  0.74993000  0.77046000  0.03413000  1.0
  C  C52  1  0.77047000  0.74993000  0.53413000  1.0
  C  C53  1  0.25006000  0.22954000  0.96587000  1.0
  C  C54  1  0.11203000  0.26601000  0.40257000  1.0
  C  C55  1  0.73399000  0.88797000  0.09743000  1.0
  C  C56  1  0.88798000  0.73399000  0.59743000  1.0
  C  C57  1  0.26600000  0.11203000  0.90257000  1.0
  C  C58  1  0.12411000  0.94562000  0.41904000  1.0
  C  C59  1  0.05438000  0.87589000  0.08096000  1.0
  C  C60  1  0.87589000  0.05437000  0.58096000  1.0
  C  C61  1  0.94562000  0.12411000  0.91904000  1.0
  C  C62  1  0.23417000  0.08347000  0.47282000  1.0
  C  C63  1  0.91652000  0.76582000  0.02718000  1.0
  C  C64  1  0.76583000  0.91653000  0.52718000  1.0
  C  C65  1  0.08346000  0.23418000  0.97282000  1.0
  C  C66  1  0.26171000  0.61424000  0.53016000  1.0
  C  C67  1  0.38576000  0.73829000  0.96985000  1.0
  C  C68  1  0.73829000  0.38577000  0.46985000  1.0
  C  C69  1  0.61423000  0.26171000  0.03015000  1.0
  C  C70  1  0.42140000  0.40340000  0.64267000  1.0
  C  C71  1  0.59660000  0.57861000  0.85733000  1.0
  C  C72  1  0.57860000  0.59660000  0.35733000  1.0
  C  C73  1  0.40340000  0.42140000  0.14267000  1.0
  I  I74  1  0.46989000  0.01285000  0.26807000  1.0
  I  I75  1  0.98715000  0.53011000  0.23193000  1.0
  I  I76  1  0.53011000  0.98714000  0.73193000  1.0
  I  I77  1  0.01287000  0.46990000  0.76807000  1.0
  N  N78  1  0.00448000  0.13344000  0.35122000  1.0
  N  N79  1  0.86656000  0.99552000  0.14878000  1.0
  N  N80  1  0.99552000  0.86656000  0.64878000  1.0
  N  N81  1  0.13344000  0.00448000  0.85122000  1.0
