# generated using pymatgen
data_CdH8C6N5O7
_symmetry_space_group_name_H-M   'P 1'
_cell_length_a   7.62625000
_cell_length_b   8.72826000
_cell_length_c   18.56740000
_cell_angle_alpha   90.00000000
_cell_angle_beta   90.00000000
_cell_angle_gamma   98.98830000
_symmetry_Int_Tables_number   1
_chemical_formula_structural   CdH8C6N5O7
_chemical_formula_sum   'Cd4 H32 C24 N20 O28'
_cell_volume   1220.74167226
_cell_formula_units_Z   4
loop_
 _symmetry_equiv_pos_site_id
 _symmetry_equiv_pos_as_xyz
  1  'x, y, z'
loop_
 _atom_site_type_symbol
 _atom_site_label
 _atom_site_symmetry_multiplicity
 _atom_site_fract_x
 _atom_site_fract_y
 _atom_site_fract_z
 _atom_site_occupancy
  Cd  Cd0  1  0.88360000  0.71210000  0.89218000  1.0
  Cd  Cd1  1  0.61640000  0.78790000  0.39218000  1.0
  Cd  Cd2  1  0.11640000  0.28790000  0.10782000  1.0
  Cd  Cd3  1  0.38360000  0.21210000  0.60782000  1.0
  H  H4  1  0.13043000  0.86228000  0.00111000  1.0
  H  H5  1  0.36957000  0.63773000  0.50111000  1.0
  H  H6  1  0.86957000  0.13773000  0.99889000  1.0
  H  H7  1  0.63043000  0.36228000  0.49889000  1.0
  H  H8  1  0.06807000  0.68672000  0.02186000  1.0
  H  H9  1  0.43193000  0.81328000  0.52186000  1.0
  H  H10  1  0.93193000  0.31328000  0.97814000  1.0
  H  H11  1  0.56807000  0.18672000  0.47814000  1.0
  H  H12  1  0.28969000  0.88527000  0.86501000  1.0
  H  H13  1  0.21031000  0.61472000  0.36501000  1.0
  H  H14  1  0.71031000  0.11472000  0.13499000  1.0
  H  H15  1  0.78969000  0.38528000  0.63499000  1.0
  H  H16  1  0.46264000  0.05611000  0.77198000  1.0
  H  H17  1  0.03736000  0.44389000  0.27198000  1.0
  H  H18  1  0.53736000  0.94389000  0.22802000  1.0
  H  H19  1  0.96264000  0.55611000  0.72802000  1.0
  H  H20  1  0.98927000  0.11871000  0.67247000  1.0
  H  H21  1  0.51072000  0.38129000  0.17246000  1.0
  H  H22  1  0.01072000  0.88129000  0.32753000  1.0
  H  H23  1  0.48927000  0.61871000  0.82754000  1.0
  H  H24  1  0.81786000  0.94385000  0.76327000  1.0
  H  H25  1  0.68214000  0.55615000  0.26327000  1.0
  H  H26  1  0.18214000  0.05615000  0.23673000  1.0
  H  H27  1  0.31786000  0.44385000  0.73673000  1.0
  H  H28  1  0.64719000  0.36834000  0.90812000  1.0
  H  H29  1  0.85281000  0.13166000  0.40812000  1.0
  H  H30  1  0.35281000  0.63166000  0.09188000  1.0
  H  H31  1  0.14719000  0.86834000  0.59188000  1.0
  H  H32  1  0.61534000  0.77103000  0.02418000  1.0
  H  H33  1  0.88466000  0.72897000  0.52418000  1.0
  H  H34  1  0.38466000  0.22897000  0.97582000  1.0
  H  H35  1  0.11534000  0.27103000  0.47582000  1.0
  C  C36  1  0.22265000  0.93753000  0.82186000  1.0
  C  C37  1  0.27735000  0.56247000  0.32186000  1.0
  C  C38  1  0.77735000  0.06247000  0.17814000  1.0
  C  C39  1  0.72265000  0.43753000  0.67814000  1.0
  C  C40  1  0.31829000  0.03204000  0.77016000  1.0
  C  C41  1  0.18171000  0.46796000  0.27016000  1.0
  C  C42  1  0.68171000  0.96796000  0.22984000  1.0
  C  C43  1  0.81829000  0.53204000  0.72984000  1.0
  C  C44  1  0.05763000  0.06566000  0.71493000  1.0
  C  C45  1  0.44238000  0.43434000  0.21493000  1.0
  C  C46  1  0.94238000  0.93434000  0.28507000  1.0
  C  C47  1  0.55762000  0.56567000  0.78507000  1.0
  C  C48  1  0.96195000  0.97004000  0.76593000  1.0
  C  C49  1  0.53805000  0.52996000  0.26593000  1.0
  C  C50  1  0.03805000  0.02996000  0.23407000  1.0
  C  C51  1  0.46195000  0.47004000  0.73407000  1.0
  C  C52  1  0.58099000  0.42790000  0.94892000  1.0
  C  C53  1  0.91901000  0.07210000  0.44892000  1.0
  C  C54  1  0.41901000  0.57210000  0.05108000  1.0
  C  C55  1  0.08099000  0.92790000  0.55108000  1.0
  C  C56  1  0.56383000  0.65000000  0.01324000  1.0
  C  C57  1  0.93617000  0.85000000  0.51324000  1.0
  C  C58  1  0.43617000  0.35000000  0.98676000  1.0
  C  C59  1  0.06383000  0.15000000  0.48676000  1.0
  N  N60  1  0.10154000  0.44937000  0.86738000  1.0
  N  N61  1  0.39846000  0.05063000  0.36738000  1.0
  N  N62  1  0.89846000  0.55063000  0.13262000  1.0
  N  N63  1  0.60154000  0.94937000  0.63262000  1.0
  N  N64  1  0.67037000  0.97812000  0.90935000  1.0
  N  N65  1  0.82963000  0.52188000  0.40935000  1.0
  N  N66  1  0.32963000  0.02188000  0.09065000  1.0
  N  N67  1  0.17037000  0.47812000  0.59065000  1.0
  N  N68  1  0.04499000  0.90418000  0.81855000  1.0
  N  N69  1  0.45501000  0.59582000  0.31855000  1.0
  N  N70  1  0.95501000  0.09582000  0.18145000  1.0
  N  N71  1  0.54499000  0.40418000  0.68145000  1.0
  N  N72  1  0.23582000  0.09324000  0.71585000  1.0
  N  N73  1  0.26418000  0.40676000  0.21585000  1.0
  N  N74  1  0.76418000  0.90676000  0.28415000  1.0
  N  N75  1  0.73582000  0.59324000  0.78415000  1.0
  N  N76  1  0.64422000  0.57759000  0.96205000  1.0
  N  N77  1  0.85578000  0.92242000  0.46205000  1.0
  N  N78  1  0.35578000  0.42241000  0.03795000  1.0
  N  N79  1  0.14422000  0.07759000  0.53795000  1.0
  O  O80  1  0.14972000  0.57173000  0.83115000  1.0
  O  O81  1  0.35028000  0.92827000  0.33115000  1.0
  O  O82  1  0.85028000  0.42827000  0.16885000  1.0
  O  O83  1  0.64972000  0.07173000  0.66885000  1.0
  O  O84  1  0.96455000  0.44686000  0.90917000  1.0
  O  O85  1  0.53545000  0.05314000  0.40917000  1.0
  O  O86  1  0.03545000  0.55314000  0.09083000  1.0
  O  O87  1  0.46455000  0.94686000  0.59083000  1.0
  O  O88  1  0.17952000  0.33440000  0.86391000  1.0
  O  O89  1  0.32048000  0.16560000  0.36391000  1.0
  O  O90  1  0.82048000  0.66560000  0.13609000  1.0
  O  O91  1  0.67952000  0.83440000  0.63608000  1.0
  O  O92  1  0.79760000  0.96351000  0.95335000  1.0
  O  O93  1  0.70240000  0.53649000  0.45335000  1.0
  O  O94  1  0.20240000  0.03650000  0.04665000  1.0
  O  O95  1  0.29760000  0.46351000  0.54665000  1.0
  O  O96  1  0.62726000  0.87042000  0.86338000  1.0
  O  O97  1  0.87275000  0.62958000  0.36338000  1.0
  O  O98  1  0.37274000  0.12958000  0.13662000  1.0
  O  O99  1  0.12725000  0.37042000  0.63662000  1.0
  O  O100  1  0.59275000  0.09332000  0.91175000  1.0
  O  O101  1  0.90724000  0.40668000  0.41175000  1.0
  O  O102  1  0.40724000  0.90668000  0.08825000  1.0
  O  O103  1  0.09275000  0.59332000  0.58825000  1.0
  O  O104  1  0.09654000  0.75715000  0.97991000  1.0
  O  O105  1  0.40346000  0.74285000  0.47991000  1.0
  O  O106  1  0.90346000  0.24285000  0.02009000  1.0
  O  O107  1  0.59654000  0.25715000  0.52009000  1.0
