# generated using pymatgen
data_CoH15C20Br(NO2)2
_symmetry_space_group_name_H-M   'P 1'
_cell_length_a   9.49530000
_cell_length_b   10.14450000
_cell_length_c   11.22200000
_cell_angle_alpha   76.26180000
_cell_angle_beta   80.79690000
_cell_angle_gamma   67.82790000
_symmetry_Int_Tables_number   1
_chemical_formula_structural   CoH15C20Br(NO2)2
_chemical_formula_sum   'Co2 H30 C40 Br2 N4 O8'
_cell_volume   969.41465886
_cell_formula_units_Z   2
loop_
 _symmetry_equiv_pos_site_id
 _symmetry_equiv_pos_as_xyz
  1  'x, y, z'
loop_
 _atom_site_type_symbol
 _atom_site_label
 _atom_site_symmetry_multiplicity
 _atom_site_fract_x
 _atom_site_fract_y
 _atom_site_fract_z
 _atom_site_occupancy
  Co  Co0  1  0.95604000  0.36754000  0.38357000  1.0
  Co  Co1  1  0.04396000  0.63245000  0.61643000  1.0
  H  H2  1  0.92360000  0.92275000  0.42243000  1.0
  H  H3  1  0.07638000  0.07727000  0.57757000  1.0
  H  H4  1  0.81512000  0.76089000  0.14074000  1.0
  H  H5  1  0.18488000  0.23910000  0.85927000  1.0
  H  H6  1  0.81699000  0.19804000  0.06706000  1.0
  H  H7  1  0.18299000  0.80196000  0.93293000  1.0
  H  H8  1  0.81862000  0.14134000  0.52794000  1.0
  H  H9  1  0.18138000  0.85864000  0.47206000  1.0
  H  H10  1  0.61764000  0.12129000  0.69356000  1.0
  H  H11  1  0.38236000  0.87870000  0.30644000  1.0
  H  H12  1  0.50303000  0.57473000  0.69608000  1.0
  H  H13  1  0.49698000  0.42526000  0.30392000  1.0
  H  H14  1  0.70885000  0.57705000  0.52934000  1.0
  H  H15  1  0.29116000  0.42293000  0.47066000  1.0
  H  H16  1  0.42866000  0.22505000  0.84542000  1.0
  H  H17  1  0.57134000  0.77495000  0.15459000  1.0
  H  H18  1  0.31683000  0.41004000  0.79405000  1.0
  H  H19  1  0.68317000  0.58996000  0.20595000  1.0
  H  H20  1  0.47169000  0.48639000  0.90502000  1.0
  H  H21  1  0.52833000  0.51362000  0.09497000  1.0
  H  H22  1  0.58250000  0.30268000  0.95909000  1.0
  H  H23  1  0.41751000  0.69732000  0.04091000  1.0
  H  H24  1  0.98349000  0.55062000  0.13367000  1.0
  H  H25  1  0.01652000  0.44937000  0.86633000  1.0
  H  H26  1  0.17291000  0.55946000  0.95218000  1.0
  H  H27  1  0.82709000  0.44054000  0.04781000  1.0
  H  H28  1  0.49771000  0.18333000  0.15828000  1.0
  H  H29  1  0.50231000  0.81670000  0.84172000  1.0
  H  H30  1  0.29286000  0.19030000  0.33066000  1.0
  H  H31  1  0.70716000  0.80971000  0.66934000  1.0
  C  C32  1  0.87446000  0.07141000  0.24857000  1.0
  C  C33  1  0.12552000  0.92859000  0.75143000  1.0
  C  C34  1  0.89179000  0.93913000  0.32952000  1.0
  C  C35  1  0.10820000  0.06088000  0.67048000  1.0
  C  C36  1  0.86814000  0.82783000  0.29165000  1.0
  C  C37  1  0.13186000  0.17217000  0.70836000  1.0
  C  C38  1  0.83058000  0.84813000  0.17122000  1.0
  C  C39  1  0.16942000  0.15186000  0.82879000  1.0
  C  C40  1  0.81185000  0.98101000  0.09233000  1.0
  C  C41  1  0.18813000  0.01898000  0.90768000  1.0
  C  C42  1  0.83107000  0.09448000  0.12947000  1.0
  C  C43  1  0.16891000  0.90553000  0.87052000  1.0
  C  C44  1  0.90475000  0.18680000  0.29036000  1.0
  C  C45  1  0.09523000  0.81322000  0.70964000  1.0
  C  C46  1  0.88368000  0.68695000  0.37853000  1.0
  C  C47  1  0.11631000  0.31305000  0.62148000  1.0
  C  C48  1  0.74532000  0.23621000  0.56583000  1.0
  C  C49  1  0.25469000  0.76378000  0.43417000  1.0
  C  C50  1  0.63332000  0.22539000  0.65994000  1.0
  C  C51  1  0.36667000  0.77460000  0.34006000  1.0
  C  C52  1  0.54473000  0.34576000  0.71255000  1.0
  C  C53  1  0.45527000  0.65424000  0.28745000  1.0
  C  C54  1  0.57086000  0.47554000  0.66195000  1.0
  C  C55  1  0.42914000  0.52445000  0.33805000  1.0
  C  C56  1  0.68445000  0.47821000  0.56756000  1.0
  C  C57  1  0.31557000  0.52177000  0.43243000  1.0
  C  C58  1  0.43085000  0.33578000  0.82047000  1.0
  C  C59  1  0.56916000  0.66422000  0.17953000  1.0
  C  C60  1  0.46837000  0.37606000  0.93269000  1.0
  C  C61  1  0.53164000  0.62394000  0.06731000  1.0
  C  C62  1  0.09883000  0.47129000  0.13499000  1.0
  C  C63  1  0.90117000  0.52870000  0.86501000  1.0
  C  C64  1  0.20470000  0.47587000  0.03486000  1.0
  C  C65  1  0.79530000  0.52413000  0.96513000  1.0
  C  C66  1  0.35256000  0.37210000  0.04029000  1.0
  C  C67  1  0.64745000  0.62791000  0.95971000  1.0
  C  C68  1  0.38475000  0.26726000  0.14866000  1.0
  C  C69  1  0.61526000  0.73276000  0.85134000  1.0
  C  C70  1  0.27172000  0.27031000  0.24506000  1.0
  C  C71  1  0.72829000  0.72970000  0.75494000  1.0
  Br  Br72  1  0.76033000  0.00493000  0.92934000  1.0
  Br  Br73  1  0.23966000  0.99505000  0.07066000  1.0
  N  N74  1  0.77307000  0.36037000  0.51996000  1.0
  N  N75  1  0.22693000  0.63962000  0.48004000  1.0
  N  N76  1  0.13030000  0.37084000  0.23944000  1.0
  N  N77  1  0.86971000  0.62916000  0.76056000  1.0
  O  O78  1  0.83006000  0.32063000  0.25182000  1.0
  O  O79  1  0.16993000  0.67939000  0.74816000  1.0
  O  O80  1  0.00491000  0.14752000  0.36807000  1.0
  O  O81  1  0.99507000  0.85250000  0.63192000  1.0
  O  O82  1  0.90056000  0.67777000  0.49101000  1.0
  O  O83  1  0.09943000  0.32226000  0.50900000  1.0
  O  O84  1  0.87285000  0.58578000  0.33586000  1.0
  O  O85  1  0.12716000  0.41421000  0.66415000  1.0
