# generated using pymatgen
data_NiH22C18(NO2)4
_symmetry_space_group_name_H-M   'P 1'
_cell_length_a   7.50267000
_cell_length_b   7.88631646
_cell_length_c   9.76078000
_cell_angle_alpha   70.03976327
_cell_angle_beta   81.46530000
_cell_angle_gamma   64.97599876
_symmetry_Int_Tables_number   1
_chemical_formula_structural   NiH22C18(NO2)4
_chemical_formula_sum   'Ni1 H22 C18 N4 O8'
_cell_volume   491.87639865
_cell_formula_units_Z   1
loop_
 _symmetry_equiv_pos_site_id
 _symmetry_equiv_pos_as_xyz
  1  'x, y, z'
loop_
 _atom_site_type_symbol
 _atom_site_label
 _atom_site_symmetry_multiplicity
 _atom_site_fract_x
 _atom_site_fract_y
 _atom_site_fract_z
 _atom_site_occupancy
  Ni  Ni0  1  0.00000000  0.50000000  0.50000000  1.0
  H  H1  1  0.23329000  0.20633000  0.88356000  1.0
  H  H2  1  0.76671000  0.79367000  0.11644000  1.0
  H  H3  1  0.35343000  0.35754000  0.47834000  1.0
  H  H4  1  0.64657000  0.64246000  0.52166000  1.0
  H  H5  1  0.26595000  0.36317000  0.32784000  1.0
  H  H6  1  0.73404000  0.63683000  0.67217000  1.0
  H  H7  1  0.09463000  0.13019000  0.49698000  1.0
  H  H8  1  0.90538000  0.86982000  0.50301000  1.0
  H  H9  1  0.15978000  0.94780000  0.63241000  1.0
  H  H10  1  0.84024000  0.05221000  0.36758000  1.0
  H  H11  1  0.37266000  0.48877000  0.86251000  1.0
  H  H12  1  0.62733000  0.51124000  0.13750000  1.0
  H  H13  1  0.13642000  0.57238000  0.94057000  1.0
  H  H14  1  0.86355000  0.42762000  0.05944000  1.0
  H  H15  1  0.39610000  0.97058000  0.36289000  1.0
  H  H16  1  0.60391000  0.02942000  0.63710000  1.0
  H  H17  1  0.36801000  0.65458000  0.50089000  1.0
  H  H18  1  0.63200000  0.34541000  0.49911000  1.0
  H  H19  1  0.18274000  0.63495000  0.11340000  1.0
  H  H20  1  0.81725000  0.36505000  0.88660000  1.0
  H  H21  1  0.19317000  0.95660000  0.97647000  1.0
  H  H22  1  0.80682000  0.04340000  0.02353000  1.0
  C  C23  1  0.13505000  0.56115000  0.72614000  1.0
  C  C24  1  0.86496000  0.43885000  0.27386000  1.0
  C  C25  1  0.22912000  0.47729000  0.87529000  1.0
  C  C26  1  0.77087000  0.52272000  0.12471000  1.0
  C  C27  1  0.29223000  0.18983000  0.09123000  1.0
  C  C28  1  0.70777000  0.81017000  0.90877000  1.0
  C  C29  1  0.29481000  0.98873000  0.16102000  1.0
  C  C30  1  0.70518000  0.01127000  0.83897000  1.0
  C  C31  1  0.34969000  0.89695000  0.30794000  1.0
  C  C32  1  0.65031000  0.10305000  0.69205000  1.0
  C  C33  1  0.33855000  0.71759000  0.38452000  1.0
  C  C34  1  0.66145000  0.28241000  0.61548000  1.0
  C  C35  1  0.27567000  0.62388000  0.31522000  1.0
  C  C36  1  0.72433000  0.37611000  0.68478000  1.0
  C  C37  1  0.22676000  0.71119000  0.16715000  1.0
  C  C38  1  0.77323000  0.28881000  0.83285000  1.0
  C  C39  1  0.23561000  0.89222000  0.09105000  1.0
  C  C40  1  0.76439000  0.10777000  0.90895000  1.0
  N  N41  1  0.24867000  0.27710000  0.94788000  1.0
  N  N42  1  0.75133000  0.72291000  0.05211000  1.0
  N  N43  1  0.25324000  0.44426000  0.39585000  1.0
  N  N44  1  0.74676000  0.55573000  0.60415000  1.0
  O  O45  1  0.12633000  0.43185000  0.67684000  1.0
  O  O46  1  0.87367000  0.56816000  0.32316000  1.0
  O  O47  1  0.07603000  0.74225000  0.66323000  1.0
  O  O48  1  0.92399000  0.25776000  0.33676000  1.0
  O  O49  1  0.32274000  0.28014000  0.16273000  1.0
  O  O50  1  0.67725000  0.71985000  0.83727000  1.0
  O  O51  1  0.18890000  0.06341000  0.57827000  1.0
  O  O52  1  0.81113000  0.93659000  0.42172000  1.0
