# generated using pymatgen
data_ZnH12C14(NO)4
_symmetry_space_group_name_H-M   'P 1'
_cell_length_a   10.98340000
_cell_length_b   11.47350000
_cell_length_c   12.64780000
_cell_angle_alpha   89.99930000
_cell_angle_beta   111.30800000
_cell_angle_gamma   90.00000000
_symmetry_Int_Tables_number   1
_chemical_formula_structural   ZnH12C14(NO)4
_chemical_formula_sum   'Zn4 H48 C56 N16 O16'
_cell_volume   1484.89610838
_cell_formula_units_Z   4
loop_
 _symmetry_equiv_pos_site_id
 _symmetry_equiv_pos_as_xyz
  1  'x, y, z'
loop_
 _atom_site_type_symbol
 _atom_site_label
 _atom_site_symmetry_multiplicity
 _atom_site_fract_x
 _atom_site_fract_y
 _atom_site_fract_z
 _atom_site_occupancy
  Zn  Zn0  1  0.97927000  0.07244000  0.74064000  1.0
  Zn  Zn1  1  0.47927000  0.42756000  0.24063000  1.0
  Zn  Zn2  1  0.02073000  0.92755000  0.25936000  1.0
  Zn  Zn3  1  0.52073000  0.57245000  0.75937000  1.0
  H  H4  1  0.95469000  0.63777000  0.65792000  1.0
  H  H5  1  0.45470000  0.86223000  0.15793000  1.0
  H  H6  1  0.04531000  0.36223000  0.34207000  1.0
  H  H7  1  0.54530000  0.13776000  0.84206000  1.0
  H  H8  1  0.57771000  0.28788000  0.47071000  1.0
  H  H9  1  0.07770000  0.21212000  0.97071000  1.0
  H  H10  1  0.42230000  0.71212000  0.52930000  1.0
  H  H11  1  0.92229000  0.78788000  0.02929000  1.0
  H  H12  1  0.13311000  0.94594000  0.60367000  1.0
  H  H13  1  0.63311000  0.55407000  0.10367000  1.0
  H  H14  1  0.86689000  0.05406000  0.39633000  1.0
  H  H15  1  0.36690000  0.44593000  0.89634000  1.0
  H  H16  1  0.10529000  0.70807000  0.55759000  1.0
  H  H17  1  0.60529000  0.79194000  0.05760000  1.0
  H  H18  1  0.89471000  0.29194000  0.44241000  1.0
  H  H19  1  0.39471000  0.20805000  0.94240000  1.0
  H  H20  1  0.89180000  0.80382000  0.76514000  1.0
  H  H21  1  0.39181000  0.69617000  0.26514000  1.0
  H  H22  1  0.10820000  0.19617000  0.23486000  1.0
  H  H23  1  0.60819000  0.30383000  0.73486000  1.0
  H  H24  1  0.79595000  0.30357000  0.64303000  1.0
  H  H25  1  0.29595000  0.19643000  0.14302000  1.0
  H  H26  1  0.20406000  0.69642000  0.35698000  1.0
  H  H27  1  0.70405000  0.80358000  0.85697000  1.0
  H  H28  1  0.53359000  0.08029000  0.39894000  1.0
  H  H29  1  0.03357000  0.41971000  0.89895000  1.0
  H  H30  1  0.46642000  0.91971000  0.60105000  1.0
  H  H31  1  0.96642000  0.58030000  0.10106000  1.0
  H  H32  1  0.74144000  0.94953000  0.54717000  1.0
  H  H33  1  0.24143000  0.55048000  0.04716000  1.0
  H  H34  1  0.25856000  0.05047000  0.45282000  1.0
  H  H35  1  0.75856000  0.44953000  0.95284000  1.0
  H  H36  1  0.72182000  0.93785000  0.99563000  1.0
  H  H37  1  0.22182000  0.56215000  0.49563000  1.0
  H  H38  1  0.27819000  0.06216000  0.00437000  1.0
  H  H39  1  0.77818000  0.43784000  0.50437000  1.0
  H  H40  1  0.61390000  0.01605000  0.12571000  1.0
  H  H41  1  0.11390000  0.48395000  0.62571000  1.0
  H  H42  1  0.38610000  0.98396000  0.87430000  1.0
  H  H43  1  0.88609000  0.51605000  0.37430000  1.0
  H  H44  1  0.77458000  0.35308000  0.11431000  1.0
  H  H45  1  0.27458000  0.14691000  0.61430000  1.0
  H  H46  1  0.22542000  0.64693000  0.88568000  1.0
  H  H47  1  0.72541000  0.85308000  0.38569000  1.0
  H  H48  1  0.88676000  0.27554000  0.98797000  1.0
  H  H49  1  0.38676000  0.22446000  0.48796000  1.0
  H  H50  1  0.11324000  0.72446000  0.01203000  1.0
  H  H51  1  0.61323000  0.77553000  0.51203000  1.0
  C  C52  1  0.07881000  0.88047000  0.62989000  1.0
  C  C53  1  0.57880000  0.61954000  0.12989000  1.0
  C  C54  1  0.92120000  0.11953000  0.37011000  1.0
  C  C55  1  0.42120000  0.38046000  0.87012000  1.0
  C  C56  1  0.06646000  0.76324000  0.60712000  1.0
  C  C57  1  0.56645000  0.73677000  0.10712000  1.0
  C  C58  1  0.93355000  0.23676000  0.39288000  1.0
  C  C59  1  0.43355000  0.26323000  0.89288000  1.0
  C  C60  1  0.95399000  0.81018000  0.71567000  1.0
  C  C61  1  0.45399000  0.68982000  0.21567000  1.0
  C  C62  1  0.04601000  0.18982000  0.28433000  1.0
  C  C63  1  0.54601000  0.31018000  0.78433000  1.0
  C  C64  1  0.75406000  0.22420000  0.59792000  1.0
  C  C65  1  0.25405000  0.27581000  0.09792000  1.0
  C  C66  1  0.24595000  0.77580000  0.40208000  1.0
  C  C67  1  0.74595000  0.72420000  0.90208000  1.0
  C  C68  1  0.61748000  0.10469000  0.47269000  1.0
  C  C69  1  0.11747000  0.39531000  0.97269000  1.0
  C  C70  1  0.38253000  0.89531000  0.52731000  1.0
  C  C71  1  0.88253000  0.60469000  0.02732000  1.0
  C  C72  1  0.72125000  0.04205000  0.54455000  1.0
  C  C73  1  0.22124000  0.45796000  0.04454000  1.0
  C  C74  1  0.27876000  0.95795000  0.45545000  1.0
  C  C75  1  0.77875000  0.54205000  0.95546000  1.0
  C  C76  1  0.86769000  0.05497000  0.90099000  1.0
  C  C77  1  0.36769000  0.44503000  0.40099000  1.0
  C  C78  1  0.13231000  0.94503000  0.09901000  1.0
  C  C79  1  0.63230000  0.55497000  0.59901000  1.0
  C  C80  1  0.81146000  0.10156000  0.98406000  1.0
  C  C81  1  0.31146000  0.39844000  0.48406000  1.0
  C  C82  1  0.18854000  0.89845000  0.01593000  1.0
  C  C83  1  0.68854000  0.60155000  0.51594000  1.0
  C  C84  1  0.73427000  0.02837000  0.02315000  1.0
  C  C85  1  0.23427000  0.47163000  0.52315000  1.0
  C  C86  1  0.26573000  0.97164000  0.97685000  1.0
  C  C87  1  0.76572000  0.52837000  0.47685000  1.0
  C  C88  1  0.67377000  0.07154000  0.09426000  1.0
  C  C89  1  0.17377000  0.42846000  0.59426000  1.0
  C  C90  1  0.32623000  0.92847000  0.90574000  1.0
  C  C91  1  0.82622000  0.57154000  0.40574000  1.0
  C  C92  1  0.68686000  0.18920000  0.12621000  1.0
  C  C93  1  0.18685000  0.31079000  0.62621000  1.0
  C  C94  1  0.31314000  0.81081000  0.87379000  1.0
  C  C95  1  0.81314000  0.68920000  0.37379000  1.0
  C  C96  1  0.76547000  0.26183000  0.08883000  1.0
  C  C97  1  0.26547000  0.23816000  0.58883000  1.0
  C  C98  1  0.23453000  0.73818000  0.91116000  1.0
  C  C99  1  0.73452000  0.76183000  0.41117000  1.0
  C  C100  1  0.82777000  0.21836000  0.01882000  1.0
  C  C101  1  0.32777000  0.28164000  0.51881000  1.0
  C  C102  1  0.17223000  0.78164000  0.98118000  1.0
  C  C103  1  0.67223000  0.71836000  0.48118000  1.0
  C  C104  1  0.60799000  0.23733000  0.19193000  1.0
  C  C105  1  0.10800000  0.26266000  0.69193000  1.0
  C  C106  1  0.39201000  0.76267000  0.80807000  1.0
  C  C107  1  0.89200000  0.73734000  0.30807000  1.0
  N  N108  1  0.00827000  0.90837000  0.69763000  1.0
  N  N109  1  0.50827000  0.59163000  0.19763000  1.0
  N  N110  1  0.99173000  0.09163000  0.30237000  1.0
  N  N111  1  0.49173000  0.40837000  0.80237000  1.0
  N  N112  1  0.98813000  0.72084000  0.66231000  1.0
  N  N113  1  0.48813000  0.77917000  0.16231000  1.0
  N  N114  1  0.01188000  0.27916000  0.33769000  1.0
  N  N115  1  0.51187000  0.22083000  0.83768000  1.0
  N  N116  1  0.80612000  0.11768000  0.62163000  1.0
  N  N117  1  0.30612000  0.38232000  0.12162000  1.0
  N  N118  1  0.19388000  0.88231000  0.37838000  1.0
  N  N119  1  0.69388000  0.61768000  0.87838000  1.0
  N  N120  1  0.64007000  0.21885000  0.50807000  1.0
  N  N121  1  0.14007000  0.28115000  0.00807000  1.0
  N  N122  1  0.35993000  0.78115000  0.49193000  1.0
  N  N123  1  0.85993000  0.71885000  0.99193000  1.0
  O  O124  1  0.96220000  0.11534000  0.88757000  1.0
  O  O125  1  0.46219000  0.38466000  0.38756000  1.0
  O  O126  1  0.03781000  0.88466000  0.11243000  1.0
  O  O127  1  0.53780000  0.61533000  0.61244000  1.0
  O  O128  1  0.82145000  0.96496000  0.84555000  1.0
  O  O129  1  0.32145000  0.53504000  0.34554000  1.0
  O  O130  1  0.17855000  0.03505000  0.15445000  1.0
  O  O131  1  0.67854000  0.46495000  0.65446000  1.0
  O  O132  1  0.52840000  0.17294000  0.21383000  1.0
  O  O133  1  0.02840000  0.32705000  0.71383000  1.0
  O  O134  1  0.47160000  0.82707000  0.78617000  1.0
  O  O135  1  0.97160000  0.67294000  0.28618000  1.0
  O  O136  1  0.62611000  0.34760000  0.21683000  1.0
  O  O137  1  0.12611000  0.15239000  0.71682000  1.0
  O  O138  1  0.37389000  0.65240000  0.78317000  1.0
  O  O139  1  0.87389000  0.84761000  0.28318000  1.0
