# generated using pymatgen
data_AlH6C11NO5F
_symmetry_space_group_name_H-M   'P 1'
_cell_length_a   6.66112000
_cell_length_b   11.14010000
_cell_length_c   16.93010000
_cell_angle_alpha   83.86210000
_cell_angle_beta   83.07010000
_cell_angle_gamma   72.94300000
_symmetry_Int_Tables_number   1
_chemical_formula_structural   AlH6C11NO5F
_chemical_formula_sum   'Al2 H12 C22 N2 O10 F2'
_cell_volume   1188.88086929
_cell_formula_units_Z   2
loop_
 _symmetry_equiv_pos_site_id
 _symmetry_equiv_pos_as_xyz
  1  'x, y, z'
loop_
 _atom_site_type_symbol
 _atom_site_label
 _atom_site_symmetry_multiplicity
 _atom_site_fract_x
 _atom_site_fract_y
 _atom_site_fract_z
 _atom_site_occupancy
  Al  Al0  1  0.50000000  0.50000000  0.50000000  1.0
  Al  Al1  1  0.00001000  0.49999000  0.50000000  1.0
  H  H2  1  0.19158000  0.65023000  0.45061000  1.0
  H  H3  1  0.80843000  0.34976000  0.54939000  1.0
  H  H4  1  0.85376000  0.49434000  0.73627000  1.0
  H  H5  1  0.78960000  0.49857000  0.88601000  1.0
  H  H6  1  0.42859000  0.50231000  0.89631000  1.0
  H  H7  1  0.49230000  0.49906000  0.74593000  1.0
  H  H8  1  0.57136000  0.49769000  0.10369000  1.0
  H  H9  1  0.21034000  0.50145000  0.11397000  1.0
  H  H10  1  0.14621000  0.50567000  0.26372000  1.0
  H  H11  1  0.50767000  0.50093000  0.25407000  1.0
  H  H12  1  0.24897000  0.87341000  0.54126000  1.0
  H  H13  1  0.75108000  0.12659000  0.45875000  1.0
  C  C14  1  0.64239000  0.72593000  0.50702000  1.0
  C  C15  1  0.78765000  0.50732000  0.35544000  1.0
  C  C16  1  0.35765000  0.27407000  0.49298000  1.0
  C  C17  1  0.21235000  0.49268000  0.64456000  1.0
  C  C18  1  0.17653000  0.49629000  0.73307000  1.0
  C  C19  1  0.97771000  0.49624000  0.77228000  1.0
  C  C20  1  0.94208000  0.49851000  0.85448000  1.0
  C  C21  1  0.10672000  0.50028000  0.89895000  1.0
  C  C22  1  0.30493000  0.50084000  0.85997000  1.0
  C  C23  1  0.33965000  0.49900000  0.77739000  1.0
  C  C24  1  0.69501000  0.49916000  0.14003000  1.0
  C  C25  1  0.89322000  0.49973000  0.10104000  1.0
  C  C26  1  0.05788000  0.50150000  0.14551000  1.0
  C  C27  1  0.02226000  0.50377000  0.22772000  1.0
  C  C28  1  0.82344000  0.50370000  0.26692000  1.0
  C  C29  1  0.66031000  0.50100000  0.22261000  1.0
  C  C30  1  0.42695000  0.13343000  0.49639000  1.0
  C  C31  1  0.57311000  0.86657000  0.50362000  1.0
  C  C32  1  0.28986000  0.05868000  0.51965000  1.0
  C  C33  1  0.71021000  0.94132000  0.48036000  1.0
  C  C34  1  0.35981000  0.92844000  0.52317000  1.0
  C  C35  1  0.64025000  0.07156000  0.47684000  1.0
  N  N36  1  0.08931000  0.50150000  0.98284000  1.0
  N  N37  1  0.91063000  0.49850000  0.01715000  1.0
  O  O38  1  0.49995000  0.67269000  0.50197000  1.0
  O  O39  1  0.93855000  0.51943000  0.39073000  1.0
  O  O40  1  0.16439000  0.32931000  0.48569000  1.0
  O  O41  1  0.39063000  0.50036000  0.61105000  1.0
  O  O42  1  0.50010000  0.32731000  0.49803000  1.0
  O  O43  1  0.06146000  0.48056000  0.60926000  1.0
  O  O44  1  0.83567000  0.67069000  0.51430000  1.0
  O  O45  1  0.60937000  0.49964000  0.38895000  1.0
  O  O46  1  0.23036000  0.56105000  0.46731000  1.0
  O  O47  1  0.76968000  0.43894000  0.53269000  1.0
  F  F48  1  0.08179000  0.11218000  0.54174000  1.0
  F  F49  1  0.91826000  0.88782000  0.45829000  1.0
