# generated using pymatgen
data_Mg3H54C54(NO2)8
_symmetry_space_group_name_H-M   'P 1'
_cell_length_a   11.65260000
_cell_length_b   13.10840000
_cell_length_c   26.59480000
_cell_angle_alpha   103.31400000
_cell_angle_beta   89.99990000
_cell_angle_gamma   89.99980000
_symmetry_Int_Tables_number   1
_chemical_formula_structural   Mg3H54C54(NO2)8
_chemical_formula_sum   'Mg6 H108 C108 N16 O32'
_cell_volume   3953.09112556
_cell_formula_units_Z   2
loop_
 _symmetry_equiv_pos_site_id
 _symmetry_equiv_pos_as_xyz
  1  'x, y, z'
loop_
 _atom_site_type_symbol
 _atom_site_label
 _atom_site_symmetry_multiplicity
 _atom_site_fract_x
 _atom_site_fract_y
 _atom_site_fract_z
 _atom_site_occupancy
  Mg  Mg0  1  0.50000000  0.00000000  0.00000000  1.0
  Mg  Mg1  1  0.50000000  0.50000000  0.50000000  1.0
  Mg  Mg2  1  0.24464000  0.12826000  0.05693000  1.0
  Mg  Mg3  1  0.24464000  0.37174000  0.44307000  1.0
  Mg  Mg4  1  0.75536000  0.87174000  0.94307000  1.0
  Mg  Mg5  1  0.75536000  0.62826000  0.55693000  1.0
  H  H6  1  0.02704000  0.86191000  0.01764000  1.0
  H  H7  1  0.02705000  0.63809000  0.48235000  1.0
  H  H8  1  0.97295000  0.13809000  0.98236000  1.0
  H  H9  1  0.97295000  0.36191000  0.51765000  1.0
  H  H10  1  0.93531000  0.68977000  0.01369000  1.0
  H  H11  1  0.93532000  0.81024000  0.48631000  1.0
  H  H12  1  0.06468000  0.31023000  0.98631000  1.0
  H  H13  1  0.06469000  0.18977000  0.51369000  1.0
  H  H14  1  0.55032000  0.19118000  0.95127000  1.0
  H  H15  1  0.55031000  0.30882000  0.54873000  1.0
  H  H16  1  0.44969000  0.80881000  0.04873000  1.0
  H  H17  1  0.44969000  0.69118000  0.45127000  1.0
  H  H18  1  0.28484000  0.35835000  0.84724000  1.0
  H  H19  1  0.28484000  0.14165000  0.65277000  1.0
  H  H20  1  0.71517000  0.64165000  0.15276000  1.0
  H  H21  1  0.71517000  0.85835000  0.34724000  1.0
  H  H22  1  0.62691000  0.27043000  0.88018000  1.0
  H  H23  1  0.62691000  0.22957000  0.61982000  1.0
  H  H24  1  0.37310000  0.72956000  0.11981000  1.0
  H  H25  1  0.37309000  0.77044000  0.38018000  1.0
  H  H26  1  0.35130000  0.71182000  0.97422000  1.0
  H  H27  1  0.35131000  0.78818000  0.52577000  1.0
  H  H28  1  0.64870000  0.28819000  0.02578000  1.0
  H  H29  1  0.64870000  0.21182000  0.47423000  1.0
  H  H30  1  0.36855000  0.47082000  0.63738000  1.0
  H  H31  1  0.36854000  0.02919000  0.86263000  1.0
  H  H32  1  0.63146000  0.52919000  0.36262000  1.0
  H  H33  1  0.63146000  0.97082000  0.13738000  1.0
  H  H34  1  0.30991000  0.40430000  0.71559000  1.0
  H  H35  1  0.30991000  0.09571000  0.78441000  1.0
  H  H36  1  0.69010000  0.59570000  0.28441000  1.0
  H  H37  1  0.69009000  0.90430000  0.21560000  1.0
  H  H38  1  0.20853000  0.28106000  0.91867000  1.0
  H  H39  1  0.20853000  0.21892000  0.58133000  1.0
  H  H40  1  0.79148000  0.71893000  0.08133000  1.0
  H  H41  1  0.79147000  0.78107000  0.41867000  1.0
  H  H42  1  0.25842000  0.53549000  0.96885000  1.0
  H  H43  1  0.25843000  0.96451000  0.53115000  1.0
  H  H44  1  0.74158000  0.46452000  0.03115000  1.0
  H  H45  1  0.74158000  0.03549000  0.46885000  1.0
  H  H46  1  0.71065000  0.52022000  0.69601000  1.0
  H  H47  1  0.71065000  0.97977000  0.80399000  1.0
  H  H48  1  0.28935000  0.47978000  0.30399000  1.0
  H  H49  1  0.28935000  0.02022000  0.19600000  1.0
  H  H50  1  0.65592000  0.44663000  0.77232000  1.0
  H  H51  1  0.65592000  0.05337000  0.72768000  1.0
  H  H52  1  0.34409000  0.55338000  0.22768000  1.0
  H  H53  1  0.34408000  0.94662000  0.27232000  1.0
  H  H54  1  0.01946000  0.01519000  0.06886000  1.0
  H  H55  1  0.01945000  0.48481000  0.43114000  1.0
  H  H56  1  0.98053000  0.98481000  0.93114000  1.0
  H  H57  1  0.98053000  0.51519000  0.56886000  1.0
  H  H58  1  0.17671000  0.39669000  0.12053000  1.0
  H  H59  1  0.17672000  0.10331000  0.37946000  1.0
  H  H60  1  0.82328000  0.60331000  0.87947000  1.0
  H  H61  1  0.82328000  0.89669000  0.62054000  1.0
  H  H62  1  0.19872000  0.36263000  0.05232000  1.0
  H  H63  1  0.19873000  0.13737000  0.44768000  1.0
  H  H64  1  0.80127000  0.63737000  0.94768000  1.0
  H  H65  1  0.80127000  0.86263000  0.55232000  1.0
  H  H66  1  0.36588000  0.48836000  0.13298000  1.0
  H  H67  1  0.36589000  0.01164000  0.36702000  1.0
  H  H68  1  0.63411000  0.51164000  0.86702000  1.0
  H  H69  1  0.63411000  0.98836000  0.63298000  1.0
  H  H70  1  0.27591000  0.53932000  0.09165000  1.0
  H  H71  1  0.27592000  0.96067000  0.40835000  1.0
  H  H72  1  0.72408000  0.46068000  0.90835000  1.0
  H  H73  1  0.72408000  0.03932000  0.59165000  1.0
  H  H74  1  0.38032000  0.43563000  0.01371000  1.0
  H  H75  1  0.38032000  0.06436000  0.48629000  1.0
  H  H76  1  0.61967000  0.56436000  0.98629000  1.0
  H  H77  1  0.61968000  0.93564000  0.51371000  1.0
  H  H78  1  0.47295000  0.38150000  0.05346000  1.0
  H  H79  1  0.47295000  0.11850000  0.44654000  1.0
  H  H80  1  0.52705000  0.61850000  0.94654000  1.0
  H  H81  1  0.52705000  0.88150000  0.55346000  1.0
  H  H82  1  0.47652000  0.51734000  0.05700000  1.0
  H  H83  1  0.47652000  0.98266000  0.44300000  1.0
  H  H84  1  0.52348000  0.48265000  0.94300000  1.0
  H  H85  1  0.52348000  0.01735000  0.55700000  1.0
  H  H86  1  0.90726000  0.24407000  0.17887000  1.0
  H  H87  1  0.90726000  0.25593000  0.32113000  1.0
  H  H88  1  0.09274000  0.75593000  0.82113000  1.0
  H  H89  1  0.09273000  0.74407000  0.67887000  1.0
  H  H90  1  0.78712000  0.24152000  0.13651000  1.0
  H  H91  1  0.78712000  0.25848000  0.36349000  1.0
  H  H92  1  0.21288000  0.75849000  0.86349000  1.0
  H  H93  1  0.21287000  0.74151000  0.63651000  1.0
  H  H94  1  0.92523000  0.28370000  0.11942000  1.0
  H  H95  1  0.92523000  0.21630000  0.38058000  1.0
  H  H96  1  0.07476000  0.71630000  0.88058000  1.0
  H  H97  1  0.07476000  0.78370000  0.61942000  1.0
  H  H98  1  0.84963000  0.96691000  0.08575000  1.0
  H  H99  1  0.84963000  0.53309000  0.41425000  1.0
  H  H100  1  0.15037000  0.03310000  0.91425000  1.0
  H  H101  1  0.15036000  0.46690000  0.58575000  1.0
  H  H102  1  0.73876000  0.06295000  0.09647000  1.0
  H  H103  1  0.73876000  0.43705000  0.40353000  1.0
  H  H104  1  0.26123000  0.93705000  0.90353000  1.0
  H  H105  1  0.26123000  0.56295000  0.59647000  1.0
  H  H106  1  0.80887000  0.02987000  0.15049000  1.0
  H  H107  1  0.80886000  0.47014000  0.34951000  1.0
  H  H108  1  0.19113000  0.97013000  0.84951000  1.0
  H  H109  1  0.19113000  0.52986000  0.65049000  1.0
  H  H110  1  0.37939000  0.28763000  0.08686000  1.0
  H  H111  1  0.37939000  0.21237000  0.41314000  1.0
  H  H112  1  0.62061000  0.71238000  0.91314000  1.0
  H  H113  1  0.62060000  0.78762000  0.58686000  1.0
  C  C114  1  0.25254000  0.90252000  0.00419000  1.0
  C  C115  1  0.25255000  0.59748000  0.49580000  1.0
  C  C116  1  0.74745000  0.09748000  0.99580000  1.0
  C  C117  1  0.74746000  0.40252000  0.50420000  1.0
  C  C118  1  0.32693000  0.18243000  0.97957000  1.0
  C  C119  1  0.32692000  0.31756000  0.52043000  1.0
  C  C120  1  0.67308000  0.81756000  0.02043000  1.0
  C  C121  1  0.67307000  0.68244000  0.47957000  1.0
  C  C122  1  0.19578000  0.79744000  0.99777000  1.0
  C  C123  1  0.19578000  0.70256000  0.50223000  1.0
  C  C124  1  0.80421000  0.20257000  0.00223000  1.0
  C  C125  1  0.80422000  0.29744000  0.49778000  1.0
  C  C126  1  0.37487000  0.22937000  0.93822000  1.0
  C  C127  1  0.37487000  0.27063000  0.56179000  1.0
  C  C128  1  0.62514000  0.77062000  0.06178000  1.0
  C  C129  1  0.62513000  0.72937000  0.43821000  1.0
  C  C130  1  0.07810000  0.79049000  0.00809000  1.0
  C  C131  1  0.07811000  0.70951000  0.49191000  1.0
  C  C132  1  0.92189000  0.20952000  0.99191000  1.0
  C  C133  1  0.92189000  0.29049000  0.50809000  1.0
  C  C134  1  0.54200000  0.49994000  0.66247000  1.0
  C  C135  1  0.54200000  0.00007000  0.83754000  1.0
  C  C136  1  0.45801000  0.50007000  0.33753000  1.0
  C  C137  1  0.45801000  0.99993000  0.16246000  1.0
  C  C138  1  0.02655000  0.69436000  0.00584000  1.0
  C  C139  1  0.02656000  0.80564000  0.49417000  1.0
  C  C140  1  0.97344000  0.30564000  0.99417000  1.0
  C  C141  1  0.97345000  0.19436000  0.50584000  1.0
  C  C142  1  0.49307000  0.22791000  0.92829000  1.0
  C  C143  1  0.49307000  0.27209000  0.57171000  1.0
  C  C144  1  0.50693000  0.77208000  0.07170000  1.0
  C  C145  1  0.50693000  0.72792000  0.42829000  1.0
  C  C146  1  0.09310000  0.60242000  0.99285000  1.0
  C  C147  1  0.09311000  0.89758000  0.50715000  1.0
  C  C148  1  0.90690000  0.39758000  0.00715000  1.0
  C  C149  1  0.90690000  0.10242000  0.49286000  1.0
  C  C150  1  0.34156000  0.32113000  0.87019000  1.0
  C  C151  1  0.34156000  0.17888000  0.62981000  1.0
  C  C152  1  0.65844000  0.67887000  0.12981000  1.0
  C  C153  1  0.65844000  0.82112000  0.37019000  1.0
  C  C154  1  0.53552000  0.27183000  0.88912000  1.0
  C  C155  1  0.53552000  0.22817000  0.61088000  1.0
  C  C156  1  0.46448000  0.72816000  0.11088000  1.0
  C  C157  1  0.46448000  0.77183000  0.38912000  1.0
  C  C158  1  0.26063000  0.70526000  0.98293000  1.0
  C  C159  1  0.26064000  0.79474000  0.51707000  1.0
  C  C160  1  0.73937000  0.29475000  0.01707000  1.0
  C  C161  1  0.73937000  0.20526000  0.48293000  1.0
  C  C162  1  0.42906000  0.46781000  0.66797000  1.0
  C  C163  1  0.42907000  0.03220000  0.83204000  1.0
  C  C164  1  0.57095000  0.53220000  0.33204000  1.0
  C  C165  1  0.57095000  0.96780000  0.16796000  1.0
  C  C166  1  0.57460000  0.53586000  0.61452000  1.0
  C  C167  1  0.57460000  0.96414000  0.88548000  1.0
  C  C168  1  0.42541000  0.46414000  0.38548000  1.0
  C  C169  1  0.42542000  0.03585000  0.11452000  1.0
  C  C170  1  0.46003000  0.31660000  0.85917000  1.0
  C  C171  1  0.46002000  0.18340000  0.64083000  1.0
  C  C172  1  0.53998000  0.68339000  0.14083000  1.0
  C  C173  1  0.53998000  0.81660000  0.35917000  1.0
  C  C174  1  0.39715000  0.43033000  0.71058000  1.0
  C  C175  1  0.39716000  0.06968000  0.78943000  1.0
  C  C176  1  0.60285000  0.56968000  0.28942000  1.0
  C  C177  1  0.60285000  0.93032000  0.21058000  1.0
  C  C178  1  0.29979000  0.27795000  0.90941000  1.0
  C  C179  1  0.29978000  0.22205000  0.59059000  1.0
  C  C180  1  0.70022000  0.72205000  0.09058000  1.0
  C  C181  1  0.70022000  0.77795000  0.40941000  1.0
  C  C182  1  0.20967000  0.60820000  0.98015000  1.0
  C  C183  1  0.20967000  0.89180000  0.51985000  1.0
  C  C184  1  0.79033000  0.39181000  0.01985000  1.0
  C  C185  1  0.79033000  0.10820000  0.48015000  1.0
  C  C186  1  0.47927000  0.42126000  0.74796000  1.0
  C  C187  1  0.47928000  0.07874000  0.75204000  1.0
  C  C188  1  0.52073000  0.57874000  0.25204000  1.0
  C  C189  1  0.52073000  0.92126000  0.24795000  1.0
  C  C190  1  0.62344000  0.49369000  0.70068000  1.0
  C  C191  1  0.62344000  0.00630000  0.79933000  1.0
  C  C192  1  0.37657000  0.50631000  0.29933000  1.0
  C  C193  1  0.37656000  0.99368000  0.20067000  1.0
  C  C194  1  0.59326000  0.45354000  0.74289000  1.0
  C  C195  1  0.59326000  0.04645000  0.75711000  1.0
  C  C196  1  0.40674000  0.54646000  0.25712000  1.0
  C  C197  1  0.40673000  0.95354000  0.24288000  1.0
  C  C198  1  0.00850000  0.09804000  0.08896000  1.0
  C  C199  1  0.00850000  0.40196000  0.41104000  1.0
  C  C200  1  0.99149000  0.90196000  0.91103000  1.0
  C  C201  1  0.99149000  0.59804000  0.58896000  1.0
  C  C202  1  0.24225000  0.37927000  0.09007000  1.0
  C  C203  1  0.24226000  0.12073000  0.40993000  1.0
  C  C204  1  0.75774000  0.62073000  0.90993000  1.0
  C  C205  1  0.75774000  0.87927000  0.59007000  1.0
  C  C206  1  0.32609000  0.46961000  0.09441000  1.0
  C  C207  1  0.32609000  0.03039000  0.40559000  1.0
  C  C208  1  0.67391000  0.53039000  0.90559000  1.0
  C  C209  1  0.67390000  0.96961000  0.59441000  1.0
  C  C210  1  0.41858000  0.44987000  0.05246000  1.0
  C  C211  1  0.41859000  0.05013000  0.44754000  1.0
  C  C212  1  0.58141000  0.55012000  0.94754000  1.0
  C  C213  1  0.58141000  0.94987000  0.55245000  1.0
  C  C214  1  0.87999000  0.22924000  0.13817000  1.0
  C  C215  1  0.87999000  0.27076000  0.36182000  1.0
  C  C216  1  0.12001000  0.77076000  0.86183000  1.0
  C  C217  1  0.12001000  0.72924000  0.63817000  1.0
  C  C218  1  0.82121000  0.04087000  0.11104000  1.0
  C  C219  1  0.82120000  0.45913000  0.38895000  1.0
  C  C220  1  0.17879000  0.95913000  0.88896000  1.0
  C  C221  1  0.17879000  0.54087000  0.61104000  1.0
  N  N222  1  0.50974000  0.35628000  0.81899000  1.0
  N  N223  1  0.50974000  0.14372000  0.68101000  1.0
  N  N224  1  0.49027000  0.64371000  0.18101000  1.0
  N  N225  1  0.49027000  0.85629000  0.31899000  1.0
  N  N226  1  0.43612000  0.37926000  0.78825000  1.0
  N  N227  1  0.43612000  0.12074000  0.71175000  1.0
  N  N228  1  0.56388000  0.62074000  0.21175000  1.0
  N  N229  1  0.56388000  0.87926000  0.28825000  1.0
  N  N230  1  0.05050000  0.50098000  0.99117000  1.0
  N  N231  1  0.05050000  0.99902000  0.50883000  1.0
  N  N232  1  0.94950000  0.49902000  0.00883000  1.0
  N  N233  1  0.94951000  0.00098000  0.49117000  1.0
  N  N234  1  0.90632000  0.12204000  0.11107000  1.0
  N  N235  1  0.90632000  0.37797000  0.38893000  1.0
  N  N236  1  0.09367000  0.87797000  0.88893000  1.0
  N  N237  1  0.09367000  0.62203000  0.61107000  1.0
  O  O238  1  0.22052000  0.19225000  0.99024000  1.0
  O  O239  1  0.22052000  0.30774000  0.50976000  1.0
  O  O240  1  0.77949000  0.80774000  0.00976000  1.0
  O  O241  1  0.77948000  0.69226000  0.49024000  1.0
  O  O242  1  0.29890000  0.28379000  0.09628000  1.0
  O  O243  1  0.29890000  0.21621000  0.40372000  1.0
  O  O244  1  0.70109000  0.71621000  0.90372000  1.0
  O  O245  1  0.70109000  0.78379000  0.59628000  1.0
  O  O246  1  0.08743000  0.16362000  0.08998000  1.0
  O  O247  1  0.08743000  0.33638000  0.41002000  1.0
  O  O248  1  0.91256000  0.83638000  0.91001000  1.0
  O  O249  1  0.91256000  0.66363000  0.58999000  1.0
  O  O250  1  0.39292000  0.13568000  0.00616000  1.0
  O  O251  1  0.39291000  0.36432000  0.49384000  1.0
  O  O252  1  0.60709000  0.86432000  0.99384000  1.0
  O  O253  1  0.60708000  0.63568000  0.50616000  1.0
  O  O254  1  0.49877000  0.52656000  0.57940000  1.0
  O  O255  1  0.49877000  0.97342000  0.92060000  1.0
  O  O256  1  0.50123000  0.47342000  0.42060000  1.0
  O  O257  1  0.50124000  0.02657000  0.07940000  1.0
  O  O258  1  0.67573000  0.57130000  0.61224000  1.0
  O  O259  1  0.67573000  0.92871000  0.88776000  1.0
  O  O260  1  0.32427000  0.42870000  0.38775000  1.0
  O  O261  1  0.32427000  0.07130000  0.11224000  1.0
  O  O262  1  0.35947000  0.90301000  0.99553000  1.0
  O  O263  1  0.35948000  0.59699000  0.50447000  1.0
  O  O264  1  0.64052000  0.09700000  0.00447000  1.0
  O  O265  1  0.64052000  0.40301000  0.49553000  1.0
  O  O266  1  0.18956000  0.98353000  0.01865000  1.0
  O  O267  1  0.18956000  0.51647000  0.48135000  1.0
  O  O268  1  0.81043000  0.01647000  0.98135000  1.0
  O  O269  1  0.81043000  0.48353000  0.51865000  1.0
