# generated using pymatgen
data_CoH11C17NO4
_symmetry_space_group_name_H-M   'P 1'
_cell_length_a   18.32830000
_cell_length_b   18.40200000
_cell_length_c   18.40200000
_cell_angle_alpha   109.55300000
_cell_angle_beta   109.39000000
_cell_angle_gamma   109.39000000
_symmetry_Int_Tables_number   1
_chemical_formula_structural   CoH11C17NO4
_chemical_formula_sum   'Co12 H132 C204 N12 O48'
_cell_volume   4782.56680564
_cell_formula_units_Z   12
loop_
 _symmetry_equiv_pos_site_id
 _symmetry_equiv_pos_as_xyz
  1  'x, y, z'
loop_
 _atom_site_type_symbol
 _atom_site_label
 _atom_site_symmetry_multiplicity
 _atom_site_fract_x
 _atom_site_fract_y
 _atom_site_fract_z
 _atom_site_occupancy
  Co  Co0  1  0.55180000  0.50370000  0.55980000  1.0
  Co  Co1  1  0.04809000  0.05609000  0.49630000  1.0
  Co  Co2  1  0.99199000  0.44017000  0.94388000  1.0
  Co  Co3  1  0.50800000  0.05610000  0.55982000  1.0
  Co  Co4  1  0.94820000  0.44019000  0.49628000  1.0
  Co  Co5  1  0.45191000  0.50371000  0.94392000  1.0
  Co  Co6  1  0.44809000  0.49625000  0.44003000  1.0
  Co  Co7  1  0.95184000  0.94379000  0.50377000  1.0
  Co  Co8  1  0.00806000  0.55995000  0.05620000  1.0
  Co  Co9  1  0.49194000  0.94379000  0.44003000  1.0
  Co  Co10  1  0.05191000  0.55997000  0.50375000  1.0
  Co  Co11  1  0.54816000  0.49625000  0.05622000  1.0
  H  H12  1  0.57991000  0.57002000  0.74164000  1.0
  H  H13  1  0.62605000  0.63361000  0.34633000  1.0
  H  H14  1  0.91489000  0.60203000  0.84525000  1.0
  H  H15  1  0.85511000  0.51083000  0.68120000  1.0
  H  H16  1  0.70148000  0.47093000  0.57549000  1.0
  H  H17  1  0.89045000  0.67530000  0.96693000  1.0
  H  H18  1  0.63466000  0.65827000  0.90305000  1.0
  H  H19  1  0.35731000  0.22662000  0.21989000  1.0
  H  H20  1  0.78993000  0.71311000  0.01578000  1.0
  H  H21  1  0.00991000  0.17163000  0.42999000  1.0
  H  H22  1  0.99245000  0.71271000  0.36641000  1.0
  H  H23  1  0.31285000  0.24318000  0.39795000  1.0
  H  H24  1  0.34428000  0.17037000  0.48919000  1.0
  H  H25  1  0.23056000  0.10457000  0.52910000  1.0
  H  H26  1  0.21514000  0.29159000  0.32467000  1.0
  H  H27  1  0.97642000  0.24480000  0.34174000  1.0
  H  H28  1  0.13068000  0.99328000  0.77340000  1.0
  H  H29  1  0.07684000  0.30266000  0.28689000  1.0
  H  H30  1  0.83827000  0.25836000  0.82835000  1.0
  H  H31  1  0.27974000  0.65371000  0.28729000  1.0
  H  H32  1  0.06964000  0.15474000  0.75678000  1.0
  H  H33  1  0.17390000  0.31879000  0.82961000  1.0
  H  H34  1  0.12599000  0.42450000  0.89542000  1.0
  H  H35  1  0.92351000  0.03306000  0.70836000  1.0
  H  H36  1  0.73160000  0.09696000  0.75519000  1.0
  H  H37  1  0.13738000  0.78010000  0.00671000  1.0
  H  H38  1  0.77414000  0.98422000  0.69731000  1.0
  H  H39  1  0.66171000  0.17160000  0.74159000  1.0
  H  H40  1  0.22028000  0.71272000  0.34631000  1.0
  H  H41  1  0.43036000  0.24321000  0.84523000  1.0
  H  H42  1  0.32610000  0.17038000  0.68119000  1.0
  H  H43  1  0.37400000  0.10456000  0.57547000  1.0
  H  H44  1  0.57651000  0.29163000  0.96691000  1.0
  H  H45  1  0.76839000  0.24476000  0.90300000  1.0
  H  H46  1  0.36258000  0.99326000  0.21986000  1.0
  H  H47  1  0.72586000  0.30266000  0.01574000  1.0
  H  H48  1  0.92009000  0.25838000  0.42997000  1.0
  H  H49  1  0.87396000  0.65368000  0.36641000  1.0
  H  H50  1  0.58511000  0.15477000  0.39796000  1.0
  H  H51  1  0.64491000  0.31882000  0.48920000  1.0
  H  H52  1  0.79854000  0.42454000  0.52910000  1.0
  H  H53  1  0.60956000  0.03309000  0.32468000  1.0
  H  H54  1  0.86535000  0.09698000  0.34173000  1.0
  H  H55  1  0.14270000  0.78011000  0.77339000  1.0
  H  H56  1  0.71008000  0.98425000  0.28689000  1.0
  H  H57  1  0.49011000  0.57003000  0.82841000  1.0
  H  H58  1  0.50756000  0.63361000  0.28729000  1.0
  H  H59  1  0.18714000  0.60204000  0.75684000  1.0
  H  H60  1  0.15571000  0.51079000  0.82964000  1.0
  H  H61  1  0.26944000  0.47090000  0.89545000  1.0
  H  H62  1  0.28487000  0.67533000  0.70844000  1.0
  H  H63  1  0.52360000  0.65828000  0.75525000  1.0
  H  H64  1  0.36933000  0.22661000  0.00674000  1.0
  H  H65  1  0.42317000  0.71312000  0.69738000  1.0
  H  H66  1  0.42008000  0.42996000  0.25831000  1.0
  H  H67  1  0.37394000  0.36642000  0.65363000  1.0
  H  H68  1  0.08510000  0.39795000  0.15474000  1.0
  H  H69  1  0.14491000  0.48918000  0.31879000  1.0
  H  H70  1  0.29853000  0.52909000  0.42449000  1.0
  H  H71  1  0.10953000  0.32469000  0.03305000  1.0
  H  H72  1  0.36532000  0.34172000  0.09691000  1.0
  H  H73  1  0.64268000  0.77338000  0.78005000  1.0
  H  H74  1  0.21004000  0.28689000  0.98418000  1.0
  H  H75  1  0.99008000  0.82834000  0.57004000  1.0
  H  H76  1  0.00753000  0.28723000  0.63359000  1.0
  H  H77  1  0.68714000  0.75683000  0.60208000  1.0
  H  H78  1  0.65571000  0.82962000  0.51081000  1.0
  H  H79  1  0.76943000  0.89540000  0.47090000  1.0
  H  H80  1  0.78485000  0.70843000  0.67537000  1.0
  H  H81  1  0.02358000  0.75520000  0.65830000  1.0
  H  H82  1  0.86932000  0.00667000  0.22666000  1.0
  H  H83  1  0.92314000  0.69735000  0.71316000  1.0
  H  H84  1  0.16176000  0.74169000  0.17165000  1.0
  H  H85  1  0.72029000  0.34637000  0.71277000  1.0
  H  H86  1  0.93036000  0.84527000  0.24320000  1.0
  H  H87  1  0.82612000  0.68121000  0.17039000  1.0
  H  H88  1  0.87405000  0.57552000  0.10460000  1.0
  H  H89  1  0.07648000  0.96695000  0.29162000  1.0
  H  H90  1  0.26841000  0.90309000  0.24480000  1.0
  H  H91  1  0.86263000  0.21994000  0.99331000  1.0
  H  H92  1  0.22585000  0.01582000  0.30269000  1.0
  H  H93  1  0.33823000  0.82831000  0.25829000  1.0
  H  H94  1  0.77969000  0.28723000  0.65363000  1.0
  H  H95  1  0.56964000  0.75679000  0.15471000  1.0
  H  H96  1  0.67389000  0.82961000  0.31877000  1.0
  H  H97  1  0.62595000  0.89539000  0.42446000  1.0
  H  H98  1  0.42352000  0.70835000  0.03302000  1.0
  H  H99  1  0.23158000  0.75516000  0.09688000  1.0
  H  H100  1  0.63735000  0.00667000  0.78002000  1.0
  H  H101  1  0.27415000  0.69729000  0.98416000  1.0
  H  H102  1  0.07993000  0.74170000  0.57004000  1.0
  H  H103  1  0.12606000  0.34637000  0.63360000  1.0
  H  H104  1  0.41491000  0.84530000  0.60207000  1.0
  H  H105  1  0.35512000  0.68125000  0.51086000  1.0
  H  H106  1  0.20150000  0.57555000  0.47095000  1.0
  H  H107  1  0.39047000  0.96698000  0.67531000  1.0
  H  H108  1  0.13468000  0.90311000  0.65828000  1.0
  H  H109  1  0.85731000  0.21995000  0.22662000  1.0
  H  H110  1  0.28996000  0.01584000  0.71311000  1.0
  H  H111  1  0.50993000  0.42997000  0.17168000  1.0
  H  H112  1  0.49247000  0.36645000  0.71279000  1.0
  H  H113  1  0.81287000  0.39793000  0.24319000  1.0
  H  H114  1  0.84429000  0.48918000  0.17039000  1.0
  H  H115  1  0.73058000  0.52910000  0.10463000  1.0
  H  H116  1  0.71517000  0.32465000  0.29161000  1.0
  H  H117  1  0.47644000  0.34173000  0.24484000  1.0
  H  H118  1  0.63068000  0.77336000  0.99335000  1.0
  H  H119  1  0.57688000  0.28687000  0.30270000  1.0
  H  H120  1  0.48342000  0.23340000  0.46682000  1.0
  H  H121  1  0.31835000  0.06835000  0.13668000  1.0
  H  H122  1  0.25001000  0.23340000  0.76659000  1.0
  H  H123  1  0.25000000  0.06834000  0.93167000  1.0
  H  H124  1  0.01659000  0.53316000  0.76657000  1.0
  H  H125  1  0.18163000  0.86330000  0.93165000  1.0
  H  H126  1  0.51655000  0.76653000  0.53308000  1.0
  H  H127  1  0.68161000  0.93163000  0.86323000  1.0
  H  H128  1  0.75001000  0.76653000  0.23348000  1.0
  H  H129  1  0.75000000  0.93161000  0.06840000  1.0
  H  H130  1  0.98347000  0.46690000  0.23345000  1.0
  H  H131  1  0.81837000  0.13676000  0.06837000  1.0
  H  H132  1  0.75000000  0.52005000  0.47998000  1.0
  H  H133  1  0.75001000  0.68509000  0.31493000  1.0
  H  H134  1  0.22995000  0.95993000  0.47994000  1.0
  H  H135  1  0.06492000  0.62982000  0.31491000  1.0
  H  H136  1  0.27003000  0.52001000  0.04008000  1.0
  H  H137  1  0.43510000  0.68512000  0.37018000  1.0
  H  H138  1  0.25000000  0.48000000  0.52001000  1.0
  H  H139  1  0.25001000  0.31495000  0.68506000  1.0
  H  H140  1  0.76999000  0.04001000  0.51998000  1.0
  H  H141  1  0.93505000  0.37011000  0.68504000  1.0
  H  H142  1  0.72999000  0.47998000  0.95999000  1.0
  H  H143  1  0.56494000  0.31498000  0.62989000  1.0
  C  C144  1  0.64830000  0.59600000  0.79115000  1.0
  C  C145  1  0.45574000  0.33620000  0.40194000  1.0
  C  C146  1  0.68201000  0.57651000  0.41816000  1.0
  C  C147  1  0.70505000  0.57622000  0.76164000  1.0
  C  C148  1  0.68073000  0.62064000  0.36910000  1.0
  C  C149  1  0.61373000  0.55197000  0.44561000  1.0
  C  C150  1  0.42624000  0.24064000  0.34853000  1.0
  C  C151  1  0.79359000  0.60527000  0.82679000  1.0
  C  C152  1  0.84782000  0.58093000  0.79652000  1.0
  C  C153  1  0.81504000  0.53093000  0.70669000  1.0
  C  C154  1  0.72824000  0.50740000  0.64706000  1.0
  C  C155  1  0.82344000  0.65526000  0.91863000  1.0
  C  C156  1  0.67931000  0.64465000  0.88096000  1.0
  C  C157  1  0.37696000  0.19331000  0.25531000  1.0
  C  C158  1  0.76732000  0.67522000  0.94522000  1.0
  C  C159  1  0.05231000  0.19515000  0.40400000  1.0
  C  C160  1  0.11952000  0.06572000  0.66381000  1.0
  C  C161  1  0.10550000  0.84164000  0.42350000  1.0
  C  C162  1  0.12884000  0.18543000  0.42378000  1.0
  C  C163  1  0.06010000  0.74845000  0.37937000  1.0
  C  C164  1  0.06177000  0.89364000  0.44804000  1.0
  C  C165  1  0.18560000  0.10789000  0.75937000  1.0
  C  C166  1  0.18833000  0.22151000  0.39472000  1.0
  C  C167  1  0.26688000  0.21556000  0.41906000  1.0
  C  C168  1  0.28411000  0.17575000  0.46908000  1.0
  C  C169  1  0.22085000  0.13967000  0.49262000  1.0
  C  C170  1  0.16818000  0.26334000  0.34472000  1.0
  C  C171  1  0.03468000  0.23632000  0.35536000  1.0
  C  C172  1  0.18365000  0.06200000  0.80671000  1.0
  C  C173  1  0.09212000  0.26999000  0.32477000  1.0
  C  C174  1  0.85715000  0.20885000  0.80483000  1.0
  C  C175  1  0.05379000  0.59805000  0.93426000  1.0
  C  C176  1  0.26385000  0.58184000  0.15835000  1.0
  C  C177  1  0.94340000  0.23835000  0.81455000  1.0
  C  C178  1  0.31164000  0.63093000  0.25154000  1.0
  C  C179  1  0.16812000  0.55438000  0.10635000  1.0
  C  C180  1  0.07769000  0.65145000  0.89210000  1.0
  C  C181  1  0.96679000  0.17320000  0.77846000  1.0
  C  C182  1  0.05130000  0.20348000  0.78441000  1.0
  C  C183  1  0.10835000  0.29330000  0.82423000  1.0
  C  C184  1  0.08117000  0.35293000  0.86032000  1.0
  C  C185  1  0.90480000  0.08137000  0.73663000  1.0
  C  C186  1  0.79835000  0.11904000  0.76367000  1.0
  C  C187  1  0.12162000  0.74467000  0.93798000  1.0
  C  C188  1  0.82209000  0.05478000  0.72998000  1.0
  C  C189  1  0.64284000  0.19513000  0.79111000  1.0
  C  C190  1  0.44620000  0.06573000  0.40193000  1.0
  C  C191  1  0.23614000  0.84166000  0.41815000  1.0
  C  C192  1  0.55659000  0.18541000  0.76161000  1.0
  C  C193  1  0.18838000  0.74847000  0.36909000  1.0
  C  C194  1  0.33189000  0.89367000  0.44562000  1.0
  C  C195  1  0.42231000  0.10789000  0.34854000  1.0
  C  C196  1  0.53320000  0.22151000  0.82677000  1.0
  C  C197  1  0.44870000  0.21558000  0.79650000  1.0
  C  C198  1  0.39165000  0.17576000  0.70667000  1.0
  C  C199  1  0.41881000  0.13966000  0.64704000  1.0
  C  C200  1  0.59520000  0.26335000  0.91860000  1.0
  C  C201  1  0.70165000  0.23630000  0.88092000  1.0
  C  C202  1  0.37836000  0.06200000  0.25530000  1.0
  C  C203  1  0.67790000  0.26999000  0.94518000  1.0
  C  C204  1  0.85170000  0.20887000  0.40399000  1.0
  C  C205  1  0.04425000  0.59804000  0.66379000  1.0
  C  C206  1  0.81799000  0.58185000  0.42351000  1.0
  C  C207  1  0.79495000  0.23838000  0.42378000  1.0
  C  C208  1  0.81929000  0.63091000  0.37938000  1.0
  C  C209  1  0.88626000  0.55436000  0.44804000  1.0
  C  C210  1  0.07375000  0.65144000  0.75935000  1.0
  C  C211  1  0.70641000  0.17323000  0.39472000  1.0
  C  C212  1  0.65219000  0.20350000  0.41907000  1.0
  C  C213  1  0.68497000  0.29333000  0.46908000  1.0
  C  C214  1  0.77177000  0.35296000  0.49262000  1.0
  C  C215  1  0.67657000  0.08140000  0.34473000  1.0
  C  C216  1  0.82070000  0.11907000  0.35535000  1.0
  C  C217  1  0.12303000  0.74468000  0.80668000  1.0
  C  C218  1  0.73268000  0.05480000  0.32478000  1.0
  C  C219  1  0.44771000  0.59602000  0.80489000  1.0
  C  C220  1  0.38047000  0.33620000  0.93426000  1.0
  C  C221  1  0.39449000  0.57649000  0.15835000  1.0
  C  C222  1  0.37117000  0.57622000  0.81461000  1.0
  C  C223  1  0.43991000  0.62063000  0.25154000  1.0
  C  C224  1  0.43822000  0.55196000  0.10635000  1.0
  C  C225  1  0.31441000  0.24064000  0.89210000  1.0
  C  C226  1  0.31168000  0.60528000  0.77852000  1.0
  C  C227  1  0.23311000  0.58093000  0.78445000  1.0
  C  C228  1  0.21588000  0.53091000  0.82426000  1.0
  C  C229  1  0.27915000  0.50737000  0.86035000  1.0
  C  C230  1  0.33184000  0.65529000  0.73670000  1.0
  C  C231  1  0.46534000  0.64466000  0.76373000  1.0
  C  C232  1  0.31637000  0.19331000  0.93801000  1.0
  C  C233  1  0.40790000  0.67524000  0.73005000  1.0
  C  C234  1  0.35169000  0.40399000  0.20881000  1.0
  C  C235  1  0.54417000  0.66375000  0.59794000  1.0
  C  C236  1  0.31797000  0.42352000  0.58180000  1.0
  C  C237  1  0.29495000  0.42379000  0.23832000  1.0
  C  C238  1  0.31928000  0.37940000  0.63087000  1.0
  C  C239  1  0.38621000  0.44801000  0.55429000  1.0
  C  C240  1  0.57370000  0.75932000  0.65138000  1.0
  C  C241  1  0.20640000  0.39473000  0.17318000  1.0
  C  C242  1  0.15218000  0.41907000  0.20347000  1.0
  C  C243  1  0.18496000  0.46908000  0.29329000  1.0
  C  C244  1  0.27176000  0.49261000  0.35291000  1.0
  C  C245  1  0.17655000  0.34474000  0.08134000  1.0
  C  C246  1  0.32067000  0.35535000  0.11900000  1.0
  C  C247  1  0.62300000  0.80665000  0.74460000  1.0
  C  C248  1  0.23266000  0.32478000  0.05475000  1.0
  C  C249  1  0.94768000  0.80484000  0.59603000  1.0
  C  C250  1  0.88042000  0.93417000  0.33627000  1.0
  C  C251  1  0.89446000  0.15829000  0.57648000  1.0
  C  C252  1  0.87115000  0.81456000  0.57624000  1.0
  C  C253  1  0.93987000  0.25147000  0.62060000  1.0
  C  C254  1  0.93819000  0.10627000  0.55199000  1.0
  C  C255  1  0.81438000  0.89204000  0.24070000  1.0
  C  C256  1  0.81166000  0.77849000  0.60530000  1.0
  C  C257  1  0.73311000  0.78444000  0.58096000  1.0
  C  C258  1  0.71587000  0.82424000  0.53092000  1.0
  C  C259  1  0.77913000  0.86030000  0.50738000  1.0
  C  C260  1  0.83181000  0.73667000  0.65531000  1.0
  C  C261  1  0.96531000  0.76369000  0.64468000  1.0
  C  C262  1  0.81636000  0.93794000  0.19337000  1.0
  C  C263  1  0.90788000  0.73001000  0.67527000  1.0
  C  C264  1  0.14287000  0.79119000  0.19516000  1.0
  C  C265  1  0.94623000  0.40204000  0.06579000  1.0
  C  C266  1  0.73618000  0.41820000  0.84172000  1.0
  C  C267  1  0.05662000  0.76169000  0.18545000  1.0
  C  C268  1  0.68840000  0.36914000  0.74852000  1.0
  C  C269  1  0.83192000  0.44570000  0.89372000  1.0
  C  C270  1  0.92233000  0.34861000  0.10793000  1.0
  C  C271  1  0.03322000  0.82683000  0.22154000  1.0
  C  C272  1  0.94871000  0.79654000  0.21559000  1.0
  C  C273  1  0.89167000  0.70671000  0.17578000  1.0
  C  C274  1  0.91885000  0.64709000  0.13970000  1.0
  C  C275  1  0.09520000  0.91866000  0.26337000  1.0
  C  C276  1  0.20166000  0.88100000  0.23633000  1.0
  C  C277  1  0.87840000  0.25538000  0.06204000  1.0
  C  C278  1  0.17791000  0.94526000  0.27002000  1.0
  C  C279  1  0.35712000  0.80480000  0.20879000  1.0
  C  C280  1  0.55377000  0.93419000  0.59794000  1.0
  C  C281  1  0.76380000  0.15829000  0.58179000  1.0
  C  C282  1  0.44338000  0.81452000  0.23829000  1.0
  C  C283  1  0.81159000  0.25148000  0.63086000  1.0
  C  C284  1  0.66807000  0.10629000  0.55430000  1.0
  C  C285  1  0.57767000  0.89206000  0.65136000  1.0
  C  C286  1  0.46678000  0.77844000  0.17315000  1.0
  C  C287  1  0.55129000  0.78440000  0.20344000  1.0
  C  C288  1  0.60834000  0.82422000  0.29327000  1.0
  C  C289  1  0.58115000  0.86029000  0.35288000  1.0
  C  C290  1  0.40480000  0.73660000  0.08131000  1.0
  C  C291  1  0.29833000  0.76364000  0.11898000  1.0
  C  C292  1  0.62158000  0.93794000  0.74459000  1.0
  C  C293  1  0.32208000  0.72996000  0.05472000  1.0
  C  C294  1  0.14832000  0.79121000  0.59602000  1.0
  C  C295  1  0.95581000  0.40203000  0.33624000  1.0
  C  C296  1  0.18202000  0.41821000  0.57650000  1.0
  C  C297  1  0.20507000  0.76171000  0.57623000  1.0
  C  C298  1  0.18073000  0.36914000  0.62062000  1.0
  C  C299  1  0.11376000  0.44569000  0.55198000  1.0
  C  C300  1  0.92630000  0.34862000  0.24068000  1.0
  C  C301  1  0.29361000  0.82685000  0.60528000  1.0
  C  C302  1  0.34784000  0.79657000  0.58096000  1.0
  C  C303  1  0.31506000  0.70674000  0.53096000  1.0
  C  C304  1  0.22826000  0.64712000  0.50741000  1.0
  C  C305  1  0.32346000  0.91869000  0.65527000  1.0
  C  C306  1  0.17933000  0.88102000  0.64466000  1.0
  C  C307  1  0.87699000  0.25539000  0.19333000  1.0
  C  C308  1  0.26734000  0.94528000  0.67522000  1.0
  C  C309  1  0.55233000  0.40398000  0.19519000  1.0
  C  C310  1  0.61957000  0.66375000  0.06581000  1.0
  C  C311  1  0.60553000  0.42352000  0.84172000  1.0
  C  C312  1  0.62886000  0.42377000  0.18546000  1.0
  C  C313  1  0.56012000  0.37942000  0.74853000  1.0
  C  C314  1  0.56179000  0.44803000  0.89372000  1.0
  C  C315  1  0.68561000  0.75931000  0.10796000  1.0
  C  C316  1  0.68835000  0.39470000  0.22154000  1.0
  C  C317  1  0.76690000  0.41905000  0.21559000  1.0
  C  C318  1  0.78413000  0.46907000  0.17578000  1.0
  C  C319  1  0.72087000  0.49262000  0.13972000  1.0
  C  C320  1  0.66820000  0.34470000  0.26337000  1.0
  C  C321  1  0.53471000  0.35534000  0.23635000  1.0
  C  C322  1  0.68364000  0.80665000  0.06208000  1.0
  C  C323  1  0.59214000  0.32476000  0.27003000  1.0
  C  C324  1  0.44724000  0.19723000  0.39445000  1.0
  C  C325  1  0.35461000  0.10460000  0.20920000  1.0
  C  C326  1  0.25001000  0.19722000  0.80277000  1.0
  C  C327  1  0.25001000  0.10461000  0.89541000  1.0
  C  C328  1  0.05277000  0.60553000  0.80277000  1.0
  C  C329  1  0.14537000  0.79078000  0.89538000  1.0
  C  C330  1  0.55273000  0.80272000  0.60545000  1.0
  C  C331  1  0.64534000  0.89534000  0.79069000  1.0
  C  C332  1  0.75001000  0.80271000  0.19729000  1.0
  C  C333  1  0.75000000  0.89535000  0.10468000  1.0
  C  C334  1  0.94728000  0.39453000  0.19727000  1.0
  C  C335  1  0.85465000  0.20929000  0.10463000  1.0
  C  C336  1  0.75001000  0.55620000  0.44383000  1.0
  C  C337  1  0.75001000  0.64886000  0.35116000  1.0
  C  C338  1  0.19380000  0.88762000  0.44380000  1.0
  C  C339  1  0.10116000  0.70230000  0.35115000  1.0
  C  C340  1  0.30618000  0.55617000  0.11238000  1.0
  C  C341  1  0.39886000  0.64887000  0.29771000  1.0
  C  C342  1  0.25000000  0.44385000  0.55616000  1.0
  C  C343  1  0.25001000  0.35119000  0.64883000  1.0
  C  C344  1  0.80615000  0.11232000  0.55615000  1.0
  C  C345  1  0.89881000  0.29764000  0.64881000  1.0
  C  C346  1  0.69384000  0.44384000  0.88769000  1.0
  C  C347  1  0.60118000  0.35120000  0.70236000  1.0
  N  N348  1  0.67492000  0.52907000  0.67217000  1.0
  N  N349  1  0.14585000  0.14311000  0.47094000  1.0
  N  N350  1  0.00274000  0.32782000  0.85688000  1.0
  N  N351  1  0.49724000  0.14308000  0.67214000  1.0
  N  N352  1  0.82509000  0.32785000  0.47093000  1.0
  N  N353  1  0.35416000  0.52907000  0.85692000  1.0
  N  N354  1  0.32508000  0.47093000  0.32779000  1.0
  N  N355  1  0.85413000  0.85687000  0.52907000  1.0
  N  N356  1  0.99729000  0.67221000  0.14313000  1.0
  N  N357  1  0.50271000  0.85684000  0.32776000  1.0
  N  N358  1  0.17494000  0.67224000  0.52909000  1.0
  N  N359  1  0.64587000  0.47092000  0.14315000  1.0
  O  O360  1  0.63650000  0.54339000  0.51450000  1.0
  O  O361  1  0.51825000  0.37838000  0.48272000  1.0
  O  O362  1  0.53674000  0.54103000  0.40097000  1.0
  O  O363  1  0.41602000  0.37001000  0.36534000  1.0
  O  O364  1  0.09311000  0.97110000  0.45660000  1.0
  O  O365  1  0.13985000  0.10431000  0.62161000  1.0
  O  O366  1  0.99573000  0.85995000  0.45900000  1.0
  O  O367  1  0.04599000  0.99534000  0.63002000  1.0
  O  O368  1  0.12200000  0.48548000  0.02887000  1.0
  O  O369  1  0.03552000  0.51725000  0.89565000  1.0
  O  O370  1  0.13578000  0.59902000  0.14005000  1.0
  O  O371  1  0.05067000  0.63464000  0.00465000  1.0
  O  O372  1  0.37802000  0.97113000  0.51454000  1.0
  O  O373  1  0.46447000  0.10432000  0.48274000  1.0
  O  O374  1  0.36421000  0.85996000  0.40098000  1.0
  O  O375  1  0.44933000  0.99536000  0.36533000  1.0
  O  O376  1  0.86348000  0.48546000  0.45661000  1.0
  O  O377  1  0.98172000  0.51723000  0.62159000  1.0
  O  O378  1  0.96322000  0.59899000  0.45896000  1.0
  O  O379  1  0.08396000  0.63464000  0.63000000  1.0
  O  O380  1  0.40688000  0.54339000  0.02888000  1.0
  O  O381  1  0.36014000  0.37841000  0.89567000  1.0
  O  O382  1  0.50426000  0.54102000  0.14005000  1.0
  O  O383  1  0.45398000  0.36998000  0.00464000  1.0
  O  O384  1  0.36342000  0.45658000  0.48538000  1.0
  O  O385  1  0.48166000  0.62156000  0.51713000  1.0
  O  O386  1  0.46317000  0.45891000  0.59890000  1.0
  O  O387  1  0.58387000  0.62994000  0.63453000  1.0
  O  O388  1  0.90683000  0.02880000  0.54341000  1.0
  O  O389  1  0.86008000  0.89554000  0.37845000  1.0
  O  O390  1  0.00426000  0.13998000  0.54109000  1.0
  O  O391  1  0.95392000  0.00456000  0.37008000  1.0
  O  O392  1  0.87803000  0.51460000  0.97119000  1.0
  O  O393  1  0.96452000  0.48285000  0.10442000  1.0
  O  O394  1  0.86427000  0.40108000  0.86001000  1.0
  O  O395  1  0.94935000  0.36546000  0.99540000  1.0
  O  O396  1  0.62198000  0.02883000  0.48542000  1.0
  O  O397  1  0.53547000  0.89556000  0.51715000  1.0
  O  O398  1  0.63571000  0.13999000  0.59892000  1.0
  O  O399  1  0.55064000  0.00459000  0.63452000  1.0
  O  O400  1  0.13656000  0.51458000  0.54342000  1.0
  O  O401  1  0.01832000  0.48283000  0.37841000  1.0
  O  O402  1  0.03679000  0.40107000  0.54107000  1.0
  O  O403  1  0.91612000  0.36546000  0.37007000  1.0
  O  O404  1  0.59315000  0.45659000  0.97118000  1.0
  O  O405  1  0.63991000  0.62158000  0.10444000  1.0
  O  O406  1  0.49573000  0.45895000  0.86003000  1.0
  O  O407  1  0.54604000  0.62994000  0.99543000  1.0
