# generated using pymatgen
data_AgH3(C2O)2
_symmetry_space_group_name_H-M   'P 1'
_cell_length_a   4.69635000
_cell_length_b   11.82550000
_cell_length_c   13.66930000
_cell_angle_alpha   66.22940000
_cell_angle_beta   87.76390000
_cell_angle_gamma   82.04240000
_symmetry_Int_Tables_number   1
_chemical_formula_structural   AgH3(C2O)2
_chemical_formula_sum   'Ag6 H18 C24 O12'
_cell_volume   687.93871901
_cell_formula_units_Z   6
loop_
 _symmetry_equiv_pos_site_id
 _symmetry_equiv_pos_as_xyz
  1  'x, y, z'
loop_
 _atom_site_type_symbol
 _atom_site_label
 _atom_site_symmetry_multiplicity
 _atom_site_fract_x
 _atom_site_fract_y
 _atom_site_fract_z
 _atom_site_occupancy
  Ag  Ag0  1  0.72274000  0.95228000  0.93872000  1.0
  Ag  Ag1  1  0.32221000  0.12874000  0.79597000  1.0
  Ag  Ag2  1  0.61492000  0.42565000  0.64780000  1.0
  Ag  Ag3  1  0.27728000  0.04772000  0.06127000  1.0
  Ag  Ag4  1  0.67778000  0.87126000  0.20404000  1.0
  Ag  Ag5  1  0.38508000  0.57435000  0.35220000  1.0
  H  H6  1  0.42089000  0.51946000  0.91828000  1.0
  H  H7  1  0.54366000  0.81177000  0.61205000  1.0
  H  H8  1  0.10035000  0.46132000  0.71566000  1.0
  H  H9  1  0.09114000  0.32417000  0.91296000  1.0
  H  H10  1  0.77801000  0.33719000  0.98633000  1.0
  H  H11  1  0.08547000  0.81508000  0.71644000  1.0
  H  H12  1  0.07719000  0.71139000  0.85067000  1.0
  H  H13  1  0.00296000  0.78771000  0.51896000  1.0
  H  H14  1  0.21035000  0.64084000  0.55521000  1.0
  H  H15  1  0.57911000  0.48055000  0.08173000  1.0
  H  H16  1  0.45634000  0.18823000  0.38795000  1.0
  H  H17  1  0.89965000  0.53868000  0.28434000  1.0
  H  H18  1  0.90887000  0.67583000  0.08704000  1.0
  H  H19  1  0.22200000  0.66281000  0.01367000  1.0
  H  H20  1  0.91452000  0.18492000  0.28356000  1.0
  H  H21  1  0.92283000  0.28861000  0.14933000  1.0
  H  H22  1  0.99705000  0.21229000  0.48104000  1.0
  H  H23  1  0.78964000  0.35915000  0.44479000  1.0
  C  C24  1  0.76265000  0.47462000  0.82492000  1.0
  C  C25  1  0.53702000  0.55361000  0.84343000  1.0
  C  C26  1  0.45720000  0.67525000  0.76770000  1.0
  C  C27  1  0.60435000  0.71672000  0.67120000  1.0
  C  C28  1  0.82976000  0.64048000  0.64894000  1.0
  C  C29  1  0.90648000  0.51815000  0.72649000  1.0
  C  C30  1  0.85557000  0.34539000  0.90713000  1.0
  C  C31  1  0.73886000  0.24068000  0.88978000  1.0
  C  C32  1  0.22172000  0.76266000  0.78801000  1.0
  C  C33  1  0.33298000  0.85787000  0.82170000  1.0
  C  C34  1  0.98731000  0.68783000  0.54559000  1.0
  C  C35  1  0.85613000  0.67239000  0.45121000  1.0
  C  C36  1  0.23736000  0.52538000  0.17508000  1.0
  C  C37  1  0.46300000  0.44639000  0.15657000  1.0
  C  C38  1  0.54281000  0.32475000  0.23230000  1.0
  C  C39  1  0.39565000  0.28328000  0.32879000  1.0
  C  C40  1  0.17024000  0.35952000  0.35106000  1.0
  C  C41  1  0.09353000  0.48185000  0.27351000  1.0
  C  C42  1  0.14444000  0.65461000  0.09287000  1.0
  C  C43  1  0.26115000  0.75932000  0.11023000  1.0
  C  C44  1  0.77827000  0.23734000  0.21199000  1.0
  C  C45  1  0.66700000  0.14213000  0.17830000  1.0
  C  C46  1  0.01269000  0.31216000  0.45441000  1.0
  C  C47  1  0.14385000  0.32761000  0.54879000  1.0
  O  O48  1  0.86792000  0.13045000  0.93876000  1.0
  O  O49  1  0.51617000  0.26837000  0.82990000  1.0
  O  O50  1  0.55017000  0.82073000  0.88469000  1.0
  O  O51  1  0.19020000  0.96670000  0.78351000  1.0
  O  O52  1  0.96230000  0.72679000  0.35991000  1.0
  O  O53  1  0.65393000  0.60513000  0.47027000  1.0
  O  O54  1  0.13209000  0.86955000  0.06124000  1.0
  O  O55  1  0.48384000  0.73163000  0.17011000  1.0
  O  O56  1  0.44983000  0.17928000  0.11529000  1.0
  O  O57  1  0.80976000  0.03330000  0.21649000  1.0
  O  O58  1  0.03768000  0.27320000  0.64009000  1.0
  O  O59  1  0.34606000  0.39487000  0.52974000  1.0
