# generated using pymatgen
data_ZnH18PdC22(N2O)4
_symmetry_space_group_name_H-M   'P 1'
_cell_length_a   8.44028000
_cell_length_b   9.92945000
_cell_length_c   17.13800000
_cell_angle_alpha   85.83000000
_cell_angle_beta   82.35200000
_cell_angle_gamma   66.88030000
_symmetry_Int_Tables_number   1
_chemical_formula_structural   ZnH18PdC22(N2O)4
_chemical_formula_sum   'Zn2 H36 Pd2 C44 N16 O8'
_cell_volume   1308.85638437
_cell_formula_units_Z   2
loop_
 _symmetry_equiv_pos_site_id
 _symmetry_equiv_pos_as_xyz
  1  'x, y, z'
loop_
 _atom_site_type_symbol
 _atom_site_label
 _atom_site_symmetry_multiplicity
 _atom_site_fract_x
 _atom_site_fract_y
 _atom_site_fract_z
 _atom_site_occupancy
  Zn  Zn0  1  0.13780000  0.28338000  0.18931000  1.0
  Zn  Zn1  1  0.86220000  0.71662000  0.81069000  1.0
  H  H2  1  0.96198000  0.17565000  0.30376000  1.0
  H  H3  1  0.03802000  0.82435000  0.69624000  1.0
  H  H4  1  0.98015000  0.09451000  0.22476000  1.0
  H  H5  1  0.01985000  0.90549000  0.77524000  1.0
  H  H6  1  0.44796000  0.32173000  0.15287000  1.0
  H  H7  1  0.55204000  0.67827000  0.84713000  1.0
  H  H8  1  0.38100000  0.35525000  0.06978000  1.0
  H  H9  1  0.61901000  0.64475000  0.93022000  1.0
  H  H10  1  0.57222000  0.23233000  0.51099000  1.0
  H  H11  1  0.42779000  0.76767000  0.48901000  1.0
  H  H12  1  0.75800000  0.39177000  0.85038000  1.0
  H  H13  1  0.24200000  0.60823000  0.14962000  1.0
  H  H14  1  0.40703000  0.11178000  0.31081000  1.0
  H  H15  1  0.59297000  0.88822000  0.68919000  1.0
  H  H16  1  0.49871000  0.14511000  0.43359000  1.0
  H  H17  1  0.50129000  0.85489000  0.56641000  1.0
  H  H18  1  0.08792000  0.57857000  0.44402000  1.0
  H  H19  1  0.91209000  0.42143000  0.55598000  1.0
  H  H20  1  0.01014000  0.52509000  0.31759000  1.0
  H  H21  1  0.98987000  0.47492000  0.68241000  1.0
  H  H22  1  0.80824000  0.13354000  0.57586000  1.0
  H  H23  1  0.19177000  0.86646000  0.42414000  1.0
  H  H24  1  0.95321000  0.12146000  0.69392000  1.0
  H  H25  1  0.04679000  0.87855000  0.30608000  1.0
  H  H26  1  0.50517000  0.48506000  0.78992000  1.0
  H  H27  1  0.49483000  0.51494000  0.21008000  1.0
  H  H28  1  0.36456000  0.50441000  0.66913000  1.0
  H  H29  1  0.63544000  0.49558000  0.33087000  1.0
  H  H30  1  0.20036000  0.01001000  0.92596000  1.0
  H  H31  1  0.79963000  0.98999000  0.07404000  1.0
  H  H32  1  0.28461000  0.05691000  0.05294000  1.0
  H  H33  1  0.71539000  0.94309000  0.94707000  1.0
  H  H34  1  0.83144000  0.42577000  0.09147000  1.0
  H  H35  1  0.16855000  0.57423000  0.90853000  1.0
  H  H36  1  0.72835000  0.39438000  0.96900000  1.0
  H  H37  1  0.27164000  0.60562000  0.03100000  1.0
  Pd  Pd38  1  0.64840000  0.78771000  0.18577000  1.0
  Pd  Pd39  1  0.35160000  0.21228000  0.81423000  1.0
  C  C40  1  0.84804000  0.60161000  0.18919000  1.0
  C  C41  1  0.15196000  0.39839000  0.81081000  1.0
  C  C42  1  0.69844000  0.84915000  0.28503000  1.0
  C  C43  1  0.30155000  0.15084000  0.71497000  1.0
  C  C44  1  0.45616000  0.97771000  0.18134000  1.0
  C  C45  1  0.54384000  0.02229000  0.81866000  1.0
  C  C46  1  0.59663000  0.72763000  0.08639000  1.0
  C  C47  1  0.40336000  0.27237000  0.91361000  1.0
  C  C48  1  0.33844000  0.21471000  0.34130000  1.0
  C  C49  1  0.66156000  0.78529000  0.65870000  1.0
  C  C50  1  0.39019000  0.23607000  0.41149000  1.0
  C  C51  1  0.60981000  0.76393000  0.58851000  1.0
  C  C52  1  0.30160000  0.36980000  0.44963000  1.0
  C  C53  1  0.69841000  0.63020000  0.55037000  1.0
  C  C54  1  0.16117000  0.47423000  0.41567000  1.0
  C  C55  1  0.83884000  0.52577000  0.58433000  1.0
  C  C56  1  0.11799000  0.44446000  0.34529000  1.0
  C  C57  1  0.88202000  0.55553000  0.65471000  1.0
  C  C58  1  0.34559000  0.41008000  0.52446000  1.0
  C  C59  1  0.65442000  0.58992000  0.47554000  1.0
  C  C60  1  0.57524000  0.31795000  0.61526000  1.0
  C  C61  1  0.42477000  0.68206000  0.38474000  1.0
  C  C62  1  0.74098000  0.21023000  0.62339000  1.0
  C  C63  1  0.25903000  0.78977000  0.37661000  1.0
  C  C64  1  0.82181000  0.20064000  0.69020000  1.0
  C  C65  1  0.17820000  0.79937000  0.30980000  1.0
  C  C66  1  0.73527000  0.29881000  0.75137000  1.0
  C  C67  1  0.26473000  0.70120000  0.24863000  1.0
  C  C68  1  0.57203000  0.40887000  0.74234000  1.0
  C  C69  1  0.42797000  0.59113000  0.25766000  1.0
  C  C70  1  0.49199000  0.42009000  0.67500000  1.0
  C  C71  1  0.50801000  0.57991000  0.32500000  1.0
  C  C72  1  0.91767000  0.17456000  0.85738000  1.0
  C  C73  1  0.08233000  0.82544000  0.14262000  1.0
  C  C74  1  0.96096000  0.20113000  0.93523000  1.0
  C  C75  1  0.03903000  0.79887000  0.06477000  1.0
  C  C76  1  0.11644000  0.10371000  0.96129000  1.0
  C  C77  1  0.88355000  0.89629000  0.03871000  1.0
  C  C78  1  0.16284000  0.12930000  0.03186000  1.0
  C  C79  1  0.83715000  0.87070000  0.96814000  1.0
  C  C80  1  0.91063000  0.33490000  0.05335000  1.0
  C  C81  1  0.08936000  0.66509000  0.94666000  1.0
  C  C82  1  0.85462000  0.31758000  0.98351000  1.0
  C  C83  1  0.14538000  0.68242000  0.01649000  1.0
  N  N84  1  0.96713000  0.49010000  0.18933000  1.0
  N  N85  1  0.03287000  0.50990000  0.81066000  1.0
  N  N86  1  0.72208000  0.88782000  0.34400000  1.0
  N  N87  1  0.27791000  0.11218000  0.65600000  1.0
  N  N88  1  0.34549000  0.09411000  0.17962000  1.0
  N  N89  1  0.65451000  0.90589000  0.82038000  1.0
  N  N90  1  0.57086000  0.69053000  0.02753000  1.0
  N  N91  1  0.42914000  0.30946000  0.97246000  1.0
  N  N92  1  0.20548000  0.31727000  0.30765000  1.0
  N  N93  1  0.79453000  0.68273000  0.69235000  1.0
  N  N94  1  0.50070000  0.31604000  0.54752000  1.0
  N  N95  1  0.49930000  0.68396000  0.45248000  1.0
  N  N96  1  0.80459000  0.29377000  0.82215000  1.0
  N  N97  1  0.19541000  0.70623000  0.17785000  1.0
  N  N98  1  0.06312000  0.24411000  0.07706000  1.0
  N  N99  1  0.93688000  0.75589000  0.92294000  1.0
  O  O100  1  0.95621000  0.19127000  0.24741000  1.0
  O  O101  1  0.04379000  0.80873000  0.75259000  1.0
  O  O102  1  0.34784000  0.38434000  0.12679000  1.0
  O  O103  1  0.65216000  0.61566000  0.87321000  1.0
  O  O104  1  0.24729000  0.52199000  0.56011000  1.0
  O  O105  1  0.75271000  0.47801000  0.43989000  1.0
  O  O106  1  0.98649000  0.04952000  0.82952000  1.0
  O  O107  1  0.01350000  0.95048000  0.17048000  1.0
