# generated using pymatgen
data_Zn4H3C15Br3N6O13
_symmetry_space_group_name_H-M   'P 1'
_cell_length_a   16.95250000
_cell_length_b   17.02060000
_cell_length_c   17.46380000
_cell_angle_alpha   62.06030000
_cell_angle_beta   62.47290000
_cell_angle_gamma   61.43630000
_symmetry_Int_Tables_number   1
_chemical_formula_structural   Zn4H3C15Br3N6O13
_chemical_formula_sum   'Zn8 H6 C30 Br6 N12 O26'
_cell_volume   3721.15349182
_cell_formula_units_Z   2
loop_
 _symmetry_equiv_pos_site_id
 _symmetry_equiv_pos_as_xyz
  1  'x, y, z'
loop_
 _atom_site_type_symbol
 _atom_site_label
 _atom_site_symmetry_multiplicity
 _atom_site_fract_x
 _atom_site_fract_y
 _atom_site_fract_z
 _atom_site_occupancy
  Zn  Zn0  1  0.08433000  0.00607000  0.82373000  1.0
  Zn  Zn1  1  0.07205000  0.82976000  0.01654000  1.0
  Zn  Zn2  1  0.89774000  0.01568000  0.99397000  1.0
  Zn  Zn3  1  0.06885000  0.02372000  0.01076000  1.0
  Zn  Zn4  1  0.50146000  0.41608000  0.59286000  1.0
  Zn  Zn5  1  0.47857000  0.60066000  0.44255000  1.0
  Zn  Zn6  1  0.46843000  0.42496000  0.42358000  1.0
  Zn  Zn7  1  0.67338000  0.42370000  0.40741000  1.0
  H  H8  1  0.22586000  0.61848000  0.90781000  1.0
  H  H9  1  0.70871000  0.19039000  0.86317000  1.0
  H  H10  1  0.24018000  0.18189000  0.89061000  1.0
  H  H11  1  0.68942000  0.90530000  0.17115000  1.0
  H  H12  1  0.20010000  0.90629000  0.20297000  1.0
  H  H13  1  0.68817000  0.18104000  0.14329000  1.0
  C  C14  1  0.17606000  0.80658000  0.83259000  1.0
  C  C15  1  0.23331000  0.73476000  0.78664000  1.0
  C  C16  1  0.32192000  0.63702000  0.70317000  1.0
  C  C17  1  0.38103000  0.59077000  0.63179000  1.0
  C  C18  1  0.28007000  0.73407000  0.69652000  1.0
  C  C19  1  0.89447000  0.10918000  0.80321000  1.0
  C  C20  1  0.83004000  0.17531000  0.74850000  1.0
  C  C21  1  0.74218000  0.27916000  0.65511000  1.0
  C  C22  1  0.69818000  0.34421000  0.58140000  1.0
  C  C23  1  0.83592000  0.21967000  0.65610000  1.0
  C  C24  1  0.17883000  0.11344000  0.82496000  1.0
  C  C25  1  0.24145000  0.17016000  0.77448000  1.0
  C  C26  1  0.34128000  0.25216000  0.68412000  1.0
  C  C27  1  0.40498000  0.30563000  0.61030000  1.0
  C  C28  1  0.28999000  0.20706000  0.68289000  1.0
  C  C29  1  0.87694000  0.82864000  0.10772000  1.0
  C  C30  1  0.80783000  0.78003000  0.17004000  1.0
  C  C31  1  0.71345000  0.69310000  0.26676000  1.0
  C  C32  1  0.66732000  0.62023000  0.32888000  1.0
  C  C33  1  0.80928000  0.68651000  0.21679000  1.0
  C  C34  1  0.16407000  0.83201000  0.12151000  1.0
  C  C35  1  0.21775000  0.78259000  0.18651000  1.0
  C  C36  1  0.30320000  0.69366000  0.28369000  1.0
  C  C37  1  0.36288000  0.62004000  0.34327000  1.0
  C  C38  1  0.26649000  0.68872000  0.22807000  1.0
  C  C39  1  0.87554000  0.12730000  0.09682000  1.0
  C  C40  1  0.80429000  0.18456000  0.15638000  1.0
  C  C41  1  0.70571000  0.27130000  0.25039000  1.0
  C  C42  1  0.65780000  0.32803000  0.31329000  1.0
  C  C43  1  0.80290000  0.22878000  0.20769000  1.0
  Br  Br44  1  0.28329000  0.83936000  0.59231000  1.0
  Br  Br45  1  0.94460000  0.20345000  0.55728000  1.0
  Br  Br46  1  0.28908000  0.19542000  0.58241000  1.0
  Br  Br47  1  0.91577000  0.57841000  0.21281000  1.0
  Br  Br48  1  0.28018000  0.58213000  0.21100000  1.0
  Br  Br49  1  0.90807000  0.22963000  0.21644000  1.0
  N  N50  1  0.25006000  0.64176000  0.83866000  1.0
  N  N51  1  0.30209000  0.58215000  0.79139000  1.0
  N  N52  1  0.73652000  0.20956000  0.79429000  1.0
  N  N53  1  0.68294000  0.27140000  0.74140000  1.0
  N  N54  1  0.26539000  0.19607000  0.82200000  1.0
  N  N55  1  0.32481000  0.24392000  0.77073000  1.0
  N  N56  1  0.71463000  0.83372000  0.19416000  1.0
  N  N57  1  0.65719000  0.78464000  0.25154000  1.0
  N  N58  1  0.22818000  0.83489000  0.21927000  1.0
  N  N59  1  0.27800000  0.78463000  0.27682000  1.0
  N  N60  1  0.71124000  0.20332000  0.17142000  1.0
  N  N61  1  0.65136000  0.25408000  0.22667000  1.0
  O  O62  1  0.03484000  0.96796000  0.95884000  1.0
  O  O63  1  0.14704000  0.77214000  0.91972000  1.0
  O  O64  1  0.16040000  0.89321000  0.78481000  1.0
  O  O65  1  0.41001000  0.64278000  0.55085000  1.0
  O  O66  1  0.39786000  0.50225000  0.65818000  1.0
  O  O67  1  0.85102000  0.08565000  0.88932000  1.0
  O  O68  1  0.98300000  0.08214000  0.76490000  1.0
  O  O69  1  0.74226000  0.33888000  0.50091000  1.0
  O  O70  1  0.61585000  0.40157000  0.60676000  1.0
  O  O71  1  0.14911000  0.09709000  0.91162000  1.0
  O  O72  1  0.16020000  0.08579000  0.78102000  1.0
  O  O73  1  0.39411000  0.34597000  0.53152000  1.0
  O  O74  1  0.46451000  0.30722000  0.63444000  1.0
  O  O75  1  0.83909000  0.91870000  0.07716000  1.0
  O  O76  1  0.96459000  0.78151000  0.08965000  1.0
  O  O77  1  0.71714000  0.53454000  0.33277000  1.0
  O  O78  1  0.58092000  0.65255000  0.37189000  1.0
  O  O79  1  0.13683000  0.92241000  0.09758000  1.0
  O  O80  1  0.14876000  0.78373000  0.09529000  1.0
  O  O81  1  0.38461000  0.53378000  0.35270000  1.0
  O  O82  1  0.38643000  0.65199000  0.37931000  1.0
  O  O83  1  0.84011000  0.10426000  0.06250000  1.0
  O  O84  1  0.96281000  0.10505000  0.08390000  1.0
  O  O85  1  0.71030000  0.34960000  0.32874000  1.0
  O  O86  1  0.56867000  0.34900000  0.34489000  1.0
  O  O87  1  0.53439000  0.46487000  0.45903000  1.0
