# generated using pymatgen
data_CuH12C20(NO2)2
_symmetry_space_group_name_H-M   'P 1'
_cell_length_a   5.39996000
_cell_length_b   11.30320000
_cell_length_c   14.45400000
_cell_angle_alpha   89.99930000
_cell_angle_beta   92.73960000
_cell_angle_gamma   89.99770000
_symmetry_Int_Tables_number   1
_chemical_formula_structural   CuH12C20(NO2)2
_chemical_formula_sum   'Cu2 H24 C40 N4 O8'
_cell_volume   881.21799406
_cell_formula_units_Z   2
loop_
 _symmetry_equiv_pos_site_id
 _symmetry_equiv_pos_as_xyz
  1  'x, y, z'
loop_
 _atom_site_type_symbol
 _atom_site_label
 _atom_site_symmetry_multiplicity
 _atom_site_fract_x
 _atom_site_fract_y
 _atom_site_fract_z
 _atom_site_occupancy
  Cu  Cu0  1  0.00000000  0.50000000  1.00000000  1.0
  Cu  Cu1  1  0.00000000  0.00000000  0.50000000  1.0
  H  H2  1  0.70879000  0.29444000  0.98237000  1.0
  H  H3  1  0.29121000  0.79443000  0.51762000  1.0
  H  H4  1  0.29119000  0.70556000  0.01763000  1.0
  H  H5  1  0.70882000  0.20557000  0.48238000  1.0
  H  H6  1  0.63598000  0.12510000  0.87288000  1.0
  H  H7  1  0.36400000  0.62510000  0.62711000  1.0
  H  H8  1  0.36403000  0.87490000  0.12712000  1.0
  H  H9  1  0.63600000  0.37490000  0.37289000  1.0
  H  H10  1  0.88309000  0.11277000  0.73143000  1.0
  H  H11  1  0.11693000  0.61277000  0.76856000  1.0
  H  H12  1  0.11693000  0.88723000  0.26857000  1.0
  H  H13  1  0.88308000  0.38723000  0.23144000  1.0
  H  H14  1  0.37623000  0.50417000  0.88351000  1.0
  H  H15  1  0.62377000  0.00417000  0.61649000  1.0
  H  H16  1  0.62376000  0.49584000  0.11649000  1.0
  H  H17  1  0.37623000  0.99583000  0.38351000  1.0
  H  H18  1  0.64107000  0.49692000  0.74868000  1.0
  H  H19  1  0.35895000  0.99691000  0.75132000  1.0
  H  H20  1  0.35894000  0.50308000  0.25133000  1.0
  H  H21  1  0.64105000  0.00309000  0.24868000  1.0
  H  H22  1  0.56590000  0.34413000  0.62538000  1.0
  H  H23  1  0.43409000  0.84413000  0.87461000  1.0
  H  H24  1  0.43411000  0.65587000  0.37462000  1.0
  H  H25  1  0.56590000  0.15587000  0.12538000  1.0
  C  C26  1  0.82223000  0.28348000  0.92243000  1.0
  C  C27  1  0.17778000  0.78347000  0.57757000  1.0
  C  C28  1  0.17777000  0.71652000  0.07757000  1.0
  C  C29  1  0.82223000  0.21653000  0.42244000  1.0
  C  C30  1  0.78101000  0.18924000  0.86017000  1.0
  C  C31  1  0.21899000  0.68923000  0.63983000  1.0
  C  C32  1  0.21899000  0.81076000  0.13983000  1.0
  C  C33  1  0.78103000  0.31076000  0.36018000  1.0
  C  C34  1  0.91778000  0.18182000  0.78258000  1.0
  C  C35  1  0.08224000  0.68181000  0.71741000  1.0
  C  C36  1  0.08223000  0.81818000  0.21742000  1.0
  C  C37  1  0.91776000  0.31819000  0.28259000  1.0
  C  C38  1  0.10554000  0.26639000  0.76709000  1.0
  C  C39  1  0.89448000  0.76639000  0.73290000  1.0
  C  C40  1  0.89445000  0.73361000  0.23291000  1.0
  C  C41  1  0.10552000  0.23361000  0.26710000  1.0
  C  C42  1  0.14533000  0.35692000  0.83610000  1.0
  C  C43  1  0.85467000  0.85691000  0.66390000  1.0
  C  C44  1  0.85467000  0.64309000  0.16389000  1.0
  C  C45  1  0.14533000  0.14309000  0.33610000  1.0
  C  C46  1  0.34142000  0.43874000  0.82900000  1.0
  C  C47  1  0.65858000  0.93874000  0.67100000  1.0
  C  C48  1  0.65859000  0.56127000  0.17100000  1.0
  C  C49  1  0.34141000  0.06126000  0.32900000  1.0
  C  C50  1  0.48844000  0.43434000  0.75360000  1.0
  C  C51  1  0.51155000  0.93433000  0.74640000  1.0
  C  C52  1  0.51156000  0.56567000  0.24640000  1.0
  C  C53  1  0.48845000  0.06567000  0.25360000  1.0
  C  C54  1  0.44697000  0.34838000  0.68411000  1.0
  C  C55  1  0.55304000  0.84838000  0.81589000  1.0
  C  C56  1  0.55303000  0.65162000  0.31589000  1.0
  C  C57  1  0.44696000  0.15162000  0.18411000  1.0
  C  C58  1  0.26051000  0.26454000  0.68917000  1.0
  C  C59  1  0.73949000  0.76455000  0.81081000  1.0
  C  C60  1  0.73947000  0.73546000  0.31083000  1.0
  C  C61  1  0.26050000  0.23545000  0.18919000  1.0
  C  C62  1  0.24079000  0.17393000  0.61161000  1.0
  C  C63  1  0.75923000  0.67394000  0.88836000  1.0
  C  C64  1  0.75921000  0.82608000  0.38839000  1.0
  C  C65  1  0.24076000  0.32606000  0.11162000  1.0
  N  N66  1  0.99633000  0.36438000  0.91041000  1.0
  N  N67  1  0.00367000  0.86435000  0.58960000  1.0
  N  N68  1  0.00366000  0.63562000  0.08958000  1.0
  N  N69  1  0.99634000  0.13564000  0.41041000  1.0
  O  O70  1  0.03704000  0.11308000  0.60419000  1.0
  O  O71  1  0.96291000  0.61307000  0.89582000  1.0
  O  O72  1  0.96296000  0.88692000  0.39581000  1.0
  O  O73  1  0.03707000  0.38693000  0.10419000  1.0
  O  O74  1  0.41757000  0.16230000  0.55972000  1.0
  O  O75  1  0.58243000  0.66228000  0.94027000  1.0
  O  O76  1  0.58242000  0.83770000  0.44027000  1.0
  O  O77  1  0.41757000  0.33771000  0.05973000  1.0
