# generated using pymatgen
data_CrH16C8(BrO)2
_symmetry_space_group_name_H-M   'P 1'
_cell_length_a   4.05788000
_cell_length_b   7.41504000
_cell_length_c   9.19610000
_cell_angle_alpha   87.40750000
_cell_angle_beta   78.73430000
_cell_angle_gamma   87.13410000
_symmetry_Int_Tables_number   1
_chemical_formula_structural   CrH16C8(BrO)2
_chemical_formula_sum   'Cr1 H16 C8 Br2 O2'
_cell_volume   270.85588077
_cell_formula_units_Z   1
loop_
 _symmetry_equiv_pos_site_id
 _symmetry_equiv_pos_as_xyz
  1  'x, y, z'
loop_
 _atom_site_type_symbol
 _atom_site_label
 _atom_site_symmetry_multiplicity
 _atom_site_fract_x
 _atom_site_fract_y
 _atom_site_fract_z
 _atom_site_occupancy
  Cr  Cr0  1  0.50000000  0.50000000  0.50000000  1.0
  H  H1  1  0.41089000  0.47119000  0.85031000  1.0
  H  H2  1  0.58911000  0.52881000  0.14969000  1.0
  H  H3  1  0.00552000  0.57034000  0.83932000  1.0
  H  H4  1  0.99448000  0.42966000  0.16068000  1.0
  H  H5  1  0.01035000  0.95558000  0.83369000  1.0
  H  H6  1  0.98965000  0.04442000  0.16631000  1.0
  H  H7  1  0.39716000  0.03894000  0.85752000  1.0
  H  H8  1  0.60284000  0.96106000  0.14248000  1.0
  H  H9  1  0.57735000  0.74249000  0.95237000  1.0
  H  H10  1  0.42265000  0.25751000  0.04763000  1.0
  H  H11  1  0.14485000  0.75047000  0.03532000  1.0
  H  H12  1  0.85515000  0.24953000  0.96468000  1.0
  H  H13  1  0.31762000  0.91641000  0.58662000  1.0
  H  H14  1  0.68238000  0.08359000  0.41339000  1.0
  H  H15  1  0.71105000  0.88287000  0.64624000  1.0
  H  H16  1  0.28895000  0.11713000  0.35377000  1.0
  C  C17  1  0.27200000  0.59828000  0.83209000  1.0
  C  C18  1  0.72800000  0.40172000  0.16791000  1.0
  C  C19  1  0.27795000  0.91933000  0.82902000  1.0
  C  C20  1  0.72206000  0.08067000  0.17098000  1.0
  C  C21  1  0.32191000  0.75186000  0.92851000  1.0
  C  C22  1  0.67809000  0.24814000  0.07149000  1.0
  C  C23  1  0.44108000  0.85853000  0.67493000  1.0
  C  C24  1  0.55892000  0.14147000  0.32507000  1.0
  Br  Br25  1  0.11521000  0.70621000  0.37201000  1.0
  Br  Br26  1  0.88478000  0.29379000  0.62799000  1.0
  O  O27  1  0.40522000  0.66217000  0.68080000  1.0
  O  O28  1  0.59477000  0.33783000  0.31920000  1.0
