# generated using pymatgen
data_ZnH8C12Br(NO2)2
_symmetry_space_group_name_H-M   'P 1'
_cell_length_a   8.22923000
_cell_length_b   11.91780000
_cell_length_c   15.46849156
_cell_angle_alpha   85.12618700
_cell_angle_beta   74.58380593
_cell_angle_gamma   69.81460000
_symmetry_Int_Tables_number   1
_chemical_formula_structural   ZnH8C12Br(NO2)2
_chemical_formula_sum   'Zn4 H32 C48 Br4 N8 O16'
_cell_volume   1372.61598370
_cell_formula_units_Z   4
loop_
 _symmetry_equiv_pos_site_id
 _symmetry_equiv_pos_as_xyz
  1  'x, y, z'
loop_
 _atom_site_type_symbol
 _atom_site_label
 _atom_site_symmetry_multiplicity
 _atom_site_fract_x
 _atom_site_fract_y
 _atom_site_fract_z
 _atom_site_occupancy
  Zn  Zn0  1  0.11453000  0.75225000  0.62073000  1.0
  Zn  Zn1  1  0.98746000  0.74794000  0.87909000  1.0
  Zn  Zn2  1  0.88547000  0.24774000  0.37927000  1.0
  Zn  Zn3  1  0.01254000  0.25206000  0.12091000  1.0
  H  H4  1  0.44522000  0.45866000  0.59766000  1.0
  H  H5  1  0.00180000  0.04123000  0.90217000  1.0
  H  H6  1  0.55479000  0.54135000  0.40233000  1.0
  H  H7  1  0.99821000  0.95877000  0.09783000  1.0
  H  H8  1  0.68725000  0.10851000  0.69711000  1.0
  H  H9  1  0.99230000  0.39176000  0.80316000  1.0
  H  H10  1  0.31275000  0.89150000  0.30289000  1.0
  H  H11  1  0.00770000  0.60824000  0.19684000  1.0
  H  H12  1  0.28689000  0.38219000  0.87953000  1.0
  H  H13  1  0.04840000  0.11830000  0.62038000  1.0
  H  H14  1  0.71310000  0.61782000  0.12047000  1.0
  H  H15  1  0.95159000  0.88170000  0.37962000  1.0
  H  H16  1  0.80518000  0.62981000  0.65458000  1.0
  H  H17  1  0.58940000  0.87019000  0.84512000  1.0
  H  H18  1  0.19483000  0.37019000  0.34542000  1.0
  H  H19  1  0.41060000  0.12982000  0.15488000  1.0
  H  H20  1  0.48177000  0.76058000  0.61268000  1.0
  H  H21  1  0.35503000  0.73926000  0.88720000  1.0
  H  H22  1  0.51824000  0.23942000  0.38732000  1.0
  H  H23  1  0.64497000  0.26074000  0.11280000  1.0
  H  H24  1  0.81939000  0.97186000  0.56127000  1.0
  H  H25  1  0.85251000  0.52839000  0.93871000  1.0
  H  H26  1  0.18062000  0.02814000  0.43873000  1.0
  H  H27  1  0.14749000  0.47162000  0.06129000  1.0
  H  H28  1  0.45699000  0.07520000  0.58453000  1.0
  H  H29  1  0.61703000  0.42477000  0.91553000  1.0
  H  H30  1  0.54301000  0.92480000  0.41547000  1.0
  H  H31  1  0.38298000  0.57523000  0.08446000  1.0
  H  H32  1  0.34806000  0.97349000  0.57324000  1.0
  H  H33  1  0.39512000  0.52633000  0.92664000  1.0
  H  H34  1  0.65194000  0.02650000  0.42676000  1.0
  H  H35  1  0.60489000  0.47367000  0.07336000  1.0
  C  C36  1  0.22891000  0.55849000  0.75677000  1.0
  C  C37  1  0.04434000  0.94174000  0.74294000  1.0
  C  C38  1  0.77109000  0.44151000  0.24323000  1.0
  C  C39  1  0.95566000  0.05826000  0.25706000  1.0
  C  C40  1  0.35671000  0.43356000  0.74057000  1.0
  C  C41  1  0.03101000  0.06663000  0.75927000  1.0
  C  C42  1  0.64329000  0.56644000  0.25943000  1.0
  C  C43  1  0.96899000  0.93337000  0.24073000  1.0
  C  C44  1  0.45825000  0.39663000  0.65340000  1.0
  C  C45  1  0.00845000  0.10337000  0.84651000  1.0
  C  C46  1  0.54175000  0.60337000  0.34660000  1.0
  C  C47  1  0.99156000  0.89662000  0.15349000  1.0
  C  C48  1  0.57936000  0.27999000  0.63836000  1.0
  C  C49  1  0.99775000  0.22002000  0.86170000  1.0
  C  C50  1  0.42064000  0.72001000  0.36164000  1.0
  C  C51  1  0.00224000  0.77997000  0.13831000  1.0
  C  C52  1  0.59319000  0.19918000  0.70971000  1.0
  C  C53  1  0.00170000  0.30105000  0.79047000  1.0
  C  C54  1  0.40681000  0.80082000  0.29029000  1.0
  C  C55  1  0.99829000  0.69895000  0.20954000  1.0
  C  C56  1  0.48775000  0.23691000  0.79556000  1.0
  C  C57  1  0.01970000  0.26350000  0.70458000  1.0
  C  C58  1  0.51222000  0.76309000  0.20445000  1.0
  C  C59  1  0.98030000  0.73650000  0.29542000  1.0
  C  C60  1  0.37130000  0.35397000  0.81250000  1.0
  C  C61  1  0.03768000  0.14639000  0.68744000  1.0
  C  C62  1  0.62869000  0.64603000  0.18750000  1.0
  C  C63  1  0.96232000  0.85361000  0.31256000  1.0
  C  C64  1  0.70139000  0.24033000  0.54734000  1.0
  C  C65  1  0.98910000  0.25955000  0.95278000  1.0
  C  C66  1  0.29861000  0.75967000  0.45266000  1.0
  C  C67  1  0.01090000  0.74045000  0.04722000  1.0
  C  C68  1  0.75938000  0.71991000  0.62944000  1.0
  C  C69  1  0.60864000  0.78010000  0.87033000  1.0
  C  C70  1  0.24063000  0.28009000  0.37056000  1.0
  C  C71  1  0.39136000  0.21990000  0.12967000  1.0
  C  C72  1  0.59961000  0.78327000  0.60970000  1.0
  C  C73  1  0.49256000  0.71668000  0.89019000  1.0
  C  C74  1  0.40039000  0.21673000  0.39030000  1.0
  C  C75  1  0.50744000  0.28333000  0.10981000  1.0
  C  C76  1  0.77450000  0.89526000  0.58138000  1.0
  C  C77  1  0.75113000  0.60491000  0.91855000  1.0
  C  C78  1  0.22551000  0.10474000  0.41862000  1.0
  C  C79  1  0.24887000  0.39509000  0.08145000  1.0
  C  C80  1  0.47386000  0.99273000  0.55104000  1.0
  C  C81  1  0.51781000  0.50723000  0.94894000  1.0
  C  C82  1  0.52614000  0.00727000  0.44896000  1.0
  C  C83  1  0.48220000  0.49277000  0.05106000  1.0
  Br  Br84  1  0.50408000  0.12748000  0.89281000  1.0
  Br  Br85  1  0.02259000  0.37345000  0.60765000  1.0
  Br  Br86  1  0.49590000  0.87252000  0.10719000  1.0
  Br  Br87  1  0.97741000  0.62655000  0.39235000  1.0
  N  N88  1  0.86647000  0.79077000  0.61146000  1.0
  N  N89  1  0.76865000  0.70936000  0.88831000  1.0
  N  N90  1  0.13353000  0.20923000  0.38854000  1.0
  N  N91  1  0.23135000  0.29064000  0.11169000  1.0
  N  N92  1  0.61110000  0.89392000  0.58012000  1.0
  N  N93  1  0.58518000  0.60612000  0.91985000  1.0
  N  N94  1  0.38890000  0.10608000  0.41988000  1.0
  N  N95  1  0.41482000  0.39388000  0.08015000  1.0
  O  O96  1  0.15054000  0.60658000  0.69593000  1.0
  O  O97  1  0.95328000  0.89358000  0.80374000  1.0
  O  O98  1  0.84945000  0.39342000  0.30407000  1.0
  O  O99  1  0.04673000  0.10641000  0.19625000  1.0
  O  O100  1  0.20448000  0.60761000  0.83181000  1.0
  O  O101  1  0.14404000  0.89267000  0.66789000  1.0
  O  O102  1  0.79552000  0.39239000  0.16819000  1.0
  O  O103  1  0.85597000  0.10733000  0.33211000  1.0
  O  O104  1  0.67869000  0.31586000  0.48246000  1.0
  O  O105  1  0.97743000  0.18387000  0.01758000  1.0
  O  O106  1  0.32131000  0.68414000  0.51754000  1.0
  O  O107  1  0.02258000  0.81613000  0.98242000  1.0
  O  O108  1  0.82101000  0.13904000  0.53711000  1.0
  O  O109  1  0.99679000  0.36095000  0.96313000  1.0
  O  O110  1  0.17899000  0.86096000  0.46290000  1.0
  O  O111  1  0.00321000  0.63905000  0.03687000  1.0
