# generated using pymatgen
data_HgH13C8SCl2
_symmetry_space_group_name_H-M   'P 1'
_cell_length_a   9.48835000
_cell_length_b   10.62620000
_cell_length_c   11.98230000
_cell_angle_alpha   90.00000000
_cell_angle_beta   110.72000000
_cell_angle_gamma   90.00000000
_symmetry_Int_Tables_number   1
_chemical_formula_structural   HgH13C8SCl2
_chemical_formula_sum   'Hg4 H52 C32 S4 Cl8'
_cell_volume   1129.97637796
_cell_formula_units_Z   4
loop_
 _symmetry_equiv_pos_site_id
 _symmetry_equiv_pos_as_xyz
  1  'x, y, z'
loop_
 _atom_site_type_symbol
 _atom_site_label
 _atom_site_symmetry_multiplicity
 _atom_site_fract_x
 _atom_site_fract_y
 _atom_site_fract_z
 _atom_site_occupancy
  Hg  Hg0  1  0.48864000  0.49099000  0.15886000  1.0
  Hg  Hg1  1  0.01136000  0.99099000  0.34114000  1.0
  Hg  Hg2  1  0.51136000  0.50901000  0.84114000  1.0
  Hg  Hg3  1  0.98864000  0.00901000  0.65886000  1.0
  H  H4  1  0.68249000  0.24796000  0.18366000  1.0
  H  H5  1  0.81751000  0.74796000  0.31634000  1.0
  H  H6  1  0.31751000  0.75204000  0.81634000  1.0
  H  H7  1  0.18249000  0.25204000  0.68366000  1.0
  H  H8  1  0.65139000  0.13277000  0.28094000  1.0
  H  H9  1  0.84861000  0.63277000  0.21906000  1.0
  H  H10  1  0.34861000  0.86723000  0.71906000  1.0
  H  H11  1  0.15139000  0.36723000  0.78094000  1.0
  H  H12  1  0.52913000  0.93353000  0.20569000  1.0
  H  H13  1  0.97086000  0.43353000  0.29430000  1.0
  H  H14  1  0.47086000  0.06647000  0.79430000  1.0
  H  H15  1  0.02914000  0.56647000  0.70569000  1.0
  H  H16  1  0.56049000  0.21897000  0.95957000  1.0
  H  H17  1  0.93950000  0.71897000  0.54043000  1.0
  H  H18  1  0.43951000  0.78104000  0.04043000  1.0
  H  H19  1  0.06049000  0.28103000  0.45957000  1.0
  H  H20  1  0.44483000  0.14838000  0.49674000  1.0
  H  H21  1  0.05517000  0.64838000  0.00326000  1.0
  H  H22  1  0.55517000  0.85162000  0.50326000  1.0
  H  H23  1  0.94483000  0.35162000  0.99674000  1.0
  H  H24  1  0.33105000  0.10813000  0.34832000  1.0
  H  H25  1  0.16895000  0.60813000  0.15168000  1.0
  H  H26  1  0.66895000  0.89187000  0.65168000  1.0
  H  H27  1  0.83105000  0.39187000  0.84832000  1.0
  H  H28  1  0.52979000  0.07865000  0.40143000  1.0
  H  H29  1  0.97021000  0.57865000  0.09857000  1.0
  H  H30  1  0.47021000  0.92135000  0.59857000  1.0
  H  H31  1  0.02979000  0.42135000  0.90143000  1.0
  H  H32  1  0.63266000  0.33011000  0.53367000  1.0
  H  H33  1  0.86734000  0.83011000  0.96633000  1.0
  H  H34  1  0.36734000  0.66989000  0.46633000  1.0
  H  H35  1  0.13266000  0.16989000  0.03367000  1.0
  H  H36  1  0.71394000  0.26539000  0.43417000  1.0
  H  H37  1  0.78606000  0.76539000  0.06583000  1.0
  H  H38  1  0.28606000  0.73461000  0.56583000  1.0
  H  H39  1  0.21394000  0.23461000  0.93417000  1.0
  H  H40  1  0.64239000  0.42239000  0.41295000  1.0
  H  H41  1  0.85761000  0.92239000  0.08704000  1.0
  H  H42  1  0.35761000  0.57761000  0.58704000  1.0
  H  H43  1  0.14239000  0.07761000  0.91296000  1.0
  H  H44  1  0.23138000  0.33328000  0.31634000  1.0
  H  H45  1  0.26862000  0.83328000  0.18367000  1.0
  H  H46  1  0.76862000  0.66666667  0.68366000  1.0
  H  H47  1  0.73138000  0.16672000  0.81634000  1.0
  H  H48  1  0.36091000  0.46300000  0.34719000  1.0
  H  H49  1  0.13909000  0.96300000  0.15281000  1.0
  H  H50  1  0.63909000  0.53700000  0.65281000  1.0
  H  H51  1  0.86091000  0.03700000  0.84719000  1.0
  H  H52  1  0.34778000  0.36870000  0.46539000  1.0
  H  H53  1  0.15222000  0.86870000  0.03462000  1.0
  H  H54  1  0.65222000  0.63130000  0.53461000  1.0
  H  H55  1  0.84779000  0.13130000  0.96539000  1.0
  C  C56  1  0.60112000  0.18060000  0.19479000  1.0
  C  C57  1  0.89888000  0.68060000  0.30522000  1.0
  C  C58  1  0.39888000  0.81940000  0.80521000  1.0
  C  C59  1  0.10112000  0.31940000  0.69478000  1.0
  C  C60  1  0.54999000  0.08744000  0.09429000  1.0
  C  C61  1  0.95001000  0.58744000  0.40571000  1.0
  C  C62  1  0.45001000  0.91256000  0.90571000  1.0
  C  C63  1  0.04999000  0.41256000  0.59429000  1.0
  C  C64  1  0.51588000  0.96341000  0.11543000  1.0
  C  C65  1  0.98412000  0.46341000  0.38457000  1.0
  C  C66  1  0.48412000  0.03659000  0.88457000  1.0
  C  C67  1  0.01588000  0.53659000  0.61543000  1.0
  C  C68  1  0.53353000  0.12312000  0.97773000  1.0
  C  C69  1  0.96646000  0.62312000  0.52227000  1.0
  C  C70  1  0.46646000  0.87688000  0.02227000  1.0
  C  C71  1  0.03353000  0.37688000  0.47773000  1.0
  C  C72  1  0.46749000  0.27751000  0.36646000  1.0
  C  C73  1  0.03251000  0.77751000  0.13354000  1.0
  C  C74  1  0.53251000  0.72249000  0.63354000  1.0
  C  C75  1  0.96749000  0.22249000  0.86646000  1.0
  C  C76  1  0.44188000  0.14437000  0.40426000  1.0
  C  C77  1  0.05813000  0.64437000  0.09574000  1.0
  C  C78  1  0.55812000  0.85563000  0.59574000  1.0
  C  C79  1  0.94187000  0.35563000  0.90426000  1.0
  C  C80  1  0.62366000  0.32675000  0.43968000  1.0
  C  C81  1  0.87635000  0.82675000  0.06032000  1.0
  C  C82  1  0.37634000  0.67325000  0.56032000  1.0
  C  C83  1  0.12366000  0.17325000  0.93968000  1.0
  C  C84  1  0.34370000  0.36644000  0.37261000  1.0
  C  C85  1  0.15630000  0.86644000  0.12739000  1.0
  C  C86  1  0.65630000  0.63356000  0.62739000  1.0
  C  C87  1  0.84370000  0.13356000  0.87261000  1.0
  S  S88  1  0.43783000  0.26826000  0.20384000  1.0
  S  S89  1  0.06217000  0.76825000  0.29616000  1.0
  S  S90  1  0.56217000  0.73174000  0.79616000  1.0
  S  S91  1  0.93783000  0.23174000  0.70384000  1.0
  Cl  Cl92  1  0.70014000  0.46368000  0.06424000  1.0
  Cl  Cl93  1  0.79986000  0.96368000  0.43576000  1.0
  Cl  Cl94  1  0.29986000  0.53632000  0.93577000  1.0
  Cl  Cl95  1  0.20014000  0.03632000  0.56424000  1.0
  Cl  Cl96  1  0.51332000  0.67606000  0.28274000  1.0
  Cl  Cl97  1  0.98668000  0.17606000  0.21726000  1.0
  Cl  Cl98  1  0.48668000  0.32394000  0.71726000  1.0
  Cl  Cl99  1  0.01332000  0.82394000  0.78274000  1.0
