# generated using pymatgen
data_SrNiH14C14(NO6)2
_symmetry_space_group_name_H-M   'P 1'
_cell_length_a   8.27769000
_cell_length_b   11.59770000
_cell_length_c   11.59720000
_cell_angle_alpha   74.76910000
_cell_angle_beta   75.41990000
_cell_angle_gamma   75.42360000
_symmetry_Int_Tables_number   1
_chemical_formula_structural   SrNiH14C14(NO6)2
_chemical_formula_sum   'Sr2 Ni2 H28 C28 N4 O24'
_cell_volume   1018.92678659
_cell_formula_units_Z   2
loop_
 _symmetry_equiv_pos_site_id
 _symmetry_equiv_pos_as_xyz
  1  'x, y, z'
loop_
 _atom_site_type_symbol
 _atom_site_label
 _atom_site_symmetry_multiplicity
 _atom_site_fract_x
 _atom_site_fract_y
 _atom_site_fract_z
 _atom_site_occupancy
  Sr  Sr0  1  0.24999000  0.47172000  0.52830000  1.0
  Sr  Sr1  1  0.75001000  0.52829000  0.47170000  1.0
  Ni  Ni2  1  0.00000000  0.00000000  0.50000000  1.0
  Ni  Ni3  1  0.50000000  0.50000000  0.00001000  1.0
  H  H4  1  0.53805000  0.44564000  0.71656000  1.0
  H  H5  1  0.96193000  0.28345000  0.55437000  1.0
  H  H6  1  0.46196000  0.55435000  0.28344000  1.0
  H  H7  1  0.03806000  0.71655000  0.44563000  1.0
  H  H8  1  0.55110000  0.32665000  0.66709000  1.0
  H  H9  1  0.94891000  0.33293000  0.67335000  1.0
  H  H10  1  0.44891000  0.67335000  0.33291000  1.0
  H  H11  1  0.05110000  0.66706000  0.32665000  1.0
  H  H12  1  0.27410000  0.95770000  0.25399000  1.0
  H  H13  1  0.22594000  0.74599000  0.04229000  1.0
  H  H14  1  0.72590000  0.04229000  0.74602000  1.0
  H  H15  1  0.77409000  0.25399000  0.95771000  1.0
  H  H16  1  0.11887000  0.99267000  0.19001000  1.0
  H  H17  1  0.38115000  0.80999000  0.00733000  1.0
  H  H18  1  0.88113000  0.00733000  0.80998000  1.0
  H  H19  1  0.61886000  0.19001000  0.99267000  1.0
  H  H20  1  0.44065000  0.74262000  0.70994000  1.0
  H  H21  1  0.05937000  0.29002000  0.25739000  1.0
  H  H22  1  0.55934000  0.25737000  0.29005000  1.0
  H  H23  1  0.94063000  0.71000000  0.74261000  1.0
  H  H24  1  0.55831000  0.91260000  0.74115000  1.0
  H  H25  1  0.94167000  0.25886000  0.08741000  1.0
  H  H26  1  0.44169000  0.08741000  0.25884000  1.0
  H  H27  1  0.05832000  0.74115000  0.91260000  1.0
  H  H28  1  0.20123000  0.16748000  0.53646000  1.0
  H  H29  1  0.29871000  0.46359000  0.83253000  1.0
  H  H30  1  0.79875000  0.83253000  0.46354000  1.0
  H  H31  1  0.70130000  0.53639000  0.16748000  1.0
  C  C32  1  0.26038000  0.86733000  0.61174000  1.0
  C  C33  1  0.23962000  0.38822000  0.13269000  1.0
  C  C34  1  0.73963000  0.13268000  0.38825000  1.0
  C  C35  1  0.76037000  0.61178000  0.86731000  1.0
  C  C36  1  0.39112000  0.83830000  0.67544000  1.0
  C  C37  1  0.10891000  0.32454000  0.16171000  1.0
  C  C38  1  0.60886000  0.16170000  0.32454000  1.0
  C  C39  1  0.89111000  0.67547000  0.83829000  1.0
  C  C40  1  0.45531000  0.93240000  0.69152000  1.0
  C  C41  1  0.04468000  0.30848000  0.06761000  1.0
  C  C42  1  0.54469000  0.06761000  0.30848000  1.0
  C  C43  1  0.95532000  0.69152000  0.93239000  1.0
  C  C44  1  0.38827000  0.05249000  0.63926000  1.0
  C  C45  1  0.11170000  0.36076000  0.94752000  1.0
  C  C46  1  0.61173000  0.94752000  0.36074000  1.0
  C  C47  1  0.88831000  0.63924000  0.05248000  1.0
  C  C48  1  0.25389000  0.07467000  0.57806000  1.0
  C  C49  1  0.24611000  0.42197000  0.92534000  1.0
  C  C50  1  0.74610000  0.92533000  0.42194000  1.0
  C  C51  1  0.75391000  0.57803000  0.07465000  1.0
  C  C52  1  0.18782000  0.77815000  0.57926000  1.0
  C  C53  1  0.31219000  0.42072000  0.22188000  1.0
  C  C54  1  0.81218000  0.22185000  0.42075000  1.0
  C  C55  1  0.68780000  0.57929000  0.77813000  1.0
  C  C56  1  0.45204000  0.16430000  0.63843000  1.0
  C  C57  1  0.04789000  0.36164000  0.83571000  1.0
  C  C58  1  0.54795000  0.83571000  0.36156000  1.0
  C  C59  1  0.95211000  0.63835000  0.16430000  1.0
  N  N60  1  0.18905000  0.98462000  0.56700000  1.0
  N  N61  1  0.31094000  0.43300000  0.01538000  1.0
  N  N62  1  0.81094000  0.01539000  0.43299000  1.0
  N  N63  1  0.68907000  0.56700000  0.98460000  1.0
  O  O64  1  0.06040000  0.82971000  0.52218000  1.0
  O  O65  1  0.43959000  0.47781000  0.17030000  1.0
  O  O66  1  0.93961000  0.17027000  0.47783000  1.0
  O  O67  1  0.56040000  0.52220000  0.82971000  1.0
  O  O68  1  0.24383000  0.66658000  0.60214000  1.0
  O  O69  1  0.25618000  0.39782000  0.33345000  1.0
  O  O70  1  0.75620000  0.33343000  0.39787000  1.0
  O  O71  1  0.74377000  0.60220000  0.66655000  1.0
  O  O72  1  0.55821000  0.15808000  0.70321000  1.0
  O  O73  1  0.94180000  0.29681000  0.84191000  1.0
  O  O74  1  0.44178000  0.84192000  0.29678000  1.0
  O  O75  1  0.05821000  0.70317000  0.15810000  1.0
  O  O76  1  0.39199000  0.26011000  0.56808000  1.0
  O  O77  1  0.10785000  0.43208000  0.73992000  1.0
  O  O78  1  0.60800000  0.73989000  0.43192000  1.0
  O  O79  1  0.89214000  0.56791000  0.26009000  1.0
  O  O80  1  0.53439000  0.41727000  0.64422000  1.0
  O  O81  1  0.96558000  0.35579000  0.58273000  1.0
  O  O82  1  0.46561000  0.58272000  0.35579000  1.0
  O  O83  1  0.03442000  0.64421000  0.41727000  1.0
  O  O84  1  0.17776000  0.02510000  0.23325000  1.0
  O  O85  1  0.32228000  0.76676000  0.97489000  1.0
  O  O86  1  0.82224000  0.97490000  0.76675000  1.0
  O  O87  1  0.67774000  0.23325000  0.02510000  1.0
