# generated using pymatgen
data_CdH22C22(N4Cl)2
_symmetry_space_group_name_H-M   'P 1'
_cell_length_a   8.89171000
_cell_length_b   10.90910000
_cell_length_c   13.51290000
_cell_angle_alpha   71.72300000
_cell_angle_beta   89.99990000
_cell_angle_gamma   89.99990000
_symmetry_Int_Tables_number   1
_chemical_formula_structural   CdH22C22(N4Cl)2
_chemical_formula_sum   'Cd2 H44 C44 N16 Cl4'
_cell_volume   1244.63289483
_cell_formula_units_Z   2
loop_
 _symmetry_equiv_pos_site_id
 _symmetry_equiv_pos_as_xyz
  1  'x, y, z'
loop_
 _atom_site_type_symbol
 _atom_site_label
 _atom_site_symmetry_multiplicity
 _atom_site_fract_x
 _atom_site_fract_y
 _atom_site_fract_z
 _atom_site_occupancy
  Cd  Cd0  1  0.00000000  0.50000000  1.00000000  1.0
  Cd  Cd1  1  0.50000000  0.50000000  0.50000000  1.0
  H  H2  1  0.33634000  0.13785000  0.06770000  1.0
  H  H3  1  0.83634000  0.86215000  0.43229000  1.0
  H  H4  1  0.66366000  0.86215000  0.93230000  1.0
  H  H5  1  0.16366000  0.13785000  0.56771000  1.0
  H  H6  1  0.67694000  0.29633000  0.96840000  1.0
  H  H7  1  0.17693000  0.70367000  0.53160000  1.0
  H  H8  1  0.32306000  0.70367000  0.03161000  1.0
  H  H9  1  0.82306000  0.29633000  0.46840000  1.0
  H  H10  1  0.55214000  0.32512000  0.86216000  1.0
  H  H11  1  0.05213000  0.67488000  0.63784000  1.0
  H  H12  1  0.44787000  0.67488000  0.13784000  1.0
  H  H13  1  0.94786000  0.32512000  0.36217000  1.0
  H  H14  1  0.28158000  0.39006000  0.87894000  1.0
  H  H15  1  0.78158000  0.60994000  0.62106000  1.0
  H  H16  1  0.71842000  0.60995000  0.12106000  1.0
  H  H17  1  0.21842000  0.39006000  0.37894000  1.0
  H  H18  1  0.28780000  0.41532000  0.18396000  1.0
  H  H19  1  0.78779000  0.58467000  0.31605000  1.0
  H  H20  1  0.71220000  0.58468000  0.81604000  1.0
  H  H21  1  0.21221000  0.41532000  0.68396000  1.0
  H  H22  1  0.56072000  0.31373000  0.14599000  1.0
  H  H23  1  0.06070000  0.68626000  0.35402000  1.0
  H  H24  1  0.43928000  0.68626000  0.85402000  1.0
  H  H25  1  0.93928000  0.31374000  0.64598000  1.0
  H  H26  1  0.81167000  0.18782000  0.87701000  1.0
  H  H27  1  0.31166000  0.81218000  0.62299000  1.0
  H  H28  1  0.18834000  0.81218000  0.12299000  1.0
  H  H29  1  0.68833000  0.18783000  0.37701000  1.0
  H  H30  1  0.83315000  0.03211000  0.86276000  1.0
  H  H31  1  0.33315000  0.96789000  0.63723000  1.0
  H  H32  1  0.16685000  0.96789000  0.13724000  1.0
  H  H33  1  0.66685000  0.03211000  0.36277000  1.0
  H  H34  1  0.63935000  0.98369000  0.72008000  1.0
  H  H35  1  0.13936000  0.01631000  0.77992000  1.0
  H  H36  1  0.36065000  0.01631000  0.27992000  1.0
  H  H37  1  0.86065000  0.98369000  0.22008000  1.0
  H  H38  1  0.52166000  0.16245000  0.53909000  1.0
  H  H39  1  0.02166000  0.83755000  0.96091000  1.0
  H  H40  1  0.47834000  0.83755000  0.46092000  1.0
  H  H41  1  0.97834000  0.16245000  0.03908000  1.0
  H  H42  1  0.70633000  0.36404000  0.73010000  1.0
  H  H43  1  0.20633000  0.63596000  0.76990000  1.0
  H  H44  1  0.29367000  0.63596000  0.26990000  1.0
  H  H45  1  0.79367000  0.36404000  0.23010000  1.0
  C  C46  1  0.53142000  0.13366000  0.97428000  1.0
  C  C47  1  0.03141000  0.86634000  0.52571000  1.0
  C  C48  1  0.46859000  0.86634000  0.02571000  1.0
  C  C49  1  0.96859000  0.13366000  0.47429000  1.0
  C  C50  1  0.62390000  0.05399000  0.93633000  1.0
  C  C51  1  0.12389000  0.94601000  0.56367000  1.0
  C  C52  1  0.37611000  0.94601000  0.06367000  1.0
  C  C53  1  0.87610000  0.05399000  0.43633000  1.0
  C  C54  1  0.40906000  0.07762000  0.03719000  1.0
  C  C55  1  0.90906000  0.92237000  0.46281000  1.0
  C  C56  1  0.59094000  0.92238000  0.96281000  1.0
  C  C57  1  0.09094000  0.07763000  0.53719000  1.0
  C  C58  1  0.56212000  0.27723000  0.94662000  1.0
  C  C59  1  0.06212000  0.72277000  0.55337000  1.0
  C  C60  1  0.43788000  0.72277000  0.05337000  1.0
  C  C61  1  0.93788000  0.27723000  0.44663000  1.0
  C  C62  1  0.31884000  0.38402000  0.95682000  1.0
  C  C63  1  0.81883000  0.61597000  0.54318000  1.0
  C  C64  1  0.68117000  0.61598000  0.04318000  1.0
  C  C65  1  0.18117000  0.38402000  0.45682000  1.0
  C  C66  1  0.32623000  0.39274000  0.11561000  1.0
  C  C67  1  0.82622000  0.60724000  0.38439000  1.0
  C  C68  1  0.67377000  0.60725000  0.88439000  1.0
  C  C69  1  0.17377000  0.39275000  0.61561000  1.0
  C  C70  1  0.46193000  0.34324000  0.09763000  1.0
  C  C71  1  0.96193000  0.65675000  0.40236000  1.0
  C  C72  1  0.53807000  0.65676000  0.90237000  1.0
  C  C73  1  0.03807000  0.34325000  0.59763000  1.0
  C  C74  1  0.75107000  0.10810000  0.86087000  1.0
  C  C75  1  0.25107000  0.89190000  0.63912000  1.0
  C  C76  1  0.24894000  0.89190000  0.13912000  1.0
  C  C77  1  0.74893000  0.10810000  0.36087000  1.0
  C  C78  1  0.63418000  0.08827000  0.69447000  1.0
  C  C79  1  0.13418000  0.91174000  0.80553000  1.0
  C  C80  1  0.36582000  0.91173000  0.30553000  1.0
  C  C81  1  0.86582000  0.08827000  0.19447000  1.0
  C  C82  1  0.57625000  0.17703000  0.60637000  1.0
  C  C83  1  0.07626000  0.82297000  0.89362000  1.0
  C  C84  1  0.42374000  0.82296000  0.39363000  1.0
  C  C85  1  0.92374000  0.17703000  0.10637000  1.0
  C  C86  1  0.66874000  0.28664000  0.70136000  1.0
  C  C87  1  0.16873000  0.71336000  0.79863000  1.0
  C  C88  1  0.33126000  0.71336000  0.29863000  1.0
  C  C89  1  0.83127000  0.28664000  0.20137000  1.0
  N  N90  1  0.45597000  0.33979000  0.99634000  1.0
  N  N91  1  0.95596000  0.66021000  0.50366000  1.0
  N  N92  1  0.54404000  0.66021000  0.00366000  1.0
  N  N93  1  0.04403000  0.33979000  0.49634000  1.0
  N  N94  1  0.23859000  0.41720000  0.02729000  1.0
  N  N95  1  0.73859000  0.58280000  0.47272000  1.0
  N  N96  1  0.76141000  0.58281000  0.97271000  1.0
  N  N97  1  0.26141000  0.41720000  0.52729000  1.0
  N  N98  1  0.69301000  0.15951000  0.75397000  1.0
  N  N99  1  0.19302000  0.84049000  0.74603000  1.0
  N  N100  1  0.30699000  0.84049000  0.24603000  1.0
  N  N101  1  0.80699000  0.15951000  0.25397000  1.0
  N  N102  1  0.59858000  0.29985000  0.61191000  1.0
  N  N103  1  0.09858000  0.70015000  0.88809000  1.0
  N  N104  1  0.40142000  0.70015000  0.38809000  1.0
  N  N105  1  0.90142000  0.29985000  0.11191000  1.0
  Cl  Cl106  1  0.96540000  0.41093000  0.83537000  1.0
  Cl  Cl107  1  0.46540000  0.58906000  0.66464000  1.0
  Cl  Cl108  1  0.03460000  0.58907000  0.16463000  1.0
  Cl  Cl109  1  0.53460000  0.41093000  0.33537000  1.0
