# generated using pymatgen
data_ZnH10C12(BrN)2
_symmetry_space_group_name_H-M   'P 1'
_cell_length_a   5.42969000
_cell_length_b   7.75064000
_cell_length_c   15.58560000
_cell_angle_alpha   79.93600000
_cell_angle_beta   88.14110000
_cell_angle_gamma   88.80420000
_symmetry_Int_Tables_number   1
_chemical_formula_structural   ZnH10C12(BrN)2
_chemical_formula_sum   'Zn2 H20 C24 Br4 N4'
_cell_volume   645.38867692
_cell_formula_units_Z   2
loop_
 _symmetry_equiv_pos_site_id
 _symmetry_equiv_pos_as_xyz
  1  'x, y, z'
loop_
 _atom_site_type_symbol
 _atom_site_label
 _atom_site_symmetry_multiplicity
 _atom_site_fract_x
 _atom_site_fract_y
 _atom_site_fract_z
 _atom_site_occupancy
  Zn  Zn0  1  0.33370000  0.49598000  0.74342000  1.0
  Zn  Zn1  1  0.66629000  0.50403000  0.25657000  1.0
  H  H2  1  0.26824000  0.09815000  0.78519000  1.0
  H  H3  1  0.73177000  0.90186000  0.21481000  1.0
  H  H4  1  0.98289000  0.89155000  0.87735000  1.0
  H  H5  1  0.01713000  0.10844000  0.12265000  1.0
  H  H6  1  0.62626000  0.34128000  0.96187000  1.0
  H  H7  1  0.37373000  0.65871000  0.03813000  1.0
  H  H8  1  0.93145000  0.52552000  0.87084000  1.0
  H  H9  1  0.06854000  0.47448000  0.12916000  1.0
  H  H10  1  0.94697000  0.75950000  0.75723000  1.0
  H  H11  1  0.05304000  0.24052000  0.24277000  1.0
  H  H12  1  0.63937000  0.93640000  0.66725000  1.0
  H  H13  1  0.36065000  0.06363000  0.33274000  1.0
  H  H14  1  0.96502000  0.74066000  0.44446000  1.0
  H  H15  1  0.03495000  0.25932000  0.55555000  1.0
  H  H16  1  0.26019000  0.56752000  0.54578000  1.0
  H  H17  1  0.73976000  0.43245000  0.45423000  1.0
  H  H18  1  0.65367000  0.83789000  0.98458000  1.0
  H  H19  1  0.34635000  0.16209000  0.01543000  1.0
  H  H20  1  0.62866000  0.94539000  0.41877000  1.0
  H  H21  1  0.37133000  0.05462000  0.58123000  1.0
  C  C22  1  0.12142000  0.14593000  0.82486000  1.0
  C  C23  1  0.87860000  0.85407000  0.17514000  1.0
  C  C24  1  0.96008000  0.03193000  0.87599000  1.0
  C  C25  1  0.03995000  0.96806000  0.12401000  1.0
  C  C26  1  0.77238000  0.09720000  0.92650000  1.0
  C  C27  1  0.22764000  0.90280000  0.07350000  1.0
  C  C28  1  0.76253000  0.27961000  0.92376000  1.0
  C  C29  1  0.23747000  0.72039000  0.07624000  1.0
  C  C30  1  0.93342000  0.38444000  0.87258000  1.0
  C  C31  1  0.06658000  0.61556000  0.12742000  1.0
  C  C32  1  0.94319000  0.75747000  0.68765000  1.0
  C  C33  1  0.05681000  0.24254000  0.31235000  1.0
  C  C34  1  0.77063000  0.85663000  0.63638000  1.0
  C  C35  1  0.22938000  0.14339000  0.36362000  1.0
  C  C36  1  0.77057000  0.85254000  0.54649000  1.0
  C  C37  1  0.22943000  0.14746000  0.45351000  1.0
  C  C38  1  0.95198000  0.74688000  0.51377000  1.0
  C  C39  1  0.04800000  0.25310000  0.48624000  1.0
  C  C40  1  0.11769000  0.65007000  0.56966000  1.0
  C  C41  1  0.88228000  0.34991000  0.43034000  1.0
  C  C42  1  0.60377000  0.97645000  0.97954000  1.0
  C  C43  1  0.39622000  0.02356000  0.02047000  1.0
  C  C44  1  0.59654000  0.95253000  0.48763000  1.0
  C  C45  1  0.40345000  0.04747000  0.51237000  1.0
  Br  Br46  1  0.60782000  0.33379000  0.66566000  1.0
  Br  Br47  1  0.39218000  0.66622000  0.33434000  1.0
  Br  Br48  1  0.43586000  0.69323000  0.84055000  1.0
  Br  Br49  1  0.56416000  0.30679000  0.15944000  1.0
  N  N50  1  0.10911000  0.32041000  0.82292000  1.0
  N  N51  1  0.89089000  0.67958000  0.17708000  1.0
  N  N52  1  0.11344000  0.65399000  0.65581000  1.0
  N  N53  1  0.88655000  0.34601000  0.34419000  1.0
