# generated using pymatgen
data_Cu4H40C44N12O11
_symmetry_space_group_name_H-M   'P 1'
_cell_length_a   16.36880000
_cell_length_b   16.54030000
_cell_length_c   16.53930000
_cell_angle_alpha   90.00120000
_cell_angle_beta   90.00130000
_cell_angle_gamma   89.99980000
_symmetry_Int_Tables_number   1
_chemical_formula_structural   Cu4H40C44N12O11
_chemical_formula_sum   'Cu8 H80 C88 N24 O22'
_cell_volume   4477.93050450
_cell_formula_units_Z   2
loop_
 _symmetry_equiv_pos_site_id
 _symmetry_equiv_pos_as_xyz
  1  'x, y, z'
loop_
 _atom_site_type_symbol
 _atom_site_label
 _atom_site_symmetry_multiplicity
 _atom_site_fract_x
 _atom_site_fract_y
 _atom_site_fract_z
 _atom_site_occupancy
  Cu  Cu0  1  0.58075000  0.42217000  0.46014000  1.0
  Cu  Cu1  1  0.58077000  0.57781000  0.53992000  1.0
  Cu  Cu2  1  0.41937000  0.53998000  0.42217000  1.0
  Cu  Cu3  1  0.41934000  0.46002000  0.57787000  1.0
  Cu  Cu4  1  0.91936000  0.07787000  0.96009000  1.0
  Cu  Cu5  1  0.91937000  0.92213000  0.03989000  1.0
  Cu  Cu6  1  0.08069000  0.96002000  0.92214000  1.0
  Cu  Cu7  1  0.08071000  0.03995000  0.07778000  1.0
  H  H8  1  0.80373000  0.18315000  0.48549000  1.0
  H  H9  1  0.89467000  0.10033000  0.39390000  1.0
  H  H10  1  0.79937000  0.22695000  0.18676000  1.0
  H  H11  1  0.71221000  0.31115000  0.27914000  1.0
  H  H12  1  0.75649000  0.02845000  0.25226000  1.0
  H  H13  1  0.81661000  0.95617000  0.30471000  1.0
  H  H14  1  0.79204000  0.94039000  0.20020000  1.0
  H  H15  1  0.06569000  0.20349000  0.15780000  1.0
  H  H16  1  0.02434000  0.22788000  0.25517000  1.0
  H  H17  1  0.96894000  0.25263000  0.16569000  1.0
  H  H18  1  0.80370000  0.81688000  0.51454000  1.0
  H  H19  1  0.89466000  0.89969000  0.60612000  1.0
  H  H20  1  0.79943000  0.77306000  0.81326000  1.0
  H  H21  1  0.71224000  0.68883000  0.72090000  1.0
  H  H22  1  0.75656000  0.97152000  0.74775000  1.0
  H  H23  1  0.81664000  0.04382000  0.69528000  1.0
  H  H24  1  0.79209000  0.05960000  0.79980000  1.0
  H  H25  1  0.06574000  0.79649000  0.84217000  1.0
  H  H26  1  0.02435000  0.77211000  0.74481000  1.0
  H  H27  1  0.96897000  0.74738000  0.83431000  1.0
  H  H28  1  0.19607000  0.51444000  0.18324000  1.0
  H  H29  1  0.10512000  0.60605000  0.10041000  1.0
  H  H30  1  0.20064000  0.81319000  0.22696000  1.0
  H  H31  1  0.28779000  0.72077000  0.31111000  1.0
  H  H32  1  0.24349000  0.74760000  0.02848000  1.0
  H  H33  1  0.18332000  0.69518000  0.95619000  1.0
  H  H34  1  0.20793000  0.79967000  0.94043000  1.0
  H  H35  1  0.93426000  0.84221000  0.20347000  1.0
  H  H36  1  0.97560000  0.74484000  0.22787000  1.0
  H  H37  1  0.03103000  0.83429000  0.25259000  1.0
  H  H38  1  0.19609000  0.48558000  0.81677000  1.0
  H  H39  1  0.10514000  0.39399000  0.89961000  1.0
  H  H40  1  0.20061000  0.18683000  0.77307000  1.0
  H  H41  1  0.28776000  0.27923000  0.68890000  1.0
  H  H42  1  0.24342000  0.25240000  0.97153000  1.0
  H  H43  1  0.18325000  0.30483000  0.04380000  1.0
  H  H44  1  0.20789000  0.20035000  0.05961000  1.0
  H  H45  1  0.93428000  0.15779000  0.79646000  1.0
  H  H46  1  0.97562000  0.25517000  0.77206000  1.0
  H  H47  1  0.03103000  0.16573000  0.74733000  1.0
  H  H48  1  0.69621000  0.31680000  0.98552000  1.0
  H  H49  1  0.60525000  0.39961000  0.89393000  1.0
  H  H50  1  0.70059000  0.27304000  0.68680000  1.0
  H  H51  1  0.78778000  0.18885000  0.77918000  1.0
  H  H52  1  0.74350000  0.47146000  0.75227000  1.0
  H  H53  1  0.68343000  0.54376000  0.80475000  1.0
  H  H54  1  0.70797000  0.55955000  0.70025000  1.0
  H  H55  1  0.43423000  0.29651000  0.65781000  1.0
  H  H56  1  0.47559000  0.27212000  0.75518000  1.0
  H  H57  1  0.53099000  0.24736000  0.66571000  1.0
  H  H58  1  0.69619000  0.68323000  0.01452000  1.0
  H  H59  1  0.60523000  0.60041000  0.10609000  1.0
  H  H60  1  0.70061000  0.72695000  0.31323000  1.0
  H  H61  1  0.78781000  0.81115000  0.22085000  1.0
  H  H62  1  0.74349000  0.52855000  0.24773000  1.0
  H  H63  1  0.68340000  0.45626000  0.19525000  1.0
  H  H64  1  0.70797000  0.44046000  0.29975000  1.0
  H  H65  1  0.43424000  0.70347000  0.34220000  1.0
  H  H66  1  0.47559000  0.72787000  0.24484000  1.0
  H  H67  1  0.53101000  0.75262000  0.33430000  1.0
  H  H68  1  0.30391000  0.98556000  0.68319000  1.0
  H  H69  1  0.39486000  0.89395000  0.60038000  1.0
  H  H70  1  0.29938000  0.68680000  0.72696000  1.0
  H  H71  1  0.21223000  0.77922000  0.81110000  1.0
  H  H72  1  0.25656000  0.75238000  0.52847000  1.0
  H  H73  1  0.31673000  0.80481000  0.45620000  1.0
  H  H74  1  0.29212000  0.70031000  0.44040000  1.0
  H  H75  1  0.56570000  0.65776000  0.70355000  1.0
  H  H76  1  0.52438000  0.75513000  0.72796000  1.0
  H  H77  1  0.46895000  0.66568000  0.75265000  1.0
  H  H78  1  0.30391000  0.01446000  0.31682000  1.0
  H  H79  1  0.39485000  0.10608000  0.39964000  1.0
  H  H80  1  0.29938000  0.31322000  0.27309000  1.0
  H  H81  1  0.21221000  0.22080000  0.18891000  1.0
  H  H82  1  0.25658000  0.24766000  0.47153000  1.0
  H  H83  1  0.31671000  0.19522000  0.54382000  1.0
  H  H84  1  0.29210000  0.29972000  0.55961000  1.0
  H  H85  1  0.56570000  0.34222000  0.29649000  1.0
  H  H86  1  0.52437000  0.24484000  0.27207000  1.0
  H  H87  1  0.46896000  0.33430000  0.24736000  1.0
  C  C88  1  0.69815000  0.29985000  0.44394000  1.0
  C  C89  1  0.75335000  0.25223000  0.38780000  1.0
  C  C90  1  0.80450000  0.19269000  0.42026000  1.0
  C  C91  1  0.85426000  0.14686000  0.36967000  1.0
  C  C92  1  0.85186000  0.16015000  0.28619000  1.0
  C  C93  1  0.80122000  0.21902000  0.25235000  1.0
  C  C94  1  0.75257000  0.26516000  0.30393000  1.0
  C  C95  1  0.80756000  0.98596000  0.24587000  1.0
  C  C96  1  0.88217000  0.02881000  0.21848000  1.0
  C  C97  1  0.97015000  0.12726000  0.19457000  1.0
  C  C98  1  0.00967000  0.20771000  0.19350000  1.0
  C  C99  1  0.69814000  0.70018000  0.55607000  1.0
  C  C100  1  0.75335000  0.74778000  0.61222000  1.0
  C  C101  1  0.80449000  0.80733000  0.57976000  1.0
  C  C102  1  0.85426000  0.85315000  0.63035000  1.0
  C  C103  1  0.85186000  0.83985000  0.71382000  1.0
  C  C104  1  0.80124000  0.78097000  0.74767000  1.0
  C  C105  1  0.75259000  0.73483000  0.69609000  1.0
  C  C106  1  0.80761000  0.01404000  0.75412000  1.0
  C  C107  1  0.88224000  0.97120000  0.78146000  1.0
  C  C108  1  0.97019000  0.87274000  0.80540000  1.0
  C  C109  1  0.00970000  0.79228000  0.80648000  1.0
  C  C110  1  0.30181000  0.55603000  0.29985000  1.0
  C  C111  1  0.24658000  0.61215000  0.25223000  1.0
  C  C112  1  0.19538000  0.57968000  0.19271000  1.0
  C  C113  1  0.14562000  0.63027000  0.14689000  1.0
  C  C114  1  0.14808000  0.71375000  0.16015000  1.0
  C  C115  1  0.19875000  0.74761000  0.21900000  1.0
  C  C116  1  0.24739000  0.69601000  0.26513000  1.0
  C  C117  1  0.19240000  0.75400000  0.98599000  1.0
  C  C118  1  0.11778000  0.78140000  0.02880000  1.0
  C  C119  1  0.02981000  0.80541000  0.12724000  1.0
  C  C120  1  0.99027000  0.80649000  0.20768000  1.0
  C  C121  1  0.30182000  0.44396000  0.70016000  1.0
  C  C122  1  0.24658000  0.38787000  0.74779000  1.0
  C  C123  1  0.19539000  0.42034000  0.80730000  1.0
  C  C124  1  0.14562000  0.36975000  0.85312000  1.0
  C  C125  1  0.14807000  0.28628000  0.83987000  1.0
  C  C126  1  0.19874000  0.25241000  0.78102000  1.0
  C  C127  1  0.24738000  0.30400000  0.73489000  1.0
  C  C128  1  0.19235000  0.24600000  0.01403000  1.0
  C  C129  1  0.11775000  0.21858000  0.97119000  1.0
  C  C130  1  0.02981000  0.19458000  0.87272000  1.0
  C  C131  1  0.99029000  0.19351000  0.79226000  1.0
  C  C132  1  0.80189000  0.20017000  0.94395000  1.0
  C  C133  1  0.74665000  0.24778000  0.88783000  1.0
  C  C134  1  0.69547000  0.30729000  0.92029000  1.0
  C  C135  1  0.64570000  0.35311000  0.86970000  1.0
  C  C136  1  0.64811000  0.33984000  0.78623000  1.0
  C  C137  1  0.69876000  0.28098000  0.75238000  1.0
  C  C138  1  0.74741000  0.23484000  0.80396000  1.0
  C  C139  1  0.69244000  0.51398000  0.74591000  1.0
  C  C140  1  0.61780000  0.47117000  0.71854000  1.0
  C  C141  1  0.52980000  0.37273000  0.69460000  1.0
  C  C142  1  0.49026000  0.29229000  0.69352000  1.0
  C  C143  1  0.80186000  0.79978000  0.05601000  1.0
  C  C144  1  0.74664000  0.75223000  0.11220000  1.0
  C  C145  1  0.69545000  0.69273000  0.07975000  1.0
  C  C146  1  0.64568000  0.64691000  0.13033000  1.0
  C  C147  1  0.64811000  0.66018000  0.21380000  1.0
  C  C148  1  0.69877000  0.71903000  0.24764000  1.0
  C  C149  1  0.74743000  0.76517000  0.19606000  1.0
  C  C150  1  0.69244000  0.48603000  0.25409000  1.0
  C  C151  1  0.61780000  0.52883000  0.28146000  1.0
  C  C152  1  0.52981000  0.62727000  0.30541000  1.0
  C  C153  1  0.49026000  0.70770000  0.30650000  1.0
  C  C154  1  0.19819000  0.94396000  0.79985000  1.0
  C  C155  1  0.25342000  0.88785000  0.75221000  1.0
  C  C156  1  0.30461000  0.92033000  0.69269000  1.0
  C  C157  1  0.35438000  0.86972000  0.64688000  1.0
  C  C158  1  0.35192000  0.78624000  0.66015000  1.0
  C  C159  1  0.30126000  0.75238000  0.71900000  1.0
  C  C160  1  0.25261000  0.80399000  0.76512000  1.0
  C  C161  1  0.30764000  0.74597000  0.48598000  1.0
  C  C162  1  0.38225000  0.71855000  0.52882000  1.0
  C  C163  1  0.47020000  0.69457000  0.62729000  1.0
  C  C164  1  0.50970000  0.69349000  0.70775000  1.0
  C  C165  1  0.19816000  0.05605000  0.20014000  1.0
  C  C166  1  0.25340000  0.11216000  0.24780000  1.0
  C  C167  1  0.30460000  0.07969000  0.30732000  1.0
  C  C168  1  0.35437000  0.13029000  0.35313000  1.0
  C  C169  1  0.35191000  0.21377000  0.33987000  1.0
  C  C170  1  0.30125000  0.24763000  0.28102000  1.0
  C  C171  1  0.25260000  0.19603000  0.23489000  1.0
  C  C172  1  0.30763000  0.25405000  0.51405000  1.0
  C  C173  1  0.38224000  0.28145000  0.47121000  1.0
  C  C174  1  0.47019000  0.30543000  0.37274000  1.0
  C  C175  1  0.50970000  0.30649000  0.29228000  1.0
  N  N176  1  0.94010000  0.99907000  0.17191000  1.0
  N  N177  1  0.99465000  0.06056000  0.15731000  1.0
  N  N178  1  0.89927000  0.10887000  0.23483000  1.0
  N  N179  1  0.94021000  0.00097000  0.82797000  1.0
  N  N180  1  0.99473000  0.93946000  0.84258000  1.0
  N  N181  1  0.89929000  0.89113000  0.76517000  1.0
  N  N182  1  0.05987000  0.82797000  0.99901000  1.0
  N  N183  1  0.00533000  0.84263000  0.06050000  1.0
  N  N184  1  0.10068000  0.76511000  0.10887000  1.0
  N  N185  1  0.05985000  0.17198000  0.00094000  1.0
  N  N186  1  0.00534000  0.15733000  0.93944000  1.0
  N  N187  1  0.10066000  0.23490000  0.89113000  1.0
  N  N188  1  0.55988000  0.50094000  0.67197000  1.0
  N  N189  1  0.50532000  0.43945000  0.65738000  1.0
  N  N190  1  0.60069000  0.39111000  0.73487000  1.0
  N  N191  1  0.55986000  0.49905000  0.32800000  1.0
  N  N192  1  0.50531000  0.56054000  0.34261000  1.0
  N  N193  1  0.60070000  0.60890000  0.26515000  1.0
  N  N194  1  0.44017000  0.67197000  0.49907000  1.0
  N  N195  1  0.49470000  0.65732000  0.56057000  1.0
  N  N196  1  0.39934000  0.73486000  0.60888000  1.0
  N  N197  1  0.44018000  0.32801000  0.50097000  1.0
  N  N198  1  0.49470000  0.34265000  0.43947000  1.0
  N  N199  1  0.39932000  0.26515000  0.39114000  1.0
  O  O200  1  0.66575000  0.36227000  0.40813000  1.0
  O  O201  1  0.68687000  0.27755000  0.51477000  1.0
  O  O202  1  0.66576000  0.63775000  0.59189000  1.0
  O  O203  1  0.68684000  0.72249000  0.48525000  1.0
  O  O204  1  0.33428000  0.59183000  0.36225000  1.0
  O  O205  1  0.31304000  0.48520000  0.27753000  1.0
  O  O206  1  0.33427000  0.40812000  0.63778000  1.0
  O  O207  1  0.31309000  0.51480000  0.72244000  1.0
  O  O208  1  0.83432000  0.13778000  0.90813000  1.0
  O  O209  1  0.81317000  0.22247000  0.01479000  1.0
  O  O210  1  0.83430000  0.86221000  0.09176000  1.0
  O  O211  1  0.81309000  0.77738000  0.98520000  1.0
  O  O212  1  0.16578000  0.90814000  0.86227000  1.0
  O  O213  1  0.18690000  0.01478000  0.77755000  1.0
  O  O214  1  0.16572000  0.09188000  0.13775000  1.0
  O  O215  1  0.18690000  0.98521000  0.22241000  1.0
  O  O216  1  0.50000000  0.49999000  0.50004000  1.0
  O  O217  1  0.00005000  0.99999000  0.99998000  1.0
  O  O218  1  0.64764000  0.50002000  0.49995000  1.0
  O  O219  1  0.35257000  0.49984000  0.49993000  1.0
  O  O220  1  0.85256000  0.99992000  0.99982000  1.0
  O  O221  1  0.14754000  0.99995000  0.99996000  1.0
