# generated using pymatgen
data_ZnH16C18(BrN3)2
_symmetry_space_group_name_H-M   'P 1'
_cell_length_a   6.10059000
_cell_length_b   12.29780000
_cell_length_c   13.33321585
_cell_angle_alpha   86.13063734
_cell_angle_beta   76.76625328
_cell_angle_gamma   90.01520000
_symmetry_Int_Tables_number   1
_chemical_formula_structural   ZnH16C18(BrN3)2
_chemical_formula_sum   'Zn2 H32 C36 Br4 N12'
_cell_volume   971.39821788
_cell_formula_units_Z   2
loop_
 _symmetry_equiv_pos_site_id
 _symmetry_equiv_pos_as_xyz
  1  'x, y, z'
loop_
 _atom_site_type_symbol
 _atom_site_label
 _atom_site_symmetry_multiplicity
 _atom_site_fract_x
 _atom_site_fract_y
 _atom_site_fract_z
 _atom_site_occupancy
  Zn  Zn0  1  0.42962000  0.75000000  0.99996000  1.0
  Zn  Zn1  1  0.57039000  0.25000000  0.00004000  1.0
  H  H2  1  0.91555000  0.27743000  0.55455000  1.0
  H  H3  1  0.47033000  0.22263000  0.44573000  1.0
  H  H4  1  0.08446000  0.72258000  0.44544000  1.0
  H  H5  1  0.52966000  0.77738000  0.55428000  1.0
  H  H6  1  0.69414000  0.52785000  0.09149000  1.0
  H  H7  1  0.78548000  0.97206000  0.90864000  1.0
  H  H8  1  0.30587000  0.47215000  0.90851000  1.0
  H  H9  1  0.21452000  0.02794000  0.09137000  1.0
  H  H10  1  0.02414000  0.55329000  0.34418000  1.0
  H  H11  1  0.36815000  0.94665000  0.65588000  1.0
  H  H12  1  0.97585000  0.44671000  0.65582000  1.0
  H  H13  1  0.63185000  0.05335000  0.34412000  1.0
  H  H14  1  0.31822000  0.66814000  0.22477000  1.0
  H  H15  1  0.54287000  0.83180000  0.77525000  1.0
  H  H16  1  0.68178000  0.33186000  0.77523000  1.0
  H  H17  1  0.45711000  0.16821000  0.22476000  1.0
  H  H18  1  0.00503000  0.63915000  0.98158000  1.0
  H  H19  1  0.98644000  0.86066000  0.01846000  1.0
  H  H20  1  0.99499000  0.36084000  0.01842000  1.0
  H  H21  1  0.01356000  0.13934000  0.98154000  1.0
  H  H22  1  0.93867000  0.30540000  0.34370000  1.0
  H  H23  1  0.28230000  0.19438000  0.65659000  1.0
  H  H24  1  0.06132000  0.69460000  0.65630000  1.0
  H  H25  1  0.71769000  0.80562000  0.34342000  1.0
  H  H26  1  0.48737000  0.50682000  0.30823000  1.0
  H  H27  1  0.79574000  0.99292000  0.69182000  1.0
  H  H28  1  0.51262000  0.49319000  0.69177000  1.0
  H  H29  1  0.20425000  0.00709000  0.30819000  1.0
  H  H30  1  0.61668000  0.38911000  0.25297000  1.0
  H  H31  1  0.86924000  0.11069000  0.74711000  1.0
  H  H32  1  0.38330000  0.61089000  0.74703000  1.0
  H  H33  1  0.13076000  0.88932000  0.25290000  1.0
  C  C34  1  0.82182000  0.33222000  0.51332000  1.0
  C  C35  1  0.33531000  0.16779000  0.48689000  1.0
  C  C36  1  0.17819000  0.66778000  0.48667000  1.0
  C  C37  1  0.66468000  0.83221000  0.51312000  1.0
  C  C38  1  0.58422000  0.45784000  0.49088000  1.0
  C  C39  1  0.07513000  0.04214000  0.50919000  1.0
  C  C40  1  0.41579000  0.54216000  0.50911000  1.0
  C  C41  1  0.92486000  0.95786000  0.49082000  1.0
  C  C42  1  0.82925000  0.55685000  0.12465000  1.0
  C  C43  1  0.95377000  0.94302000  0.87543000  1.0
  C  C44  1  0.17076000  0.44315000  0.87535000  1.0
  C  C45  1  0.04623000  0.05698000  0.12458000  1.0
  C  C46  1  0.00978000  0.57150000  0.26493000  1.0
  C  C47  1  0.27457000  0.92844000  0.73516000  1.0
  C  C48  1  0.99022000  0.42850000  0.73507000  1.0
  C  C49  1  0.72542000  0.07156000  0.26484000  1.0
  C  C50  1  0.17749000  0.63458000  0.19829000  1.0
  C  C51  1  0.37563000  0.86527000  0.80170000  1.0
  C  C52  1  0.82251000  0.36542000  0.80171000  1.0
  C  C53  1  0.62437000  0.13473000  0.19830000  1.0
  C  C54  1  0.83136000  0.53075000  0.22812000  1.0
  C  C55  1  0.05940000  0.96918000  0.77198000  1.0
  C  C56  1  0.16863000  0.46925000  0.77188000  1.0
  C  C57  1  0.94059000  0.03082000  0.22802000  1.0
  C  C58  1  0.00405000  0.61921000  0.06254000  1.0
  C  C59  1  0.06641000  0.88060000  0.93750000  1.0
  C  C60  1  0.99596000  0.38079000  0.93746000  1.0
  C  C61  1  0.93359000  0.11940000  0.06251000  1.0
  C  C62  1  0.83632000  0.34445000  0.40858000  1.0
  C  C63  1  0.24497000  0.15548000  0.59161000  1.0
  C  C64  1  0.16369000  0.65555000  0.59141000  1.0
  C  C65  1  0.75503000  0.84452000  0.40839000  1.0
  C  C66  1  0.64426000  0.46054000  0.29424000  1.0
  C  C67  1  0.93846000  0.03932000  0.70585000  1.0
  C  C68  1  0.35574000  0.53946000  0.70576000  1.0
  C  C69  1  0.06154000  0.96069000  0.29415000  1.0
  Br  Br70  1  0.68121000  0.64707000  0.87821000  1.0
  Br  Br71  1  0.55965000  0.85309000  0.12154000  1.0
  Br  Br72  1  0.31882000  0.35294000  0.12179000  1.0
  Br  Br73  1  0.44032000  0.14691000  0.87846000  1.0
  N  N74  1  0.66554000  0.40203000  0.56389000  1.0
  N  N75  1  0.22956000  0.09804000  0.43627000  1.0
  N  N76  1  0.33446000  0.59797000  0.43611000  1.0
  N  N77  1  0.77042000  0.90196000  0.56374000  1.0
  N  N78  1  0.68397000  0.42384000  0.39453000  1.0
  N  N79  1  0.07850000  0.07606000  0.60559000  1.0
  N  N80  1  0.31602000  0.57616000  0.60547000  1.0
  N  N81  1  0.92149000  0.92394000  0.39442000  1.0
  N  N82  1  0.17630000  0.65796000  0.09810000  1.0
  N  N83  1  0.27422000  0.84186000  0.90191000  1.0
  N  N84  1  0.82371000  0.34203000  0.90190000  1.0
  N  N85  1  0.72578000  0.15814000  0.09809000  1.0
