# generated using pymatgen
data_Ni2H76C57(N3O2)4
_symmetry_space_group_name_H-M   'P 1'
_cell_length_a   11.42020000
_cell_length_b   17.17190000
_cell_length_c   17.17200000
_cell_angle_alpha   90.00000000
_cell_angle_beta   90.00000000
_cell_angle_gamma   90.00000000
_symmetry_Int_Tables_number   1
_chemical_formula_structural   Ni2H76C57(N3O2)4
_chemical_formula_sum   'Ni4 H152 C114 N24 O16'
_cell_volume   3367.54137403
_cell_formula_units_Z   2
loop_
 _symmetry_equiv_pos_site_id
 _symmetry_equiv_pos_as_xyz
  1  'x, y, z'
loop_
 _atom_site_type_symbol
 _atom_site_label
 _atom_site_symmetry_multiplicity
 _atom_site_fract_x
 _atom_site_fract_y
 _atom_site_fract_z
 _atom_site_occupancy
  Ni  Ni0  1  0.00000000  0.81960000  0.68040000  1.0
  Ni  Ni1  1  0.00000000  0.68040000  0.18040000  1.0
  Ni  Ni2  1  0.00000000  0.18040000  0.31960000  1.0
  Ni  Ni3  1  0.00000000  0.31960000  0.81960000  1.0
  H  H4  1  0.83158000  0.87107000  0.60215000  1.0
  H  H5  1  0.16842000  0.60215000  0.12893000  1.0
  H  H6  1  0.83158000  0.12893000  0.39785000  1.0
  H  H7  1  0.16842000  0.39785000  0.87107000  1.0
  H  H8  1  0.83158000  0.62893000  0.10215000  1.0
  H  H9  1  0.16842000  0.10215000  0.37107000  1.0
  H  H10  1  0.83158000  0.37107000  0.89785000  1.0
  H  H11  1  0.16842000  0.89785000  0.62893000  1.0
  H  H12  1  0.30241000  0.50497000  0.58779000  1.0
  H  H13  1  0.69759000  0.58779000  0.49503000  1.0
  H  H14  1  0.30241000  0.49503000  0.41221000  1.0
  H  H15  1  0.69759000  0.41221000  0.50497000  1.0
  H  H16  1  0.30241000  0.99503000  0.08779000  1.0
  H  H17  1  0.69759000  0.08779000  0.00497000  1.0
  H  H18  1  0.30241000  0.00497000  0.91221000  1.0
  H  H19  1  0.69759000  0.91221000  0.99503000  1.0
  H  H20  1  0.17594000  0.61667000  0.61917000  1.0
  H  H21  1  0.82406000  0.61917000  0.38333000  1.0
  H  H22  1  0.17594000  0.38333000  0.38083000  1.0
  H  H23  1  0.82406000  0.38083000  0.61667000  1.0
  H  H24  1  0.17594000  0.88333000  0.11917000  1.0
  H  H25  1  0.82406000  0.11917000  0.11667000  1.0
  H  H26  1  0.17594000  0.11667000  0.88083000  1.0
  H  H27  1  0.82406000  0.88083000  0.88333000  1.0
  H  H28  1  0.38675000  0.76532000  0.47592000  1.0
  H  H29  1  0.61325000  0.47592000  0.23468000  1.0
  H  H30  1  0.38675000  0.23468000  0.52408000  1.0
  H  H31  1  0.61325000  0.52408000  0.76532000  1.0
  H  H32  1  0.38675000  0.73468000  0.97592000  1.0
  H  H33  1  0.61325000  0.97592000  0.26532000  1.0
  H  H34  1  0.38675000  0.26532000  0.02408000  1.0
  H  H35  1  0.61325000  0.02408000  0.73468000  1.0
  H  H36  1  0.51638000  0.65313000  0.44344000  1.0
  H  H37  1  0.48362000  0.44344000  0.34687000  1.0
  H  H38  1  0.51638000  0.34687000  0.55656000  1.0
  H  H39  1  0.48362000  0.55656000  0.65313000  1.0
  H  H40  1  0.51638000  0.84687000  0.94344000  1.0
  H  H41  1  0.48362000  0.94344000  0.15313000  1.0
  H  H42  1  0.51638000  0.15313000  0.05656000  1.0
  H  H43  1  0.48362000  0.05656000  0.84687000  1.0
  H  H44  1  0.05228000  0.65142000  0.73223000  1.0
  H  H45  1  0.94773000  0.73223000  0.34858000  1.0
  H  H46  1  0.05227000  0.34858000  0.26777000  1.0
  H  H47  1  0.94773000  0.26777000  0.65142000  1.0
  H  H48  1  0.05228000  0.84858000  0.23223000  1.0
  H  H49  1  0.94773000  0.23223000  0.15142000  1.0
  H  H50  1  0.05228000  0.15142000  0.76777000  1.0
  H  H51  1  0.94773000  0.76777000  0.84858000  1.0
  H  H52  1  0.93204000  0.62885000  0.79408000  1.0
  H  H53  1  0.06796000  0.79409000  0.37115000  1.0
  H  H54  1  0.93204000  0.37115000  0.20591000  1.0
  H  H55  1  0.06796000  0.20591000  0.62885000  1.0
  H  H56  1  0.93204000  0.87115000  0.29408000  1.0
  H  H57  1  0.06796000  0.29408000  0.12885000  1.0
  H  H58  1  0.93204000  0.12885000  0.70592000  1.0
  H  H59  1  0.06796000  0.70591000  0.87115000  1.0
  H  H60  1  0.78203000  0.75619000  0.79028000  1.0
  H  H61  1  0.21797000  0.79027000  0.24381000  1.0
  H  H62  1  0.78203000  0.24381000  0.20972000  1.0
  H  H63  1  0.21797000  0.20972000  0.75619000  1.0
  H  H64  1  0.78203000  0.74381000  0.29028000  1.0
  H  H65  1  0.21797000  0.29028000  0.25619000  1.0
  H  H66  1  0.78203000  0.25619000  0.70972000  1.0
  H  H67  1  0.21797000  0.70972000  0.74381000  1.0
  H  H68  1  0.74942000  0.66156000  0.75289000  1.0
  H  H69  1  0.25058000  0.75289000  0.33844000  1.0
  H  H70  1  0.74942000  0.33844000  0.24711000  1.0
  H  H71  1  0.25058000  0.24711000  0.66156000  1.0
  H  H72  1  0.74942000  0.83844000  0.25289000  1.0
  H  H73  1  0.25058000  0.25289000  0.16156000  1.0
  H  H74  1  0.74942000  0.16156000  0.74711000  1.0
  H  H75  1  0.25058000  0.74711000  0.83844000  1.0
  H  H76  1  0.60393000  0.75023000  0.70221000  1.0
  H  H77  1  0.39607000  0.70221000  0.24977000  1.0
  H  H78  1  0.60393000  0.24977000  0.29779000  1.0
  H  H79  1  0.39607000  0.29779000  0.75023000  1.0
  H  H80  1  0.60393000  0.74977000  0.20221000  1.0
  H  H81  1  0.39607000  0.20221000  0.25023000  1.0
  H  H82  1  0.60393000  0.25023000  0.79779000  1.0
  H  H83  1  0.39607000  0.79779000  0.74977000  1.0
  H  H84  1  0.70862000  0.81973000  0.67393000  1.0
  H  H85  1  0.29138000  0.67393000  0.18027000  1.0
  H  H86  1  0.70862000  0.18027000  0.32607000  1.0
  H  H87  1  0.29138000  0.32607000  0.81973000  1.0
  H  H88  1  0.70862000  0.68027000  0.17393000  1.0
  H  H89  1  0.29138000  0.17393000  0.31973000  1.0
  H  H90  1  0.70862000  0.31973000  0.82607000  1.0
  H  H91  1  0.29138000  0.82607000  0.68027000  1.0
  H  H92  1  0.66208000  0.65979000  0.60151000  1.0
  H  H93  1  0.33792000  0.60151000  0.34021000  1.0
  H  H94  1  0.66208000  0.34021000  0.39849000  1.0
  H  H95  1  0.33792000  0.39849000  0.65979000  1.0
  H  H96  1  0.66208000  0.84021000  0.10151000  1.0
  H  H97  1  0.33792000  0.10151000  0.15979000  1.0
  H  H98  1  0.66208000  0.15979000  0.89849000  1.0
  H  H99  1  0.33792000  0.89849000  0.84021000  1.0
  H  H100  1  0.65348000  0.75167000  0.55482000  1.0
  H  H101  1  0.34652000  0.55482000  0.24833000  1.0
  H  H102  1  0.65348000  0.24833000  0.44518000  1.0
  H  H103  1  0.34652000  0.44518000  0.75167000  1.0
  H  H104  1  0.65348000  0.74833000  0.05482000  1.0
  H  H105  1  0.34652000  0.05482000  0.25167000  1.0
  H  H106  1  0.65348000  0.25167000  0.94518000  1.0
  H  H107  1  0.34652000  0.94518000  0.74833000  1.0
  H  H108  1  0.81755000  0.79042000  0.48455000  1.0
  H  H109  1  0.18245000  0.48455000  0.20958000  1.0
  H  H110  1  0.81755000  0.20958000  0.51545000  1.0
  H  H111  1  0.18245000  0.51545000  0.79042000  1.0
  H  H112  1  0.81755000  0.70958000  0.98455000  1.0
  H  H113  1  0.18245000  0.98455000  0.29041000  1.0
  H  H114  1  0.81755000  0.29042000  0.01545000  1.0
  H  H115  1  0.18245000  0.01545000  0.70958000  1.0
  H  H116  1  0.96023000  0.75413000  0.50779000  1.0
  H  H117  1  0.03977000  0.50779000  0.24587000  1.0
  H  H118  1  0.96023000  0.24587000  0.49221000  1.0
  H  H119  1  0.03977000  0.49221000  0.75413000  1.0
  H  H120  1  0.96023000  0.74587000  0.00779000  1.0
  H  H121  1  0.03977000  0.00779000  0.25413000  1.0
  H  H122  1  0.96023000  0.25413000  0.99221000  1.0
  H  H123  1  0.03977000  0.99221000  0.74587000  1.0
  H  H124  1  0.98281000  0.66165000  0.60936000  1.0
  H  H125  1  0.01719000  0.60936000  0.33835000  1.0
  H  H126  1  0.98281000  0.33835000  0.39064000  1.0
  H  H127  1  0.01719000  0.39064000  0.66165000  1.0
  H  H128  1  0.98281000  0.83835000  0.10936000  1.0
  H  H129  1  0.01719000  0.10936000  0.16165000  1.0
  H  H130  1  0.98281000  0.16165000  0.89064000  1.0
  H  H131  1  0.01719000  0.89064000  0.83835000  1.0
  H  H132  1  0.85273000  0.61170000  0.64220000  1.0
  H  H133  1  0.14727000  0.64220000  0.38830000  1.0
  H  H134  1  0.85273000  0.38830000  0.35780000  1.0
  H  H135  1  0.14727000  0.35780000  0.61170000  1.0
  H  H136  1  0.85273000  0.88830000  0.14220000  1.0
  H  H137  1  0.14727000  0.14220000  0.11170000  1.0
  H  H138  1  0.85273000  0.11170000  0.85780000  1.0
  H  H139  1  0.14727000  0.85780000  0.88830000  1.0
  H  H140  1  0.91635000  0.93487000  0.49727000  1.0
  H  H141  1  0.08365000  0.49727000  0.06513000  1.0
  H  H142  1  0.91635000  0.06513000  0.50273000  1.0
  H  H143  1  0.08365000  0.50273000  0.93487000  1.0
  H  H144  1  0.91635000  0.56513000  0.99727000  1.0
  H  H145  1  0.08365000  0.99727000  0.43487000  1.0
  H  H146  1  0.91635000  0.43487000  0.00273000  1.0
  H  H147  1  0.08365000  0.00273000  0.56513000  1.0
  H  H148  1  0.04321000  0.87426000  0.50638000  1.0
  H  H149  1  0.95679000  0.50638000  0.12574000  1.0
  H  H150  1  0.04321000  0.12574000  0.49362000  1.0
  H  H151  1  0.95678000  0.49362000  0.87426000  1.0
  H  H152  1  0.04321000  0.62574000  0.00638000  1.0
  H  H153  1  0.95679000  0.00638000  0.37426000  1.0
  H  H154  1  0.04321000  0.37426000  0.99362000  1.0
  H  H155  1  0.95679000  0.99362000  0.62574000  1.0
  C  C156  1  0.50000000  0.50000000  0.50000000  1.0
  C  C157  1  0.50000000  0.00000000  0.00000000  1.0
  C  C158  1  0.42061000  0.57096000  0.51428000  1.0
  C  C159  1  0.57939000  0.51428000  0.42904000  1.0
  C  C160  1  0.42061000  0.42904000  0.48572000  1.0
  C  C161  1  0.57939000  0.48572000  0.57096000  1.0
  C  C162  1  0.42061000  0.92904000  0.01428000  1.0
  C  C163  1  0.57939000  0.01428000  0.07096000  1.0
  C  C164  1  0.42061000  0.07096000  0.98572000  1.0
  C  C165  1  0.57939000  0.98572000  0.92904000  1.0
  C  C166  1  0.32274000  0.56181000  0.56307000  1.0
  C  C167  1  0.67726000  0.56307000  0.43819000  1.0
  C  C168  1  0.32274000  0.43819000  0.43693000  1.0
  C  C169  1  0.67726000  0.43693000  0.56181000  1.0
  C  C170  1  0.32274000  0.93819000  0.06307000  1.0
  C  C171  1  0.67726000  0.06307000  0.06181000  1.0
  C  C172  1  0.32274000  0.06181000  0.93693000  1.0
  C  C173  1  0.67726000  0.93693000  0.93819000  1.0
  C  C174  1  0.25072000  0.62438000  0.58057000  1.0
  C  C175  1  0.74928000  0.58057000  0.37562000  1.0
  C  C176  1  0.25072000  0.37562000  0.41943000  1.0
  C  C177  1  0.74928000  0.41943000  0.62438000  1.0
  C  C178  1  0.25072000  0.87562000  0.08057000  1.0
  C  C179  1  0.74928000  0.08057000  0.12438000  1.0
  C  C180  1  0.25072000  0.12438000  0.91943000  1.0
  C  C181  1  0.74928000  0.91943000  0.87562000  1.0
  C  C182  1  0.27384000  0.69821000  0.54942000  1.0
  C  C183  1  0.72616000  0.54942000  0.30179000  1.0
  C  C184  1  0.27384000  0.30179000  0.45058000  1.0
  C  C185  1  0.72616000  0.45058000  0.69821000  1.0
  C  C186  1  0.27384000  0.80179000  0.04942000  1.0
  C  C187  1  0.72616000  0.04942000  0.19821000  1.0
  C  C188  1  0.27384000  0.19821000  0.95058000  1.0
  C  C189  1  0.72616000  0.95058000  0.80179000  1.0
  C  C190  1  0.36969000  0.70757000  0.49980000  1.0
  C  C191  1  0.63031000  0.49980000  0.29243000  1.0
  C  C192  1  0.36969000  0.29243000  0.50020000  1.0
  C  C193  1  0.63031000  0.50020000  0.70757000  1.0
  C  C194  1  0.36969000  0.79243000  0.99980000  1.0
  C  C195  1  0.63031000  0.99980000  0.20757000  1.0
  C  C196  1  0.36969000  0.20757000  0.00020000  1.0
  C  C197  1  0.63031000  0.00020000  0.79243000  1.0
  C  C198  1  0.44218000  0.64456000  0.48232000  1.0
  C  C199  1  0.55782000  0.48232000  0.35544000  1.0
  C  C200  1  0.44218000  0.35544000  0.51768000  1.0
  C  C201  1  0.55782000  0.51768000  0.64456000  1.0
  C  C202  1  0.44218000  0.85544000  0.98232000  1.0
  C  C203  1  0.55782000  0.98232000  0.14456000  1.0
  C  C204  1  0.44218000  0.14456000  0.01768000  1.0
  C  C205  1  0.55782000  0.01768000  0.85544000  1.0
  C  C206  1  0.19976000  0.76682000  0.57153000  1.0
  C  C207  1  0.80024000  0.57153000  0.23318000  1.0
  C  C208  1  0.19976000  0.23318000  0.42847000  1.0
  C  C209  1  0.80024000  0.42847000  0.76682000  1.0
  C  C210  1  0.19976000  0.73318000  0.07153000  1.0
  C  C211  1  0.80024000  0.07153000  0.26682000  1.0
  C  C212  1  0.19976000  0.26682000  0.92847000  1.0
  C  C213  1  0.80024000  0.92847000  0.73318000  1.0
  C  C214  1  0.97766000  0.67688000  0.76360000  1.0
  C  C215  1  0.02234000  0.76360000  0.32312000  1.0
  C  C216  1  0.97766000  0.32312000  0.23640000  1.0
  C  C217  1  0.02234000  0.23640000  0.67688000  1.0
  C  C218  1  0.97766000  0.82312000  0.26360000  1.0
  C  C219  1  0.02234000  0.26360000  0.17688000  1.0
  C  C220  1  0.97766000  0.17688000  0.73640000  1.0
  C  C221  1  0.02234000  0.73640000  0.82312000  1.0
  C  C222  1  0.77929000  0.72095000  0.73702000  1.0
  C  C223  1  0.22071000  0.73702000  0.27905000  1.0
  C  C224  1  0.77929000  0.27905000  0.26298000  1.0
  C  C225  1  0.22071000  0.26298000  0.72095000  1.0
  C  C226  1  0.77929000  0.77905000  0.23702000  1.0
  C  C227  1  0.22071000  0.23702000  0.22095000  1.0
  C  C228  1  0.77929000  0.22095000  0.76298000  1.0
  C  C229  1  0.22071000  0.76298000  0.77905000  1.0
  C  C230  1  0.69328000  0.75700000  0.67902000  1.0
  C  C231  1  0.30672000  0.67902000  0.24300000  1.0
  C  C232  1  0.69328000  0.24300000  0.32098000  1.0
  C  C233  1  0.30672000  0.32098000  0.75701000  1.0
  C  C234  1  0.69328000  0.74299000  0.17902000  1.0
  C  C235  1  0.30672000  0.17902000  0.25700000  1.0
  C  C236  1  0.69328000  0.25700000  0.82098000  1.0
  C  C237  1  0.30672000  0.82098000  0.74300000  1.0
  C  C238  1  0.70195000  0.71825000  0.59892000  1.0
  C  C239  1  0.29805000  0.59892000  0.28175000  1.0
  C  C240  1  0.70195000  0.28175000  0.40108000  1.0
  C  C241  1  0.29805000  0.40108000  0.71825000  1.0
  C  C242  1  0.70195000  0.78175000  0.09892000  1.0
  C  C243  1  0.29805000  0.09892000  0.21825000  1.0
  C  C244  1  0.70195000  0.21825000  0.90108000  1.0
  C  C245  1  0.29805000  0.90108000  0.78175000  1.0
  C  C246  1  0.87672000  0.77383000  0.53283000  1.0
  C  C247  1  0.12328000  0.53283000  0.22617000  1.0
  C  C248  1  0.87672000  0.22617000  0.46717000  1.0
  C  C249  1  0.12328000  0.46717000  0.77383000  1.0
  C  C250  1  0.87672000  0.72617000  0.03283000  1.0
  C  C251  1  0.12328000  0.03283000  0.27383000  1.0
  C  C252  1  0.87672000  0.27383000  0.96717000  1.0
  C  C253  1  0.12328000  0.96717000  0.72617000  1.0
  C  C254  1  0.89318000  0.66928000  0.63069000  1.0
  C  C255  1  0.10682000  0.63069000  0.33072000  1.0
  C  C256  1  0.89318000  0.33072000  0.36931000  1.0
  C  C257  1  0.10682000  0.36931000  0.66928000  1.0
  C  C258  1  0.89318000  0.83072000  0.13069000  1.0
  C  C259  1  0.10682000  0.13069000  0.16928000  1.0
  C  C260  1  0.89318000  0.16928000  0.86931000  1.0
  C  C261  1  0.10682000  0.86931000  0.83072000  1.0
  C  C262  1  0.97282000  0.90340000  0.53878000  1.0
  C  C263  1  0.02718000  0.53878000  0.09660000  1.0
  C  C264  1  0.97282000  0.09660000  0.46122000  1.0
  C  C265  1  0.02718000  0.46122000  0.90340000  1.0
  C  C266  1  0.97282000  0.59660000  0.03878000  1.0
  C  C267  1  0.02718000  0.03878000  0.40340000  1.0
  C  C268  1  0.97282000  0.40340000  0.96122000  1.0
  C  C269  1  0.02718000  0.96122000  0.59660000  1.0
  N  N270  1  0.82344000  0.70893000  0.57296000  1.0
  N  N271  1  0.17656000  0.57297000  0.29107000  1.0
  N  N272  1  0.82344000  0.29107000  0.42704000  1.0
  N  N273  1  0.17656000  0.42704000  0.70893000  1.0
  N  N274  1  0.82344000  0.79107000  0.07296000  1.0
  N  N275  1  0.17656000  0.07296000  0.20893000  1.0
  N  N276  1  0.82344000  0.20893000  0.92704000  1.0
  N  N277  1  0.17656000  0.92704000  0.79107000  1.0
  N  N278  1  0.90525000  0.84343000  0.58093000  1.0
  N  N279  1  0.09475000  0.58093000  0.15657000  1.0
  N  N280  1  0.90525000  0.15657000  0.41907000  1.0
  N  N281  1  0.09475000  0.41907000  0.84343000  1.0
  N  N282  1  0.90525000  0.65657000  0.08093000  1.0
  N  N283  1  0.09475000  0.08093000  0.34343000  1.0
  N  N284  1  0.90525000  0.34343000  0.91907000  1.0
  N  N285  1  0.09475000  0.91907000  0.65657000  1.0
  N  N286  1  0.90019000  0.71417000  0.70548000  1.0
  N  N287  1  0.09981000  0.70548000  0.28582000  1.0
  N  N288  1  0.90019000  0.28582000  0.29452000  1.0
  N  N289  1  0.09981000  0.29452000  0.71417000  1.0
  N  N290  1  0.90019000  0.78582000  0.20548000  1.0
  N  N291  1  0.09981000  0.20548000  0.21417000  1.0
  N  N292  1  0.90019000  0.21417000  0.79452000  1.0
  N  N293  1  0.09981000  0.79452000  0.78582000  1.0
  O  O294  1  0.11525000  0.75052000  0.61848000  1.0
  O  O295  1  0.88475000  0.61848000  0.24948000  1.0
  O  O296  1  0.11525000  0.24948000  0.38152000  1.0
  O  O297  1  0.88475000  0.38152000  0.75052000  1.0
  O  O298  1  0.11525000  0.74948000  0.11848000  1.0
  O  O299  1  0.88475000  0.11848000  0.25052000  1.0
  O  O300  1  0.11525000  0.25052000  0.88152000  1.0
  O  O301  1  0.88475000  0.88152000  0.74948000  1.0
  O  O302  1  0.22623000  0.83329000  0.54573000  1.0
  O  O303  1  0.77377000  0.54573000  0.16671000  1.0
  O  O304  1  0.22623000  0.16671000  0.45427000  1.0
  O  O305  1  0.77377000  0.45427000  0.83329000  1.0
  O  O306  1  0.22623000  0.66666667  0.04573000  1.0
  O  O307  1  0.77377000  0.04573000  0.33329000  1.0
  O  O308  1  0.22623000  0.33329000  0.95427000  1.0
  O  O309  1  0.77377000  0.95427000  0.66666667  1.0
