# generated using pymatgen
data_CuH16C22N6(O5F2)2
_symmetry_space_group_name_H-M   'P 1'
_cell_length_a   7.80947000
_cell_length_b   8.07780000
_cell_length_c   11.05990000
_cell_angle_alpha   86.86190000
_cell_angle_beta   71.06990000
_cell_angle_gamma   65.45390000
_symmetry_Int_Tables_number   1
_chemical_formula_structural   CuH16C22N6(O5F2)2
_chemical_formula_sum   'Cu1 H16 C22 N6 O10 F4'
_cell_volume   597.71599493
_cell_formula_units_Z   1
loop_
 _symmetry_equiv_pos_site_id
 _symmetry_equiv_pos_as_xyz
  1  'x, y, z'
loop_
 _atom_site_type_symbol
 _atom_site_label
 _atom_site_symmetry_multiplicity
 _atom_site_fract_x
 _atom_site_fract_y
 _atom_site_fract_z
 _atom_site_occupancy
  Cu  Cu0  1  0.00000000  0.50000000  0.00000000  1.0
  H  H1  1  0.31668000  0.68836000  0.94240000  1.0
  H  H2  1  0.68332000  0.31163000  0.05760000  1.0
  H  H3  1  0.75005000  0.83468000  0.22280000  1.0
  H  H4  1  0.24995000  0.16532000  0.77720000  1.0
  H  H5  1  0.70819000  0.14669000  0.30426000  1.0
  H  H6  1  0.29181000  0.85331000  0.69574000  1.0
  H  H7  1  0.90537000  0.21404000  0.23333000  1.0
  H  H8  1  0.09463000  0.78596000  0.76667000  1.0
  H  H9  1  0.18932000  0.45060000  0.57771000  1.0
  H  H10  1  0.81068000  0.54940000  0.42229000  1.0
  H  H11  1  0.64825000  0.65206000  0.83416000  1.0
  H  H12  1  0.35175000  0.34794000  0.16584000  1.0
  H  H13  1  0.29258000  0.15170000  0.06652000  1.0
  H  H14  1  0.70742000  0.84830000  0.93348000  1.0
  H  H15  1  0.38610000  0.26093000  0.95790000  1.0
  H  H16  1  0.61389000  0.73907000  0.04210000  1.0
  C  C17  1  0.18243000  0.75852000  0.02337000  1.0
  C  C18  1  0.81757000  0.24148000  0.97663000  1.0
  C  C19  1  0.89437000  0.82818000  0.16440000  1.0
  C  C20  1  0.10563000  0.17182000  0.83560000  1.0
  C  C21  1  0.86976000  0.10210000  0.27671000  1.0
  C  C22  1  0.13024000  0.89790000  0.72330000  1.0
  C  C23  1  0.93745000  0.04932000  0.39121000  1.0
  C  C24  1  0.06256000  0.95067000  0.60879000  1.0
  C  C25  1  0.84362000  0.97039000  0.49056000  1.0
  C  C26  1  0.15639000  0.02961000  0.50944000  1.0
  C  C27  1  0.90317000  0.92368000  0.59771000  1.0
  C  C28  1  0.09683000  0.07631000  0.40229000  1.0
  C  C29  1  0.35153000  0.42228000  0.76397000  1.0
  C  C30  1  0.64847000  0.57772000  0.23603000  1.0
  C  C31  1  0.42736000  0.46711000  0.62844000  1.0
  C  C32  1  0.57264000  0.53289000  0.37155000  1.0
  C  C33  1  0.32529000  0.47277000  0.54389000  1.0
  C  C34  1  0.67471000  0.52723000  0.45610000  1.0
  C  C35  1  0.60218000  0.49625000  0.58450000  1.0
  C  C36  1  0.39781000  0.50375000  0.41550000  1.0
  C  C37  1  0.70876000  0.50744000  0.67297000  1.0
  C  C38  1  0.29124000  0.49256000  0.32703000  1.0
  N  N39  1  0.02949000  0.70529000  0.06601000  1.0
  N  N40  1  0.97051000  0.29471000  0.93399000  1.0
  N  N41  1  0.96371000  0.94934000  0.17833000  1.0
  N  N42  1  0.03629000  0.05066000  0.82167000  1.0
  N  N43  1  0.14767000  0.90761000  0.08984000  1.0
  N  N44  1  0.85233000  0.09239000  0.91016000  1.0
  O  O45  1  0.16484000  0.51964000  0.82310000  1.0
  O  O46  1  0.83516000  0.48036000  0.17690000  1.0
  O  O47  1  0.47001000  0.29421000  0.80673000  1.0
  O  O48  1  0.52999000  0.70579000  0.19327000  1.0
  O  O49  1  0.58161000  0.62603000  0.77646000  1.0
  O  O50  1  0.41839000  0.37397000  0.22354000  1.0
  O  O51  1  0.88917000  0.42501000  0.64966000  1.0
  O  O52  1  0.11081000  0.57499000  0.35033000  1.0
  O  O53  1  0.31271000  0.26361000  0.05238000  1.0
  O  O54  1  0.68729000  0.73639000  0.94761000  1.0
  F  F55  1  0.69120000  0.93698000  0.48245000  1.0
  F  F56  1  0.30880000  0.06302000  0.51755000  1.0
  F  F57  1  0.80561000  0.84852000  0.69145000  1.0
  F  F58  1  0.19439000  0.15148000  0.30856000  1.0
