# generated using pymatgen
data_Zr6H49C64N5O32
_symmetry_space_group_name_H-M   'P 1'
_cell_length_a   14.81850612
_cell_length_b   14.82295429
_cell_length_c   14.84320000
_cell_angle_alpha   60.07054054
_cell_angle_beta   89.94724842
_cell_angle_gamma   119.95278882
_symmetry_Int_Tables_number   1
_chemical_formula_structural   Zr6H49C64N5O32
_chemical_formula_sum   'Zr6 H49 C64 N5 O32'
_cell_volume   2308.46814324
_cell_formula_units_Z   1
loop_
 _symmetry_equiv_pos_site_id
 _symmetry_equiv_pos_as_xyz
  1  'x, y, z'
loop_
 _atom_site_type_symbol
 _atom_site_label
 _atom_site_symmetry_multiplicity
 _atom_site_fract_x
 _atom_site_fract_y
 _atom_site_fract_z
 _atom_site_occupancy
  Zr  Zr0  1  0.62204000  0.99817000  0.11887000  1.0
  Zr  Zr1  1  0.38194000  0.99951000  0.88127000  1.0
  Zr  Zr2  1  0.62076000  0.00100000  0.87837000  1.0
  Zr  Zr3  1  0.38293000  0.99767000  0.11944000  1.0
  Zr  Zr4  1  0.62222000  0.23671000  0.88129000  1.0
  Zr  Zr5  1  0.38582000  0.76153000  0.11670000  1.0
  H  H6  1  0.78447000  0.18797000  0.90239000  1.0
  H  H7  1  0.40801000  0.18594000  0.90660000  1.0
  H  H8  1  0.40905000  0.81419000  0.90263000  1.0
  H  H9  1  0.40923000  0.81113000  0.27994000  1.0
  H  H10  1  0.89316000  0.26802000  0.16325000  1.0
  H  H11  1  0.89134000  0.63867000  0.81253000  1.0
  H  H12  1  0.97310000  0.61880000  0.74567000  1.0
  H  H13  1  0.14489000  0.78026000  0.75082000  1.0
  H  H14  1  0.06518000  0.80436000  0.81465000  1.0
  H  H15  1  0.65124000  0.72970000  0.40216000  1.0
  H  H16  1  0.29639000  0.35541000  0.40377000  1.0
  H  H17  1  0.23336000  0.37159000  0.49208000  1.0
  H  H18  1  0.24361000  0.20568000  0.65586000  1.0
  H  H19  1  0.31544000  0.19867000  0.56550000  1.0
  H  H20  1  0.63622000  0.55024000  0.84804000  1.0
  H  H21  1  0.36800000  0.22174000  0.26698000  1.0
  H  H22  1  0.26555000  0.20201000  0.20094000  1.0
  H  H23  1  0.27210000  0.38079000  0.19039000  1.0
  H  H24  1  0.37491000  0.40046000  0.25550000  1.0
  H  H25  1  0.09071000  0.44178000  0.41090000  1.0
  H  H26  1  0.02745000  0.79058000  0.35221000  1.0
  H  H27  1  0.10826000  0.79463000  0.44077000  1.0
  H  H28  1  0.93365000  0.62246000  0.60654000  1.0
  H  H29  1  0.85382000  0.61439000  0.51745000  1.0
  H  H30  1  0.93204000  0.19393000  0.99224000  1.0
  H  H31  1  0.10252000  0.36851000  0.97675000  1.0
  H  H32  1  0.26571000  0.19048000  0.99691000  1.0
  H  H33  1  0.27123000  0.36698000  0.97861000  1.0
  H  H34  1  0.36711000  0.01743000  0.39996000  1.0
  H  H35  1  0.76605000  0.10137000  0.36928000  1.0
  H  H36  1  0.67946000  0.93134000  0.45422000  1.0
  H  H37  1  0.67056000  0.93092000  0.62371000  1.0
  H  H38  1  0.75894000  0.10139000  0.53952000  1.0
  H  H39  1  0.13220000  0.48224000  0.19434000  1.0
  H  H40  1  0.01804000  0.32423000  0.25343000  1.0
  H  H41  1  0.68220000  0.52004000  0.64270000  1.0
  H  H42  1  0.73952000  0.67603000  0.52915000  1.0
  H  H43  1  0.67109000  0.82344000  0.81876000  1.0
  H  H44  1  0.71772000  0.76703000  0.76424000  1.0
  H  H45  1  0.85799000  0.17678000  0.65912000  1.0
  H  H46  1  0.97219000  0.23075000  0.56344000  1.0
  H  H47  1  0.33405000  0.01185000  0.64385000  1.0
  H  H48  1  0.27968000  0.00548000  0.54085000  1.0
  H  H49  1  0.93232000  0.68915000  0.11211000  1.0
  H  H50  1  0.06770000  0.79228000  0.01554000  1.0
  H  H51  1  0.95156000  0.75715000  0.97083000  1.0
  H  H52  1  0.79921000  0.78021000  0.95395000  1.0
  H  H53  1  0.72142000  0.77664000  0.04731000  1.0
  H  H54  1  0.77768000  0.68656000  0.09605000  1.0
  C  C55  1  0.80064000  0.30135000  0.00435000  1.0
  C  C56  1  0.50411000  0.30531000  0.69674000  1.0
  C  C57  1  0.19379000  0.69355000  0.00638000  1.0
  C  C58  1  0.50225000  0.69389000  0.30033000  1.0
  C  C59  1  0.80226000  0.99119000  0.00250000  1.0
  C  C60  1  0.50765000  0.00858000  0.29680000  1.0
  C  C61  1  0.19314000  0.98923000  0.00558000  1.0
  C  C62  1  0.50433000  0.01233000  0.68864000  1.0
  C  C63  1  0.80217000  0.30274000  0.68945000  1.0
  C  C64  1  0.50944000  0.69993000  0.99614000  1.0
  C  C65  1  0.19645000  0.69517000  0.29633000  1.0
  C  C66  1  0.50564000  0.29998000  0.00451000  1.0
  C  C67  1  0.89666000  0.40178000  0.00804000  1.0
  C  C68  1  0.09100000  0.59273000  0.01213000  1.0
  C  C69  1  0.95342000  0.53168000  0.92340000  1.0
  C  C70  1  0.03073000  0.45982000  0.10188000  1.0
  C  C71  1  0.04721000  0.62196000  0.92638000  1.0
  C  C72  1  0.93637000  0.36876000  0.09633000  1.0
  C  C73  1  0.96024000  0.62899000  0.81209000  1.0
  C  C74  1  0.06814000  0.73182000  0.81453000  1.0
  C  C75  1  0.49851000  0.59385000  0.40400000  1.0
  C  C76  1  0.50316000  0.40595000  0.60036000  1.0
  C  C77  1  0.41251000  0.46385000  0.46365000  1.0
  C  C78  1  0.58818000  0.53976000  0.54371000  1.0
  C  C79  1  0.41719000  0.37496000  0.55698000  1.0
  C  C80  1  0.58440000  0.62871000  0.44645000  1.0
  C  C81  1  0.30030000  0.36432000  0.47303000  1.0
  C  C82  1  0.30796000  0.26288000  0.57661000  1.0
  C  C83  1  0.50632000  0.40086000  0.00383000  1.0
  C  C84  1  0.51104000  0.60209000  0.99516000  1.0
  C  C85  1  0.43442000  0.37502000  0.08813000  1.0
  C  C86  1  0.58519000  0.62952000  0.90816000  1.0
  C  C87  1  0.43791000  0.47319000  0.08234000  1.0
  C  C88  1  0.58035000  0.52840000  0.91511000  1.0
  C  C89  1  0.34385000  0.27237000  0.19974000  1.0
  C  C90  1  0.34783000  0.38426000  0.19301000  1.0
  C  C91  1  0.09351000  0.59560000  0.39324000  1.0
  C  C92  1  0.89805000  0.39873000  0.58718000  1.0
  C  C93  1  0.03792000  0.62464000  0.43842000  1.0
  C  C94  1  0.95379000  0.36788000  0.54020000  1.0
  C  C95  1  0.94386000  0.52887000  0.53137000  1.0
  C  C96  1  0.04913000  0.46675000  0.44518000  1.0
  C  C97  1  0.03744000  0.73128000  0.42822000  1.0
  C  C98  1  0.92911000  0.62237000  0.53274000  1.0
  C  C99  1  0.90231000  0.98881000  0.00577000  1.0
  C  C100  1  0.99970000  0.09080000  0.99897000  1.0
  C  C101  1  0.89827000  0.88838000  0.01588000  1.0
  C  C102  1  0.00541000  0.19382000  0.99004000  1.0
  C  C103  1  0.10096000  0.29141000  0.98251000  1.0
  C  C104  1  0.09087000  0.98720000  0.00759000  1.0
  C  C105  1  0.99466000  0.88796000  0.01594000  1.0
  C  C106  1  0.09598000  0.08978000  0.00030000  1.0
  C  C107  1  0.19304000  0.19186000  0.99264000  1.0
  C  C108  1  0.19574000  0.29043000  0.98378000  1.0
  C  C109  1  0.51090000  0.01656000  0.39281000  1.0
  C  C110  1  0.50628000  0.01939000  0.58608000  1.0
  C  C111  1  0.59099000  0.01912000  0.44332000  1.0
  C  C112  1  0.42542000  0.02066000  0.53273000  1.0
  C  C113  1  0.58725000  0.02004000  0.53637000  1.0
  C  C114  1  0.42992000  0.01850000  0.43863000  1.0
  C  C115  1  0.69214000  0.01694000  0.44189000  1.0
  C  C116  1  0.68774000  0.01749000  0.54806000  1.0
  C  C117  1  0.98726000  0.77674000  0.02906000  1.0
  C  C118  1  0.79364000  0.77767000  0.02931000  1.0
  N  N119  1  0.06141000  0.41825000  0.19277000  1.0
  N  N120  1  0.67271000  0.58507000  0.58173000  1.0
  N  N121  1  0.65947000  0.75093000  0.81693000  1.0
  N  N122  1  0.91704000  0.24452000  0.58335000  1.0
  N  N123  1  0.34409000  0.02545000  0.56939000  1.0
  O  O124  1  0.76303000  0.18527000  0.07874000  1.0
  O  O125  1  0.42723000  0.18924000  0.73584000  1.0
  O  O126  1  0.23407000  0.80962000  0.92819000  1.0
  O  O127  1  0.57983000  0.81009000  0.25948000  1.0
  O  O128  1  0.76629000  0.99616000  0.92308000  1.0
  O  O129  1  0.42908000  0.00416000  0.25899000  1.0
  O  O130  1  0.23295000  0.98825000  0.08196000  1.0
  O  O131  1  0.57975000  0.00918000  0.72927000  1.0
  O  O132  1  0.76447000  0.34071000  0.72980000  1.0
  O  O133  1  0.43360000  0.66250000  0.07382000  1.0
  O  O134  1  0.23780000  0.65846000  0.25802000  1.0
  O  O135  1  0.58218000  0.33617000  0.92843000  1.0
  O  O136  1  0.58430000  0.81825000  0.91847000  1.0
  O  O137  1  0.23685000  0.81074000  0.25971000  1.0
  O  O138  1  0.42723000  0.18444000  0.08019000  1.0
  O  O139  1  0.76235000  0.18426000  0.73438000  1.0
  O  O140  1  0.76137000  0.99000000  0.07921000  1.0
  O  O141  1  0.42535000  0.00694000  0.73361000  1.0
  O  O142  1  0.23466000  0.99459000  0.92599000  1.0
  O  O143  1  0.58276000  0.00458000  0.26010000  1.0
  O  O144  1  0.42671000  0.65632000  0.25981000  1.0
  O  O145  1  0.76435000  0.33944000  0.92495000  1.0
  O  O146  1  0.58227000  0.33949000  0.73692000  1.0
  O  O147  1  0.23859000  0.65922000  0.07950000  1.0
  O  O148  1  0.43614000  0.86435000  0.20000000  1.0
  O  O149  1  0.43544000  0.86629000  0.93057000  1.0
  O  O150  1  0.43437000  0.13223000  0.93429000  1.0
  O  O151  1  0.70444000  0.13367000  0.93157000  1.0
  O  O152  1  0.55117000  0.09889000  0.85051000  1.0
  O  O153  1  0.55213000  0.09683000  0.04919000  1.0
  O  O154  1  0.35434000  0.89960000  0.04880000  1.0
  O  O155  1  0.55333000  0.90118000  0.04699000  1.0
