# generated using pymatgen
data_AgH33C30N4O3
_symmetry_space_group_name_H-M   'P 1'
_cell_length_a   8.46045000
_cell_length_b   10.62550000
_cell_length_c   17.38730000
_cell_angle_alpha   83.66600000
_cell_angle_beta   81.85800000
_cell_angle_gamma   84.10900000
_symmetry_Int_Tables_number   1
_chemical_formula_structural   AgH33C30N4O3
_chemical_formula_sum   'Ag2 H66 C60 N8 O6'
_cell_volume   1531.83119388
_cell_formula_units_Z   2
loop_
 _symmetry_equiv_pos_site_id
 _symmetry_equiv_pos_as_xyz
  1  'x, y, z'
loop_
 _atom_site_type_symbol
 _atom_site_label
 _atom_site_symmetry_multiplicity
 _atom_site_fract_x
 _atom_site_fract_y
 _atom_site_fract_z
 _atom_site_occupancy
  Ag  Ag0  1  0.77514000  0.98312000  0.25792000  1.0
  Ag  Ag1  1  0.22486000  0.01688000  0.74208000  1.0
  H  H2  1  0.32316000  0.77040000  0.57198000  1.0
  H  H3  1  0.67684000  0.22961000  0.42802000  1.0
  H  H4  1  0.72957000  0.54092000  0.46335000  1.0
  H  H5  1  0.27042000  0.45908000  0.53666000  1.0
  H  H6  1  0.51230000  0.57266000  0.57220000  1.0
  H  H7  1  0.48769000  0.42735000  0.42780000  1.0
  H  H8  1  0.77356000  0.70735000  0.35177000  1.0
  H  H9  1  0.22643000  0.29264000  0.64823000  1.0
  H  H10  1  0.33117000  0.20772000  0.37508000  1.0
  H  H11  1  0.66882000  0.79228000  0.62492000  1.0
  H  H12  1  0.51097000  0.18932000  0.31029000  1.0
  H  H13  1  0.48903000  0.81068000  0.68971000  1.0
  H  H14  1  0.37243000  0.07239000  0.22446000  1.0
  H  H15  1  0.62758000  0.92760000  0.77554000  1.0
  H  H16  1  0.27541000  0.22772000  0.23619000  1.0
  H  H17  1  0.72459000  0.77228000  0.76380000  1.0
  H  H18  1  0.18926000  0.09307000  0.28847000  1.0
  H  H19  1  0.81074000  0.90692000  0.71153000  1.0
  H  H20  1  0.11171000  0.07301000  0.16612000  1.0
  H  H21  1  0.88830000  0.92698000  0.83388000  1.0
  H  H22  1  0.34462000  0.10104000  0.06066000  1.0
  H  H23  1  0.65538000  0.89897000  0.93934000  1.0
  H  H24  1  0.38558000  0.97275000  0.94809000  1.0
  H  H25  1  0.61443000  0.02726000  0.05191000  1.0
  H  H26  1  0.19982000  0.81164000  0.93530000  1.0
  H  H27  1  0.80020000  0.18836000  0.06470000  1.0
  H  H28  1  0.68959000  0.72438000  0.22609000  1.0
  H  H29  1  0.31041000  0.27562000  0.77391000  1.0
  H  H30  1  0.71889000  0.62550000  0.14942000  1.0
  H  H31  1  0.28111000  0.37450000  0.85059000  1.0
  H  H32  1  0.51252000  0.88186000  0.15448000  1.0
  H  H33  1  0.48748000  0.11814000  0.84552000  1.0
  H  H34  1  0.44274000  0.72880000  0.15976000  1.0
  H  H35  1  0.55726000  0.27120000  0.84024000  1.0
  H  H36  1  0.54674000  0.79498000  0.07119000  1.0
  H  H37  1  0.45326000  0.20502000  0.92881000  1.0
  H  H38  1  0.98655000  0.25774000  0.41481000  1.0
  H  H39  1  0.01346000  0.74226000  0.58520000  1.0
  H  H40  1  0.10801000  0.44472000  0.44985000  1.0
  H  H41  1  0.89199000  0.55529000  0.55015000  1.0
  H  H42  1  0.02853000  0.64537000  0.22717000  1.0
  H  H43  1  0.97147000  0.35463000  0.77283000  1.0
  H  H44  1  0.90666000  0.45605000  0.19471000  1.0
  H  H45  1  0.09334000  0.54395000  0.80529000  1.0
  H  H46  1  0.23987000  0.73773000  0.25483000  1.0
  H  H47  1  0.76013000  0.26227000  0.74517000  1.0
  H  H48  1  0.24292000  0.82195000  0.33821000  1.0
  H  H49  1  0.75707000  0.17805000  0.66179000  1.0
  H  H50  1  0.05765000  0.81579000  0.30002000  1.0
  H  H51  1  0.94235000  0.18421000  0.69998000  1.0
  H  H52  1  0.22564000  0.12464000  0.48315000  1.0
  H  H53  1  0.77436000  0.87536000  0.51686000  1.0
  H  H54  1  0.23985000  0.98995000  0.55231000  1.0
  H  H55  1  0.76015000  0.01004000  0.44769000  1.0
  H  H56  1  0.08257000  0.87286000  0.47418000  1.0
  H  H57  1  0.91743000  0.12714000  0.52582000  1.0
  H  H58  1  0.05189000  0.01436000  0.41155000  1.0
  H  H59  1  0.94811000  0.98564000  0.58845000  1.0
  H  H60  1  0.94507000  0.71533000  0.94749000  1.0
  H  H61  1  0.05492000  0.28467000  0.05251000  1.0
  H  H62  1  0.78608000  0.65836000  0.01555000  1.0
  H  H63  1  0.21392000  0.34164000  0.98445000  1.0
  H  H64  1  0.99198000  0.51690000  0.08707000  1.0
  H  H65  1  0.00802000  0.48310000  0.91293000  1.0
  H  H66  1  0.14372000  0.56893000  0.01354000  1.0
  H  H67  1  0.85627000  0.43107000  0.98646000  1.0
  C  C68  1  0.56977000  0.83094000  0.39831000  1.0
  C  C69  1  0.43022000  0.16906000  0.60169000  1.0
  C  C70  1  0.44394000  0.84693000  0.46023000  1.0
  C  C71  1  0.55606000  0.15307000  0.53977000  1.0
  C  C72  1  0.41919000  0.75575000  0.52401000  1.0
  C  C73  1  0.58081000  0.24426000  0.47599000  1.0
  C  C74  1  0.65084000  0.62882000  0.46193000  1.0
  C  C75  1  0.34915000  0.37118000  0.53807000  1.0
  C  C76  1  0.52590000  0.64667000  0.52373000  1.0
  C  C77  1  0.47409000  0.35334000  0.47627000  1.0
  C  C78  1  0.67509000  0.72047000  0.39873000  1.0
  C  C79  1  0.32491000  0.27952000  0.60127000  1.0
  C  C80  1  0.39955000  0.14539000  0.33356000  1.0
  C  C81  1  0.60045000  0.85461000  0.66644000  1.0
  C  C82  1  0.30333000  0.13358000  0.26660000  1.0
  C  C83  1  0.69668000  0.86642000  0.73340000  1.0
  C  C84  1  0.05892000  0.84759000  0.04752000  1.0
  C  C85  1  0.94108000  0.15241000  0.95248000  1.0
  C  C86  1  0.03389000  0.92058000  0.11210000  1.0
  C  C87  1  0.96611000  0.07942000  0.88790000  1.0
  C  C88  1  0.13558000  0.01372000  0.11783000  1.0
  C  C89  1  0.86442000  0.98627000  0.88217000  1.0
  C  C90  1  0.26279000  0.02898000  0.05832000  1.0
  C  C91  1  0.73721000  0.97103000  0.94168000  1.0
  C  C92  1  0.28676000  0.95544000  0.99422000  1.0
  C  C93  1  0.71324000  0.04456000  0.00579000  1.0
  C  C94  1  0.18463000  0.86372000  0.98693000  1.0
  C  C95  1  0.81538000  0.13629000  0.01307000  1.0
  C  C96  1  0.69892000  0.72526000  0.16238000  1.0
  C  C97  1  0.30108000  0.27475000  0.83761000  1.0
  C  C98  1  0.54165000  0.78640000  0.13498000  1.0
  C  C99  1  0.45836000  0.21360000  0.86502000  1.0
  C  C100  1  0.94073000  0.34484000  0.30147000  1.0
  C  C101  1  0.05927000  0.65515000  0.69853000  1.0
  C  C102  1  0.87549000  0.23021000  0.27780000  1.0
  C  C103  1  0.12452000  0.76978000  0.72220000  1.0
  C  C104  1  0.99635000  0.34301000  0.37407000  1.0
  C  C105  1  0.00365000  0.65699000  0.62593000  1.0
  C  C106  1  0.06381000  0.44672000  0.39384000  1.0
  C  C107  1  0.93620000  0.55327000  0.60616000  1.0
  C  C108  1  0.07846000  0.55602000  0.34073000  1.0
  C  C109  1  0.92154000  0.44398000  0.65927000  1.0
  C  C110  1  0.02098000  0.56064000  0.26846000  1.0
  C  C111  1  0.97903000  0.43936000  0.73154000  1.0
  C  C112  1  0.84215000  0.79329000  0.12845000  1.0
  C  C113  1  0.15785000  0.20671000  0.87155000  1.0
  C  C114  1  0.44581000  0.01910000  0.37422000  1.0
  C  C115  1  0.55419000  0.98089000  0.62578000  1.0
  C  C116  1  0.95275000  0.45531000  0.25019000  1.0
  C  C117  1  0.04725000  0.54468000  0.74981000  1.0
  C  C118  1  0.17274000  0.76285000  0.31083000  1.0
  C  C119  1  0.82726000  0.23715000  0.68917000  1.0
  C  C120  1  0.22637000  0.02062000  0.49097000  1.0
  C  C121  1  0.77363000  0.97938000  0.50903000  1.0
  C  C122  1  0.07147000  0.97746000  0.47147000  1.0
  C  C123  1  0.92854000  0.02254000  0.52854000  1.0
  C  C124  1  0.91370000  0.67467000  0.00806000  1.0
  C  C125  1  0.08630000  0.32533000  0.99194000  1.0
  C  C126  1  0.01624000  0.55065000  0.02480000  1.0
  C  C127  1  0.98376000  0.44935000  0.97520000  1.0
  N  N128  1  0.56762000  0.93959000  0.34613000  1.0
  N  N129  1  0.43237000  0.06041000  0.65387000  1.0
  N  N130  1  0.36757000  0.96690000  0.44320000  1.0
  N  N131  1  0.63243000  0.03310000  0.55680000  1.0
  N  N132  1  0.93464000  0.76905000  0.05933000  1.0
  N  N133  1  0.06537000  0.23095000  0.94067000  1.0
  N  N134  1  0.89855000  0.88452000  0.16111000  1.0
  N  N135  1  0.10145000  0.11548000  0.83889000  1.0
  O  O136  1  0.14942000  0.65220000  0.36458000  1.0
  O  O137  1  0.85058000  0.34780000  0.63541000  1.0
  O  O138  1  0.86940000  0.13263000  0.32865000  1.0
  O  O139  1  0.13061000  0.86736000  0.67134000  1.0
  O  O140  1  0.83354000  0.23424000  0.21039000  1.0
  O  O141  1  0.16646000  0.76575000  0.78961000  1.0
