# generated using pymatgen
data_Co3H32C52(NO3)4
_symmetry_space_group_name_H-M   'P 1'
_cell_length_a   10.28080000
_cell_length_b   10.85900000
_cell_length_c   14.07710000
_cell_angle_alpha   101.02800000
_cell_angle_beta   107.76400000
_cell_angle_gamma   105.26500000
_symmetry_Int_Tables_number   1
_chemical_formula_structural   Co3H32C52(NO3)4
_chemical_formula_sum   'Co3 H32 C52 N4 O12'
_cell_volume   1379.28107583
_cell_formula_units_Z   1
loop_
 _symmetry_equiv_pos_site_id
 _symmetry_equiv_pos_as_xyz
  1  'x, y, z'
loop_
 _atom_site_type_symbol
 _atom_site_label
 _atom_site_symmetry_multiplicity
 _atom_site_fract_x
 _atom_site_fract_y
 _atom_site_fract_z
 _atom_site_occupancy
  Co  Co0  1  0.49999000  0.00000000  0.00000000  1.0
  Co  Co1  1  0.70651000  0.85254000  0.04439000  1.0
  Co  Co2  1  0.29349000  0.14746000  0.95561000  1.0
  H  H3  1  0.31517000  0.49230000  0.72146000  1.0
  H  H4  1  0.68484000  0.50770000  0.27855000  1.0
  H  H5  1  0.22039000  0.43429000  0.52738000  1.0
  H  H6  1  0.77961000  0.56570000  0.47263000  1.0
  H  H7  1  0.98193000  0.86900000  0.01944000  1.0
  H  H8  1  0.01808000  0.13100000  0.98056000  1.0
  H  H9  1  0.55499000  0.89283000  0.74532000  1.0
  H  H10  1  0.44501000  0.10717000  0.25467000  1.0
  H  H11  1  0.12364000  0.16741000  0.20458000  1.0
  H  H12  1  0.87635000  0.83259000  0.79541000  1.0
  H  H13  1  0.80478000  0.34382000  0.23433000  1.0
  H  H14  1  0.19523000  0.65618000  0.76566000  1.0
  H  H15  1  0.46918000  0.83616000  0.55221000  1.0
  H  H16  1  0.53082000  0.16384000  0.44778000  1.0
  H  H17  1  0.32256000  0.37762000  0.32780000  1.0
  H  H18  1  0.67744000  0.62237000  0.67220000  1.0
  H  H19  1  0.12088000  0.71888000  0.99971000  1.0
  H  H20  1  0.87913000  0.28113000  0.00029000  1.0
  H  H21  1  0.27129000  0.83929000  0.18111000  1.0
  H  H22  1  0.72871000  0.16071000  0.81890000  1.0
  H  H23  1  0.16533000  0.72872000  0.29464000  1.0
  H  H24  1  0.83466000  0.27128000  0.70537000  1.0
  H  H25  1  0.55403000  0.63752000  0.41987000  1.0
  H  H26  1  0.44597000  0.36246000  0.58011000  1.0
  H  H27  1  0.65535000  0.74136000  0.30145000  1.0
  H  H28  1  0.34464000  0.25863000  0.69854000  1.0
  H  H29  1  0.00272000  0.55163000  0.36373000  1.0
  H  H30  1  0.99728000  0.44838000  0.63627000  1.0
  H  H31  1  0.77127000  0.40576000  0.01587000  1.0
  H  H32  1  0.22873000  0.59424000  0.98413000  1.0
  H  H33  1  0.64727000  0.56780000  0.03296000  1.0
  H  H34  1  0.35274000  0.43220000  0.96704000  1.0
  C  C35  1  0.44061000  0.69598000  0.74585000  1.0
  C  C36  1  0.55940000  0.30402000  0.25414000  1.0
  C  C37  1  0.83192000  0.12183000  0.13641000  1.0
  C  C38  1  0.16807000  0.87818000  0.86358000  1.0
  C  C39  1  0.52321000  0.84447000  0.15685000  1.0
  C  C40  1  0.47679000  0.15553000  0.84315000  1.0
  C  C41  1  0.95238000  0.24423000  0.21201000  1.0
  C  C42  1  0.04762000  0.75578000  0.78799000  1.0
  C  C43  1  0.34684000  0.56681000  0.68303000  1.0
  C  C44  1  0.65317000  0.43318000  0.31697000  1.0
  C  C45  1  0.46832000  0.79470000  0.23362000  1.0
  C  C46  1  0.53168000  0.20530000  0.76638000  1.0
  C  C47  1  0.35375000  0.67645000  0.36330000  1.0
  C  C48  1  0.64624000  0.32355000  0.63670000  1.0
  C  C49  1  0.33900000  0.63085000  0.52589000  1.0
  C  C50  1  0.66100000  0.36914000  0.47410000  1.0
  C  C51  1  0.29496000  0.53436000  0.57509000  1.0
  C  C52  1  0.70505000  0.46564000  0.42492000  1.0
  C  C53  1  0.49166000  0.72792000  0.86057000  1.0
  C  C54  1  0.50834000  0.27208000  0.13943000  1.0
  C  C55  1  0.93962000  0.76512000  0.01783000  1.0
  C  C56  1  0.06039000  0.23489000  0.98218000  1.0
  C  C57  1  0.48363000  0.79206000  0.69688000  1.0
  C  C58  1  0.51637000  0.20794000  0.30311000  1.0
  C  C59  1  0.17331000  0.47650000  0.35228000  1.0
  C  C60  1  0.82669000  0.52349000  0.64772000  1.0
  C  C61  1  0.09820000  0.25244000  0.23888000  1.0
  C  C62  1  0.90180000  0.74755000  0.76112000  1.0
  C  C63  1  0.91829000  0.35209000  0.25669000  1.0
  C  C64  1  0.08171000  0.64792000  0.74331000  1.0
  C  C65  1  0.43537000  0.76047000  0.58902000  1.0
  C  C66  1  0.56462000  0.23953000  0.41097000  1.0
  C  C67  1  0.20870000  0.36905000  0.30803000  1.0
  C  C68  1  0.79130000  0.63094000  0.69197000  1.0
  C  C69  1  0.96000000  0.54632000  0.00544000  1.0
  C  C70  1  0.04001000  0.45368000  0.99456000  1.0
  C  C71  1  0.01651000  0.67975000  0.00676000  1.0
  C  C72  1  0.98349000  0.32026000  0.99324000  1.0
  C  C73  1  0.33184000  0.79434000  0.23340000  1.0
  C  C74  1  0.66816000  0.20566000  0.76661000  1.0
  C  C75  1  0.27373000  0.73402000  0.29706000  1.0
  C  C76  1  0.72627000  0.26598000  0.70294000  1.0
  C  C77  1  0.49379000  0.68357000  0.36835000  1.0
  C  C78  1  0.50620000  0.31642000  0.63164000  1.0
  C  C79  1  0.54988000  0.74096000  0.30279000  1.0
  C  C80  1  0.45011000  0.25904000  0.69720000  1.0
  C  C81  1  0.02807000  0.46732000  0.32790000  1.0
  C  C82  1  0.97193000  0.53268000  0.67209000  1.0
  C  C83  1  0.82406000  0.50648000  0.01531000  1.0
  C  C84  1  0.17595000  0.49352000  0.98469000  1.0
  C  C85  1  0.75264000  0.59700000  0.02564000  1.0
  C  C86  1  0.24737000  0.40300000  0.97437000  1.0
  N  N87  1  0.28675000  0.59976000  0.41828000  1.0
  N  N88  1  0.71326000  0.40023000  0.58172000  1.0
  N  N89  1  0.80918000  0.72517000  0.02717000  1.0
  N  N90  1  0.19082000  0.27484000  0.97284000  1.0
  O  O91  1  0.57767000  0.85408000  0.91348000  1.0
  O  O92  1  0.42233000  0.14592000  0.08651000  1.0
  O  O93  1  0.86760000  0.02331000  0.09953000  1.0
  O  O94  1  0.13240000  0.97669000  0.90047000  1.0
  O  O95  1  0.70211000  0.12070000  0.11362000  1.0
  O  O96  1  0.29788000  0.87931000  0.88638000  1.0
  O  O97  1  0.44805000  0.89336000  0.09529000  1.0
  O  O98  1  0.55194000  0.10664000  0.90471000  1.0
  O  O99  1  0.64408000  0.83134000  0.15728000  1.0
  O  O100  1  0.35591000  0.16867000  0.84272000  1.0
  O  O101  1  0.46300000  0.64289000  0.90635000  1.0
  O  O102  1  0.53701000  0.35712000  0.09365000  1.0
