# generated using pymatgen
data_CdH10C14(N3O)4
_symmetry_space_group_name_H-M   'P 1'
_cell_length_a   8.33743000
_cell_length_b   8.33739000
_cell_length_c   15.45690000
_cell_angle_alpha   88.66860000
_cell_angle_beta   88.66820000
_cell_angle_gamma   69.49620000
_symmetry_Int_Tables_number   1
_chemical_formula_structural   CdH10C14(N3O)4
_chemical_formula_sum   'Cd2 H20 C28 N24 O8'
_cell_volume   1005.97643079
_cell_formula_units_Z   2
loop_
 _symmetry_equiv_pos_site_id
 _symmetry_equiv_pos_as_xyz
  1  'x, y, z'
loop_
 _atom_site_type_symbol
 _atom_site_label
 _atom_site_symmetry_multiplicity
 _atom_site_fract_x
 _atom_site_fract_y
 _atom_site_fract_z
 _atom_site_occupancy
  Cd  Cd0  1  0.68818000  0.31182000  0.25000000  1.0
  Cd  Cd1  1  0.31181000  0.68819000  0.75000000  1.0
  H  H2  1  0.02358000  0.30610000  0.49024000  1.0
  H  H3  1  0.69391000  0.97640000  0.00976000  1.0
  H  H4  1  0.97641000  0.69389000  0.50976000  1.0
  H  H5  1  0.30610000  0.02359000  0.99024000  1.0
  H  H6  1  0.15373000  0.10058000  0.44997000  1.0
  H  H7  1  0.89943000  0.84625000  0.05003000  1.0
  H  H8  1  0.84627000  0.89942000  0.55003000  1.0
  H  H9  1  0.10058000  0.15373000  0.94997000  1.0
  H  H10  1  0.26146000  0.75352000  0.49520000  1.0
  H  H11  1  0.24648000  0.73854000  0.00480000  1.0
  H  H12  1  0.73853000  0.24648000  0.50480000  1.0
  H  H13  1  0.75352000  0.26147000  0.99520000  1.0
  H  H14  1  0.62790000  0.94836000  0.40261000  1.0
  H  H15  1  0.05166000  0.37209000  0.09739000  1.0
  H  H16  1  0.37209000  0.05165000  0.59739000  1.0
  H  H17  1  0.94835000  0.62791000  0.90261000  1.0
  H  H18  1  0.75528000  0.69061000  0.30661000  1.0
  H  H19  1  0.30941000  0.24472000  0.19339000  1.0
  H  H20  1  0.24472000  0.30940000  0.69339000  1.0
  H  H21  1  0.69059000  0.75528000  0.80661000  1.0
  C  C22  1  0.96253000  0.25987000  0.36006000  1.0
  C  C23  1  0.74015000  0.03748000  0.13993000  1.0
  C  C24  1  0.03747000  0.74014000  0.63993000  1.0
  C  C25  1  0.25986000  0.96252000  0.86007000  1.0
  C  C26  1  0.09148000  0.23664000  0.43318000  1.0
  C  C27  1  0.76338000  0.90851000  0.06682000  1.0
  C  C28  1  0.90851000  0.76335000  0.56682000  1.0
  C  C29  1  0.23663000  0.09148000  0.93318000  1.0
  C  C30  1  0.36793000  0.46243000  0.39312000  1.0
  C  C31  1  0.53758000  0.63206000  0.10688000  1.0
  C  C32  1  0.63206000  0.53757000  0.60688000  1.0
  C  C33  1  0.46243000  0.36793000  0.89312000  1.0
  C  C34  1  0.43787000  0.59974000  0.39702000  1.0
  C  C35  1  0.40027000  0.56212000  0.10298000  1.0
  C  C36  1  0.56212000  0.40026000  0.60298000  1.0
  C  C37  1  0.59973000  0.43787000  0.89702000  1.0
  C  C38  1  0.36950000  0.74087000  0.45108000  1.0
  C  C39  1  0.25914000  0.63049000  0.04893000  1.0
  C  C40  1  0.63049000  0.25914000  0.54892000  1.0
  C  C41  1  0.74086000  0.36951000  0.95108000  1.0
  C  C42  1  0.57361000  0.84708000  0.40142000  1.0
  C  C43  1  0.15293000  0.42639000  0.09858000  1.0
  C  C44  1  0.42639000  0.15292000  0.59858000  1.0
  C  C45  1  0.84708000  0.57362000  0.90142000  1.0
  C  C46  1  0.64394000  0.70513000  0.34825000  1.0
  C  C47  1  0.29488000  0.35606000  0.15175000  1.0
  C  C48  1  0.35606000  0.29487000  0.65176000  1.0
  C  C49  1  0.70512000  0.64394000  0.84825000  1.0
  N  N50  1  0.22488000  0.30430000  0.40937000  1.0
  N  N51  1  0.69571000  0.77511000  0.09064000  1.0
  N  N52  1  0.77511000  0.69570000  0.59064000  1.0
  N  N53  1  0.30429000  0.22488000  0.90937000  1.0
  N  N54  1  0.35086000  0.22259000  0.35471000  1.0
  N  N55  1  0.77742000  0.64914000  0.14530000  1.0
  N  N56  1  0.64913000  0.77741000  0.64529000  1.0
  N  N57  1  0.22258000  0.35086000  0.85471000  1.0
  N  N58  1  0.44291000  0.32153000  0.34438000  1.0
  N  N59  1  0.67848000  0.55708000  0.15562000  1.0
  N  N60  1  0.55708000  0.67848000  0.65561000  1.0
  N  N61  1  0.32152000  0.44291000  0.84439000  1.0
  N  N62  1  0.22830000  0.45452000  0.43519000  1.0
  N  N63  1  0.54549000  0.77169000  0.06481000  1.0
  N  N64  1  0.77169000  0.54548000  0.56481000  1.0
  N  N65  1  0.45451000  0.22830000  0.93519000  1.0
  N  N66  1  0.43687000  0.86470000  0.45274000  1.0
  N  N67  1  0.13532000  0.56313000  0.04726000  1.0
  N  N68  1  0.56313000  0.13531000  0.54726000  1.0
  N  N69  1  0.86468000  0.43688000  0.95274000  1.0
  N  N70  1  0.57539000  0.58251000  0.34560000  1.0
  N  N71  1  0.41750000  0.42460000  0.15440000  1.0
  N  N72  1  0.42460000  0.41748000  0.65440000  1.0
  N  N73  1  0.58251000  0.57540000  0.84560000  1.0
  O  O74  1  0.81255000  0.14741000  0.12510000  1.0
  O  O75  1  0.85257000  0.18749000  0.37490000  1.0
  O  O76  1  0.18746000  0.85258000  0.87490000  1.0
  O  O77  1  0.14743000  0.81251000  0.62510000  1.0
  O  O78  1  0.65146000  0.03140000  0.20599000  1.0
  O  O79  1  0.96863000  0.34854000  0.29400000  1.0
  O  O80  1  0.34853000  0.96862000  0.79401000  1.0
  O  O81  1  0.03138000  0.65146000  0.70600000  1.0
