# generated using pymatgen
data_UH22C14(N2O5)2
_symmetry_space_group_name_H-M   'P 1'
_cell_length_a   9.95701000
_cell_length_b   10.04630000
_cell_length_c   10.18170000
_cell_angle_alpha   90.93240000
_cell_angle_beta   106.76600000
_cell_angle_gamma   90.39150000
_symmetry_Int_Tables_number   1
_chemical_formula_structural   UH22C14(N2O5)2
_chemical_formula_sum   'U2 H44 C28 N8 O20'
_cell_volume   974.99193121
_cell_formula_units_Z   2
loop_
 _symmetry_equiv_pos_site_id
 _symmetry_equiv_pos_as_xyz
  1  'x, y, z'
loop_
 _atom_site_type_symbol
 _atom_site_label
 _atom_site_symmetry_multiplicity
 _atom_site_fract_x
 _atom_site_fract_y
 _atom_site_fract_z
 _atom_site_occupancy
  U  U0  1  0.75176000  0.29428000  0.33824000  1.0
  U  U1  1  0.24824000  0.70572000  0.66176000  1.0
  H  H2  1  0.30951000  0.03539000  0.50890000  1.0
  H  H3  1  0.69049000  0.96461000  0.49110000  1.0
  H  H4  1  0.16690000  0.14388000  0.43970000  1.0
  H  H5  1  0.83311000  0.85612000  0.56030000  1.0
  H  H6  1  0.34117000  0.16702000  0.71286000  1.0
  H  H7  1  0.65883000  0.83299000  0.28714000  1.0
  H  H8  1  0.24443000  0.30055000  0.62083000  1.0
  H  H9  1  0.75557000  0.69945000  0.37917000  1.0
  H  H10  1  0.46293000  0.40570000  0.63892000  1.0
  H  H11  1  0.53707000  0.59430000  0.36108000  1.0
  H  H12  1  0.55708000  0.25683000  0.68267000  1.0
  H  H13  1  0.44292000  0.74317000  0.31733000  1.0
  H  H14  1  0.40702000  0.21898000  0.22010000  1.0
  H  H15  1  0.59298000  0.78102000  0.77990000  1.0
  H  H16  1  0.10782000  0.12957000  0.20428000  1.0
  H  H17  1  0.89218000  0.87043000  0.79572000  1.0
  H  H18  1  0.06038000  0.18000000  0.95755000  1.0
  H  H19  1  0.93962000  0.82000000  0.04245000  1.0
  H  H20  1  0.23932000  0.22074000  0.98204000  1.0
  H  H21  1  0.76068000  0.77925000  0.01796000  1.0
  H  H22  1  0.19098000  0.99018000  0.89046000  1.0
  H  H23  1  0.80902000  0.00982000  0.10954000  1.0
  H  H24  1  0.12334000  0.94681000  0.02687000  1.0
  H  H25  1  0.87666000  0.05319000  0.97313000  1.0
  H  H26  1  0.42654000  0.03330000  0.05422000  1.0
  H  H27  1  0.57346000  0.96670000  0.94578000  1.0
  H  H28  1  0.36894000  0.87095000  0.07765000  1.0
  H  H29  1  0.63106000  0.12905000  0.92235000  1.0
  H  H30  1  0.47433000  0.99334000  0.30144000  1.0
  H  H31  1  0.52567000  0.00666000  0.69856000  1.0
  H  H32  1  0.29585000  0.94837000  0.27879000  1.0
  H  H33  1  0.70415000  0.05163000  0.72121000  1.0
  H  H34  1  0.24833000  0.43013000  0.06163000  1.0
  H  H35  1  0.75167000  0.56987000  0.93837000  1.0
  H  H36  1  0.33268000  0.44652000  0.23920000  1.0
  H  H37  1  0.66732000  0.55348000  0.76080000  1.0
  H  H38  1  0.20284000  0.64673000  0.22571000  1.0
  H  H39  1  0.79716000  0.35327000  0.77429000  1.0
  H  H40  1  0.08486000  0.59747000  0.06692000  1.0
  H  H41  1  0.91514000  0.40253000  0.93308000  1.0
  H  H42  1  0.05956000  0.54236000  0.35214000  1.0
  H  H43  1  0.94044000  0.45764000  0.64786000  1.0
  H  H44  1  0.92454000  0.54604000  0.19584000  1.0
  H  H45  1  0.07546000  0.45396000  0.80416000  1.0
  C  C46  1  0.46302000  0.27833000  0.46884000  1.0
  C  C47  1  0.53698000  0.72167000  0.53116000  1.0
  C  C48  1  0.28003000  0.14016000  0.48974000  1.0
  C  C49  1  0.71997000  0.85984000  0.51026000  1.0
  C  C50  1  0.32563000  0.22742000  0.62120000  1.0
  C  C51  1  0.67437000  0.77258000  0.37880000  1.0
  C  C52  1  0.46074000  0.29867000  0.61473000  1.0
  C  C53  1  0.53926000  0.70133000  0.38527000  1.0
  C  C54  1  0.33392000  0.15823000  0.25710000  1.0
  C  C55  1  0.66608000  0.84177000  0.74290000  1.0
  C  C56  1  0.18361000  0.18994000  0.17006000  1.0
  C  C57  1  0.81639000  0.81006000  0.82994000  1.0
  C  C58  1  0.16763000  0.15683000  0.01864000  1.0
  C  C59  1  0.83237000  0.84317000  0.98136000  1.0
  C  C60  1  0.20083000  0.01084000  0.99903000  1.0
  C  C61  1  0.79917000  0.98916000  0.00097000  1.0
  C  C62  1  0.34788000  0.97708000  0.08869000  1.0
  C  C63  1  0.65212000  0.02292000  0.91131000  1.0
  C  C64  1  0.36596000  0.01130000  0.23967000  1.0
  C  C65  1  0.63404000  0.98870000  0.76033000  1.0
  C  C66  1  0.04041000  0.36424000  0.23484000  1.0
  C  C67  1  0.95959000  0.63576000  0.76516000  1.0
  C  C68  1  0.22959000  0.44224000  0.16205000  1.0
  C  C69  1  0.77042000  0.55776000  0.83795000  1.0
  C  C70  1  0.13856000  0.56349000  0.17032000  1.0
  C  C71  1  0.86144000  0.43651000  0.82967000  1.0
  C  C72  1  0.03253000  0.51371000  0.24274000  1.0
  C  C73  1  0.96747000  0.48629000  0.75726000  1.0
  N  N74  1  0.59375000  0.35854000  0.05134000  1.0
  N  N75  1  0.40625000  0.64146000  0.94866000  1.0
  N  N76  1  0.90534000  0.17386000  0.60446000  1.0
  N  N77  1  0.09466000  0.82614000  0.39554000  1.0
  N  N78  1  0.35844000  0.19692000  0.40099000  1.0
  N  N79  1  0.64156000  0.80308000  0.59901000  1.0
  N  N80  1  0.14798000  0.32848000  0.18841000  1.0
  N  N81  1  0.85202000  0.67151000  0.81159000  1.0
  O  O82  1  0.80348000  0.46328000  0.39598000  1.0
  O  O83  1  0.19652000  0.53672000  0.60402000  1.0
  O  O84  1  0.70028000  0.12480000  0.28257000  1.0
  O  O85  1  0.29972000  0.87520000  0.71743000  1.0
  O  O86  1  0.53799000  0.35744000  0.15086000  1.0
  O  O87  1  0.46201000  0.64256000  0.84914000  1.0
  O  O88  1  0.72835000  0.34865000  0.08923000  1.0
  O  O89  1  0.27165000  0.65135000  0.91077000  1.0
  O  O90  1  0.52418000  0.36599000  0.93086000  1.0
  O  O91  1  0.47582000  0.63401000  0.06914000  1.0
  O  O92  1  0.96490000  0.20215000  0.51194000  1.0
  O  O93  1  0.03510000  0.79785000  0.48806000  1.0
  O  O94  1  0.77595000  0.21082000  0.57637000  1.0
  O  O95  1  0.22405000  0.78918000  0.42363000  1.0
  O  O96  1  0.96505000  0.11688000  0.71064000  1.0
  O  O97  1  0.03495000  0.88312000  0.28935000  1.0
  O  O98  1  0.55143000  0.33142000  0.41676000  1.0
  O  O99  1  0.44857000  0.66858000  0.58324000  1.0
  O  O100  1  0.96101000  0.28068000  0.26832000  1.0
  O  O101  1  0.03900000  0.71932000  0.73169000  1.0
