# generated using pymatgen
data_CoH10(C3N7)2
_symmetry_space_group_name_H-M   'P 1'
_cell_length_a   6.19651000
_cell_length_b   9.53572000
_cell_length_c   10.64540000
_cell_angle_alpha   85.85680000
_cell_angle_beta   88.85720000
_cell_angle_gamma   89.04060000
_symmetry_Int_Tables_number   1
_chemical_formula_structural   CoH10(C3N7)2
_chemical_formula_sum   'Co2 H20 C12 N28'
_cell_volume   627.17482545
_cell_formula_units_Z   2
loop_
 _symmetry_equiv_pos_site_id
 _symmetry_equiv_pos_as_xyz
  1  'x, y, z'
loop_
 _atom_site_type_symbol
 _atom_site_label
 _atom_site_symmetry_multiplicity
 _atom_site_fract_x
 _atom_site_fract_y
 _atom_site_fract_z
 _atom_site_occupancy
  Co  Co0  1  0.00000000  0.50000000  0.50000000  1.0
  Co  Co1  1  0.50000000  0.00000000  0.50000000  1.0
  H  H2  1  0.52278000  0.49398000  0.35948000  1.0
  H  H3  1  0.02020000  0.00388000  0.63213000  1.0
  H  H4  1  0.47722000  0.50601000  0.64051000  1.0
  H  H5  1  0.97979000  0.99612000  0.36787000  1.0
  H  H6  1  0.43068000  0.73440000  0.05542000  1.0
  H  H7  1  0.93850000  0.76833000  0.93834000  1.0
  H  H8  1  0.56932000  0.26559000  0.94457000  1.0
  H  H9  1  0.06152000  0.23168000  0.06166000  1.0
  H  H10  1  0.27344000  0.65051000  0.18025000  1.0
  H  H11  1  0.78245000  0.85834000  0.81784000  1.0
  H  H12  1  0.72656000  0.34948000  0.81974000  1.0
  H  H13  1  0.21756000  0.14166000  0.18218000  1.0
  H  H14  1  0.25270000  0.51795000  0.99305000  1.0
  H  H15  1  0.75294000  0.98347000  0.00917000  1.0
  H  H16  1  0.74730000  0.48204000  0.00694000  1.0
  H  H17  1  0.24707000  0.01653000  0.99084000  1.0
  H  H18  1  0.38989000  0.41477000  0.11164000  1.0
  H  H19  1  0.89148000  0.08941000  0.89141000  1.0
  H  H20  1  0.61011000  0.58523000  0.88836000  1.0
  H  H21  1  0.10853000  0.91059000  0.10859000  1.0
  C  C22  1  0.64107000  0.55997000  0.30830000  1.0
  C  C23  1  0.14425000  0.94272000  0.68294000  1.0
  C  C24  1  0.35892000  0.44003000  0.69170000  1.0
  C  C25  1  0.85575000  0.05728000  0.31706000  1.0
  C  C26  1  0.41670000  0.63939000  0.11921000  1.0
  C  C27  1  0.92373000  0.86563000  0.87750000  1.0
  C  C28  1  0.58330000  0.36060000  0.88078000  1.0
  C  C29  1  0.07626000  0.13437000  0.12251000  1.0
  C  C30  1  0.40430000  0.50844000  0.04536000  1.0
  C  C31  1  0.90603000  0.99390000  0.95538000  1.0
  C  C32  1  0.59570000  0.49156000  0.95463000  1.0
  C  C33  1  0.09397000  0.00610000  0.04462000  1.0
  N  N34  1  0.23654000  0.64445000  0.47853000  1.0
  N  N35  1  0.73686000  0.86401000  0.51924000  1.0
  N  N36  1  0.76346000  0.35555000  0.52147000  1.0
  N  N37  1  0.26314000  0.13599000  0.48076000  1.0
  N  N38  1  0.27086000  0.75682000  0.42777000  1.0
  N  N39  1  0.76039000  0.74892000  0.56834000  1.0
  N  N40  1  0.72914000  0.24318000  0.57223000  1.0
  N  N41  1  0.23961000  0.25108000  0.43167000  1.0
  N  N42  1  0.31639000  0.86834000  0.37780000  1.0
  N  N43  1  0.80481000  0.63579000  0.61474000  1.0
  N  N44  1  0.68361000  0.13166000  0.62220000  1.0
  N  N45  1  0.19519000  0.36421000  0.38526000  1.0
  N  N46  1  0.84266000  0.58354000  0.34131000  1.0
  N  N47  1  0.35031000  0.92310000  0.64842000  1.0
  N  N48  1  0.15733000  0.41646000  0.65869000  1.0
  N  N49  1  0.64969000  0.07690000  0.35158000  1.0
  N  N50  1  0.92914000  0.67345000  0.24986000  1.0
  N  N51  1  0.44399000  0.83913000  0.74138000  1.0
  N  N52  1  0.07086000  0.32654000  0.75014000  1.0
  N  N53  1  0.55602000  0.16088000  0.25862000  1.0
  N  N54  1  0.78807000  0.70464000  0.16290000  1.0
  N  N55  1  0.30299000  0.80774000  0.83036000  1.0
  N  N56  1  0.21193000  0.29535000  0.83710000  1.0
  N  N57  1  0.69702000  0.19227000  0.16964000  1.0
  N  N58  1  0.60614000  0.63484000  0.19874000  1.0
  N  N59  1  0.11472000  0.87120000  0.79481000  1.0
  N  N60  1  0.39386000  0.36516000  0.80125000  1.0
  N  N61  1  0.88528000  0.12881000  0.20519000  1.0
