# generated using pymatgen
data_V2CuH9C10(NO2)3
_symmetry_space_group_name_H-M   'P 1'
_cell_length_a   7.26733000
_cell_length_b   10.49770000
_cell_length_c   10.63410000
_cell_angle_alpha   110.23100000
_cell_angle_beta   109.95000000
_cell_angle_gamma   90.00070000
_symmetry_Int_Tables_number   1
_chemical_formula_structural   V2CuH9C10(NO2)3
_chemical_formula_sum   'V4 Cu2 H18 C20 N6 O12'
_cell_volume   709.11370244
_cell_formula_units_Z   2
loop_
 _symmetry_equiv_pos_site_id
 _symmetry_equiv_pos_as_xyz
  1  'x, y, z'
loop_
 _atom_site_type_symbol
 _atom_site_label
 _atom_site_symmetry_multiplicity
 _atom_site_fract_x
 _atom_site_fract_y
 _atom_site_fract_z
 _atom_site_occupancy
  V  V0  1  0.51749000  0.30642000  0.98900000  1.0
  V  V1  1  0.52878000  0.69376000  0.01143000  1.0
  V  V2  1  0.14592000  0.49993000  0.99993000  1.0
  V  V3  1  0.68786000  0.00004000  0.00021000  1.0
  Cu  Cu4  1  0.88049000  0.58700000  0.25490000  1.0
  Cu  Cu5  1  0.62607000  0.41313000  0.74528000  1.0
  H  H6  1  0.16248000  0.75710000  0.70599000  1.0
  H  H7  1  0.45684000  0.24289000  0.29402000  1.0
  H  H8  1  0.15632000  0.56763000  0.75599000  1.0
  H  H9  1  0.40015000  0.43227000  0.24398000  1.0
  H  H10  1  0.12527000  0.31366000  0.66857000  1.0
  H  H11  1  0.45625000  0.68621000  0.33121000  1.0
  H  H12  1  0.01813000  0.18037000  0.39703000  1.0
  H  H13  1  0.62045000  0.81964000  0.60272000  1.0
  H  H14  1  0.93643000  0.30970000  0.23609000  1.0
  H  H15  1  0.69986000  0.69041000  0.76376000  1.0
  H  H16  1  0.30615000  0.96333000  0.73290000  1.0
  H  H17  1  0.57345000  0.03670000  0.26700000  1.0
  H  H18  1  0.36440000  0.11764000  0.61605000  1.0
  H  H19  1  0.74844000  0.88229000  0.38365000  1.0
  H  H20  1  0.22696000  0.03246000  0.34027000  1.0
  H  H21  1  0.88667000  0.96740000  0.65945000  1.0
  H  H22  1  0.03543000  0.80189000  0.20477000  1.0
  H  H23  1  0.83066000  0.19795000  0.79513000  1.0
  C  C24  1  0.07151000  0.57283000  0.54276000  1.0
  C  C25  1  0.52867000  0.42716000  0.45721000  1.0
  C  C26  1  0.11146000  0.50678000  0.64176000  1.0
  C  C27  1  0.46946000  0.49315000  0.35818000  1.0
  C  C28  1  0.09372000  0.36527000  0.59198000  1.0
  C  C29  1  0.50132000  0.63466000  0.40785000  1.0
  C  C30  1  0.03532000  0.29150000  0.44391000  1.0
  C  C31  1  0.59090000  0.70851000  0.55591000  1.0
  C  C32  1  0.98941000  0.36306000  0.35210000  1.0
  C  C33  1  0.63690000  0.63700000  0.64777000  1.0
  C  C34  1  0.13798000  0.80065000  0.53041000  1.0
  C  C35  1  0.60769000  0.19934000  0.46957000  1.0
  C  C36  1  0.24725000  0.93117000  0.61605000  1.0
  C  C37  1  0.63132000  0.06881000  0.38384000  1.0
  C  C38  1  0.28078000  0.01634000  0.54959000  1.0
  C  C39  1  0.73131000  0.98362000  0.45024000  1.0
  C  C40  1  0.20750000  0.97022000  0.39898000  1.0
  C  C41  1  0.80856000  0.02970000  0.60082000  1.0
  C  C42  1  0.09948000  0.84160000  0.32157000  1.0
  C  C43  1  0.77794000  0.15830000  0.67831000  1.0
  N  N44  1  0.06262000  0.75916000  0.38613000  1.0
  N  N45  1  0.67655000  0.24079000  0.61387000  1.0
  N  N46  1  0.10616000  0.71487000  0.59670000  1.0
  N  N47  1  0.50968000  0.28513000  0.40332000  1.0
  N  N48  1  0.00283000  0.50130000  0.39980000  1.0
  N  N49  1  0.60290000  0.49875000  0.60018000  1.0
  O  O50  1  0.70439000  0.69734000  0.16504000  1.0
  O  O51  1  0.54022000  0.30295000  0.83555000  1.0
  O  O52  1  0.28031000  0.35219000  0.98642000  1.0
  O  O53  1  0.29407000  0.64756000  0.01356000  1.0
  O  O54  1  0.08466000  0.53697000  0.14282000  1.0
  O  O55  1  0.94230000  0.46296000  0.85688000  1.0
  O  O56  1  0.53997000  0.14441000  0.00471000  1.0
  O  O57  1  0.53539000  0.85594000  0.99609000  1.0
  O  O58  1  0.74656000  0.95350000  0.85650000  1.0
  O  O59  1  0.89033000  0.04632000  0.14367000  1.0
  O  O60  1  0.68796000  0.42450000  0.13258000  1.0
  O  O61  1  0.55661000  0.57591000  0.86804000  1.0
