# generated using pymatgen
data_Zn2H32C41(NO3)4
_symmetry_space_group_name_H-M   'P 1'
_cell_length_a   9.25764000
_cell_length_b   13.66930000
_cell_length_c   20.25110000
_cell_angle_alpha   86.68950000
_cell_angle_beta   80.22960000
_cell_angle_gamma   70.21620000
_symmetry_Int_Tables_number   1
_chemical_formula_structural   Zn2H32C41(NO3)4
_chemical_formula_sum   'Zn4 H64 C82 N8 O24'
_cell_volume   2376.44995101
_cell_formula_units_Z   2
loop_
 _symmetry_equiv_pos_site_id
 _symmetry_equiv_pos_as_xyz
  1  'x, y, z'
loop_
 _atom_site_type_symbol
 _atom_site_label
 _atom_site_symmetry_multiplicity
 _atom_site_fract_x
 _atom_site_fract_y
 _atom_site_fract_z
 _atom_site_occupancy
  Zn  Zn0  1  0.60473000  0.73866000  0.01057000  1.0
  Zn  Zn1  1  0.15672000  0.73845000  0.48946000  1.0
  Zn  Zn2  1  0.39526000  0.26133000  0.98943000  1.0
  Zn  Zn3  1  0.84328000  0.26155000  0.51054000  1.0
  H  H4  1  0.37804000  0.63663000  0.05357000  1.0
  H  H5  1  0.48533000  0.63645000  0.44668000  1.0
  H  H6  1  0.62195000  0.36337000  0.94644000  1.0
  H  H7  1  0.51468000  0.36355000  0.55332000  1.0
  H  H8  1  0.35799000  0.48315000  0.12380000  1.0
  H  H9  1  0.65903000  0.48313000  0.37638000  1.0
  H  H10  1  0.64200000  0.51685000  0.87621000  1.0
  H  H11  1  0.34098000  0.51687000  0.62362000  1.0
  H  H12  1  0.85107000  0.39975000  0.13003000  1.0
  H  H13  1  0.24948000  0.39964000  0.36993000  1.0
  H  H14  1  0.14894000  0.60025000  0.86997000  1.0
  H  H15  1  0.75052000  0.60036000  0.63007000  1.0
  H  H16  1  0.85092000  0.55202000  0.05954000  1.0
  H  H17  1  0.09726000  0.55170000  0.44050000  1.0
  H  H18  1  0.14907000  0.44798000  0.94046000  1.0
  H  H19  1  0.90274000  0.44830000  0.55950000  1.0
  H  H20  1  0.77084000  0.32214000  0.22658000  1.0
  H  H21  1  0.40733000  0.32224000  0.27332000  1.0
  H  H22  1  0.22916000  0.67786000  0.77342000  1.0
  H  H23  1  0.59268000  0.67776000  0.72667000  1.0
  H  H24  1  0.79462000  0.23466000  0.15911000  1.0
  H  H25  1  0.47079000  0.23486000  0.34090000  1.0
  H  H26  1  0.20538000  0.76534000  0.84089000  1.0
  H  H27  1  0.52921000  0.76514000  0.65910000  1.0
  H  H28  1  0.50737000  0.11112000  0.24264000  1.0
  H  H29  1  0.88149000  0.11096000  0.25752000  1.0
  H  H30  1  0.49263000  0.88888000  0.75736000  1.0
  H  H31  1  0.11851000  0.88904000  0.74249000  1.0
  H  H32  1  0.52533000  0.19255000  0.17103000  1.0
  H  H33  1  0.78219000  0.19245000  0.32908000  1.0
  H  H34  1  0.47467000  0.80744000  0.82897000  1.0
  H  H35  1  0.21781000  0.80755000  0.67092000  1.0
  H  H36  1  0.92628000  0.88089000  0.14729000  1.0
  H  H37  1  0.69261000  0.88075000  0.35285000  1.0
  H  H38  1  0.07372000  0.11911000  0.85271000  1.0
  H  H39  1  0.30738000  0.11925000  0.64715000  1.0
  H  H40  1  0.88675000  0.74916000  0.07805000  1.0
  H  H41  1  0.86389000  0.74896000  0.42209000  1.0
  H  H42  1  0.11325000  0.25084000  0.92195000  1.0
  H  H43  1  0.13611000  0.25104000  0.57791000  1.0
  H  H44  1  0.44577000  0.94401000  0.05538000  1.0
  H  H45  1  0.11023000  0.94375000  0.44465000  1.0
  H  H46  1  0.55424000  0.05599000  0.94462000  1.0
  H  H47  1  0.88976000  0.05625000  0.55535000  1.0
  H  H48  1  0.46593000  0.08518000  0.12075000  1.0
  H  H49  1  0.94876000  0.08506000  0.37939000  1.0
  H  H50  1  0.53408000  0.91481000  0.87924000  1.0
  H  H51  1  0.05124000  0.91494000  0.62061000  1.0
  H  H52  1  0.78009000  0.84026000  0.81156000  1.0
  H  H53  1  0.88014000  0.84035000  0.68849000  1.0
  H  H54  1  0.21991000  0.15974000  0.18844000  1.0
  H  H55  1  0.11986000  0.15965000  0.31151000  1.0
  H  H56  1  0.95373000  0.50674000  0.81257000  1.0
  H  H57  1  0.03902000  0.50686000  0.68743000  1.0
  H  H58  1  0.04626000  0.49326000  0.18743000  1.0
  H  H59  1  0.96097000  0.49314000  0.31257000  1.0
  H  H60  1  0.02592000  0.84653000  0.93291000  1.0
  H  H61  1  0.62758000  0.84641000  0.56701000  1.0
  H  H62  1  0.97408000  0.15347000  0.06710000  1.0
  H  H63  1  0.37242000  0.15359000  0.43299000  1.0
  H  H64  1  0.20919000  0.99315000  0.06398000  1.0
  H  H65  1  0.29730000  0.99340000  0.43614000  1.0
  H  H66  1  0.79080000  0.00685000  0.93602000  1.0
  H  H67  1  0.70270000  0.00660000  0.56386000  1.0
  C  C68  1  0.47790000  0.58335000  0.07364000  1.0
  C  C69  1  0.43884000  0.58318000  0.42654000  1.0
  C  C70  1  0.52209000  0.41665000  0.92636000  1.0
  C  C71  1  0.56116000  0.41682000  0.57346000  1.0
  C  C72  1  0.46739000  0.49872000  0.11216000  1.0
  C  C73  1  0.53403000  0.49868000  0.38794000  1.0
  C  C74  1  0.53261000  0.50128000  0.88784000  1.0
  C  C75  1  0.46598000  0.50132000  0.61206000  1.0
  C  C76  1  0.60101000  0.43195000  0.13551000  1.0
  C  C77  1  0.46726000  0.43193000  0.36449000  1.0
  C  C78  1  0.39899000  0.56805000  0.86449000  1.0
  C  C79  1  0.53274000  0.56807000  0.63551000  1.0
  C  C80  1  0.74196000  0.45083000  0.11634000  1.0
  C  C81  1  0.30750000  0.45070000  0.38366000  1.0
  C  C82  1  0.25804000  0.54917000  0.88366000  1.0
  C  C83  1  0.69250000  0.54930000  0.61633000  1.0
  C  C84  1  0.74232000  0.53707000  0.07693000  1.0
  C  C85  1  0.22082000  0.53681000  0.42315000  1.0
  C  C86  1  0.25768000  0.46293000  0.92307000  1.0
  C  C87  1  0.77918000  0.46319000  0.57684000  1.0
  C  C88  1  0.71286000  0.28088000  0.20096000  1.0
  C  C89  1  0.50646000  0.28099000  0.29903000  1.0
  C  C90  1  0.28714000  0.71912000  0.79904000  1.0
  C  C91  1  0.49354000  0.71901000  0.70097000  1.0
  C  C92  1  0.64415000  0.21187000  0.25002000  1.0
  C  C93  1  0.35585000  0.78812000  0.74998000  1.0
  C  C94  1  0.58617000  0.14495000  0.21004000  1.0
  C  C95  1  0.76889000  0.14488000  0.29008000  1.0
  C  C96  1  0.41383000  0.85505000  0.78996000  1.0
  C  C97  1  0.23110000  0.85512000  0.70992000  1.0
  C  C98  1  0.69716000  0.99223000  0.14210000  1.0
  C  C99  1  0.81042000  0.99210000  0.35803000  1.0
  C  C100  1  0.30284000  0.00777000  0.85790000  1.0
  C  C101  1  0.18958000  0.00790000  0.64197000  1.0
  C  C102  1  0.81749000  0.89666000  0.12828000  1.0
  C  C103  1  0.78566000  0.89651000  0.37185000  1.0
  C  C104  1  0.18252000  0.10333000  0.87172000  1.0
  C  C105  1  0.21433000  0.10349000  0.62815000  1.0
  C  C106  1  0.79550000  0.82385000  0.08986000  1.0
  C  C107  1  0.88053000  0.82365000  0.41026000  1.0
  C  C108  1  0.20451000  0.17615000  0.91014000  1.0
  C  C109  1  0.11946000  0.17635000  0.58975000  1.0
  C  C110  1  0.54961000  0.93359000  0.07718000  1.0
  C  C111  1  0.01669000  0.93339000  0.42290000  1.0
  C  C112  1  0.45040000  0.06641000  0.92281000  1.0
  C  C113  1  0.98331000  0.06661000  0.57711000  1.0
  C  C114  1  0.56060000  0.01108000  0.11509000  1.0
  C  C115  1  0.92817000  0.01093000  0.38504000  1.0
  C  C116  1  0.43941000  0.98892000  0.88491000  1.0
  C  C117  1  0.07182000  0.98907000  0.61497000  1.0
  C  C118  1  0.80476000  0.67215000  0.89330000  1.0
  C  C119  1  0.02342000  0.67224000  0.60678000  1.0
  C  C120  1  0.19523000  0.32785000  0.10670000  1.0
  C  C121  1  0.97658000  0.32776000  0.39322000  1.0
  C  C122  1  0.86071000  0.67338000  0.81924000  1.0
  C  C123  1  0.96602000  0.67345000  0.68083000  1.0
  C  C124  1  0.13929000  0.32662000  0.18076000  1.0
  C  C125  1  0.03398000  0.32655000  0.31917000  1.0
  C  C126  1  0.83899000  0.76748000  0.78421000  1.0
  C  C127  1  0.89391000  0.76754000  0.71584000  1.0
  C  C128  1  0.16101000  0.23252000  0.21579000  1.0
  C  C129  1  0.10609000  0.23246000  0.28416000  1.0
  C  C130  1  0.93574000  0.57925000  0.78449000  1.0
  C  C131  1  0.98473000  0.57930000  0.71555000  1.0
  C  C132  1  0.06426000  0.42075000  0.21551000  1.0
  C  C133  1  0.01527000  0.42070000  0.28445000  1.0
  C  C134  1  0.27549000  0.81564000  0.99274000  1.0
  C  C135  1  0.40872000  0.81566000  0.50728000  1.0
  C  C136  1  0.72451000  0.18436000  0.00726000  1.0
  C  C137  1  0.59127000  0.18434000  0.49272000  1.0
  C  C138  1  0.13196000  0.91060000  0.99773000  1.0
  C  C139  1  0.45723000  0.91064000  0.50230000  1.0
  C  C140  1  0.86804000  0.08941000  0.00227000  1.0
  C  C141  1  0.54276000  0.08937000  0.49769000  1.0
  C  C142  1  0.01355000  0.91450000  0.96184000  1.0
  C  C143  1  0.57199000  0.91443000  0.53809000  1.0
  C  C144  1  0.98646000  0.08550000  0.03816000  1.0
  C  C145  1  0.42800000  0.08557000  0.46191000  1.0
  C  C146  1  0.11695000  0.99671000  0.03606000  1.0
  C  C147  1  0.38609000  0.99684000  0.46402000  1.0
  C  C148  1  0.88306000  0.00329000  0.96394000  1.0
  C  C149  1  0.61390000  0.00316000  0.53598000  1.0
  N  N150  1  0.61273000  0.60404000  0.05686000  1.0
  N  N151  1  0.28334000  0.60379000  0.44326000  1.0
  N  N152  1  0.38727000  0.39596000  0.94314000  1.0
  N  N153  1  0.71666000  0.39621000  0.55673000  1.0
  N  N154  1  0.66255000  0.84043000  0.06494000  1.0
  N  N155  1  0.99695000  0.84019000  0.43514000  1.0
  N  N156  1  0.33745000  0.15957000  0.93506000  1.0
  N  N157  1  0.00305000  0.15981000  0.56487000  1.0
  O  O158  1  0.58184000  0.35395000  0.17552000  1.0
  O  O159  1  0.56445000  0.35410000  0.32440000  1.0
  O  O160  1  0.41816000  0.64605000  0.82448000  1.0
  O  O161  1  0.43555000  0.64590000  0.67560000  1.0
  O  O162  1  0.72122000  0.06095000  0.18041000  1.0
  O  O163  1  0.71762000  0.06092000  0.31976000  1.0
  O  O164  1  0.27878000  0.93905000  0.81959000  1.0
  O  O165  1  0.28238000  0.93908000  0.68024000  1.0
  O  O166  1  0.68892000  0.75435000  0.91616000  1.0
  O  O167  1  0.05757000  0.75432000  0.58397000  1.0
  O  O168  1  0.31108000  0.24565000  0.08384000  1.0
  O  O169  1  0.94244000  0.24567000  0.41603000  1.0
  O  O170  1  0.86752000  0.59619000  0.92805000  1.0
  O  O171  1  0.03636000  0.59640000  0.57199000  1.0
  O  O172  1  0.13245000  0.40380000  0.07194000  1.0
  O  O173  1  0.96363000  0.40361000  0.42801000  1.0
  O  O174  1  0.38186000  0.82370000  0.02438000  1.0
  O  O175  1  0.29464000  0.82354000  0.47545000  1.0
  O  O176  1  0.61814000  0.17631000  0.97562000  1.0
  O  O177  1  0.70536000  0.17646000  0.52454000  1.0
  O  O178  1  0.28550000  0.73831000  0.96017000  1.0
  O  O179  1  0.47586000  0.73842000  0.53998000  1.0
  O  O180  1  0.71451000  0.26169000  0.03983000  1.0
  O  O181  1  0.52414000  0.26158000  0.46001000  1.0
