# generated using pymatgen
data_TbH5C6N2O7
_symmetry_space_group_name_H-M   'P 1'
_cell_length_a   9.70415000
_cell_length_b   9.70412000
_cell_length_c   9.70413000
_cell_angle_alpha   79.56890000
_cell_angle_beta   79.56880000
_cell_angle_gamma   79.56830000
_symmetry_Int_Tables_number   1
_chemical_formula_structural   TbH5C6N2O7
_chemical_formula_sum   'Tb3 H15 C18 N6 O21'
_cell_volume   873.43515465
_cell_formula_units_Z   3
loop_
 _symmetry_equiv_pos_site_id
 _symmetry_equiv_pos_as_xyz
  1  'x, y, z'
loop_
 _atom_site_type_symbol
 _atom_site_label
 _atom_site_symmetry_multiplicity
 _atom_site_fract_x
 _atom_site_fract_y
 _atom_site_fract_z
 _atom_site_occupancy
  Tb  Tb0  1  0.00910000  0.50000000  0.99089000  1.0
  Tb  Tb1  1  0.50000000  0.99089000  0.00910000  1.0
  Tb  Tb2  1  0.99089000  0.00910000  0.50000000  1.0
  H  H3  1  0.58749000  0.41250000  0.00000000  1.0
  H  H4  1  0.41251000  0.00000000  0.58749000  1.0
  H  H5  1  0.00000000  0.58749000  0.41250000  1.0
  H  H6  1  0.85488000  0.76569000  0.07490000  1.0
  H  H7  1  0.76569000  0.07490000  0.85487000  1.0
  H  H8  1  0.07491000  0.85488000  0.76569000  1.0
  H  H9  1  0.14512000  0.92509000  0.23430000  1.0
  H  H10  1  0.23430000  0.14512000  0.92509000  1.0
  H  H11  1  0.92509000  0.23430000  0.14512000  1.0
  H  H12  1  0.02385000  0.76730000  0.06333000  1.0
  H  H13  1  0.76730000  0.06333000  0.02385000  1.0
  H  H14  1  0.06333000  0.02385000  0.76730000  1.0
  H  H15  1  0.97614000  0.93667000  0.23269000  1.0
  H  H16  1  0.23270000  0.97614000  0.93667000  1.0
  H  H17  1  0.93667000  0.23269000  0.97614000  1.0
  C  C18  1  0.66575000  0.66961000  0.00153000  1.0
  C  C19  1  0.66961000  0.00154000  0.66575000  1.0
  C  C20  1  0.00154000  0.66575000  0.66961000  1.0
  C  C21  1  0.33425000  0.99846000  0.33039000  1.0
  C  C22  1  0.33039000  0.33424000  0.99846000  1.0
  C  C23  1  0.99846000  0.33039000  0.33424000  1.0
  C  C24  1  0.51940000  0.63872000  0.99865000  1.0
  C  C25  1  0.63872000  0.99866000  0.51939000  1.0
  C  C26  1  0.99866000  0.51939000  0.63872000  1.0
  C  C27  1  0.48060000  0.00134000  0.36128000  1.0
  C  C28  1  0.36128000  0.48060000  0.00134000  1.0
  C  C29  1  0.00134000  0.36128000  0.48060000  1.0
  C  C30  1  0.50000000  0.49999000  0.00000000  1.0
  C  C31  1  0.49999000  0.00000000  0.50000000  1.0
  C  C32  1  0.00000000  0.50000000  0.49999000  1.0
  C  C33  1  0.27811000  0.72188000  0.00000000  1.0
  C  C34  1  0.72188000  0.00000000  0.27811000  1.0
  C  C35  1  0.00000000  0.27811000  0.72188000  1.0
  N  N36  1  0.41346000  0.74834000  0.00000000  1.0
  N  N37  1  0.74834000  0.00000000  0.41346000  1.0
  N  N38  1  0.00000000  0.41346000  0.74834000  1.0
  N  N39  1  0.58654000  0.99999000  0.25166000  1.0
  N  N40  1  0.25166000  0.58653000  0.99999000  1.0
  N  N41  1  0.99999000  0.25166000  0.58653000  1.0
  O  O42  1  0.76869000  0.57424000  0.97374000  1.0
  O  O43  1  0.57423000  0.97375000  0.76869000  1.0
  O  O44  1  0.97375000  0.76869000  0.57424000  1.0
  O  O45  1  0.23131000  0.02625000  0.42576000  1.0
  O  O46  1  0.42576000  0.23131000  0.02625000  1.0
  O  O47  1  0.02625000  0.42576000  0.23131000  1.0
  O  O48  1  0.67400000  0.78907000  0.03486000  1.0
  O  O49  1  0.78907000  0.03486000  0.67400000  1.0
  O  O50  1  0.03487000  0.67401000  0.78907000  1.0
  O  O51  1  0.32599000  0.96513000  0.21093000  1.0
  O  O52  1  0.21093000  0.32599000  0.96513000  1.0
  O  O53  1  0.96513000  0.21093000  0.32599000  1.0
  O  O54  1  0.17549000  0.82450000  0.00000000  1.0
  O  O55  1  0.82450000  1.00000000  0.17549000  1.0
  O  O56  1  0.99999000  0.17549000  0.82450000  1.0
  O  O57  1  0.94605000  0.70759000  0.09378000  1.0
  O  O58  1  0.70759000  0.09378000  0.94605000  1.0
  O  O59  1  0.09378000  0.94605000  0.70759000  1.0
  O  O60  1  0.05395000  0.90621000  0.29240000  1.0
  O  O61  1  0.29241000  0.05394000  0.90621000  1.0
  O  O62  1  0.90621000  0.29241000  0.05394000  1.0
