# generated using pymatgen
data_ZnH28C32(NO2)2
_symmetry_space_group_name_H-M   'P 1'
_cell_length_a   9.35359000
_cell_length_b   10.06570000
_cell_length_c   15.30900000
_cell_angle_alpha   97.45980000
_cell_angle_beta   105.44100000
_cell_angle_gamma   103.76200000
_symmetry_Int_Tables_number   1
_chemical_formula_structural   ZnH28C32(NO2)2
_chemical_formula_sum   'Zn2 H56 C64 N4 O8'
_cell_volume   1320.40436420
_cell_formula_units_Z   2
loop_
 _symmetry_equiv_pos_site_id
 _symmetry_equiv_pos_as_xyz
  1  'x, y, z'
loop_
 _atom_site_type_symbol
 _atom_site_label
 _atom_site_symmetry_multiplicity
 _atom_site_fract_x
 _atom_site_fract_y
 _atom_site_fract_z
 _atom_site_occupancy
  Zn  Zn0  1  0.65479000  0.87917000  0.54115000  1.0
  Zn  Zn1  1  0.34522000  0.12083000  0.45885000  1.0
  H  H2  1  0.51907000  0.66969000  0.36536000  1.0
  H  H3  1  0.48093000  0.33031000  0.63464000  1.0
  H  H4  1  0.56692000  0.60251000  0.21489000  1.0
  H  H5  1  0.43308000  0.39749000  0.78511000  1.0
  H  H6  1  0.94166000  0.98764000  0.29606000  1.0
  H  H7  1  0.05834000  0.01236000  0.70394000  1.0
  H  H8  1  0.87871000  0.03555000  0.44073000  1.0
  H  H9  1  0.12129000  0.96445000  0.55927000  1.0
  H  H10  1  0.70647000  0.68211000  0.09800000  1.0
  H  H11  1  0.29353000  0.31788000  0.90200000  1.0
  H  H12  1  0.03838000  0.83395000  0.22117000  1.0
  H  H13  1  0.96162000  0.16605000  0.77883000  1.0
  H  H14  1  0.19673000  0.63736000  0.81342000  1.0
  H  H15  1  0.80327000  0.36264000  0.18658000  1.0
  H  H16  1  0.36829000  0.94013000  0.91891000  1.0
  H  H17  1  0.63171000  0.05987000  0.08109000  1.0
  H  H18  1  0.37770000  0.62910000  0.75102000  1.0
  H  H19  1  0.62230000  0.37090000  0.24898000  1.0
  H  H20  1  0.50537000  0.65678000  0.62783000  1.0
  H  H21  1  0.49463000  0.34321000  0.37216000  1.0
  H  H22  1  0.63459000  0.08734000  0.70505000  1.0
  H  H23  1  0.36540000  0.91266000  0.29495000  1.0
  H  H24  1  0.50988000  0.07931000  0.83014000  1.0
  H  H25  1  0.49012000  0.92068000  0.16985000  1.0
  H  H26  1  0.12171000  0.65233000  0.22320000  1.0
  H  H27  1  0.87828000  0.34767000  0.77680000  1.0
  H  H28  1  0.30704000  0.67880000  0.20716000  1.0
  H  H29  1  0.69296000  0.32120000  0.79284000  1.0
  H  H30  1  0.16071000  0.52016000  0.15369000  1.0
  H  H31  1  0.83929000  0.47984000  0.84631000  1.0
  H  H32  1  0.43158000  0.67804000  0.08637000  1.0
  H  H33  1  0.56842000  0.32196000  0.91363000  1.0
  H  H34  1  0.36346000  0.60238000  0.96652000  1.0
  H  H35  1  0.63654000  0.39762000  0.03348000  1.0
  H  H36  1  0.29530000  0.51103000  0.04627000  1.0
  H  H37  1  0.70470000  0.48896000  0.95373000  1.0
  H  H38  1  0.82118000  0.76882000  0.80131000  1.0
  H  H39  1  0.17882000  0.23118000  0.19869000  1.0
  H  H40  1  0.00009000  0.78872000  0.77853000  1.0
  H  H41  1  0.99991000  0.21128000  0.22147000  1.0
  H  H42  1  0.96300000  0.93200000  0.83905000  1.0
  H  H43  1  0.03700000  0.06800000  0.16095000  1.0
  H  H44  1  0.82261000  0.93696000  0.93799000  1.0
  H  H45  1  0.17739000  0.06304000  0.06201000  1.0
  H  H46  1  0.78534000  0.88874000  0.03889000  1.0
  H  H47  1  0.21466000  0.11126000  0.96110000  1.0
  H  H48  1  0.69732000  0.77164000  0.93024000  1.0
  H  H49  1  0.30268000  0.22836000  0.06976000  1.0
  H  H50  1  0.10174000  0.69888000  0.62660000  1.0
  H  H51  1  0.89826000  0.30112000  0.37341000  1.0
  H  H52  1  0.20914000  0.49282000  0.63446000  1.0
  H  H53  1  0.79086000  0.50718000  0.36555000  1.0
  H  H54  1  0.03077000  0.25438000  0.60659000  1.0
  H  H55  1  0.96923000  0.74563000  0.39341000  1.0
  H  H56  1  0.64148000  0.42183000  0.54984000  1.0
  H  H57  1  0.35852000  0.57818000  0.45017000  1.0
  C  C58  1  0.61074000  0.73651000  0.34606000  1.0
  C  C59  1  0.38926000  0.26349000  0.65393000  1.0
  C  C60  1  0.63797000  0.70049000  0.26261000  1.0
  C  C61  1  0.36203000  0.29951000  0.73739000  1.0
  C  C62  1  0.76116000  0.78777000  0.24209000  1.0
  C  C63  1  0.23884000  0.21223000  0.75791000  1.0
  C  C64  1  0.84655000  0.91240000  0.30695000  1.0
  C  C65  1  0.15344000  0.08760000  0.69305000  1.0
  C  C66  1  0.81141000  0.94084000  0.38882000  1.0
  C  C67  1  0.18859000  0.05916000  0.61118000  1.0
  C  C68  1  0.80076000  0.74727000  0.15843000  1.0
  C  C69  1  0.19924000  0.25272000  0.84157000  1.0
  C  C70  1  0.94784000  0.77994000  0.15580000  1.0
  C  C71  1  0.05216000  0.22006000  0.84420000  1.0
  C  C72  1  0.00232000  0.75084000  0.07567000  1.0
  C  C73  1  0.99767000  0.24916000  0.92433000  1.0
  C  C74  1  0.12710000  0.69120000  0.08728000  1.0
  C  C75  1  0.87290000  0.30880000  0.91272000  1.0
  C  C76  1  0.19748000  0.68016000  0.01735000  1.0
  C  C77  1  0.80252000  0.31984000  0.98265000  1.0
  C  C78  1  0.14391000  0.72974000  0.93641000  1.0
  C  C79  1  0.85609000  0.27026000  0.06359000  1.0
  C  C80  1  0.01167000  0.77814000  0.92094000  1.0
  C  C81  1  0.98833000  0.22186000  0.07906000  1.0
  C  C82  1  0.94050000  0.78981000  0.99100000  1.0
  C  C83  1  0.05951000  0.21019000  0.00900000  1.0
  C  C84  1  0.22938000  0.73187000  0.86727000  1.0
  C  C85  1  0.77062000  0.26813000  0.13273000  1.0
  C  C86  1  0.34139000  0.84436000  0.86723000  1.0
  C  C87  1  0.65861000  0.15563000  0.13277000  1.0
  C  C88  1  0.42638000  0.85249000  0.79959000  1.0
  C  C89  1  0.57363000  0.14751000  0.20041000  1.0
  C  C90  1  0.43113000  0.73324000  0.74260000  1.0
  C  C91  1  0.56887000  0.26676000  0.25740000  1.0
  C  C92  1  0.50259000  0.74721000  0.67441000  1.0
  C  C93  1  0.49741000  0.25279000  0.32559000  1.0
  C  C94  1  0.57604000  0.98784000  0.71766000  1.0
  C  C95  1  0.42396000  0.01216000  0.28234000  1.0
  C  C96  1  0.50581000  0.98241000  0.78716000  1.0
  C  C97  1  0.49419000  0.01759000  0.21284000  1.0
  C  C98  1  0.18192000  0.63420000  0.17243000  1.0
  C  C99  1  0.81808000  0.36579000  0.82757000  1.0
  C  C100  1  0.32868000  0.61466000  0.02933000  1.0
  C  C101  1  0.67132000  0.38533000  0.97067000  1.0
  C  C102  1  0.94653000  0.81847000  0.83054000  1.0
  C  C103  1  0.05347000  0.18153000  0.16946000  1.0
  C  C104  1  0.80504000  0.85017000  0.97419000  1.0
  C  C105  1  0.19496000  0.14983000  0.02581000  1.0
  C  C106  1  0.86572000  0.57221000  0.58863000  1.0
  C  C107  1  0.13428000  0.42780000  0.41138000  1.0
  C  C108  1  0.02618000  0.59306000  0.61418000  1.0
  C  C109  1  0.97382000  0.40694000  0.38583000  1.0
  C  C110  1  0.08554000  0.47885000  0.61967000  1.0
  C  C111  1  0.91446000  0.52116000  0.38034000  1.0
  C  C112  1  0.98636000  0.34462000  0.60299000  1.0
  C  C113  1  0.01364000  0.65538000  0.39701000  1.0
  C  C114  1  0.82625000  0.32358000  0.57992000  1.0
  C  C115  1  0.17375000  0.67643000  0.42008000  1.0
  C  C116  1  0.76615000  0.43747000  0.57123000  1.0
  C  C117  1  0.23385000  0.56253000  0.42877000  1.0
  C  C118  1  0.80044000  0.69275000  0.57620000  1.0
  C  C119  1  0.19956000  0.30725000  0.42380000  1.0
  C  C120  1  0.71983000  0.17991000  0.56476000  1.0
  C  C121  1  0.28017000  0.82009000  0.43524000  1.0
  N  N122  1  0.69658000  0.85421000  0.40894000  1.0
  N  N123  1  0.30342000  0.14579000  0.59106000  1.0
  N  N124  1  0.57329000  0.87289000  0.66091000  1.0
  N  N125  1  0.42671000  0.12711000  0.33909000  1.0
  O  O126  1  0.65376000  0.66532000  0.53727000  1.0
  O  O127  1  0.34624000  0.33468000  0.46273000  1.0
  O  O128  1  0.88885000  0.81663000  0.60286000  1.0
  O  O129  1  0.11116000  0.18337000  0.39714000  1.0
  O  O130  1  0.57581000  0.16334000  0.54170000  1.0
  O  O131  1  0.42419000  0.83666000  0.45830000  1.0
  O  O132  1  0.78362000  0.08197000  0.57976000  1.0
  O  O133  1  0.21638000  0.91804000  0.42024000  1.0
