# generated using pymatgen
data_CuH6C8N3Cl
_symmetry_space_group_name_H-M   'P 1'
_cell_length_a   3.77831000
_cell_length_b   13.81220000
_cell_length_c   15.27410000
_cell_angle_alpha   90.04440000
_cell_angle_beta   90.08970000
_cell_angle_gamma   94.19770000
_symmetry_Int_Tables_number   1
_chemical_formula_structural   CuH6C8N3Cl
_chemical_formula_sum   'Cu4 H24 C32 N12 Cl4'
_cell_volume   794.96640141
_cell_formula_units_Z   4
loop_
 _symmetry_equiv_pos_site_id
 _symmetry_equiv_pos_as_xyz
  1  'x, y, z'
loop_
 _atom_site_type_symbol
 _atom_site_label
 _atom_site_symmetry_multiplicity
 _atom_site_fract_x
 _atom_site_fract_y
 _atom_site_fract_z
 _atom_site_occupancy
  Cu  Cu0  1  0.66412000  0.42463000  0.60035000  1.0
  Cu  Cu1  1  0.33954000  0.07547000  0.09963000  1.0
  Cu  Cu2  1  0.33588000  0.57538000  0.39965000  1.0
  Cu  Cu3  1  0.66043000  0.92453000  0.90037000  1.0
  H  H4  1  0.46651000  0.66903000  0.83631000  1.0
  H  H5  1  0.53124000  0.83100000  0.33622000  1.0
  H  H6  1  0.53348000  0.33097000  0.16369000  1.0
  H  H7  1  0.46876000  0.16900000  0.66378000  1.0
  H  H8  1  0.66059000  0.57288000  0.96337000  1.0
  H  H9  1  0.33853000  0.92745000  0.46320000  1.0
  H  H10  1  0.33938000  0.42712000  0.03662000  1.0
  H  H11  1  0.66155000  0.07255000  0.53681000  1.0
  H  H12  1  0.84699000  0.40291000  0.93695000  1.0
  H  H13  1  0.15385000  0.09759000  0.43674000  1.0
  H  H14  1  0.15299000  0.59709000  0.06304000  1.0
  H  H15  1  0.84620000  0.90242000  0.56328000  1.0
  H  H16  1  0.85576000  0.34196000  0.78242000  1.0
  H  H17  1  0.14616000  0.15843000  0.28220000  1.0
  H  H18  1  0.14425000  0.65805000  0.21758000  1.0
  H  H19  1  0.85385000  0.84156000  0.71780000  1.0
  H  H20  1  0.25474000  0.74765000  0.69816000  1.0
  H  H21  1  0.74494000  0.75215000  0.19779000  1.0
  H  H22  1  0.74524000  0.25235000  0.30184000  1.0
  H  H23  1  0.25503000  0.24785000  0.80221000  1.0
  H  H24  1  0.13152000  0.74629000  0.51825000  1.0
  H  H25  1  0.86626000  0.75422000  0.01751000  1.0
  H  H26  1  0.86845000  0.25371000  0.48176000  1.0
  H  H27  1  0.13377000  0.24578000  0.98248000  1.0
  C  C28  1  0.56106000  0.55585000  0.74318000  1.0
  C  C29  1  0.43876000  0.94435000  0.24312000  1.0
  C  C30  1  0.43894000  0.44416000  0.25682000  1.0
  C  C31  1  0.56121000  0.05565000  0.75688000  1.0
  C  C32  1  0.55542000  0.59645000  0.82718000  1.0
  C  C33  1  0.44366000  0.90369000  0.32707000  1.0
  C  C34  1  0.44457000  0.40355000  0.17281000  1.0
  C  C35  1  0.55635000  0.09630000  0.67292000  1.0
  C  C36  1  0.66219000  0.54225000  0.89764000  1.0
  C  C37  1  0.33748000  0.95805000  0.39749000  1.0
  C  C38  1  0.33780000  0.45774000  0.10236000  1.0
  C  C39  1  0.66257000  0.04194000  0.60252000  1.0
  C  C40  1  0.76712000  0.44864000  0.88348000  1.0
  C  C41  1  0.23347000  0.05173000  0.38330000  1.0
  C  C42  1  0.23288000  0.55136000  0.11652000  1.0
  C  C43  1  0.76657000  0.94826000  0.61670000  1.0
  C  C44  1  0.77116000  0.41349000  0.79815000  1.0
  C  C45  1  0.23025000  0.08686000  0.29797000  1.0
  C  C46  1  0.22886000  0.58651000  0.20185000  1.0
  C  C47  1  0.76976000  0.91314000  0.70203000  1.0
  C  C48  1  0.44737000  0.60345000  0.66526000  1.0
  C  C49  1  0.55180000  0.89644000  0.16533000  1.0
  C  C50  1  0.55263000  0.39655000  0.33473000  1.0
  C  C51  1  0.44817000  0.10356000  0.83467000  1.0
  C  C52  1  0.30764000  0.69311000  0.64986000  1.0
  C  C53  1  0.69134000  0.80675000  0.14964000  1.0
  C  C54  1  0.69234000  0.30690000  0.35014000  1.0
  C  C55  1  0.30864000  0.19325000  0.85036000  1.0
  C  C56  1  0.24652000  0.69358000  0.56001000  1.0
  C  C57  1  0.75135000  0.80648000  0.05976000  1.0
  C  C58  1  0.75345000  0.30642000  0.43999000  1.0
  C  C59  1  0.24866000  0.19353000  0.94023000  1.0
  N  N60  1  0.46644000  0.55457000  0.58831000  1.0
  N  N61  1  0.53208000  0.94501000  0.08822000  1.0
  N  N62  1  0.53356000  0.44544000  0.41169000  1.0
  N  N63  1  0.46791000  0.05497000  0.91178000  1.0
  N  N64  1  0.34377000  0.60900000  0.52461000  1.0
  N  N65  1  0.65320000  0.89143000  0.02509000  1.0
  N  N66  1  0.65622000  0.39100000  0.47539000  1.0
  N  N67  1  0.34681000  0.10857000  0.97490000  1.0
  N  N68  1  0.67436000  0.46598000  0.72956000  1.0
  N  N69  1  0.32715000  0.03428000  0.22949000  1.0
  N  N70  1  0.32565000  0.53403000  0.27044000  1.0
  N  N71  1  0.67284000  0.96571000  0.77051000  1.0
  Cl  Cl72  1  0.07722000  0.31192000  0.63120000  1.0
  Cl  Cl73  1  0.92246000  0.18782000  0.13065000  1.0
  Cl  Cl74  1  0.92279000  0.68808000  0.36880000  1.0
  Cl  Cl75  1  0.07754000  0.81217000  0.86935000  1.0
