# generated using pymatgen
data_CdH8C24(N3F2)2
_symmetry_space_group_name_H-M   'P 1'
_cell_length_a   7.48133000
_cell_length_b   10.64850000
_cell_length_c   14.44222967
_cell_angle_alpha   110.09460857
_cell_angle_beta   103.05301932
_cell_angle_gamma   95.33960000
_symmetry_Int_Tables_number   1
_chemical_formula_structural   CdH8C24(N3F2)2
_chemical_formula_sum   'Cd2 H16 C48 N12 F8'
_cell_volume   1034.10859107
_cell_formula_units_Z   2
loop_
 _symmetry_equiv_pos_site_id
 _symmetry_equiv_pos_as_xyz
  1  'x, y, z'
loop_
 _atom_site_type_symbol
 _atom_site_label
 _atom_site_symmetry_multiplicity
 _atom_site_fract_x
 _atom_site_fract_y
 _atom_site_fract_z
 _atom_site_occupancy
  Cd  Cd0  1  0.85953000  0.10899000  0.21847000  1.0
  Cd  Cd1  1  0.14048000  0.89101000  0.78153000  1.0
  H  H2  1  0.16972000  0.38874000  0.28741000  1.0
  H  H3  1  0.61820000  0.89824000  0.28741000  1.0
  H  H4  1  0.83028000  0.61126000  0.71259000  1.0
  H  H5  1  0.38182000  0.10177000  0.71260000  1.0
  H  H6  1  0.35949000  0.58178000  0.44765000  1.0
  H  H7  1  0.58797000  0.86571000  0.44764000  1.0
  H  H8  1  0.64052000  0.41822000  0.55235000  1.0
  H  H9  1  0.41204000  0.13428000  0.55236000  1.0
  H  H10  1  0.34215000  0.57834000  0.61894000  1.0
  H  H11  1  0.77638000  0.04054000  0.61898000  1.0
  H  H12  1  0.65786000  0.42166000  0.38106000  1.0
  H  H13  1  0.22363000  0.95947000  0.38103000  1.0
  H  H14  1  0.21165000  0.45590000  0.71680000  1.0
  H  H15  1  0.00528000  0.26055000  0.71680000  1.0
  H  H16  1  0.78835000  0.54411000  0.28320000  1.0
  H  H17  1  0.99471000  0.73945000  0.28319000  1.0
  C  C18  1  0.12074000  0.88011000  0.14581000  1.0
  C  C19  1  0.52571000  0.26576000  0.14621000  1.0
  C  C20  1  0.87925000  0.11989000  0.85419000  1.0
  C  C21  1  0.47429000  0.73424000  0.85379000  1.0
  C  C22  1  0.14026000  0.77739000  0.05945000  1.0
  C  C23  1  0.41946000  0.28206000  0.05974000  1.0
  C  C24  1  0.85973000  0.22260000  0.94055000  1.0
  C  C25  1  0.58053000  0.71794000  0.94026000  1.0
  C  C26  1  0.21034000  0.65471000  0.06102000  1.0
  C  C27  1  0.35106000  0.40626000  0.06112000  1.0
  C  C28  1  0.78965000  0.34529000  0.93898000  1.0
  C  C29  1  0.64894000  0.59373000  0.93888000  1.0
  C  C30  1  0.20149000  0.54379000  0.97109000  1.0
  C  C31  1  0.27035000  0.42761000  0.97115000  1.0
  C  C32  1  0.79851000  0.45621000  0.02891000  1.0
  C  C33  1  0.72964000  0.57239000  0.02885000  1.0
  C  C34  1  0.29383000  0.63448000  0.15092000  1.0
  C  C35  1  0.35724000  0.51601000  0.15099000  1.0
  C  C36  1  0.70616000  0.36552000  0.84908000  1.0
  C  C37  1  0.64276000  0.48399000  0.84901000  1.0
  C  C38  1  0.08417000  0.80122000  0.96930000  1.0
  C  C39  1  0.38519000  0.16823000  0.96969000  1.0
  C  C40  1  0.91582000  0.19877000  0.03070000  1.0
  C  C41  1  0.61480000  0.83177000  0.03031000  1.0
  C  C42  1  0.16519000  0.39150000  0.36305000  1.0
  C  C43  1  0.69836000  0.97113000  0.36305000  1.0
  C  C44  1  0.83480000  0.60849000  0.63694000  1.0
  C  C45  1  0.30164000  0.02887000  0.63695000  1.0
  C  C46  1  0.27165000  0.49874000  0.45322000  1.0
  C  C47  1  0.68164000  0.95424000  0.45324000  1.0
  C  C48  1  0.72835000  0.50125000  0.54677000  1.0
  C  C49  1  0.31837000  0.04577000  0.54677000  1.0
  C  C50  1  0.26266000  0.49633000  0.54724000  1.0
  C  C51  1  0.78444000  0.05073000  0.54726000  1.0
  C  C52  1  0.73735000  0.50367000  0.45276000  1.0
  C  C53  1  0.21556000  0.94927000  0.45274000  1.0
  C  C54  1  0.04085000  0.28379000  0.45574000  1.0
  C  C55  1  0.91556000  0.17143000  0.45572000  1.0
  C  C56  1  0.95915000  0.71621000  0.54426000  1.0
  C  C57  1  0.08444000  0.82858000  0.54428000  1.0
  C  C58  1  0.14649000  0.38635000  0.55080000  1.0
  C  C59  1  0.90455000  0.16408000  0.55079000  1.0
  C  C60  1  0.85352000  0.61366000  0.44920000  1.0
  C  C61  1  0.09545000  0.83593000  0.44921000  1.0
  C  C62  1  0.13011000  0.37601000  0.64493000  1.0
  C  C63  1  0.01499000  0.26857000  0.64492000  1.0
  C  C64  1  0.86989000  0.62400000  0.35507000  1.0
  C  C65  1  0.98502000  0.73144000  0.35508000  1.0
  N  N66  1  0.09771000  0.96979000  0.21471000  1.0
  N  N67  1  0.61785000  0.24484000  0.21515000  1.0
  N  N68  1  0.90228000  0.03020000  0.78529000  1.0
  N  N69  1  0.38215000  0.75515000  0.78485000  1.0
  N  N70  1  0.05317000  0.28831000  0.36478000  1.0
  N  N71  1  0.81237000  0.07590000  0.36475000  1.0
  N  N72  1  0.94683000  0.71169000  0.63522000  1.0
  N  N73  1  0.18763000  0.92410000  0.63525000  1.0
  N  N74  1  0.02993000  0.82154000  0.89356000  1.0
  N  N75  1  0.36331000  0.07225000  0.89399000  1.0
  N  N76  1  0.97007000  0.17845000  0.10644000  1.0
  N  N77  1  0.63667000  0.92774000  0.10600000  1.0
  F  F78  1  0.31489000  0.73516000  0.24422000  1.0
  F  F79  1  0.42930000  0.50843000  0.24435000  1.0
  F  F80  1  0.68510000  0.26484000  0.75578000  1.0
  F  F81  1  0.57070000  0.49157000  0.75565000  1.0
  F  F82  1  0.12194000  0.54790000  0.87778000  1.0
  F  F83  1  0.25701000  0.33057000  0.87790000  1.0
  F  F84  1  0.87807000  0.45210000  0.12222000  1.0
  F  F85  1  0.74300000  0.66942000  0.12210000  1.0
