# generated using pymatgen
data_Cu2H12C18BrN5
_symmetry_space_group_name_H-M   'P 1'
_cell_length_a   8.09168000
_cell_length_b   10.74233095
_cell_length_c   11.41080000
_cell_angle_alpha   108.26877866
_cell_angle_beta   103.05030000
_cell_angle_gamma   110.88438237
_symmetry_Int_Tables_number   1
_chemical_formula_structural   Cu2H12C18BrN5
_chemical_formula_sum   'Cu4 H24 C36 Br2 N10'
_cell_volume   813.81283462
_cell_formula_units_Z   2
loop_
 _symmetry_equiv_pos_site_id
 _symmetry_equiv_pos_as_xyz
  1  'x, y, z'
loop_
 _atom_site_type_symbol
 _atom_site_label
 _atom_site_symmetry_multiplicity
 _atom_site_fract_x
 _atom_site_fract_y
 _atom_site_fract_z
 _atom_site_occupancy
  Cu  Cu0  1  0.32297000  0.54699000  0.31646000  1.0
  Cu  Cu1  1  0.67703000  0.45301000  0.68355000  1.0
  Cu  Cu2  1  0.04927667  0.66666667  0.34914000  1.0
  Cu  Cu3  1  0.95071333  0.33333333  0.65086000  1.0
  H  H4  1  0.69346000  0.84201000  0.38265000  1.0
  H  H5  1  0.30654000  0.15799000  0.61735000  1.0
  H  H6  1  0.97024000  0.04105000  0.81156000  1.0
  H  H7  1  0.02976000  0.95895000  0.18844000  1.0
  H  H8  1  0.56895000  0.04286000  0.40275000  1.0
  H  H9  1  0.43105000  0.95714000  0.59725000  1.0
  H  H10  1  0.95774000  0.05258000  0.59271000  1.0
  H  H11  1  0.04226000  0.94742000  0.40729000  1.0
  H  H12  1  0.45981000  0.94371000  0.15634000  1.0
  H  H13  1  0.54019000  0.05630000  0.84366000  1.0
  H  H14  1  0.67553000  0.07167000  0.05590000  1.0
  H  H15  1  0.32446000  0.92833000  0.94410000  1.0
  H  H16  1  0.71583000  0.82433000  0.81073000  1.0
  H  H17  1  0.28417000  0.17567000  0.18927000  1.0
  H  H18  1  0.98836000  0.29816000  0.21145000  1.0
  H  H19  1  0.01164000  0.70184000  0.78855000  1.0
  H  H20  1  0.28894000  0.64740000  0.90317000  1.0
  H  H21  1  0.71106000  0.35260000  0.09683000  1.0
  H  H22  1  0.50784000  0.73180000  0.13707000  1.0
  H  H23  1  0.49216000  0.26820000  0.86293000  1.0
  H  H24  1  0.82144000  0.71815000  0.17129000  1.0
  H  H25  1  0.17856000  0.28185000  0.82871000  1.0
  H  H26  1  0.88795000  0.61044000  0.97346000  1.0
  H  H27  1  0.11206000  0.38956000  0.02654000  1.0
  C  C28  1  0.70451000  0.84236000  0.47989000  1.0
  C  C29  1  0.29549000  0.15764000  0.52011000  1.0
  C  C30  1  0.85753000  0.95176000  0.71787000  1.0
  C  C31  1  0.14247000  0.04824000  0.28213000  1.0
  C  C32  1  0.65839000  0.09589000  0.35658000  1.0
  C  C33  1  0.34161000  0.90411000  0.64342000  1.0
  C  C34  1  0.85200000  0.95838000  0.59665000  1.0
  C  C35  1  0.14800000  0.04162000  0.40335000  1.0
  C  C36  1  0.59786000  0.04085000  0.21813000  1.0
  C  C37  1  0.40214000  0.95915000  0.78187000  1.0
  C  C38  1  0.71688000  0.11294000  0.16372000  1.0
  C  C39  1  0.28312000  0.88706000  0.83628000  1.0
  C  C40  1  0.40780000  0.59367000  0.58407000  1.0
  C  C41  1  0.59220000  0.40633000  0.41593000  1.0
  C  C42  1  0.35666000  0.54583000  0.67823000  1.0
  C  C43  1  0.64334000  0.45417000  0.32177000  1.0
  C  C44  1  0.57034000  0.71875000  0.59585000  1.0
  C  C45  1  0.42966000  0.28125000  0.40415000  1.0
  C  C46  1  0.94100000  0.28621000  0.38680000  1.0
  C  C47  1  0.05900000  0.71379000  0.61320000  1.0
  C  C48  1  0.12167000  0.40996000  0.48441000  1.0
  C  C49  1  0.87832000  0.59003000  0.51559000  1.0
  C  C50  1  0.71656000  0.83108000  0.71767000  1.0
  C  C51  1  0.28344000  0.16892000  0.28233000  1.0
  C  C52  1  0.88993000  0.23787000  0.24867000  1.0
  C  C53  1  0.11007000  0.76213000  0.75133000  1.0
  C  C54  1  0.47667000  0.59149000  0.81636000  1.0
  C  C55  1  0.52333000  0.40851000  0.18364000  1.0
  C  C56  1  0.42563000  0.64493000  0.92349000  1.0
  C  C57  1  0.57438000  0.35507000  0.07651000  1.0
  C  C58  1  0.54834000  0.69234000  0.05331000  1.0
  C  C59  1  0.45166000  0.30766000  0.94670000  1.0
  C  C60  1  0.72034000  0.68501000  0.07248000  1.0
  C  C61  1  0.27967000  0.31499000  0.92753000  1.0
  C  C62  1  0.75982000  0.62551000  0.96163000  1.0
  C  C63  1  0.24018000  0.37449000  0.03837000  1.0
  Br  Br64  1  0.20627000  0.69716000  0.20978000  1.0
  Br  Br65  1  0.79372000  0.30284000  0.79022000  1.0
  N  N66  1  0.25777000  0.50550000  0.46208000  1.0
  N  N67  1  0.74222000  0.49449000  0.53792000  1.0
  N  N68  1  0.17371000  0.43354000  0.61530000  1.0
  N  N69  1  0.82630000  0.56646000  0.38469000  1.0
  N  N70  1  0.82584000  0.21491000  0.43964000  1.0
  N  N71  1  0.17416000  0.78509000  0.56036000  1.0
  N  N72  1  0.56621000  0.72555000  0.47826000  1.0
  N  N73  1  0.43379000  0.27445000  0.52174000  1.0
  N  N74  1  0.64078000  0.57679000  0.83502000  1.0
  N  N75  1  0.35923000  0.42321000  0.16498000  1.0
