# generated using pymatgen
data_SbH13C6NO2F3
_symmetry_space_group_name_H-M   'P 1'
_cell_length_a   5.81186000
_cell_length_b   6.15769000
_cell_length_c   28.59400000
_cell_angle_alpha   90.00000000
_cell_angle_beta   90.00000000
_cell_angle_gamma   90.00000000
_symmetry_Int_Tables_number   1
_chemical_formula_structural   SbH13C6NO2F3
_chemical_formula_sum   'Sb4 H52 C24 N4 O8 F12'
_cell_volume   1023.31155522
_cell_formula_units_Z   4
loop_
 _symmetry_equiv_pos_site_id
 _symmetry_equiv_pos_as_xyz
  1  'x, y, z'
loop_
 _atom_site_type_symbol
 _atom_site_label
 _atom_site_symmetry_multiplicity
 _atom_site_fract_x
 _atom_site_fract_y
 _atom_site_fract_z
 _atom_site_occupancy
  Sb  Sb0  1  0.56723000  0.22246000  0.70195000  1.0
  Sb  Sb1  1  0.93278000  0.77755000  0.20195000  1.0
  Sb  Sb2  1  0.43278000  0.72245000  0.79806000  1.0
  Sb  Sb3  1  0.06722000  0.27754000  0.29805000  1.0
  H  H4  1  0.90219000  0.57201000  0.59472000  1.0
  H  H5  1  0.59782000  0.42801000  0.09472000  1.0
  H  H6  1  0.09780000  0.07200000  0.90528000  1.0
  H  H7  1  0.40218000  0.92800000  0.40528000  1.0
  H  H8  1  0.06069000  0.81705000  0.58873000  1.0
  H  H9  1  0.43933000  0.18297000  0.08872000  1.0
  H  H10  1  0.93931000  0.31704000  0.91127000  1.0
  H  H11  1  0.56067000  0.68295000  0.41127000  1.0
  H  H12  1  0.14217000  0.45849000  0.66117000  1.0
  H  H13  1  0.35784000  0.54153000  0.16117000  1.0
  H  H14  1  0.85783000  0.95848000  0.83883000  1.0
  H  H15  1  0.64216000  0.04151000  0.33883000  1.0
  H  H16  1  0.40908000  0.60381000  0.56582000  1.0
  H  H17  1  0.09093000  0.39619000  0.06582000  1.0
  H  H18  1  0.59092000  0.10382000  0.93418000  1.0
  H  H19  1  0.90908000  0.89617000  0.43417000  1.0
  H  H20  1  0.32386000  0.24464000  0.60345000  1.0
  H  H21  1  0.17612000  0.75536000  0.10344000  1.0
  H  H22  1  0.67612000  0.74464000  0.89656000  1.0
  H  H23  1  0.82387000  0.25535000  0.39656000  1.0
  H  H24  1  0.36214000  0.21339000  0.54269000  1.0
  H  H25  1  0.13784000  0.78661000  0.04268000  1.0
  H  H26  1  0.63785000  0.71340000  0.95732000  1.0
  H  H27  1  0.86215000  0.28660000  0.45732000  1.0
  H  H28  1  0.07996000  0.21312000  0.56702000  1.0
  H  H29  1  0.42002000  0.78690000  0.06702000  1.0
  H  H30  1  0.92002000  0.71312000  0.93298000  1.0
  H  H31  1  0.57997000  0.28688000  0.43298000  1.0
  H  H32  1  0.97677000  0.51905000  0.50704000  1.0
  H  H33  1  0.52324000  0.48097000  0.00704000  1.0
  H  H34  1  0.02324000  0.01905000  0.99296000  1.0
  H  H35  1  0.47678000  0.98095000  0.49296000  1.0
  H  H36  1  0.26347000  0.51016000  0.48574000  1.0
  H  H37  1  0.23654000  0.48985000  0.98574000  1.0
  H  H38  1  0.73654000  0.01017000  0.01426000  1.0
  H  H39  1  0.76348000  0.98984000  0.51426000  1.0
  H  H40  1  0.14448000  0.75946000  0.50571000  1.0
  H  H41  1  0.35553000  0.24055000  0.00570000  1.0
  H  H42  1  0.85552000  0.25947000  0.99429000  1.0
  H  H43  1  0.64449000  0.74053000  0.49429000  1.0
  H  H44  1  0.98741000  0.91746000  0.66679000  1.0
  H  H45  1  0.51261000  0.08255000  0.16679000  1.0
  H  H46  1  0.01258000  0.41746000  0.83321000  1.0
  H  H47  1  0.48739000  0.58253000  0.33320000  1.0
  H  H48  1  0.04021000  0.76049000  0.71256000  1.0
  H  H49  1  0.45980000  0.23953000  0.21255000  1.0
  H  H50  1  0.95978000  0.26049000  0.78744000  1.0
  H  H51  1  0.54019000  0.73952000  0.28744000  1.0
  H  H52  1  0.82350000  0.69533000  0.67460000  1.0
  H  H53  1  0.67653000  0.30468000  0.17460000  1.0
  H  H54  1  0.17650000  0.19533000  0.82540000  1.0
  H  H55  1  0.32347000  0.80466000  0.32540000  1.0
  C  C56  1  0.07564000  0.64314000  0.59735000  1.0
  C  C57  1  0.42437000  0.35687000  0.09735000  1.0
  C  C58  1  0.92435000  0.14314000  0.90265000  1.0
  C  C59  1  0.57563000  0.85685000  0.40265000  1.0
  C  C60  1  0.15297000  0.62620000  0.64853000  1.0
  C  C61  1  0.34704000  0.37381000  0.14853000  1.0
  C  C62  1  0.84702000  0.12619000  0.85147000  1.0
  C  C63  1  0.65295000  0.87380000  0.35147000  1.0
  C  C64  1  0.23539000  0.53343000  0.56178000  1.0
  C  C65  1  0.26462000  0.46657000  0.06177000  1.0
  C  C66  1  0.76461000  0.03344000  0.93823000  1.0
  C  C67  1  0.73539000  0.96655000  0.43822000  1.0
  C  C68  1  0.25160000  0.28819000  0.56932000  1.0
  C  C69  1  0.24839000  0.71181000  0.06932000  1.0
  C  C70  1  0.74838000  0.78820000  0.93068000  1.0
  C  C71  1  0.75161000  0.21180000  0.43068000  1.0
  C  C72  1  0.15117000  0.58389000  0.51229000  1.0
  C  C73  1  0.34883000  0.41612000  0.01229000  1.0
  C  C74  1  0.84883000  0.08390000  0.98771000  1.0
  C  C75  1  0.65118000  0.91610000  0.48771000  1.0
  C  C76  1  0.39647000  0.71707000  0.65479000  1.0
  C  C77  1  0.10355000  0.28292000  0.15478000  1.0
  C  C78  1  0.60353000  0.21706000  0.84522000  1.0
  C  C79  1  0.89644000  0.78290000  0.34521000  1.0
  N  N80  1  0.99218000  0.75717000  0.67774000  1.0
  N  N81  1  0.50783000  0.24284000  0.17774000  1.0
  N  N82  1  0.00781000  0.25717000  0.82226000  1.0
  N  N83  1  0.49216000  0.74283000  0.32226000  1.0
  O  O84  1  0.41637000  0.92066000  0.65207000  1.0
  O  O85  1  0.08366000  0.07934000  0.15208000  1.0
  O  O86  1  0.58363000  0.42066000  0.84793000  1.0
  O  O87  1  0.91633000  0.57934000  0.34792000  1.0
  O  O88  1  0.56295000  0.58407000  0.66083000  1.0
  O  O89  1  0.93706000  0.41592000  0.16082000  1.0
  O  O90  1  0.43705000  0.08407000  0.83917000  1.0
  O  O91  1  0.06294000  0.91591000  0.33917000  1.0
  F  F92  1  0.70059000  0.97914000  0.74108000  1.0
  F  F93  1  0.79943000  0.02090000  0.24107000  1.0
  F  F94  1  0.29943000  0.47911000  0.75893000  1.0
  F  F95  1  0.20058000  0.52087000  0.25893000  1.0
  F  F96  1  0.77783000  0.40530000  0.74127000  1.0
  F  F97  1  0.72217000  0.59472000  0.24127000  1.0
  F  F98  1  0.22219000  0.90529000  0.75873000  1.0
  F  F99  1  0.27783000  0.09470000  0.25873000  1.0
  F  F100  1  0.83482000  0.18812000  0.65956000  1.0
  F  F101  1  0.66520000  0.81188000  0.15956000  1.0
  F  F102  1  0.16519000  0.68812000  0.84044000  1.0
  F  F103  1  0.33480000  0.31186000  0.34044000  1.0
