# generated using pymatgen
data_Cd3H20C12N16(ClO)2
_symmetry_space_group_name_H-M   'P 1'
_cell_length_a   7.78753000
_cell_length_b   9.37188000
_cell_length_c   9.50954000
_cell_angle_alpha   87.04800000
_cell_angle_beta   65.83930000
_cell_angle_gamma   82.77310000
_symmetry_Int_Tables_number   1
_chemical_formula_structural   Cd3H20C12N16(ClO)2
_chemical_formula_sum   'Cd3 H20 C12 N16 Cl2 O2'
_cell_volume   628.21431328
_cell_formula_units_Z   1
loop_
 _symmetry_equiv_pos_site_id
 _symmetry_equiv_pos_as_xyz
  1  'x, y, z'
loop_
 _atom_site_type_symbol
 _atom_site_label
 _atom_site_symmetry_multiplicity
 _atom_site_fract_x
 _atom_site_fract_y
 _atom_site_fract_z
 _atom_site_occupancy
  Cd  Cd0  1  0.00000000  0.50000000  0.50000000  1.0
  Cd  Cd1  1  0.50000000  0.50000000  0.50000000  1.0
  Cd  Cd2  1  0.50000000  0.00000000  0.00000000  1.0
  H  H3  1  0.92940000  0.76677000  0.25283000  1.0
  H  H4  1  0.81750000  0.23333000  0.25280000  1.0
  H  H5  1  0.07060000  0.23324000  0.74717000  1.0
  H  H6  1  0.18250000  0.76666000  0.74720000  1.0
  H  H7  1  0.05991000  0.89881000  0.12792000  1.0
  H  H8  1  0.81196000  0.10122000  0.12790000  1.0
  H  H9  1  0.94009000  0.10120000  0.87208000  1.0
  H  H10  1  0.18804000  0.89878000  0.87210000  1.0
  H  H11  1  0.88222000  0.91528000  0.48091000  1.0
  H  H12  1  0.63674000  0.08483000  0.48088000  1.0
  H  H13  1  0.11778000  0.08472000  0.51909000  1.0
  H  H14  1  0.36326000  0.91517000  0.51912000  1.0
  H  H15  1  0.00072000  0.05093000  0.35723000  1.0
  H  H16  1  0.64180000  0.94915000  0.35729000  1.0
  H  H17  1  0.99928000  0.94908000  0.64277000  1.0
  H  H18  1  0.35820000  0.05085000  0.64271000  1.0
  H  H19  1  0.18214000  0.20094000  0.09051000  1.0
  H  H20  1  0.72713000  0.79902000  0.09070000  1.0
  H  H21  1  0.81786000  0.79907000  0.90949000  1.0
  H  H22  1  0.27287000  0.20098000  0.90930000  1.0
  C  C23  1  0.19239000  0.78657000  0.26278000  1.0
  C  C24  1  0.54457000  0.21342000  0.26276000  1.0
  C  C25  1  0.80761000  0.21343000  0.73721000  1.0
  C  C26  1  0.45543000  0.78658000  0.73724000  1.0
  C  C27  1  0.01910000  0.85150000  0.24350000  1.0
  C  C28  1  0.73719000  0.14854000  0.24350000  1.0
  C  C29  1  0.98090000  0.14850000  0.75650000  1.0
  C  C30  1  0.26281000  0.85146000  0.75650000  1.0
  C  C31  1  0.91003000  0.96627000  0.36823000  1.0
  C  C32  1  0.72159000  0.03377000  0.36823000  1.0
  C  C33  1  0.08997000  0.03373000  0.63177000  1.0
  C  C34  1  0.27841000  0.96622000  0.63177000  1.0
  N  N35  1  0.38125000  0.66524000  0.34968000  1.0
  N  N36  1  0.26888000  0.33477000  0.34960000  1.0
  N  N37  1  0.61875000  0.33476000  0.65032000  1.0
  N  N38  1  0.73112000  0.66523000  0.65040000  1.0
  N  N39  1  0.47969000  0.75532000  0.24731000  1.0
  N  N40  1  0.27276000  0.24467000  0.24725000  1.0
  N  N41  1  0.52031000  0.24468000  0.75269000  1.0
  N  N42  1  0.72724000  0.75533000  0.75275000  1.0
  N  N43  1  0.36403000  0.83297000  0.19152000  1.0
  N  N44  1  0.44418000  0.16701000  0.19150000  1.0
  N  N45  1  0.63597000  0.16703000  0.80848000  1.0
  N  N46  1  0.55582000  0.83299000  0.80850000  1.0
  N  N47  1  0.20105000  0.68162000  0.36247000  1.0
  N  N48  1  0.43629000  0.31840000  0.36241000  1.0
  N  N49  1  0.79895000  0.31838000  0.63753000  1.0
  N  N50  1  0.56371000  0.68160000  0.63760000  1.0
  Cl  Cl51  1  0.85144000  0.50004000  0.29692000  1.0
  Cl  Cl52  1  0.14856000  0.49995000  0.70308000  1.0
  O  O53  1  0.21108000  0.14011000  0.99987000  1.0
  O  O54  1  0.78892000  0.85989000  0.00013000  1.0
