# generated using pymatgen
data_Zn2H18C28N3O10
_symmetry_space_group_name_H-M   'P 1'
_cell_length_a   14.65320000
_cell_length_b   15.43400000
_cell_length_c   15.43390000
_cell_angle_alpha   113.92600000
_cell_angle_beta   104.23600000
_cell_angle_gamma   104.23700000
_symmetry_Int_Tables_number   1
_chemical_formula_structural   Zn2H18C28N3O10
_chemical_formula_sum   'Zn8 H72 C112 N12 O40'
_cell_volume   2847.50251286
_cell_formula_units_Z   4
loop_
 _symmetry_equiv_pos_site_id
 _symmetry_equiv_pos_as_xyz
  1  'x, y, z'
loop_
 _atom_site_type_symbol
 _atom_site_label
 _atom_site_symmetry_multiplicity
 _atom_site_fract_x
 _atom_site_fract_y
 _atom_site_fract_z
 _atom_site_occupancy
  Zn  Zn0  1  0.90464000  0.44630000  0.84989000  1.0
  Zn  Zn1  1  0.59536000  0.15011000  0.55371000  1.0
  Zn  Zn2  1  0.09536000  0.55371000  0.15011000  1.0
  Zn  Zn3  1  0.40464000  0.84989000  0.44629000  1.0
  Zn  Zn4  1  0.93972000  0.68310000  0.85557000  1.0
  Zn  Zn5  1  0.56029000  0.14443000  0.31691000  1.0
  Zn  Zn6  1  0.06028000  0.31690000  0.14443000  1.0
  Zn  Zn7  1  0.43972000  0.85557000  0.68310000  1.0
  H  H8  1  0.67055000  0.66682000  0.95095000  1.0
  H  H9  1  0.82945000  0.04905000  0.33319000  1.0
  H  H10  1  0.32945000  0.33318000  0.04905000  1.0
  H  H11  1  0.17055000  0.95095000  0.66682000  1.0
  H  H12  1  0.49655000  0.59995000  0.95250000  1.0
  H  H13  1  0.00345000  0.04751000  0.40005000  1.0
  H  H14  1  0.50345000  0.40004000  0.04750000  1.0
  H  H15  1  0.99655000  0.95250000  0.59995000  1.0
  H  H16  1  0.43050000  0.30488000  0.69879000  1.0
  H  H17  1  0.06950000  0.30122000  0.69512000  1.0
  H  H18  1  0.56950000  0.69511000  0.30121000  1.0
  H  H19  1  0.93050000  0.69879000  0.30488000  1.0
  H  H20  1  0.31056000  0.48701000  0.70816000  1.0
  H  H21  1  0.18944000  0.29184000  0.51298000  1.0
  H  H22  1  0.68943000  0.51299000  0.29184000  1.0
  H  H23  1  0.81056000  0.70816000  0.48702000  1.0
  H  H24  1  0.18268000  0.56976000  0.71287000  1.0
  H  H25  1  0.31732000  0.28713000  0.43024000  1.0
  H  H26  1  0.81732000  0.43024000  0.28713000  1.0
  H  H27  1  0.68268000  0.71287000  0.56976000  1.0
  H  H28  1  0.26994000  0.43756000  0.95351000  1.0
  H  H29  1  0.23005000  0.04649000  0.56244000  1.0
  H  H30  1  0.73006000  0.56244000  0.04649000  1.0
  H  H31  1  0.76995000  0.95351000  0.43756000  1.0
  H  H32  1  0.89790000  0.78619000  0.69244000  1.0
  H  H33  1  0.60210000  0.30756000  0.21382000  1.0
  H  H34  1  0.10210000  0.21381000  0.30756000  1.0
  H  H35  1  0.39790000  0.69244000  0.78618000  1.0
  H  H36  1  0.03527000  0.98555000  0.76958000  1.0
  H  H37  1  0.46473000  0.23042000  0.01446000  1.0
  H  H38  1  0.96473000  0.01445000  0.23041000  1.0
  H  H39  1  0.53527000  0.76958000  0.98555000  1.0
  H  H40  1  0.18083000  0.05774000  0.13828000  1.0
  H  H41  1  0.31918000  0.86171000  0.94226000  1.0
  H  H42  1  0.81917000  0.94226000  0.86171000  1.0
  H  H43  1  0.68082000  0.13828000  0.05774000  1.0
  H  H44  1  0.23172000  0.02351000  0.28147000  1.0
  H  H45  1  0.26829000  0.71853000  0.97650000  1.0
  H  H46  1  0.76828000  0.97650000  0.71853000  1.0
  H  H47  1  0.73172000  0.28147000  0.02351000  1.0
  H  H48  1  0.16256000  0.84257000  0.25069000  1.0
  H  H49  1  0.33743000  0.74931000  0.15743000  1.0
  H  H50  1  0.83744000  0.15743000  0.74931000  1.0
  H  H51  1  0.66256000  0.25069000  0.84257000  1.0
  H  H52  1  0.03858000  0.70281000  0.07223000  1.0
  H  H53  1  0.46142000  0.92777000  0.29720000  1.0
  H  H54  1  0.96142000  0.29720000  0.92777000  1.0
  H  H55  1  0.53858000  0.07223000  0.70281000  1.0
  H  H56  1  0.22341000  0.07290000  0.03105000  1.0
  H  H57  1  0.27659000  0.96894000  0.92710000  1.0
  H  H58  1  0.77659000  0.92710000  0.96894000  1.0
  H  H59  1  0.72341000  0.03105000  0.07290000  1.0
  H  H60  1  0.13684000  0.13365000  0.01897000  1.0
  H  H61  1  0.36316000  0.98103000  0.86635000  1.0
  H  H62  1  0.86316000  0.86635000  0.98103000  1.0
  H  H63  1  0.63684000  0.01897000  0.13365000  1.0
  H  H64  1  0.11599000  0.20027000  0.90370000  1.0
  H  H65  1  0.38401000  0.09630000  0.79973000  1.0
  H  H66  1  0.88401000  0.79972000  0.09630000  1.0
  H  H67  1  0.61599000  0.90371000  0.20028000  1.0
  H  H68  1  0.18169000  0.25570000  0.79307000  1.0
  H  H69  1  0.31831000  0.20693000  0.74429000  1.0
  H  H70  1  0.81830000  0.74429000  0.20693000  1.0
  H  H71  1  0.68169000  0.79308000  0.25571000  1.0
  H  H72  1  0.94302000  0.60851000  0.67934000  1.0
  H  H73  1  0.55698000  0.32066000  0.39149000  1.0
  H  H74  1  0.05698000  0.39149000  0.32066000  1.0
  H  H75  1  0.44302000  0.67934000  0.60851000  1.0
  H  H76  1  0.86782000  0.51417000  0.67248000  1.0
  H  H77  1  0.63218000  0.32752000  0.48583000  1.0
  H  H78  1  0.13218000  0.48583000  0.32752000  1.0
  H  H79  1  0.36782000  0.67248000  0.51417000  1.0
  C  C80  1  0.75606000  0.55869000  0.83410000  1.0
  C  C81  1  0.74394000  0.16591000  0.44131000  1.0
  C  C82  1  0.24394000  0.44131000  0.16590000  1.0
  C  C83  1  0.25606000  0.83409000  0.55869000  1.0
  C  C84  1  0.64844000  0.52326000  0.82568000  1.0
  C  C85  1  0.85155000  0.17432000  0.47674000  1.0
  C  C86  1  0.35155000  0.47673000  0.17432000  1.0
  C  C87  1  0.14844000  0.82568000  0.52326000  1.0
  C  C88  1  0.61677000  0.58806000  0.89505000  1.0
  C  C89  1  0.88323000  0.10495000  0.41193000  1.0
  C  C90  1  0.38323000  0.41193000  0.10494000  1.0
  C  C91  1  0.11677000  0.89505000  0.58807000  1.0
  C  C92  1  0.52031000  0.55174000  0.89586000  1.0
  C  C93  1  0.97969000  0.10414000  0.44826000  1.0
  C  C94  1  0.47969000  0.44826000  0.10413000  1.0
  C  C95  1  0.02031000  0.89586000  0.55174000  1.0
  C  C96  1  0.45471000  0.44926000  0.82510000  1.0
  C  C97  1  0.04529000  0.17490000  0.55075000  1.0
  C  C98  1  0.54529000  0.55074000  0.17489000  1.0
  C  C99  1  0.95471000  0.82510000  0.44926000  1.0
  C  C100  1  0.48354000  0.38417000  0.75390000  1.0
  C  C101  1  0.01645000  0.24611000  0.61583000  1.0
  C  C102  1  0.51645000  0.61582000  0.24610000  1.0
  C  C103  1  0.98355000  0.75390000  0.38417000  1.0
  C  C104  1  0.58038000  0.42095000  0.75338000  1.0
  C  C105  1  0.91962000  0.24662000  0.57905000  1.0
  C  C106  1  0.41962000  0.57904000  0.24661000  1.0
  C  C107  1  0.08038000  0.75338000  0.42095000  1.0
  C  C108  1  0.60311000  0.34865000  0.66865000  1.0
  C  C109  1  0.89689000  0.33135000  0.65135000  1.0
  C  C110  1  0.39689000  0.65135000  0.33135000  1.0
  C  C111  1  0.10311000  0.66865000  0.34865000  1.0
  C  C112  1  0.29622000  0.45783000  0.83090000  1.0
  C  C113  1  0.20378000  0.16911000  0.54217000  1.0
  C  C114  1  0.70378000  0.54217000  0.16910000  1.0
  C  C115  1  0.79622000  0.83090000  0.45783000  1.0
  C  C116  1  0.27330000  0.49480000  0.76239000  1.0
  C  C117  1  0.22670000  0.23761000  0.50520000  1.0
  C  C118  1  0.72670000  0.50520000  0.23761000  1.0
  C  C119  1  0.77330000  0.76239000  0.49480000  1.0
  C  C120  1  0.20198000  0.53974000  0.76470000  1.0
  C  C121  1  0.29802000  0.23530000  0.46026000  1.0
  C  C122  1  0.79802000  0.46026000  0.23530000  1.0
  C  C123  1  0.70198000  0.76470000  0.53974000  1.0
  C  C124  1  0.15206000  0.54685000  0.83287000  1.0
  C  C125  1  0.34794000  0.16713000  0.45315000  1.0
  C  C126  1  0.84794000  0.45315000  0.16713000  1.0
  C  C127  1  0.65206000  0.83287000  0.54685000  1.0
  C  C128  1  0.17560000  0.50868000  0.90046000  1.0
  C  C129  1  0.32440000  0.09953000  0.49132000  1.0
  C  C130  1  0.82440000  0.49132000  0.09953000  1.0
  C  C131  1  0.67560000  0.90047000  0.50868000  1.0
  C  C132  1  0.24863000  0.46509000  0.89989000  1.0
  C  C133  1  0.25137000  0.10011000  0.53491000  1.0
  C  C134  1  0.75137000  0.53491000  0.10011000  1.0
  C  C135  1  0.74863000  0.89989000  0.46509000  1.0
  C  C136  1  0.12619000  0.51239000  0.97580000  1.0
  C  C137  1  0.37381000  0.02420000  0.48761000  1.0
  C  C138  1  0.87381000  0.48760000  0.02419000  1.0
  C  C139  1  0.62619000  0.97580000  0.51240000  1.0
  C  C140  1  0.08138000  0.60165000  0.83621000  1.0
  C  C141  1  0.41862000  0.16379000  0.39835000  1.0
  C  C142  1  0.91862000  0.39835000  0.16379000  1.0
  C  C143  1  0.58138000  0.83621000  0.60165000  1.0
  C  C144  1  0.95623000  0.84063000  0.76883000  1.0
  C  C145  1  0.54377000  0.23117000  0.15938000  1.0
  C  C146  1  0.04377000  0.15938000  0.23117000  1.0
  C  C147  1  0.45623000  0.76883000  0.84063000  1.0
  C  C148  1  0.02362000  0.93904000  0.80575000  1.0
  C  C149  1  0.47638000  0.19425000  0.06096000  1.0
  C  C150  1  0.97637000  0.06095000  0.19425000  1.0
  C  C151  1  0.52362000  0.80575000  0.93904000  1.0
  C  C152  1  0.04890000  0.89999000  0.93071000  1.0
  C  C153  1  0.45110000  0.06929000  0.10001000  1.0
  C  C154  1  0.95110000  0.10001000  0.06928000  1.0
  C  C155  1  0.54890000  0.93072000  0.89999000  1.0
  C  C156  1  0.08619000  0.89626000  0.02578000  1.0
  C  C157  1  0.41381000  0.97422000  0.10374000  1.0
  C  C158  1  0.91381000  0.10374000  0.97422000  1.0
  C  C159  1  0.58619000  0.02578000  0.89627000  1.0
  C  C160  1  0.15245000  0.97904000  0.12355000  1.0
  C  C161  1  0.34755000  0.87645000  0.02096000  1.0
  C  C162  1  0.84755000  0.02097000  0.87645000  1.0
  C  C163  1  0.65245000  0.12355000  0.97904000  1.0
  C  C164  1  0.18027000  0.95984000  0.20520000  1.0
  C  C165  1  0.31973000  0.79480000  0.04017000  1.0
  C  C166  1  0.81974000  0.04017000  0.79480000  1.0
  C  C167  1  0.68027000  0.20520000  0.95984000  1.0
  C  C168  1  0.14130000  0.86024000  0.18891000  1.0
  C  C169  1  0.35870000  0.81109000  0.13976000  1.0
  C  C170  1  0.85870000  0.13976000  0.81109000  1.0
  C  C171  1  0.64130000  0.18891000  0.86025000  1.0
  C  C172  1  0.07334000  0.78203000  0.08979000  1.0
  C  C173  1  0.42665000  0.91021000  0.21797000  1.0
  C  C174  1  0.92666000  0.21797000  0.91021000  1.0
  C  C175  1  0.57335000  0.08980000  0.78204000  1.0
  C  C176  1  0.16617000  0.07897000  0.97545000  1.0
  C  C177  1  0.33383000  0.02454000  0.92103000  1.0
  C  C178  1  0.83383000  0.92103000  0.02454000  1.0
  C  C179  1  0.66617000  0.97546000  0.07897000  1.0
  C  C180  1  0.21182000  0.11578000  0.91318000  1.0
  C  C181  1  0.28819000  0.08681000  0.88422000  1.0
  C  C182  1  0.78818000  0.88422000  0.08682000  1.0
  C  C183  1  0.71181000  0.91319000  0.11578000  1.0
  C  C184  1  0.17424000  0.17685000  0.88008000  1.0
  C  C185  1  0.32576000  0.11992000  0.82315000  1.0
  C  C186  1  0.82576000  0.82315000  0.11992000  1.0
  C  C187  1  0.67424000  0.88008000  0.17685000  1.0
  C  C188  1  0.21182000  0.20895000  0.81896000  1.0
  C  C189  1  0.28818000  0.18103000  0.79104000  1.0
  C  C190  1  0.78818000  0.79104000  0.18103000  1.0
  C  C191  1  0.71182000  0.81897000  0.20896000  1.0
  N  N192  1  0.04690000  0.79964000  0.01098000  1.0
  N  N193  1  0.45310000  0.98902000  0.20036000  1.0
  N  N194  1  0.95310000  0.20036000  0.98902000  1.0
  N  N195  1  0.54690000  0.01099000  0.79964000  1.0
  N  N196  1  0.97256000  0.81757000  0.84652000  1.0
  N  N197  1  0.52744000  0.15348000  0.18243000  1.0
  N  N198  1  0.02743000  0.18243000  0.15348000  1.0
  N  N199  1  0.47257000  0.84652000  0.81757000  1.0
  N  N200  1  0.08218000  0.97604000  0.90784000  1.0
  N  N201  1  0.41782000  0.09216000  0.02396000  1.0
  N  N202  1  0.91782000  0.02396000  0.09216000  1.0
  N  N203  1  0.58218000  0.90784000  0.97604000  1.0
  O  O204  1  0.80892000  0.65599000  0.87878000  1.0
  O  O205  1  0.69108000  0.12122000  0.34401000  1.0
  O  O206  1  0.19107000  0.34401000  0.12122000  1.0
  O  O207  1  0.30892000  0.87878000  0.65599000  1.0
  O  O208  1  0.79026000  0.49013000  0.79747000  1.0
  O  O209  1  0.70973000  0.20252000  0.50987000  1.0
  O  O210  1  0.20974000  0.50987000  0.20252000  1.0
  O  O211  1  0.29027000  0.79747000  0.49013000  1.0
  O  O212  1  0.60743000  0.36722000  0.59780000  1.0
  O  O213  1  0.89256000  0.40220000  0.63277000  1.0
  O  O214  1  0.39257000  0.63277000  0.40219000  1.0
  O  O215  1  0.10743000  0.59781000  0.36722000  1.0
  O  O216  1  0.60619000  0.26823000  0.67441000  1.0
  O  O217  1  0.89381000  0.32559000  0.73177000  1.0
  O  O218  1  0.39381000  0.73177000  0.32559000  1.0
  O  O219  1  0.10619000  0.67441000  0.26823000  1.0
  O  O220  1  0.36141000  0.40665000  0.82842000  1.0
  O  O221  1  0.13859000  0.17158000  0.59335000  1.0
  O  O222  1  0.63859000  0.59334000  0.17157000  1.0
  O  O223  1  0.86141000  0.82842000  0.40666000  1.0
  O  O224  1  0.16944000  0.59050000  0.06621000  1.0
  O  O225  1  0.33056000  0.93379000  0.40950000  1.0
  O  O226  1  0.83056000  0.40950000  0.93379000  1.0
  O  O227  1  0.66944000  0.06621000  0.59050000  1.0
  O  O228  1  0.04723000  0.43499000  0.94697000  1.0
  O  O229  1  0.45277000  0.05303000  0.56501000  1.0
  O  O230  1  0.95277000  0.56501000  0.05302000  1.0
  O  O231  1  0.54723000  0.94698000  0.43500000  1.0
  O  O232  1  0.09333000  0.66937000  0.81008000  1.0
  O  O233  1  0.40668000  0.18993000  0.33063000  1.0
  O  O234  1  0.90668000  0.33064000  0.18993000  1.0
  O  O235  1  0.59333000  0.81008000  0.66937000  1.0
  O  O236  1  0.00981000  0.58081000  0.87005000  1.0
  O  O237  1  0.49019000  0.12995000  0.41919000  1.0
  O  O238  1  0.99018000  0.41919000  0.12995000  1.0
  O  O239  1  0.50982000  0.87005000  0.58081000  1.0
  O  O240  1  0.88017000  0.58730000  0.69019000  1.0
  O  O241  1  0.61983000  0.30981000  0.41270000  1.0
  O  O242  1  0.11983000  0.41269000  0.30981000  1.0
  O  O243  1  0.38017000  0.69019000  0.58731000  1.0
