# generated using pymatgen
data_CuH8C5N2O3
_symmetry_space_group_name_H-M   'P 1'
_cell_length_a   8.43535000
_cell_length_b   8.70817000
_cell_length_c   9.65647000
_cell_angle_alpha   89.99990000
_cell_angle_beta   90.00040000
_cell_angle_gamma   89.99940000
_symmetry_Int_Tables_number   1
_chemical_formula_structural   CuH8C5N2O3
_chemical_formula_sum   'Cu4 H32 C20 N8 O12'
_cell_volume   709.33011971
_cell_formula_units_Z   4
loop_
 _symmetry_equiv_pos_site_id
 _symmetry_equiv_pos_as_xyz
  1  'x, y, z'
loop_
 _atom_site_type_symbol
 _atom_site_label
 _atom_site_symmetry_multiplicity
 _atom_site_fract_x
 _atom_site_fract_y
 _atom_site_fract_z
 _atom_site_occupancy
  Cu  Cu0  1  0.10415000  0.06273000  0.81684000  1.0
  Cu  Cu1  1  0.89583000  0.56273000  0.68317000  1.0
  Cu  Cu2  1  0.39584000  0.93726000  0.31684000  1.0
  Cu  Cu3  1  0.60415000  0.43726000  0.18317000  1.0
  H  H4  1  0.24161000  0.32070000  0.86305000  1.0
  H  H5  1  0.75840000  0.82070000  0.63696000  1.0
  H  H6  1  0.25839000  0.67929000  0.36305000  1.0
  H  H7  1  0.74162000  0.17930000  0.13695000  1.0
  H  H8  1  0.36221000  0.16901000  0.87584000  1.0
  H  H9  1  0.63779000  0.66901000  0.62416000  1.0
  H  H10  1  0.13780000  0.83099000  0.37584000  1.0
  H  H11  1  0.86221000  0.33100000  0.12416000  1.0
  H  H12  1  0.16739000  0.31855000  0.08669000  1.0
  H  H13  1  0.83263000  0.81856000  0.41332000  1.0
  H  H14  1  0.33263000  0.68144000  0.58669000  1.0
  H  H15  1  0.66738000  0.18144000  0.91331000  1.0
  H  H16  1  0.34695000  0.21779000  0.11281000  1.0
  H  H17  1  0.65305000  0.71781000  0.38718000  1.0
  H  H18  1  0.15306000  0.78219000  0.61281000  1.0
  H  H19  1  0.84695000  0.28220000  0.88719000  1.0
  H  H20  1  0.05753000  0.77684000  0.08526000  1.0
  H  H21  1  0.94246000  0.27686000  0.41473000  1.0
  H  H22  1  0.44247000  0.22315000  0.58525000  1.0
  H  H23  1  0.55753000  0.72316000  0.91473000  1.0
  H  H24  1  0.73775000  0.93633000  0.03398000  1.0
  H  H25  1  0.26225000  0.43633000  0.46601000  1.0
  H  H26  1  0.76225000  0.06367000  0.53398000  1.0
  H  H27  1  0.23776000  0.56368000  0.96603000  1.0
  H  H28  1  0.84206000  0.93852000  0.19528000  1.0
  H  H29  1  0.15794000  0.43853000  0.30471000  1.0
  H  H30  1  0.65794000  0.06147000  0.69529000  1.0
  H  H31  1  0.34205000  0.56148000  0.80472000  1.0
  H  H32  1  0.77738000  0.76071000  0.12448000  1.0
  H  H33  1  0.22262000  0.26072000  0.37552000  1.0
  H  H34  1  0.72261000  0.23929000  0.62449000  1.0
  H  H35  1  0.27738000  0.73929000  0.87552000  1.0
  C  C36  1  0.23348000  0.21480000  0.05701000  1.0
  C  C37  1  0.76652000  0.71480000  0.44299000  1.0
  C  C38  1  0.26653000  0.78520000  0.55701000  1.0
  C  C39  1  0.73348000  0.28520000  0.94299000  1.0
  C  C40  1  0.13969000  0.07397000  0.10554000  1.0
  C  C41  1  0.86031000  0.57396000  0.39446000  1.0
  C  C42  1  0.36030000  0.92604000  0.60556000  1.0
  C  C43  1  0.63971000  0.42604000  0.89445000  1.0
  C  C44  1  0.98387000  0.85713000  0.02468000  1.0
  C  C45  1  0.01614000  0.35712000  0.47533000  1.0
  C  C46  1  0.51613000  0.14287000  0.52466000  1.0
  C  C47  1  0.48387000  0.64288000  0.97533000  1.0
  C  C48  1  0.95780000  0.78703000  0.88125000  1.0
  C  C49  1  0.04219000  0.28703000  0.61876000  1.0
  C  C50  1  0.54218000  0.21296000  0.38124000  1.0
  C  C51  1  0.45779000  0.71297000  0.11875000  1.0
  C  C52  1  0.82390000  0.87466000  0.09868000  1.0
  C  C53  1  0.17610000  0.37467000  0.40131000  1.0
  C  C54  1  0.67610000  0.12533000  0.59869000  1.0
  C  C55  1  0.32390000  0.62534000  0.90132000  1.0
  N  N56  1  0.25570000  0.21444000  0.90567000  1.0
  N  N57  1  0.74429000  0.71443000  0.59433000  1.0
  N  N58  1  0.24429000  0.78556000  0.40568000  1.0
  N  N59  1  0.75571000  0.28557000  0.09433000  1.0
  N  N60  1  0.06645000  0.00084000  0.00327000  1.0
  N  N61  1  0.93355000  0.50084000  0.49674000  1.0
  N  N62  1  0.43355000  0.99916000  0.50326000  1.0
  N  N63  1  0.56645000  0.49917000  0.99673000  1.0
  O  O64  1  0.13594000  0.03817000  0.23243000  1.0
  O  O65  1  0.86407000  0.53817000  0.26758000  1.0
  O  O66  1  0.36407000  0.96183000  0.73242000  1.0
  O  O67  1  0.63593000  0.46184000  0.76757000  1.0
  O  O68  1  0.97923000  0.87234000  0.77421000  1.0
  O  O69  1  0.02072000  0.37232000  0.72579000  1.0
  O  O70  1  0.52075000  0.12766000  0.27421000  1.0
  O  O71  1  0.47922000  0.62766000  0.22579000  1.0
  O  O72  1  0.91352000  0.64820000  0.87288000  1.0
  O  O73  1  0.08649000  0.14818000  0.62712000  1.0
  O  O74  1  0.58648000  0.35180000  0.37287000  1.0
  O  O75  1  0.41354000  0.85181000  0.12712000  1.0
