# generated using pymatgen
data_Cu2H3C3Br2N3
_symmetry_space_group_name_H-M   'P 1'
_cell_length_a   6.35646000
_cell_length_b   14.15200000
_cell_length_c   14.15190000
_cell_angle_alpha   60.00070124
_cell_angle_beta   89.99900000
_cell_angle_gamma   89.99960001
_symmetry_Int_Tables_number   1
_chemical_formula_structural   Cu2H3C3Br2N3
_chemical_formula_sum   'Cu12 H18 C18 Br12 N18'
_cell_volume   1102.50759469
_cell_formula_units_Z   6
loop_
 _symmetry_equiv_pos_site_id
 _symmetry_equiv_pos_as_xyz
  1  'x, y, z'
loop_
 _atom_site_type_symbol
 _atom_site_label
 _atom_site_symmetry_multiplicity
 _atom_site_fract_x
 _atom_site_fract_y
 _atom_site_fract_z
 _atom_site_occupancy
  Cu  Cu0  1  0.87668000  0.19607000  0.90196000  1.0
  Cu  Cu1  1  0.87666000  0.90195000  0.90197000  1.0
  Cu  Cu2  1  0.87668000  0.90197000  0.19608000  1.0
  Cu  Cu3  1  0.37668000  0.80392000  0.09803000  1.0
  Cu  Cu4  1  0.37667000  0.09805000  0.09804000  1.0
  Cu  Cu5  1  0.37667000  0.09803000  0.80392000  1.0
  Cu  Cu6  1  0.85932000  0.46497000  0.07007000  1.0
  Cu  Cu7  1  0.85931000  0.07008000  0.46495000  1.0
  Cu  Cu8  1  0.85926000  0.46497000  0.46496000  1.0
  Cu  Cu9  1  0.35930000  0.53503000  0.92993000  1.0
  Cu  Cu10  1  0.35929000  0.92993000  0.53504000  1.0
  Cu  Cu11  1  0.35927000  0.53504000  0.53503000  1.0
  H  H12  1  0.04586000  0.34958000  0.97294000  1.0
  H  H13  1  0.04584000  0.97292000  0.67749000  1.0
  H  H14  1  0.04584000  0.67748000  0.34960000  1.0
  H  H15  1  0.54588000  0.65041000  0.02706000  1.0
  H  H16  1  0.54587000  0.02708000  0.32252000  1.0
  H  H17  1  0.54584000  0.32251000  0.65042000  1.0
  H  H18  1  0.04586000  0.67746000  0.97293000  1.0
  H  H19  1  0.04584000  0.34961000  0.67747000  1.0
  H  H20  1  0.04587000  0.97293000  0.34960000  1.0
  H  H21  1  0.54586000  0.32253000  0.02708000  1.0
  H  H22  1  0.54583000  0.65040000  0.32252000  1.0
  H  H23  1  0.54587000  0.02707000  0.65039000  1.0
  H  H24  1  0.98725000  0.26687000  0.26686000  1.0
  H  H25  1  0.98723000  0.26687000  0.46627000  1.0
  H  H26  1  0.98723000  0.46627000  0.26686000  1.0
  H  H27  1  0.48722000  0.73313000  0.73313000  1.0
  H  H28  1  0.48722000  0.73314000  0.53373000  1.0
  H  H29  1  0.48722000  0.53373000  0.73314000  1.0
  C  C30  1  0.61067000  0.10814000  0.26971000  1.0
  C  C31  1  0.61067000  0.26972000  0.62215000  1.0
  C  C32  1  0.61067000  0.62216000  0.10813000  1.0
  C  C33  1  0.11066000  0.89186000  0.73029000  1.0
  C  C34  1  0.11065000  0.73030000  0.37784000  1.0
  C  C35  1  0.11065000  0.37784000  0.89186000  1.0
  C  C36  1  0.61065000  0.62215000  0.26971000  1.0
  C  C37  1  0.61064000  0.10814000  0.62216000  1.0
  C  C38  1  0.61065000  0.26971000  0.10814000  1.0
  C  C39  1  0.11065000  0.37785000  0.73029000  1.0
  C  C40  1  0.11066000  0.89187000  0.37784000  1.0
  C  C41  1  0.11065000  0.73029000  0.89187000  1.0
  C  C42  1  0.84762000  0.24098000  0.24097000  1.0
  C  C43  1  0.84760000  0.24097000  0.51804000  1.0
  C  C44  1  0.84760000  0.51805000  0.24097000  1.0
  C  C45  1  0.34760000  0.75901000  0.75903000  1.0
  C  C46  1  0.34758000  0.75903000  0.48195000  1.0
  C  C47  1  0.34758000  0.48195000  0.75903000  1.0
  Br  Br48  1  0.99945000  0.09517000  0.09515000  1.0
  Br  Br49  1  0.99945000  0.09514000  0.80971000  1.0
  Br  Br50  1  0.99947000  0.80970000  0.09516000  1.0
  Br  Br51  1  0.49945000  0.90483000  0.90484000  1.0
  Br  Br52  1  0.49948000  0.90486000  0.19028000  1.0
  Br  Br53  1  0.49946000  0.19029000  0.90484000  1.0
  Br  Br54  1  0.24795000  0.44040000  0.11920000  1.0
  Br  Br55  1  0.24796000  0.11920000  0.44040000  1.0
  Br  Br56  1  0.24792000  0.44040000  0.44040000  1.0
  Br  Br57  1  0.74795000  0.55960000  0.88080000  1.0
  Br  Br58  1  0.74794000  0.88080000  0.55961000  1.0
  Br  Br59  1  0.74792000  0.55960000  0.55960000  1.0
  N  N60  1  0.76665000  0.14226000  0.30952000  1.0
  N  N61  1  0.76661000  0.30951000  0.54823000  1.0
  N  N62  1  0.76665000  0.54822000  0.14226000  1.0
  N  N63  1  0.26663000  0.85774000  0.69048000  1.0
  N  N64  1  0.26662000  0.69050000  0.45178000  1.0
  N  N65  1  0.26664000  0.45178000  0.85773000  1.0
  N  N66  1  0.76662000  0.54821000  0.30951000  1.0
  N  N67  1  0.76667000  0.14229000  0.54820000  1.0
  N  N68  1  0.76666000  0.30952000  0.14228000  1.0
  N  N69  1  0.26662000  0.45179000  0.69049000  1.0
  N  N70  1  0.26665000  0.85772000  0.45179000  1.0
  N  N71  1  0.26665000  0.69047000  0.85773000  1.0
  N  N72  1  0.53611000  0.16723000  0.16723000  1.0
  N  N73  1  0.53612000  0.16721000  0.66554000  1.0
  N  N74  1  0.53611000  0.66555000  0.16721000  1.0
  N  N75  1  0.03609000  0.83276000  0.83279000  1.0
  N  N76  1  0.03612000  0.83278000  0.33446000  1.0
  N  N77  1  0.03611000  0.33446000  0.83277000  1.0
