# generated using pymatgen
data_Al2H5C12S2N(O5F)2
_symmetry_space_group_name_H-M   'P 1'
_cell_length_a   6.64771000
_cell_length_b   8.68165000
_cell_length_c   10.17578989
_cell_angle_alpha   78.89982141
_cell_angle_beta   89.21357538
_cell_angle_gamma   76.37410000
_symmetry_Int_Tables_number   1
_chemical_formula_structural   Al2H5C12S2N(O5F)2
_chemical_formula_sum   'Al2 H5 C12 S2 N1 O10 F2'
_cell_volume   559.76154121
_cell_formula_units_Z   1
loop_
 _symmetry_equiv_pos_site_id
 _symmetry_equiv_pos_as_xyz
  1  'x, y, z'
loop_
 _atom_site_type_symbol
 _atom_site_label
 _atom_site_symmetry_multiplicity
 _atom_site_fract_x
 _atom_site_fract_y
 _atom_site_fract_z
 _atom_site_occupancy
  Al  Al0  1  0.50318000  0.99469000  0.50027000  1.0
  Al  Al1  1  0.00588000  0.99247000  0.50306000  1.0
  H  H2  1  0.29380000  0.86190000  0.38628000  1.0
  H  H3  1  0.71113000  0.13754000  0.60297000  1.0
  H  H4  1  0.33860000  0.24292000  0.12838000  1.0
  H  H5  1  0.86808000  0.70848000  0.90115000  1.0
  H  H6  1  0.69504000  0.84710000  0.78300000  1.0
  C  C7  1  0.71566000  0.14418000  0.28003000  1.0
  C  C8  1  0.83516000  0.71699000  0.48510000  1.0
  C  C9  1  0.29872000  0.83915000  0.72093000  1.0
  C  C10  1  0.17301000  0.27154000  0.51725000  1.0
  C  C11  1  0.10338000  0.45039000  0.50341000  1.0
  C  C12  1  0.90438000  0.53819000  0.49952000  1.0
  C  C13  1  0.57722000  0.66701000  0.89094000  1.0
  C  C14  1  0.45240000  0.31419000  0.10040000  1.0
  C  C15  1  0.37909000  0.70469000  0.82753000  1.0
  C  C16  1  0.64467000  0.27619000  0.16505000  1.0
  C  C17  1  0.42826000  0.45463000  0.00018000  1.0
  C  C18  1  0.60139000  0.52244000  0.99059000  1.0
  S  S19  1  0.23309000  0.56288000  0.88540000  1.0
  S  S20  1  0.79599000  0.41157000  0.10489000  1.0
  N  N21  1  0.72056000  0.75515000  0.86440000  1.0
  O  O22  1  0.58669000  0.05892000  0.32281000  1.0
  O  O23  1  0.97004000  0.79857000  0.45458000  1.0
  O  O24  1  0.11378000  0.86049000  0.67356000  1.0
  O  O25  1  0.36256000  0.21776000  0.49573000  1.0
  O  O26  1  0.41996000  0.93340000  0.67770000  1.0
  O  O27  1  0.03841000  0.18962000  0.54764000  1.0
  O  O28  1  0.89666000  0.12492000  0.33033000  1.0
  O  O29  1  0.64565000  0.77163000  0.50619000  1.0
  O  O30  1  0.26771000  0.95354000  0.43083000  1.0
  O  O31  1  0.74021000  0.03499000  0.57301000  1.0
  F  F32  1  0.25955000  0.52599000  0.48924000  1.0
  F  F33  1  0.74801000  0.46259000  0.51377000  1.0
