# generated using pymatgen
data_ThH4(C2O5)2
_symmetry_space_group_name_H-M   'P 1'
_cell_length_a   6.64074000
_cell_length_b   7.74870000
_cell_length_c   10.41100000
_cell_angle_alpha   71.43610000
_cell_angle_beta   71.41250000
_cell_angle_gamma   64.68400000
_symmetry_Int_Tables_number   1
_chemical_formula_structural   ThH4(C2O5)2
_chemical_formula_sum   'Th2 H8 C8 O20'
_cell_volume   448.52858398
_cell_formula_units_Z   2
loop_
 _symmetry_equiv_pos_site_id
 _symmetry_equiv_pos_as_xyz
  1  'x, y, z'
loop_
 _atom_site_type_symbol
 _atom_site_label
 _atom_site_symmetry_multiplicity
 _atom_site_fract_x
 _atom_site_fract_y
 _atom_site_fract_z
 _atom_site_occupancy
  Th  Th0  1  0.73991000  0.24993000  0.75006000  1.0
  Th  Th1  1  0.26009000  0.75007000  0.24994000  1.0
  H  H2  1  0.52536000  0.92618000  0.84794000  1.0
  H  H3  1  0.29991000  0.57376000  0.65212000  1.0
  H  H4  1  0.47464000  0.07380000  0.15207000  1.0
  H  H5  1  0.70010000  0.42624000  0.34788000  1.0
  H  H6  1  0.39796000  0.08285000  0.72577000  1.0
  H  H7  1  0.20694000  0.41694000  0.77427000  1.0
  H  H8  1  0.60204000  0.91715000  0.27422000  1.0
  H  H9  1  0.79307000  0.58306000  0.22572000  1.0
  C  C10  1  0.45843000  0.41886000  0.05006000  1.0
  C  C11  1  0.92748000  0.08114000  0.44992000  1.0
  C  C12  1  0.54156000  0.58112000  0.94995000  1.0
  C  C13  1  0.07253000  0.91885000  0.55007000  1.0
  C  C14  1  0.94955000  0.92131000  0.01221000  1.0
  C  C15  1  0.88331000  0.57850000  0.48775000  1.0
  C  C16  1  0.05045000  0.07869000  0.98780000  1.0
  C  C17  1  0.11669000  0.42150000  0.51224000  1.0
  O  O18  1  0.83130000  0.94514000  0.93054000  1.0
  O  O19  1  0.70723000  0.55488000  0.56948000  1.0
  O  O20  1  0.16869000  0.05486000  0.06946000  1.0
  O  O21  1  0.29277000  0.44514000  0.43051000  1.0
  O  O22  1  0.52516000  0.04212000  0.77047000  1.0
  O  O23  1  0.33820000  0.45771000  0.72955000  1.0
  O  O24  1  0.47485000  0.95790000  0.22952000  1.0
  O  O25  1  0.66180000  0.54230000  0.27045000  1.0
  O  O26  1  0.50912000  0.26861000  0.00353000  1.0
  O  O27  1  0.78137000  0.23121000  0.49655000  1.0
  O  O28  1  0.49087000  0.73138000  0.99648000  1.0
  O  O29  1  0.21864000  0.76879000  0.50344000  1.0
  O  O30  1  0.99330000  0.77993000  0.11526000  1.0
  O  O31  1  0.88870000  0.71969000  0.38450000  1.0
  O  O32  1  0.00669000  0.22007000  0.88473000  1.0
  O  O33  1  0.11128000  0.28032000  0.61550000  1.0
  O  O34  1  0.35019000  0.44418000  0.17015000  1.0
  O  O35  1  0.96480000  0.05592000  0.32976000  1.0
  O  O36  1  0.64981000  0.55581000  0.82986000  1.0
  O  O37  1  0.03519000  0.94409000  0.67025000  1.0
