# generated using pymatgen
data_AgH6C11NO4
_symmetry_space_group_name_H-M   'P 1'
_cell_length_a   6.59309000
_cell_length_b   8.79538495
_cell_length_c   9.20212000
_cell_angle_alpha   88.75163043
_cell_angle_beta   72.79750000
_cell_angle_gamma   68.32868866
_symmetry_Int_Tables_number   1
_chemical_formula_structural   AgH6C11NO4
_chemical_formula_sum   'Ag2 H12 C22 N2 O8'
_cell_volume   471.41519712
_cell_formula_units_Z   2
loop_
 _symmetry_equiv_pos_site_id
 _symmetry_equiv_pos_as_xyz
  1  'x, y, z'
loop_
 _atom_site_type_symbol
 _atom_site_label
 _atom_site_symmetry_multiplicity
 _atom_site_fract_x
 _atom_site_fract_y
 _atom_site_fract_z
 _atom_site_occupancy
  Ag  Ag0  1  0.50385000  0.09120000  0.78412000  1.0
  Ag  Ag1  1  0.49614000  0.90881000  0.21588000  1.0
  H  H2  1  0.79281000  0.09340000  0.19748000  1.0
  H  H3  1  0.20718000  0.90661000  0.80253000  1.0
  H  H4  1  0.13224000  0.85101000  0.04894000  1.0
  H  H5  1  0.86775000  0.14900000  0.95106000  1.0
  H  H6  1  0.31668000  0.61619000  0.18196000  1.0
  H  H7  1  0.68331000  0.38382000  0.81804000  1.0
  H  H8  1  0.62737000  0.09812000  0.47878000  1.0
  H  H9  1  0.37263000  0.90188000  0.52122000  1.0
  H  H10  1  0.33976000  0.49369000  0.42934000  1.0
  H  H11  1  0.66023000  0.50631000  0.57066000  1.0
  H  H12  1  0.26329000  0.44916000  0.93856000  1.0
  H  H13  1  0.73672000  0.55082000  0.06144000  1.0
  C  C14  1  0.87959000  0.86052000  0.49115000  1.0
  C  C15  1  0.12041000  0.13948000  0.50886000  1.0
  C  C16  1  0.86873000  0.98886000  0.25647000  1.0
  C  C17  1  0.13126000  0.01114000  0.74353000  1.0
  C  C18  1  0.06508000  0.85303000  0.17217000  1.0
  C  C19  1  0.93492000  0.14697000  0.82783000  1.0
  C  C20  1  0.16943000  0.72315000  0.24596000  1.0
  C  C21  1  0.83057000  0.27685000  0.75404000  1.0
  C  C22  1  0.88682000  0.74308000  0.72093000  1.0
  C  C23  1  0.11319000  0.25692000  0.27907000  1.0
  C  C24  1  0.77716000  0.99305000  0.41308000  1.0
  C  C25  1  0.22282000  0.00696000  0.58693000  1.0
  C  C26  1  0.76316000  0.75067000  0.88989000  1.0
  C  C27  1  0.23684000  0.24933000  0.11011000  1.0
  C  C28  1  0.18448000  0.59823000  0.48896000  1.0
  C  C29  1  0.81551000  0.40177000  0.51104000  1.0
  C  C30  1  0.09356000  0.60796000  0.64598000  1.0
  C  C31  1  0.90645000  0.39204000  0.35402000  1.0
  C  C32  1  0.08008000  0.72439000  0.40672000  1.0
  C  C33  1  0.91992000  0.27561000  0.59327000  1.0
  C  C34  1  0.21935000  0.48086000  0.73172000  1.0
  C  C35  1  0.78066000  0.51913000  0.26828000  1.0
  N  N36  1  0.78644000  0.86481000  0.64626000  1.0
  N  N37  1  0.21356000  0.13519000  0.35374000  1.0
  O  O38  1  0.34291000  0.33909000  0.67057000  1.0
  O  O39  1  0.65710000  0.66091000  0.32942000  1.0
  O  O40  1  0.74389000  0.86924000  0.97474000  1.0
  O  O41  1  0.25611000  0.13076000  0.02527000  1.0
  O  O42  1  0.68511000  0.63859000  0.92908000  1.0
  O  O43  1  0.31490000  0.36140000  0.07091000  1.0
  O  O44  1  0.19329000  0.53778000  0.86995000  1.0
  O  O45  1  0.80672000  0.46221000  0.13005000  1.0
