# generated using pymatgen
data_CsLiH8(CO2)4
_symmetry_space_group_name_H-M   'P 1'
_cell_length_a   4.98680000
_cell_length_b   10.74360000
_cell_length_c   16.91660000
_cell_angle_alpha   90.00030000
_cell_angle_beta   90.00010000
_cell_angle_gamma   82.28950000
_symmetry_Int_Tables_number   1
_chemical_formula_structural   CsLiH8(CO2)4
_chemical_formula_sum   'Cs4 Li4 H32 C16 O32'
_cell_volume   898.13244461
_cell_formula_units_Z   4
loop_
 _symmetry_equiv_pos_site_id
 _symmetry_equiv_pos_as_xyz
  1  'x, y, z'
loop_
 _atom_site_type_symbol
 _atom_site_label
 _atom_site_symmetry_multiplicity
 _atom_site_fract_x
 _atom_site_fract_y
 _atom_site_fract_z
 _atom_site_occupancy
  Cs  Cs0  1  0.36594000  0.64789000  0.72528000  1.0
  Cs  Cs1  1  0.63406000  0.85211000  0.22528000  1.0
  Cs  Cs2  1  0.63406000  0.35211000  0.27472000  1.0
  Cs  Cs3  1  0.36594000  0.14789000  0.77472000  1.0
  Li  Li4  1  0.10392000  0.04154000  0.33185000  1.0
  Li  Li5  1  0.89607000  0.45847000  0.83185000  1.0
  Li  Li6  1  0.89607000  0.95846000  0.66815000  1.0
  Li  Li7  1  0.10394000  0.54154000  0.16815000  1.0
  H  H8  1  0.68722000  0.33355000  0.48664000  1.0
  H  H9  1  0.31276000  0.16645000  0.98664000  1.0
  H  H10  1  0.31276000  0.66645000  0.51336000  1.0
  H  H11  1  0.68725000  0.83355000  0.01336000  1.0
  H  H12  1  0.62707000  0.12353000  0.53435000  1.0
  H  H13  1  0.37293000  0.37647000  0.03435000  1.0
  H  H14  1  0.37292000  0.87647000  0.46565000  1.0
  H  H15  1  0.62709000  0.62353000  0.96565000  1.0
  H  H16  1  0.16458000  0.42884000  0.46224000  1.0
  H  H17  1  0.83540000  0.07116000  0.96224000  1.0
  H  H18  1  0.83540000  0.57116000  0.53776000  1.0
  H  H19  1  0.16461000  0.92884000  0.03776000  1.0
  H  H20  1  0.09714000  0.14890000  0.46247000  1.0
  H  H21  1  0.90284000  0.35109000  0.96247000  1.0
  H  H22  1  0.90284000  0.85109000  0.53753000  1.0
  H  H23  1  0.09718000  0.64891000  0.03753000  1.0
  H  H24  1  0.19227000  0.79964000  0.36495000  1.0
  H  H25  1  0.80775000  0.70036000  0.86495000  1.0
  H  H26  1  0.80772000  0.20036000  0.63505000  1.0
  H  H27  1  0.19227000  0.29964000  0.13505000  1.0
  H  H28  1  0.92878000  0.86908000  0.40643000  1.0
  H  H29  1  0.07123000  0.63092000  0.90643000  1.0
  H  H30  1  0.07120000  0.13092000  0.59357000  1.0
  H  H31  1  0.92879000  0.36908000  0.09357000  1.0
  H  H32  1  0.97606000  0.06159000  0.17183000  1.0
  H  H33  1  0.02392000  0.43841000  0.67183000  1.0
  H  H34  1  0.02395000  0.93841000  0.82817000  1.0
  H  H35  1  0.97607000  0.56159000  0.32817000  1.0
  H  H36  1  0.24832000  0.10684000  0.19430000  1.0
  H  H37  1  0.75166000  0.39315000  0.69430000  1.0
  H  H38  1  0.75168000  0.89316000  0.80570000  1.0
  H  H39  1  0.24833000  0.60685000  0.30570000  1.0
  C  C40  1  0.39256000  0.35999000  0.57848000  1.0
  C  C41  1  0.60742000  0.14000000  0.07849000  1.0
  C  C42  1  0.60742000  0.64001000  0.42151000  1.0
  C  C43  1  0.39258000  0.86000000  0.92152000  1.0
  C  C44  1  0.47869000  0.31207000  0.49579000  1.0
  C  C45  1  0.52129000  0.18793000  0.99580000  1.0
  C  C46  1  0.52129000  0.68793000  0.50420000  1.0
  C  C47  1  0.47873000  0.81207000  0.00421000  1.0
  C  C48  1  0.48536000  0.16813000  0.48980000  1.0
  C  C49  1  0.51464000  0.33186000  0.98981000  1.0
  C  C50  1  0.51463000  0.83187000  0.51019000  1.0
  C  C51  1  0.48538000  0.66814000  0.01019000  1.0
  C  C52  1  0.60179000  0.12435000  0.40896000  1.0
  C  C53  1  0.39821000  0.37565000  0.90897000  1.0
  C  C54  1  0.39820000  0.87565000  0.59104000  1.0
  C  C55  1  0.60181000  0.62435000  0.09104000  1.0
  O  O56  1  0.18558000  0.44186000  0.58355000  1.0
  O  O57  1  0.81441000  0.05814000  0.08356000  1.0
  O  O58  1  0.81440000  0.55814000  0.41645000  1.0
  O  O59  1  0.18560000  0.94186000  0.91645000  1.0
  O  O60  1  0.53523000  0.31469000  0.63708000  1.0
  O  O61  1  0.46476000  0.18530000  0.13708000  1.0
  O  O62  1  0.46476000  0.68531000  0.36292000  1.0
  O  O63  1  0.53524000  0.81470000  0.86293000  1.0
  O  O64  1  0.30718000  0.37154000  0.43580000  1.0
  O  O65  1  0.69280000  0.12846000  0.93581000  1.0
  O  O66  1  0.69280000  0.62846000  0.56419000  1.0
  O  O67  1  0.30722000  0.87154000  0.06420000  1.0
  O  O68  1  0.23102000  0.12889000  0.50628000  1.0
  O  O69  1  0.76897000  0.37110000  0.00628000  1.0
  O  O70  1  0.76897000  0.87110000  0.49372000  1.0
  O  O71  1  0.23105000  0.62890000  0.99372000  1.0
  O  O72  1  0.45821000  0.07687000  0.35893000  1.0
  O  O73  1  0.54180000  0.42313000  0.85893000  1.0
  O  O74  1  0.54179000  0.92313000  0.64107000  1.0
  O  O75  1  0.45822000  0.57688000  0.14107000  1.0
  O  O76  1  0.84527000  0.14486000  0.39599000  1.0
  O  O77  1  0.15473000  0.35514000  0.89599000  1.0
  O  O78  1  0.15472000  0.85514000  0.60401000  1.0
  O  O79  1  0.84528000  0.64486000  0.10401000  1.0
  O  O80  1  0.04318000  0.87045000  0.35803000  1.0
  O  O81  1  0.95683000  0.62955000  0.85803000  1.0
  O  O82  1  0.95681000  0.12955000  0.64197000  1.0
  O  O83  1  0.04319000  0.37045000  0.14197000  1.0
  O  O84  1  0.09904000  0.06722000  0.21806000  1.0
  O  O85  1  0.90094000  0.43278000  0.71806000  1.0
  O  O86  1  0.90096000  0.93278000  0.78194000  1.0
  O  O87  1  0.09905000  0.56722000  0.28194000  1.0
