# generated using pymatgen
data_ZnH14C10(NO2)2
_symmetry_space_group_name_H-M   'P 1'
_cell_length_a   6.06320000
_cell_length_b   9.54057000
_cell_length_c   10.88220000
_cell_angle_alpha   88.06980000
_cell_angle_beta   89.99950000
_cell_angle_gamma   89.99740000
_symmetry_Int_Tables_number   1
_chemical_formula_structural   ZnH14C10(NO2)2
_chemical_formula_sum   'Zn2 H28 C20 N4 O8'
_cell_volume   629.13874443
_cell_formula_units_Z   2
loop_
 _symmetry_equiv_pos_site_id
 _symmetry_equiv_pos_as_xyz
  1  'x, y, z'
loop_
 _atom_site_type_symbol
 _atom_site_label
 _atom_site_symmetry_multiplicity
 _atom_site_fract_x
 _atom_site_fract_y
 _atom_site_fract_z
 _atom_site_occupancy
  Zn  Zn0  1  0.07953000  0.91154000  0.18584000  1.0
  Zn  Zn1  1  0.57953000  0.08847000  0.81418000  1.0
  H  H2  1  0.73467000  0.95531000  0.48329000  1.0
  H  H3  1  0.23470000  0.04466000  0.51673000  1.0
  H  H4  1  0.78955000  0.61761000  0.51832000  1.0
  H  H5  1  0.28956000  0.38234000  0.48166000  1.0
  H  H6  1  0.94437000  0.49733000  0.43607000  1.0
  H  H7  1  0.44436000  0.50264000  0.56389000  1.0
  H  H8  1  0.49268000  0.59783000  0.37796000  1.0
  H  H9  1  0.99268000  0.40216000  0.62201000  1.0
  H  H10  1  0.64222000  0.46593000  0.30433000  1.0
  H  H11  1  0.14221000  0.53408000  0.69563000  1.0
  H  H12  1  0.56199000  0.75704000  0.21196000  1.0
  H  H13  1  0.06199000  0.24297000  0.78803000  1.0
  H  H14  1  0.73230000  0.63371000  0.13945000  1.0
  H  H15  1  0.23228000  0.36632000  0.86054000  1.0
  H  H16  1  0.42745000  0.16988000  0.25780000  1.0
  H  H17  1  0.92747000  0.83012000  0.74223000  1.0
  H  H18  1  0.88623000  0.39697000  0.16861000  1.0
  H  H19  1  0.38621000  0.60306000  0.83137000  1.0
  H  H20  1  0.01575000  0.39831000  0.02327000  1.0
  H  H21  1  0.51571000  0.60170000  0.97672000  1.0
  H  H22  1  0.25915000  0.44814000  0.24058000  1.0
  H  H23  1  0.75914000  0.55187000  0.75942000  1.0
  H  H24  1  0.37858000  0.36522000  0.11306000  1.0
  H  H25  1  0.87856000  0.63476000  0.88696000  1.0
  H  H26  1  0.13528000  0.07940000  0.54406000  1.0
  H  H27  1  0.63525000  0.92057000  0.45597000  1.0
  H  H28  1  0.20097000  0.21975000  0.34890000  1.0
  H  H29  1  0.70100000  0.78027000  0.65111000  1.0
  C  C30  1  0.18293000  0.77595000  0.41694000  1.0
  C  C31  1  0.68293000  0.22403000  0.58307000  1.0
  C  C32  1  0.97182000  0.71062000  0.36811000  1.0
  C  C33  1  0.47182000  0.28937000  0.63189000  1.0
  C  C34  1  0.84267000  0.59223000  0.42512000  1.0
  C  C35  1  0.34266000  0.40775000  0.57485000  1.0
  C  C36  1  0.65007000  0.57432000  0.33415000  1.0
  C  C37  1  0.15007000  0.42568000  0.66580000  1.0
  C  C38  1  0.69680000  0.68183000  0.22788000  1.0
  C  C39  1  0.19680000  0.31819000  0.77210000  1.0
  C  C40  1  0.82688000  0.11507000  0.03587000  1.0
  C  C41  1  0.32689000  0.88496000  0.96414000  1.0
  C  C42  1  0.98471000  0.19433000  0.11501000  1.0
  C  C43  1  0.48470000  0.80568000  0.88500000  1.0
  C  C44  1  0.02082000  0.34952000  0.11592000  1.0
  C  C45  1  0.52079000  0.65049000  0.88407000  1.0
  C  C46  1  0.24558000  0.35770000  0.18176000  1.0
  C  C47  1  0.74558000  0.64230000  0.81825000  1.0
  C  C48  1  0.26152000  0.21574000  0.25370000  1.0
  C  C49  1  0.76153000  0.78427000  0.74631000  1.0
  N  N50  1  0.89478000  0.75759000  0.26463000  1.0
  N  N51  1  0.39479000  0.24242000  0.73537000  1.0
  N  N52  1  0.11157000  0.12306000  0.18800000  1.0
  N  N53  1  0.61158000  0.87695000  0.81202000  1.0
  O  O54  1  0.27400000  0.86631000  0.34224000  1.0
  O  O55  1  0.77401000  0.13367000  0.65778000  1.0
  O  O56  1  0.25018000  0.73567000  0.52065000  1.0
  O  O57  1  0.75020000  0.26429000  0.47936000  1.0
  O  O58  1  0.80308000  0.98611000  0.05963000  1.0
  O  O59  1  0.30309000  0.01391000  0.94039000  1.0
  O  O60  1  0.73747000  0.18774000  0.94824000  1.0
  O  O61  1  0.23750000  0.81228000  0.05177000  1.0
