# generated using pymatgen
data_CoH20C26(NO5)2
_symmetry_space_group_name_H-M   'P 1'
_cell_length_a   6.62912000
_cell_length_b   8.47777000
_cell_length_c   11.09780000
_cell_angle_alpha   88.99270000
_cell_angle_beta   75.33300000
_cell_angle_gamma   84.53020000
_symmetry_Int_Tables_number   1
_chemical_formula_structural   CoH20C26(NO5)2
_chemical_formula_sum   'Co1 H20 C26 N2 O10'
_cell_volume   600.61275985
_cell_formula_units_Z   1
loop_
 _symmetry_equiv_pos_site_id
 _symmetry_equiv_pos_as_xyz
  1  'x, y, z'
loop_
 _atom_site_type_symbol
 _atom_site_label
 _atom_site_symmetry_multiplicity
 _atom_site_fract_x
 _atom_site_fract_y
 _atom_site_fract_z
 _atom_site_occupancy
  Co  Co0  1  0.50001000  0.50000000  0.00000000  1.0
  H  H1  1  0.18116000  0.38393000  0.01921000  1.0
  H  H2  1  0.81886000  0.61609000  0.98079000  1.0
  H  H3  1  0.18688000  0.43537000  0.16079000  1.0
  H  H4  1  0.81315000  0.56463000  0.83920000  1.0
  H  H5  1  0.63326000  0.41657000  0.69255000  1.0
  H  H6  1  0.36672000  0.58343000  0.30746000  1.0
  H  H7  1  0.36065000  0.17568000  0.04399000  1.0
  H  H8  1  0.63938000  0.82432000  0.95599000  1.0
  H  H9  1  0.42983000  0.95196000  0.17584000  1.0
  H  H10  1  0.57018000  0.04805000  0.82414000  1.0
  H  H11  1  0.92234000  0.20161000  0.25563000  1.0
  H  H12  1  0.07766000  0.79839000  0.74438000  1.0
  H  H13  1  0.83162000  0.41534000  0.12118000  1.0
  H  H14  1  0.16841000  0.58466000  0.87883000  1.0
  H  H15  1  0.70099000  0.53874000  0.38675000  1.0
  H  H16  1  0.29898000  0.46126000  0.61325000  1.0
  H  H17  1  0.81975000  0.91182000  0.60921000  1.0
  H  H18  1  0.18022000  0.08817000  0.39080000  1.0
  H  H19  1  0.76994000  0.10751000  0.44836000  1.0
  H  H20  1  0.23002000  0.89249000  0.55165000  1.0
  C  C21  1  0.48363000  0.17761000  0.09282000  1.0
  C  C22  1  0.51640000  0.82240000  0.90717000  1.0
  C  C23  1  0.52545000  0.05134000  0.16670000  1.0
  C  C24  1  0.47456000  0.94866000  0.83329000  1.0
  C  C25  1  0.68073000  0.05638000  0.23185000  1.0
  C  C26  1  0.31927000  0.94362000  0.76814000  1.0
  C  C27  1  0.79423000  0.19014000  0.21225000  1.0
  C  C28  1  0.20577000  0.80986000  0.78776000  1.0
  C  C29  1  0.74431000  0.31172000  0.13676000  1.0
  C  C30  1  0.25571000  0.68828000  0.86325000  1.0
  C  C31  1  0.71727000  0.93416000  0.32206000  1.0
  C  C32  1  0.28271000  0.06584000  0.67794000  1.0
  C  C33  1  0.69787000  0.77172000  0.30554000  1.0
  C  C34  1  0.30212000  0.22828000  0.69447000  1.0
  C  C35  1  0.71831000  0.66340000  0.39889000  1.0
  C  C36  1  0.28166000  0.33661000  0.60112000  1.0
  C  C37  1  0.76368000  0.71306000  0.50803000  1.0
  C  C38  1  0.23629000  0.28694000  0.49197000  1.0
  C  C39  1  0.78832000  0.87320000  0.52331000  1.0
  C  C40  1  0.21165000  0.12680000  0.47670000  1.0
  C  C41  1  0.76268000  0.98196000  0.43223000  1.0
  C  C42  1  0.23730000  0.01804000  0.56778000  1.0
  C  C43  1  0.77051000  0.60327000  0.61290000  1.0
  C  C44  1  0.22949000  0.39673000  0.38711000  1.0
  C  C45  1  0.67315000  0.71067000  0.18397000  1.0
  C  C46  1  0.32685000  0.28933000  0.81603000  1.0
  N  N47  1  0.58677000  0.30979000  0.07968000  1.0
  N  N48  1  0.41326000  0.69022000  0.92032000  1.0
  O  O49  1  0.20726000  0.47285000  0.07272000  1.0
  O  O50  1  0.79276000  0.52716000  0.92728000  1.0
  O  O51  1  0.51145000  0.63716000  0.18393000  1.0
  O  O52  1  0.48856000  0.36284000  0.81606000  1.0
  O  O53  1  0.81754000  0.73374000  0.08861000  1.0
  O  O54  1  0.18247000  0.26627000  0.91139000  1.0
  O  O55  1  0.84039000  0.64193000  0.70104000  1.0
  O  O56  1  0.15963000  0.35805000  0.29894000  1.0
  O  O57  1  0.69038000  0.46746000  0.60604000  1.0
  O  O58  1  0.30959000  0.53253000  0.39396000  1.0
