# generated using pymatgen
data_ZnH13C16N3O4
_symmetry_space_group_name_H-M   'P 1'
_cell_length_a   8.68365000
_cell_length_b   11.52240000
_cell_length_c   15.43000000
_cell_angle_alpha   90.00000000
_cell_angle_beta   90.00000000
_cell_angle_gamma   91.72890000
_symmetry_Int_Tables_number   1
_chemical_formula_structural   ZnH13C16N3O4
_chemical_formula_sum   'Zn4 H52 C64 N12 O16'
_cell_volume   1543.16880382
_cell_formula_units_Z   4
loop_
 _symmetry_equiv_pos_site_id
 _symmetry_equiv_pos_as_xyz
  1  'x, y, z'
loop_
 _atom_site_type_symbol
 _atom_site_label
 _atom_site_symmetry_multiplicity
 _atom_site_fract_x
 _atom_site_fract_y
 _atom_site_fract_z
 _atom_site_occupancy
  Zn  Zn0  1  0.77012000  0.63237000  0.83579000  1.0
  Zn  Zn1  1  0.72988000  0.86764000  0.33579000  1.0
  Zn  Zn2  1  0.22988000  0.36764000  0.16422000  1.0
  Zn  Zn3  1  0.27012000  0.13236000  0.66421000  1.0
  H  H4  1  0.13748000  0.40302000  0.84579000  1.0
  H  H5  1  0.36253000  0.09697000  0.34579000  1.0
  H  H6  1  0.86252000  0.59698000  0.15421000  1.0
  H  H7  1  0.63748000  0.90302000  0.65421000  1.0
  H  H8  1  0.42489000  0.48618000  0.64487000  1.0
  H  H9  1  0.07511000  0.01381000  0.14486000  1.0
  H  H10  1  0.57511000  0.51381000  0.35514000  1.0
  H  H11  1  0.92489000  0.98619000  0.85514000  1.0
  H  H12  1  0.66046000  0.56531000  0.50580000  1.0
  H  H13  1  0.83953000  0.93468000  0.00579000  1.0
  H  H14  1  0.33952000  0.43467000  0.49421000  1.0
  H  H15  1  0.16047000  0.06532000  0.99421000  1.0
  H  H16  1  0.57906000  0.88601000  0.02880000  1.0
  H  H17  1  0.92094000  0.61400000  0.52880000  1.0
  H  H18  1  0.42094000  0.11400000  0.97120000  1.0
  H  H19  1  0.07905000  0.38601000  0.47120000  1.0
  H  H20  1  0.52067000  0.99864000  0.85025000  1.0
  H  H21  1  0.97933000  0.50136000  0.35025000  1.0
  H  H22  1  0.47934000  0.00137000  0.14975000  1.0
  H  H23  1  0.02067000  0.49864000  0.64974000  1.0
  H  H24  1  0.95121000  0.81896000  0.76695000  1.0
  H  H25  1  0.54880000  0.68103000  0.26695000  1.0
  H  H26  1  0.04879000  0.18103000  0.23305000  1.0
  H  H27  1  0.45120000  0.31896000  0.73305000  1.0
  H  H28  1  0.22346000  0.86764000  0.72746000  1.0
  H  H29  1  0.27655000  0.63235000  0.22747000  1.0
  H  H30  1  0.77654000  0.13236000  0.27253000  1.0
  H  H31  1  0.72345000  0.36764000  0.77254000  1.0
  H  H32  1  0.42272000  0.71220000  0.74902000  1.0
  H  H33  1  0.07729000  0.78779000  0.24903000  1.0
  H  H34  1  0.57728000  0.28779000  0.25097000  1.0
  H  H35  1  0.92271000  0.21221000  0.75097000  1.0
  H  H36  1  0.33909000  0.52306000  0.81033000  1.0
  H  H37  1  0.16092000  0.97693000  0.31033000  1.0
  H  H38  1  0.66090000  0.47693000  0.18966000  1.0
  H  H39  1  0.83909000  0.02306000  0.68966000  1.0
  H  H40  1  0.04647000  0.26608000  0.94295000  1.0
  H  H41  1  0.45352000  0.23392000  0.44296000  1.0
  H  H42  1  0.95352000  0.73392000  0.05705000  1.0
  H  H43  1  0.54648000  0.76608000  0.55704000  1.0
  H  H44  1  0.81360000  0.18312000  0.01804000  1.0
  H  H45  1  0.68639000  0.31689000  0.51803000  1.0
  H  H46  1  0.18640000  0.81690000  0.98197000  1.0
  H  H47  1  0.31361000  0.68310000  0.48196000  1.0
  H  H48  1  0.57110000  0.29981000  0.02287000  1.0
  H  H49  1  0.92890000  0.20021000  0.52286000  1.0
  H  H50  1  0.42889000  0.70020000  0.97715000  1.0
  H  H51  1  0.07111000  0.79980000  0.47713000  1.0
  H  H52  1  0.57993000  0.49608000  0.95231000  1.0
  H  H53  1  0.92008000  0.00393000  0.45231000  1.0
  H  H54  1  0.42007000  0.50393000  0.04770000  1.0
  H  H55  1  0.07992000  0.99607000  0.54769000  1.0
  C  C56  1  0.64587000  0.57585000  0.67781000  1.0
  C  C57  1  0.85414000  0.92414000  0.17781000  1.0
  C  C58  1  0.35413000  0.42414000  0.32219000  1.0
  C  C59  1  0.14587000  0.07585000  0.82219000  1.0
  C  C60  1  0.53028000  0.52443000  0.61704000  1.0
  C  C61  1  0.96973000  0.97555000  0.11703000  1.0
  C  C62  1  0.46972000  0.47555000  0.38297000  1.0
  C  C63  1  0.03028000  0.02444000  0.88297000  1.0
  C  C64  1  0.55385000  0.52478000  0.53054000  1.0
  C  C65  1  0.94615000  0.97521000  0.03053000  1.0
  C  C66  1  0.44613000  0.47521000  0.46947000  1.0
  C  C67  1  0.05386000  0.02479000  0.96946000  1.0
  C  C68  1  0.53682000  0.94981000  0.98268000  1.0
  C  C69  1  0.96318000  0.55020000  0.48268000  1.0
  C  C70  1  0.46319000  0.05020000  0.01732000  1.0
  C  C71  1  0.03681000  0.44981000  0.51731000  1.0
  C  C72  1  0.55958000  0.93426000  0.89665000  1.0
  C  C73  1  0.94042000  0.56574000  0.39665000  1.0
  C  C74  1  0.44044000  0.06575000  0.10335000  1.0
  C  C75  1  0.05958000  0.43427000  0.60335000  1.0
  C  C76  1  0.64337000  0.83524000  0.86081000  1.0
  C  C77  1  0.85662000  0.66476000  0.36081000  1.0
  C  C78  1  0.35664000  0.16477000  0.13919000  1.0
  C  C79  1  0.14337000  0.33524000  0.63918000  1.0
  C  C80  1  0.04264000  0.75771000  0.77699000  1.0
  C  C81  1  0.45737000  0.74228000  0.27700000  1.0
  C  C82  1  0.95736000  0.24229000  0.22301000  1.0
  C  C83  1  0.54263000  0.25772000  0.72301000  1.0
  C  C84  1  0.19360000  0.78269000  0.75399000  1.0
  C  C85  1  0.30640000  0.71730000  0.25400000  1.0
  C  C86  1  0.80640000  0.21731000  0.24601000  1.0
  C  C87  1  0.69360000  0.28269000  0.74600000  1.0
  C  C88  1  0.30210000  0.69675000  0.76584000  1.0
  C  C89  1  0.19790000  0.80323000  0.26584000  1.0
  C  C90  1  0.69789000  0.30323000  0.23415000  1.0
  C  C91  1  0.80210000  0.19676000  0.73415000  1.0
  C  C92  1  0.25598000  0.59074000  0.80069000  1.0
  C  C93  1  0.24403000  0.90925000  0.30069000  1.0
  C  C94  1  0.74401000  0.40925000  0.19930000  1.0
  C  C95  1  0.75598000  0.09075000  0.69930000  1.0
  C  C96  1  0.10085000  0.57203000  0.82490000  1.0
  C  C97  1  0.39916000  0.92796000  0.32490000  1.0
  C  C98  1  0.89914000  0.42796000  0.17509000  1.0
  C  C99  1  0.60085000  0.07204000  0.67509000  1.0
  C  C100  1  0.93327000  0.42422000  0.90652000  1.0
  C  C101  1  0.56673000  0.07578000  0.40652000  1.0
  C  C102  1  0.06673000  0.57578000  0.09348000  1.0
  C  C103  1  0.43327000  0.92422000  0.59348000  1.0
  C  C104  1  0.94006000  0.31386000  0.94605000  1.0
  C  C105  1  0.55993000  0.18614000  0.44604000  1.0
  C  C106  1  0.05993000  0.68614000  0.05396000  1.0
  C  C107  1  0.44007000  0.81386000  0.55394000  1.0
  C  C108  1  0.81046000  0.26851000  0.98773000  1.0
  C  C109  1  0.68954000  0.23150000  0.48773000  1.0
  C  C110  1  0.18954000  0.73150000  0.01228000  1.0
  C  C111  1  0.31046000  0.76850000  0.51226000  1.0
  C  C112  1  0.67591000  0.33296000  0.99138000  1.0
  C  C113  1  0.82409000  0.16705000  0.49137000  1.0
  C  C114  1  0.32408000  0.66705000  0.00863000  1.0
  C  C115  1  0.17592000  0.83295000  0.50863000  1.0
  C  C116  1  0.68013000  0.44139000  0.95304000  1.0
  C  C117  1  0.81987000  0.05862000  0.45304000  1.0
  C  C118  1  0.31987000  0.55862000  0.04697000  1.0
  C  C119  1  0.18013000  0.94138000  0.54696000  1.0
  N  N120  1  0.99629000  0.65475000  0.81221000  1.0
  N  N121  1  0.50372000  0.84525000  0.31221000  1.0
  N  N122  1  0.00371000  0.34525000  0.18779000  1.0
  N  N123  1  0.49629000  0.15475000  0.68779000  1.0
  N  N124  1  0.06099000  0.46529000  0.86144000  1.0
  N  N125  1  0.43902000  0.03471000  0.36144000  1.0
  N  N126  1  0.93901000  0.53471000  0.13856000  1.0
  N  N127  1  0.56098000  0.96529000  0.63856000  1.0
  N  N128  1  0.80504000  0.48701000  0.91152000  1.0
  N  N129  1  0.69497000  0.01299000  0.41151000  1.0
  N  N130  1  0.19496000  0.51298000  0.08849000  1.0
  N  N131  1  0.30504000  0.98701000  0.58849000  1.0
  O  O132  1  0.61339000  0.55840000  0.75981000  1.0
  O  O133  1  0.88662000  0.94160000  0.25980000  1.0
  O  O134  1  0.38661000  0.44161000  0.24020000  1.0
  O  O135  1  0.11338000  0.05840000  0.74020000  1.0
  O  O136  1  0.76306000  0.63062000  0.65138000  1.0
  O  O137  1  0.73694000  0.86938000  0.15138000  1.0
  O  O138  1  0.23693000  0.36938000  0.34863000  1.0
  O  O139  1  0.26307000  0.13062000  0.84862000  1.0
  O  O140  1  0.66910000  0.74772000  0.91170000  1.0
  O  O141  1  0.83089000  0.75228000  0.41170000  1.0
  O  O142  1  0.33091000  0.25229000  0.08831000  1.0
  O  O143  1  0.16909000  0.24772000  0.58830000  1.0
  O  O144  1  0.68950000  0.83768000  0.78305000  1.0
  O  O145  1  0.81052000  0.66232000  0.28304000  1.0
  O  O146  1  0.31050000  0.16232000  0.21695000  1.0
  O  O147  1  0.18949000  0.33769000  0.71695000  1.0
