# generated using pymatgen
data_CoH16(C4N)4
_symmetry_space_group_name_H-M   'P 1'
_cell_length_a   7.43071000
_cell_length_b   18.73450000
_cell_length_c   18.73420000
_cell_angle_alpha   90.00030000
_cell_angle_beta   89.99900000
_cell_angle_gamma   89.99780000
_symmetry_Int_Tables_number   1
_chemical_formula_structural   CoH16(C4N)4
_chemical_formula_sum   'Co4 H64 C64 N16'
_cell_volume   2607.99990387
_cell_formula_units_Z   4
loop_
 _symmetry_equiv_pos_site_id
 _symmetry_equiv_pos_as_xyz
  1  'x, y, z'
loop_
 _atom_site_type_symbol
 _atom_site_label
 _atom_site_symmetry_multiplicity
 _atom_site_fract_x
 _atom_site_fract_y
 _atom_site_fract_z
 _atom_site_occupancy
  Co  Co0  1  0.75000000  0.25000000  0.74999000  1.0
  Co  Co1  1  0.25001000  0.25000000  0.75000000  1.0
  Co  Co2  1  0.25000000  0.75000000  0.25000000  1.0
  Co  Co3  1  0.75000000  0.75000000  0.25000000  1.0
  H  H4  1  0.92824000  0.12532000  0.03206000  1.0
  H  H5  1  0.92825000  0.37468000  0.46794000  1.0
  H  H6  1  0.57179000  0.37468000  0.03206000  1.0
  H  H7  1  0.07173000  0.53205000  0.62531000  1.0
  H  H8  1  0.42826000  0.53205000  0.87469000  1.0
  H  H9  1  0.42825000  0.96795000  0.62532000  1.0
  H  H10  1  0.07174000  0.96795000  0.87469000  1.0
  H  H11  1  0.57180000  0.12531000  0.46793000  1.0
  H  H12  1  0.07170000  0.87469000  0.96795000  1.0
  H  H13  1  0.07175000  0.62531000  0.53205000  1.0
  H  H14  1  0.42823000  0.62531000  0.96795000  1.0
  H  H15  1  0.92825000  0.46794000  0.37468000  1.0
  H  H16  1  0.57179000  0.46793000  0.12532000  1.0
  H  H17  1  0.57183000  0.03204000  0.37468000  1.0
  H  H18  1  0.92822000  0.03206000  0.12532000  1.0
  H  H19  1  0.42822000  0.87469000  0.53207000  1.0
  H  H20  1  0.69804000  0.19489000  0.96039000  1.0
  H  H21  1  0.69808000  0.30511000  0.53961000  1.0
  H  H22  1  0.80189000  0.30511000  0.96038000  1.0
  H  H23  1  0.30195000  0.46038000  0.69489000  1.0
  H  H24  1  0.19801000  0.46040000  0.80511000  1.0
  H  H25  1  0.19811000  0.03963000  0.69489000  1.0
  H  H26  1  0.30193000  0.03961000  0.80511000  1.0
  H  H27  1  0.80196000  0.19488000  0.53959000  1.0
  H  H28  1  0.30192000  0.80511000  0.03960000  1.0
  H  H29  1  0.30190000  0.69489000  0.46039000  1.0
  H  H30  1  0.19808000  0.69489000  0.03961000  1.0
  H  H31  1  0.69807000  0.53961000  0.30512000  1.0
  H  H32  1  0.80196000  0.53961000  0.19490000  1.0
  H  H33  1  0.80192000  0.96039000  0.30513000  1.0
  H  H34  1  0.69806000  0.96039000  0.19489000  1.0
  H  H35  1  0.19806000  0.80510000  0.46039000  1.0
  H  H36  1  0.58139000  0.18819000  0.87873000  1.0
  H  H37  1  0.58141000  0.31180000  0.62127000  1.0
  H  H38  1  0.91863000  0.31181000  0.87873000  1.0
  H  H39  1  0.41861000  0.37872000  0.68819000  1.0
  H  H40  1  0.08142000  0.37872000  0.81180000  1.0
  H  H41  1  0.08139000  0.12127000  0.68819000  1.0
  H  H42  1  0.41861000  0.12127000  0.81181000  1.0
  H  H43  1  0.91860000  0.18819000  0.62126000  1.0
  H  H44  1  0.41859000  0.81181000  0.12127000  1.0
  H  H45  1  0.41861000  0.68820000  0.37873000  1.0
  H  H46  1  0.08139000  0.68820000  0.12127000  1.0
  H  H47  1  0.58137000  0.62127000  0.31182000  1.0
  H  H48  1  0.91863000  0.62127000  0.18820000  1.0
  H  H49  1  0.91863000  0.87875000  0.31182000  1.0
  H  H50  1  0.58137000  0.87874000  0.18819000  1.0
  H  H51  1  0.08140000  0.81180000  0.37873000  1.0
  H  H52  1  0.63755000  0.10965000  0.92840000  1.0
  H  H53  1  0.63752000  0.39034000  0.57160000  1.0
  H  H54  1  0.86246000  0.39035000  0.92841000  1.0
  H  H55  1  0.36248000  0.42840000  0.60965000  1.0
  H  H56  1  0.13749000  0.42841000  0.89034000  1.0
  H  H57  1  0.13753000  0.07159000  0.60965000  1.0
  H  H58  1  0.36248000  0.07159000  0.89035000  1.0
  H  H59  1  0.86247000  0.10965000  0.57159000  1.0
  H  H60  1  0.36246000  0.89035000  0.07160000  1.0
  H  H61  1  0.36247000  0.60965000  0.42841000  1.0
  H  H62  1  0.13753000  0.60965000  0.07161000  1.0
  H  H63  1  0.63755000  0.57160000  0.39036000  1.0
  H  H64  1  0.86250000  0.57159000  0.10966000  1.0
  H  H65  1  0.86244000  0.92840000  0.39036000  1.0
  H  H66  1  0.63752000  0.92840000  0.10965000  1.0
  H  H67  1  0.13751000  0.89034000  0.42841000  1.0
  C  C68  1  0.95748000  0.07012000  0.01756000  1.0
  C  C69  1  0.95753000  0.42988000  0.48244000  1.0
  C  C70  1  0.54248000  0.42987000  0.01756000  1.0
  C  C71  1  0.04249000  0.51756000  0.57012000  1.0
  C  C72  1  0.45750000  0.51756000  0.92989000  1.0
  C  C73  1  0.45754000  0.98245000  0.57012000  1.0
  C  C74  1  0.04245000  0.98244000  0.92988000  1.0
  C  C75  1  0.54254000  0.07011000  0.48242000  1.0
  C  C76  1  0.04245000  0.92989000  0.98244000  1.0
  C  C77  1  0.04248000  0.57011000  0.51756000  1.0
  C  C78  1  0.45755000  0.57011000  0.98245000  1.0
  C  C79  1  0.95753000  0.48243000  0.42988000  1.0
  C  C80  1  0.54252000  0.48242000  0.07012000  1.0
  C  C81  1  0.54249000  0.01755000  0.42989000  1.0
  C  C82  1  0.95748000  0.01756000  0.07012000  1.0
  C  C83  1  0.45751000  0.92988000  0.51759000  1.0
  C  C84  1  0.99998000  0.05374000  0.94626000  1.0
  C  C85  1  0.00001000  0.44626000  0.55373000  1.0
  C  C86  1  0.50001000  0.44626000  0.94628000  1.0
  C  C87  1  0.49999000  0.05373000  0.55374000  1.0
  C  C88  1  0.99997000  0.94627000  0.05373000  1.0
  C  C89  1  0.00001000  0.55373000  0.44627000  1.0
  C  C90  1  0.50002000  0.55372000  0.05373000  1.0
  C  C91  1  0.50000000  0.94627000  0.44627000  1.0
  C  C92  1  0.99999000  0.10913000  0.89087000  1.0
  C  C93  1  0.00002000  0.39087000  0.60913000  1.0
  C  C94  1  0.49997000  0.39088000  0.89088000  1.0
  C  C95  1  0.50001000  0.10914000  0.60911000  1.0
  C  C96  1  0.99996000  0.89088000  0.10912000  1.0
  C  C97  1  0.99999000  0.60912000  0.39088000  1.0
  C  C98  1  0.50006000  0.60912000  0.10912000  1.0
  C  C99  1  0.49998000  0.89088000  0.39088000  1.0
  C  C100  1  0.86024000  0.15678000  0.87410000  1.0
  C  C101  1  0.86025000  0.34322000  0.62589000  1.0
  C  C102  1  0.63976000  0.34324000  0.87409000  1.0
  C  C103  1  0.13975000  0.37410000  0.65677000  1.0
  C  C104  1  0.36027000  0.37412000  0.84321000  1.0
  C  C105  1  0.36023000  0.12591000  0.65675000  1.0
  C  C106  1  0.13974000  0.12590000  0.84322000  1.0
  C  C107  1  0.63971000  0.15679000  0.62587000  1.0
  C  C108  1  0.13974000  0.84322000  0.12589000  1.0
  C  C109  1  0.13974000  0.65677000  0.37410000  1.0
  C  C110  1  0.36028000  0.65677000  0.12589000  1.0
  C  C111  1  0.86025000  0.62590000  0.34323000  1.0
  C  C112  1  0.63976000  0.62590000  0.15678000  1.0
  C  C113  1  0.63972000  0.87410000  0.34323000  1.0
  C  C114  1  0.86026000  0.87410000  0.15677000  1.0
  C  C115  1  0.36024000  0.84323000  0.37411000  1.0
  C  C116  1  0.68413000  0.16259000  0.91161000  1.0
  C  C117  1  0.68416000  0.33741000  0.58839000  1.0
  C  C118  1  0.81585000  0.33741000  0.91161000  1.0
  C  C119  1  0.31587000  0.41161000  0.66259000  1.0
  C  C120  1  0.18412000  0.41162000  0.83741000  1.0
  C  C121  1  0.18415000  0.08840000  0.66259000  1.0
  C  C122  1  0.31584000  0.08839000  0.83741000  1.0
  C  C123  1  0.81587000  0.16259000  0.58837000  1.0
  C  C124  1  0.31583000  0.83741000  0.08838000  1.0
  C  C125  1  0.31585000  0.66259000  0.41161000  1.0
  C  C126  1  0.18417000  0.66259000  0.08839000  1.0
  C  C127  1  0.68414000  0.58839000  0.33742000  1.0
  C  C128  1  0.81590000  0.58838000  0.16259000  1.0
  C  C129  1  0.81585000  0.91162000  0.33742000  1.0
  C  C130  1  0.68412000  0.91162000  0.16259000  1.0
  C  C131  1  0.18414000  0.83741000  0.41162000  1.0
  N  N132  1  0.91223000  0.19885000  0.81867000  1.0
  N  N133  1  0.91224000  0.30115000  0.68132000  1.0
  N  N134  1  0.58778000  0.30116000  0.81866000  1.0
  N  N135  1  0.08776000  0.31868000  0.69885000  1.0
  N  N136  1  0.41224000  0.31869000  0.80113000  1.0
  N  N137  1  0.41223000  0.18134000  0.69883000  1.0
  N  N138  1  0.08776000  0.18133000  0.80115000  1.0
  N  N139  1  0.58776000  0.19886000  0.68130000  1.0
  N  N140  1  0.08778000  0.80115000  0.18133000  1.0
  N  N141  1  0.08778000  0.69885000  0.31867000  1.0
  N  N142  1  0.41224000  0.69885000  0.18132000  1.0
  N  N143  1  0.91221000  0.68133000  0.30115000  1.0
  N  N144  1  0.58781000  0.68133000  0.19885000  1.0
  N  N145  1  0.58778000  0.81868000  0.30115000  1.0
  N  N146  1  0.91220000  0.81868000  0.19885000  1.0
  N  N147  1  0.41221000  0.80115000  0.31868000  1.0
