# generated using pymatgen
data_CuH8Pt(C8N3)2
_symmetry_space_group_name_H-M   'P 1'
_cell_length_a   6.54390000
_cell_length_b   10.35771382
_cell_length_c   11.46680000
_cell_angle_alpha   90.01012803
_cell_angle_beta   90.00550000
_cell_angle_gamma   108.39467722
_symmetry_Int_Tables_number   1
_chemical_formula_structural   CuH8Pt(C8N3)2
_chemical_formula_sum   'Cu2 H16 Pt2 C32 N12'
_cell_volume   737.50619655
_cell_formula_units_Z   2
loop_
 _symmetry_equiv_pos_site_id
 _symmetry_equiv_pos_as_xyz
  1  'x, y, z'
loop_
 _atom_site_type_symbol
 _atom_site_label
 _atom_site_symmetry_multiplicity
 _atom_site_fract_x
 _atom_site_fract_y
 _atom_site_fract_z
 _atom_site_occupancy
  Cu  Cu0  1  0.62835000  0.25715000  0.24999000  1.0
  Cu  Cu1  1  0.37166000  0.74286000  0.75001000  1.0
  H  H2  1  0.77605000  0.88306000  0.30218000  1.0
  H  H3  1  0.10664000  0.88290000  0.19798000  1.0
  H  H4  1  0.22397000  0.11695000  0.69783000  1.0
  H  H5  1  0.89335000  0.11709000  0.80201000  1.0
  H  H6  1  0.16449000  0.52031000  0.45128000  1.0
  H  H7  1  0.35476000  0.51995000  0.04842000  1.0
  H  H8  1  0.83551000  0.47969000  0.54873000  1.0
  H  H9  1  0.64525000  0.48005000  0.95158000  1.0
  H  H10  1  0.23944000  0.31134000  0.38410000  1.0
  H  H11  1  0.07111000  0.31108000  0.11584000  1.0
  H  H12  1  0.76055000  0.68866000  0.61590000  1.0
  H  H13  1  0.92889000  0.68892000  0.88416000  1.0
  H  H14  1  0.42538000  0.74803000  0.40669000  1.0
  H  H15  1  0.32172000  0.74772000  0.09314000  1.0
  H  H16  1  0.57463000  0.25197000  0.59331000  1.0
  H  H17  1  0.67829000  0.25228000  0.90686000  1.0
  Pt  Pt18  1  0.00000000  0.00000000  0.50000000  1.0
  Pt  Pt19  1  0.99998000  0.99999000  0.00000000  1.0
  C  C20  1  0.80275000  0.78734000  0.27966000  1.0
  C  C21  1  0.98415000  0.78726000  0.22044000  1.0
  C  C22  1  0.19726000  0.21266000  0.72034000  1.0
  C  C23  1  0.01585000  0.21274000  0.77955000  1.0
  C  C24  1  0.24436000  0.07353000  0.39208000  1.0
  C  C25  1  0.82905000  0.07346000  0.10795000  1.0
  C  C26  1  0.75565000  0.92648000  0.60792000  1.0
  C  C27  1  0.17093000  0.92654000  0.89205000  1.0
  C  C28  1  0.67513000  0.53830000  0.28162000  1.0
  C  C29  1  0.86252000  0.53823000  0.21836000  1.0
  C  C30  1  0.32488000  0.46171000  0.71838000  1.0
  C  C31  1  0.13748000  0.46177000  0.78164000  1.0
  C  C32  1  0.31093000  0.52955000  0.40248000  1.0
  C  C33  1  0.21767000  0.52923000  0.09731000  1.0
  C  C34  1  0.68908000  0.47045000  0.59752000  1.0
  C  C35  1  0.78233000  0.47077000  0.90269000  1.0
  C  C36  1  0.35321000  0.41099000  0.36590000  1.0
  C  C37  1  0.05699000  0.41075000  0.13402000  1.0
  C  C38  1  0.64680000  0.58902000  0.63410000  1.0
  C  C39  1  0.94302000  0.58925000  0.86598000  1.0
  C  C40  1  0.45576000  0.65567000  0.37714000  1.0
  C  C41  1  0.19904000  0.65540000  0.12275000  1.0
  C  C42  1  0.54425000  0.34433000  0.62286000  1.0
  C  C43  1  0.80095000  0.34459000  0.87725000  1.0
  C  C44  1  0.89661000  0.15554000  0.46019000  1.0
  C  C45  1  0.25866000  0.15559000  0.03983000  1.0
  C  C46  1  0.10339000  0.84446000  0.53981000  1.0
  C  C47  1  0.74130000  0.84439000  0.96016000  1.0
  C  C48  1  0.64373000  0.66299000  0.31329000  1.0
  C  C49  1  0.01860000  0.66285000  0.18672000  1.0
  C  C50  1  0.35627000  0.33701000  0.68671000  1.0
  C  C51  1  0.98140000  0.33715000  0.81328000  1.0
  N  N52  1  0.53175000  0.41519000  0.30826000  1.0
  N  N53  1  0.88277000  0.41507000  0.19172000  1.0
  N  N54  1  0.46826000  0.58482000  0.69174000  1.0
  N  N55  1  0.11722000  0.58493000  0.80828000  1.0
  N  N56  1  0.38711000  0.12431000  0.32861000  1.0
  N  N57  1  0.73698000  0.12423000  0.17143000  1.0
  N  N58  1  0.61290000  0.87570000  0.67140000  1.0
  N  N59  1  0.26301000  0.87577000  0.82857000  1.0
  N  N60  1  0.84186000  0.24931000  0.43427000  1.0
  N  N61  1  0.40725000  0.24933000  0.06567000  1.0
  N  N62  1  0.15814000  0.75069000  0.56573000  1.0
  N  N63  1  0.59274000  0.75066000  0.93433000  1.0
