# generated using pymatgen
data_CdNiH11C10N7
_symmetry_space_group_name_H-M   'P 1'
_cell_length_a   7.74403000
_cell_length_b   12.32610000
_cell_length_c   13.77680000
_cell_angle_alpha   90.00000000
_cell_angle_beta   90.00000000
_cell_angle_gamma   90.00000000
_symmetry_Int_Tables_number   1
_chemical_formula_structural   CdNiH11C10N7
_chemical_formula_sum   'Cd4 Ni4 H44 C40 N28'
_cell_volume   1315.04637136
_cell_formula_units_Z   4
loop_
 _symmetry_equiv_pos_site_id
 _symmetry_equiv_pos_as_xyz
  1  'x, y, z'
loop_
 _atom_site_type_symbol
 _atom_site_label
 _atom_site_symmetry_multiplicity
 _atom_site_fract_x
 _atom_site_fract_y
 _atom_site_fract_z
 _atom_site_occupancy
  Cd  Cd0  1  0.75000000  0.47750000  0.64197000  1.0
  Cd  Cd1  1  0.25000000  0.02250000  0.14197000  1.0
  Cd  Cd2  1  0.75000000  0.97750000  0.85803000  1.0
  Cd  Cd3  1  0.25000000  0.52250000  0.35803000  1.0
  Ni  Ni4  1  0.75000000  0.76044000  0.25603000  1.0
  Ni  Ni5  1  0.25000000  0.73956000  0.75602000  1.0
  Ni  Ni6  1  0.75000000  0.26044000  0.24397000  1.0
  Ni  Ni7  1  0.25000000  0.23956000  0.74398000  1.0
  H  H8  1  0.85586000  0.57053000  0.16592000  1.0
  H  H9  1  0.14413000  0.92948000  0.66592000  1.0
  H  H10  1  0.64414000  0.07053000  0.33408000  1.0
  H  H11  1  0.35587000  0.42947000  0.83408000  1.0
  H  H12  1  0.14414000  0.42947000  0.83408000  1.0
  H  H13  1  0.85586000  0.07053000  0.33408000  1.0
  H  H14  1  0.35587000  0.92948000  0.66592000  1.0
  H  H15  1  0.64414000  0.57053000  0.16592000  1.0
  H  H16  1  0.75000000  0.43491000  0.44083000  1.0
  H  H17  1  0.25000000  0.06509000  0.94083000  1.0
  H  H18  1  0.75000000  0.93491000  0.05917000  1.0
  H  H19  1  0.25000000  0.56509000  0.55917000  1.0
  H  H20  1  0.85566000  0.54899000  0.45413000  1.0
  H  H21  1  0.14434000  0.95101000  0.95413000  1.0
  H  H22  1  0.64434000  0.04899000  0.04587000  1.0
  H  H23  1  0.35566000  0.45101000  0.54587000  1.0
  H  H24  1  0.14434000  0.45101000  0.54587000  1.0
  H  H25  1  0.85566000  0.04899000  0.04587000  1.0
  H  H26  1  0.35566000  0.95101000  0.95413000  1.0
  H  H27  1  0.64434000  0.54899000  0.45413000  1.0
  H  H28  1  0.75000000  0.62297000  0.84102000  1.0
  H  H29  1  0.25000000  0.87703000  0.34102000  1.0
  H  H30  1  0.75000000  0.12297000  0.65898000  1.0
  H  H31  1  0.25000000  0.37703000  0.15898000  1.0
  H  H32  1  0.75000000  0.41361000  0.09317000  1.0
  H  H33  1  0.25000000  0.08639000  0.59317000  1.0
  H  H34  1  0.75000000  0.91361000  0.40683000  1.0
  H  H35  1  0.25000000  0.58639000  0.90683000  1.0
  H  H36  1  0.75000000  0.25610000  0.98062000  1.0
  H  H37  1  0.25000000  0.24390000  0.48062000  1.0
  H  H38  1  0.75000000  0.75610000  0.51938000  1.0
  H  H39  1  0.25000000  0.74390000  0.01938000  1.0
  H  H40  1  0.75000000  0.28905000  0.80163000  1.0
  H  H41  1  0.25000000  0.21094000  0.30162000  1.0
  H  H42  1  0.75000000  0.78906000  0.69837000  1.0
  H  H43  1  0.25000000  0.71095000  0.19838000  1.0
  H  H44  1  0.86311000  0.68402000  0.02231000  1.0
  H  H45  1  0.13690000  0.81598000  0.52232000  1.0
  H  H46  1  0.63690000  0.18402000  0.47769000  1.0
  H  H47  1  0.36311000  0.31598000  0.97769000  1.0
  H  H48  1  0.13690000  0.31598000  0.97769000  1.0
  H  H49  1  0.86311000  0.18402000  0.47769000  1.0
  H  H50  1  0.36311000  0.81598000  0.52232000  1.0
  H  H51  1  0.63690000  0.68402000  0.02231000  1.0
  C  C52  1  0.91919000  0.84289000  0.20007000  1.0
  C  C53  1  0.08081000  0.65711000  0.70007000  1.0
  C  C54  1  0.58080000  0.34289000  0.29992000  1.0
  C  C55  1  0.41920000  0.15711000  0.79993000  1.0
  C  C56  1  0.08081000  0.15711000  0.79993000  1.0
  C  C57  1  0.91919000  0.34289000  0.29993000  1.0
  C  C58  1  0.41920000  0.65711000  0.70007000  1.0
  C  C59  1  0.58081000  0.84289000  0.20008000  1.0
  C  C60  1  0.57854000  0.70021000  0.33013000  1.0
  C  C61  1  0.42146000  0.79979000  0.83013000  1.0
  C  C62  1  0.92146000  0.20021000  0.16987000  1.0
  C  C63  1  0.07854000  0.29979000  0.66987000  1.0
  C  C64  1  0.42147000  0.29979000  0.66987000  1.0
  C  C65  1  0.57854000  0.20021000  0.16987000  1.0
  C  C66  1  0.07854000  0.79979000  0.83013000  1.0
  C  C67  1  0.92146000  0.70021000  0.33013000  1.0
  C  C68  1  0.75000000  0.54304000  0.87524000  1.0
  C  C69  1  0.25000000  0.95696000  0.37524000  1.0
  C  C70  1  0.75000000  0.04304000  0.62476000  1.0
  C  C71  1  0.25000000  0.45696000  0.12476000  1.0
  C  C72  1  0.75000000  0.53299000  0.97671000  1.0
  C  C73  1  0.25000000  0.96701000  0.47671000  1.0
  C  C74  1  0.75000000  0.03299000  0.52329000  1.0
  C  C75  1  0.25000000  0.46701000  0.02329000  1.0
  C  C76  1  0.75000000  0.42775000  0.01480000  1.0
  C  C77  1  0.25000000  0.07225000  0.51481000  1.0
  C  C78  1  0.75000000  0.92775000  0.48519000  1.0
  C  C79  1  0.25000000  0.57225000  0.98519000  1.0
  C  C80  1  0.75000000  0.33858000  0.95243000  1.0
  C  C81  1  0.25000000  0.16142000  0.45243000  1.0
  C  C82  1  0.75000000  0.83858000  0.54757000  1.0
  C  C83  1  0.25000000  0.66142000  0.04757000  1.0
  C  C84  1  0.75000000  0.35638000  0.85278000  1.0
  C  C85  1  0.25000000  0.14362000  0.35278000  1.0
  C  C86  1  0.75000000  0.85638000  0.64722000  1.0
  C  C87  1  0.25000000  0.64362000  0.14722000  1.0
  C  C88  1  0.75000000  0.63377000  0.04034000  1.0
  C  C89  1  0.25000000  0.86624000  0.54034000  1.0
  C  C90  1  0.75000000  0.13377000  0.45966000  1.0
  C  C91  1  0.25000000  0.36623000  0.95966000  1.0
  N  N92  1  0.46492000  0.65970000  0.37371000  1.0
  N  N93  1  0.53508000  0.84030000  0.87371000  1.0
  N  N94  1  0.03507000  0.15970000  0.12629000  1.0
  N  N95  1  0.96493000  0.34030000  0.62629000  1.0
  N  N96  1  0.53507000  0.34029000  0.62629000  1.0
  N  N97  1  0.46493000  0.15970000  0.12629000  1.0
  N  N98  1  0.96493000  0.84029000  0.87371000  1.0
  N  N99  1  0.03507000  0.65970000  0.37371000  1.0
  N  N100  1  0.03064000  0.89472000  0.16578000  1.0
  N  N101  1  0.96935000  0.60528000  0.66577000  1.0
  N  N102  1  0.46936000  0.39472000  0.33422000  1.0
  N  N103  1  0.53064000  0.10528000  0.83422000  1.0
  N  N104  1  0.96935000  0.10529000  0.83423000  1.0
  N  N105  1  0.03064000  0.39471000  0.33422000  1.0
  N  N106  1  0.53064000  0.60529000  0.66577000  1.0
  N  N107  1  0.46936000  0.89472000  0.16578000  1.0
  N  N108  1  0.75000000  0.45716000  0.81495000  1.0
  N  N109  1  0.25000000  0.04284000  0.31495000  1.0
  N  N110  1  0.75000000  0.95716000  0.68505000  1.0
  N  N111  1  0.25000000  0.54284000  0.18505000  1.0
  N  N112  1  0.75000000  0.61429000  0.14524000  1.0
  N  N113  1  0.25000000  0.88571000  0.64524000  1.0
  N  N114  1  0.75000000  0.11429000  0.35476000  1.0
  N  N115  1  0.25000000  0.38571000  0.85476000  1.0
  N  N116  1  0.75000000  0.50663000  0.47772000  1.0
  N  N117  1  0.25000000  0.99337000  0.97772000  1.0
  N  N118  1  0.75000000  0.00663000  0.02228000  1.0
  N  N119  1  0.25000000  0.49337000  0.52228000  1.0
