# generated using pymatgen
data_Li2H10C2(N2O)5
_symmetry_space_group_name_H-M   'P 1'
_cell_length_a   8.61887000
_cell_length_b   8.65782000
_cell_length_c   9.07002000
_cell_angle_alpha   81.74770000
_cell_angle_beta   86.91120000
_cell_angle_gamma   60.57320000
_symmetry_Int_Tables_number   1
_chemical_formula_structural   Li2H10C2(N2O)5
_chemical_formula_sum   'Li4 H20 C4 N20 O10'
_cell_volume   583.27876627
_cell_formula_units_Z   2
loop_
 _symmetry_equiv_pos_site_id
 _symmetry_equiv_pos_as_xyz
  1  'x, y, z'
loop_
 _atom_site_type_symbol
 _atom_site_label
 _atom_site_symmetry_multiplicity
 _atom_site_fract_x
 _atom_site_fract_y
 _atom_site_fract_z
 _atom_site_occupancy
  Li  Li0  1  0.69924000  0.72061000  0.62640000  1.0
  Li  Li1  1  0.30076000  0.27940000  0.37360000  1.0
  Li  Li2  1  0.63534000  0.88087000  0.92260000  1.0
  Li  Li3  1  0.36466000  0.11913000  0.07740000  1.0
  H  H4  1  0.75947000  0.78965000  0.37100000  1.0
  H  H5  1  0.24053000  0.21035000  0.62900000  1.0
  H  H6  1  0.65194000  0.68570000  0.35218000  1.0
  H  H7  1  0.34806000  0.31430000  0.64782000  1.0
  H  H8  1  0.04119000  0.59372000  0.61771000  1.0
  H  H9  1  0.95881000  0.40628000  0.38229000  1.0
  H  H10  1  0.99862000  0.43463000  0.66193000  1.0
  H  H11  1  0.00138000  0.56537000  0.33807000  1.0
  H  H12  1  0.53533000  0.03986000  0.66069000  1.0
  H  H13  1  0.46467000  0.96014000  0.33931000  1.0
  H  H14  1  0.74111000  0.97398000  0.68830000  1.0
  H  H15  1  0.25889000  0.02602000  0.31170000  1.0
  H  H16  1  0.77511000  0.58831000  0.11225000  1.0
  H  H17  1  0.22489000  0.41169000  0.88775000  1.0
  H  H18  1  0.93501000  0.61882000  0.06392000  1.0
  H  H19  1  0.06499000  0.38119000  0.93609000  1.0
  H  H20  1  0.29543000  0.95950000  0.90649000  1.0
  H  H21  1  0.70457000  0.04050000  0.09352000  1.0
  H  H22  1  0.41069000  0.80879000  0.04256000  1.0
  H  H23  1  0.58931000  0.19121000  0.95744000  1.0
  C  C24  1  0.07642000  0.83265000  0.38720000  1.0
  C  C25  1  0.92358000  0.16735000  0.61280000  1.0
  C  C26  1  0.40810000  0.59910000  0.66410000  1.0
  C  C27  1  0.59191000  0.40089000  0.33590000  1.0
  N  N28  1  0.17092000  0.71022000  0.50944000  1.0
  N  N29  1  0.82909000  0.28978000  0.49056000  1.0
  N  N30  1  0.10147000  0.96546000  0.31341000  1.0
  N  N31  1  0.89853000  0.03454000  0.68659000  1.0
  N  N32  1  0.97915000  0.04394000  0.20397000  1.0
  N  N33  1  0.02085000  0.95606000  0.79603000  1.0
  N  N34  1  0.88289000  0.96140000  0.21071000  1.0
  N  N35  1  0.11711000  0.03860000  0.78929000  1.0
  N  N36  1  0.94014000  0.82853000  0.32458000  1.0
  N  N37  1  0.05986000  0.17146000  0.67542000  1.0
  N  N38  1  0.30554000  0.72124000  0.54630000  1.0
  N  N39  1  0.69446000  0.27875000  0.45370000  1.0
  N  N40  1  0.39367000  0.46167000  0.74326000  1.0
  N  N41  1  0.60633000  0.53833000  0.25675000  1.0
  N  N42  1  0.53439000  0.38077000  0.83678000  1.0
  N  N43  1  0.46561000  0.61923000  0.16323000  1.0
  N  N44  1  0.63066000  0.46378000  0.81741000  1.0
  N  N45  1  0.36934000  0.53622000  0.18259000  1.0
  N  N46  1  0.55449000  0.60086000  0.70905000  1.0
  N  N47  1  0.44551000  0.39913000  0.29095000  1.0
  O  O48  1  0.65565000  0.77478000  0.40803000  1.0
  O  O49  1  0.34435000  0.22522000  0.59197000  1.0
  O  O50  1  0.95359000  0.56200000  0.66734000  1.0
  O  O51  1  0.04641000  0.43800000  0.33266000  1.0
  O  O52  1  0.64752000  0.93500000  0.70529000  1.0
  O  O53  1  0.35248000  0.06501000  0.29471000  1.0
  O  O54  1  0.81262000  0.65590000  0.03668000  1.0
  O  O55  1  0.18738000  0.34410000  0.96332000  1.0
  O  O56  1  0.39802000  0.91851000  0.97736000  1.0
  O  O57  1  0.60198000  0.08149000  0.02264000  1.0
