# generated using pymatgen
data_Dy2H37C42(NO4)4
_symmetry_space_group_name_H-M   'P 1'
_cell_length_a   18.36600000
_cell_length_b   18.36600000
_cell_length_c   19.28020000
_cell_angle_alpha   87.22580000
_cell_angle_beta   87.22560000
_cell_angle_gamma   70.74770000
_symmetry_Int_Tables_number   1
_chemical_formula_structural   Dy2H37C42(NO4)4
_chemical_formula_sum   'Dy8 H148 C168 N16 O64'
_cell_volume   6128.87914047
_cell_formula_units_Z   4
loop_
 _symmetry_equiv_pos_site_id
 _symmetry_equiv_pos_as_xyz
  1  'x, y, z'
loop_
 _atom_site_type_symbol
 _atom_site_label
 _atom_site_symmetry_multiplicity
 _atom_site_fract_x
 _atom_site_fract_y
 _atom_site_fract_z
 _atom_site_occupancy
  Dy  Dy0  1  0.89679000  0.54895000  0.06303000  1.0
  Dy  Dy1  1  0.45105000  0.10321000  0.43697000  1.0
  Dy  Dy2  1  0.10321000  0.45105000  0.93697000  1.0
  Dy  Dy3  1  0.54895000  0.89679000  0.56303000  1.0
  Dy  Dy4  1  0.64751000  0.99269000  0.96656000  1.0
  Dy  Dy5  1  0.00731000  0.35249000  0.53344000  1.0
  Dy  Dy6  1  0.35249000  0.00731000  0.03344000  1.0
  Dy  Dy7  1  0.99269000  0.64751000  0.46656000  1.0
  H  H8  1  0.62049000  0.58321000  0.09641000  1.0
  H  H9  1  0.41679000  0.37951000  0.40359000  1.0
  H  H10  1  0.37951000  0.41678000  0.90358000  1.0
  H  H11  1  0.58322000  0.62049000  0.59641000  1.0
  H  H12  1  0.44194000  0.80170000  0.05474000  1.0
  H  H13  1  0.19830000  0.55806000  0.44527000  1.0
  H  H14  1  0.55806000  0.19830000  0.94526000  1.0
  H  H15  1  0.80170000  0.44194000  0.55473000  1.0
  H  H16  1  0.67946000  0.77289000  0.99916000  1.0
  H  H17  1  0.22711000  0.32054000  0.50084000  1.0
  H  H18  1  0.32054000  0.22711000  0.00084000  1.0
  H  H19  1  0.77289000  0.67946000  0.49916000  1.0
  H  H20  1  0.20903000  0.62940000  0.29819000  1.0
  H  H21  1  0.37060000  0.79097000  0.20181000  1.0
  H  H22  1  0.79097000  0.37059000  0.70181000  1.0
  H  H23  1  0.62940000  0.20903000  0.79819000  1.0
  H  H24  1  0.02631000  0.55475000  0.22923000  1.0
  H  H25  1  0.44526000  0.97369000  0.27077000  1.0
  H  H26  1  0.97369000  0.44525000  0.77077000  1.0
  H  H27  1  0.55474000  0.02631000  0.72923000  1.0
  H  H28  1  0.21742000  0.54827000  0.08964000  1.0
  H  H29  1  0.45173000  0.78258000  0.41036000  1.0
  H  H30  1  0.78258000  0.45173000  0.91036000  1.0
  H  H31  1  0.54826000  0.21743000  0.58965000  1.0
  H  H32  1  0.86264000  0.73229000  0.96877000  1.0
  H  H33  1  0.26770000  0.13736000  0.53123000  1.0
  H  H34  1  0.13735000  0.26771000  0.03123000  1.0
  H  H35  1  0.73229000  0.86264000  0.46877000  1.0
  H  H36  1  0.08142000  0.70823000  0.86566000  1.0
  H  H37  1  0.29175000  0.91857000  0.63434000  1.0
  H  H38  1  0.91857000  0.29176000  0.13434000  1.0
  H  H39  1  0.70824000  0.08143000  0.36566000  1.0
  H  H40  1  0.89194000  0.92390000  0.84668000  1.0
  H  H41  1  0.07609000  0.10807000  0.65332000  1.0
  H  H42  1  0.10807000  0.07610000  0.15332000  1.0
  H  H43  1  0.92390000  0.89194000  0.34668000  1.0
  H  H44  1  0.79843000  0.46521000  0.19777000  1.0
  H  H45  1  0.53479000  0.20157000  0.30223000  1.0
  H  H46  1  0.20158000  0.53479000  0.80223000  1.0
  H  H47  1  0.46521000  0.79843000  0.69777000  1.0
  H  H48  1  0.75477000  0.43167000  0.29811000  1.0
  H  H49  1  0.56833000  0.24523000  0.20189000  1.0
  H  H50  1  0.24523000  0.56833000  0.70189000  1.0
  H  H51  1  0.43167000  0.75477000  0.79811000  1.0
  H  H52  1  0.72822000  0.50694000  0.35943000  1.0
  H  H53  1  0.49306000  0.27178000  0.14056000  1.0
  H  H54  1  0.27178000  0.49306000  0.64057000  1.0
  H  H55  1  0.50694000  0.72822000  0.85944000  1.0
  H  H56  1  0.81414000  0.42668000  0.37053000  1.0
  H  H57  1  0.57332000  0.18586000  0.12947000  1.0
  H  H58  1  0.18587000  0.57332000  0.62947000  1.0
  H  H59  1  0.42668000  0.81414000  0.87053000  1.0
  H  H60  1  0.88236000  0.58306000  0.28837000  1.0
  H  H61  1  0.41694000  0.11764000  0.21163000  1.0
  H  H62  1  0.11764000  0.41694000  0.71163000  1.0
  H  H63  1  0.58306000  0.88236000  0.78837000  1.0
  H  H64  1  0.90403000  0.51341000  0.35850000  1.0
  H  H65  1  0.48660000  0.09596000  0.14150000  1.0
  H  H66  1  0.09597000  0.48660000  0.64150000  1.0
  H  H67  1  0.51340000  0.90403000  0.85850000  1.0
  H  H68  1  0.81480000  0.59100000  0.36038000  1.0
  H  H69  1  0.40900000  0.18520000  0.13962000  1.0
  H  H70  1  0.18521000  0.40900000  0.63962000  1.0
  H  H71  1  0.59100000  0.81479000  0.86038000  1.0
  H  H72  1  0.59530000  0.90378000  0.14665000  1.0
  H  H73  1  0.09623000  0.40470000  0.35335000  1.0
  H  H74  1  0.40470000  0.09622000  0.85335000  1.0
  H  H75  1  0.90378000  0.59530000  0.64665000  1.0
  H  H76  1  0.59251000  0.89355000  0.25938000  1.0
  H  H77  1  0.10645000  0.40750000  0.24062000  1.0
  H  H78  1  0.40750000  0.10645000  0.74062000  1.0
  H  H79  1  0.89355000  0.59250000  0.75938000  1.0
  H  H80  1  0.58055000  0.98109000  0.30161000  1.0
  H  H81  1  0.01891000  0.41945000  0.19839000  1.0
  H  H82  1  0.41945000  0.01890000  0.69839000  1.0
  H  H83  1  0.98109000  0.58055000  0.80161000  1.0
  H  H84  1  0.67268000  0.90696000  0.29960000  1.0
  H  H85  1  0.09304000  0.32732000  0.20040000  1.0
  H  H86  1  0.32732000  0.09303000  0.70040000  1.0
  H  H87  1  0.90696000  0.67268000  0.79960000  1.0
  H  H88  1  0.73292000  0.00269000  0.23534000  1.0
  H  H89  1  0.99731000  0.26708000  0.26465000  1.0
  H  H90  1  0.26709000  0.99731000  0.76465000  1.0
  H  H91  1  0.00269000  0.73291000  0.73535000  1.0
  H  H92  1  0.64118000  0.07596000  0.23622000  1.0
  H  H93  1  0.92404000  0.35881000  0.26378000  1.0
  H  H94  1  0.35882000  0.92404000  0.76378000  1.0
  H  H95  1  0.07596000  0.64118000  0.73622000  1.0
  H  H96  1  0.69062000  0.04416000  0.15453000  1.0
  H  H97  1  0.95584000  0.30938000  0.34547000  1.0
  H  H98  1  0.30938000  0.95584000  0.84547000  1.0
  H  H99  1  0.04416000  0.69062000  0.65453000  1.0
  H  H100  1  0.73721000  0.13027000  0.92986000  1.0
  H  H101  1  0.86974000  0.26278000  0.57014000  1.0
  H  H102  1  0.26279000  0.86974000  0.07014000  1.0
  H  H103  1  0.13026000  0.73722000  0.42986000  1.0
  H  H104  1  0.84616000  0.15156000  0.10571000  1.0
  H  H105  1  0.84844000  0.15384000  0.39428000  1.0
  H  H106  1  0.15384000  0.84844000  0.89428000  1.0
  H  H107  1  0.15156000  0.84616000  0.60571000  1.0
  H  H108  1  0.79797000  0.08111000  0.10696000  1.0
  H  H109  1  0.91889000  0.20203000  0.39304000  1.0
  H  H110  1  0.20203000  0.91889000  0.89304000  1.0
  H  H111  1  0.08111000  0.79797000  0.60696000  1.0
  H  H112  1  0.74487000  0.17920000  0.12526000  1.0
  H  H113  1  0.82080000  0.25513000  0.37474000  1.0
  H  H114  1  0.25513000  0.82080000  0.87474000  1.0
  H  H115  1  0.17920000  0.74487000  0.62526000  1.0
  H  H116  1  0.78175000  0.22660000  0.93145000  1.0
  H  H117  1  0.77340000  0.21825000  0.56855000  1.0
  H  H118  1  0.21825000  0.77340000  0.06855000  1.0
  H  H119  1  0.22660000  0.78175000  0.43145000  1.0
  H  H120  1  0.85730000  0.21489000  0.99077000  1.0
  H  H121  1  0.78511000  0.14270000  0.50923000  1.0
  H  H122  1  0.14269000  0.78512000  0.00923000  1.0
  H  H123  1  0.21489000  0.85730000  0.49077000  1.0
  H  H124  1  0.76138000  0.27583000  0.01110000  1.0
  H  H125  1  0.72417000  0.23862000  0.48890000  1.0
  H  H126  1  0.23861000  0.72417000  0.98890000  1.0
  H  H127  1  0.27583000  0.76138000  0.51110000  1.0
  H  H128  1  0.82005000  0.76078000  0.07482000  1.0
  H  H129  1  0.23922000  0.17995000  0.42518000  1.0
  H  H130  1  0.17995000  0.23922000  0.92518000  1.0
  H  H131  1  0.76078000  0.82005000  0.57482000  1.0
  H  H132  1  0.80370000  0.87781000  0.10120000  1.0
  H  H133  1  0.12219000  0.19630000  0.39880000  1.0
  H  H134  1  0.19630000  0.12219000  0.89880000  1.0
  H  H135  1  0.87781000  0.80370000  0.60120000  1.0
  H  H136  1  0.88173000  0.89339000  0.14357000  1.0
  H  H137  1  0.10661000  0.11828000  0.35643000  1.0
  H  H138  1  0.11828000  0.10661000  0.85643000  1.0
  H  H139  1  0.89339000  0.88173000  0.64357000  1.0
  H  H140  1  0.79864000  0.89000000  0.19335000  1.0
  H  H141  1  0.11000000  0.20137000  0.30665000  1.0
  H  H142  1  0.20136000  0.11000000  0.80665000  1.0
  H  H143  1  0.89000000  0.79864000  0.69335000  1.0
  H  H144  1  0.94227000  0.69285000  0.22118000  1.0
  H  H145  1  0.30715000  0.05773000  0.27882000  1.0
  H  H146  1  0.05773000  0.30715000  0.77881000  1.0
  H  H147  1  0.69285000  0.94228000  0.72118000  1.0
  H  H148  1  0.88587000  0.77523000  0.26838000  1.0
  H  H149  1  0.22477000  0.11413000  0.23162000  1.0
  H  H150  1  0.11414000  0.22477000  0.73162000  1.0
  H  H151  1  0.77523000  0.88587000  0.76838000  1.0
  H  H152  1  0.96798000  0.77891000  0.21744000  1.0
  H  H153  1  0.22109000  0.03202000  0.28256000  1.0
  H  H154  1  0.03202000  0.22109000  0.78256000  1.0
  H  H155  1  0.77891000  0.96798000  0.71744000  1.0
  C  C156  1  0.74136000  0.62519000  0.04633000  1.0
  C  C157  1  0.37480000  0.25864000  0.45367000  1.0
  C  C158  1  0.25864000  0.37481000  0.95367000  1.0
  C  C159  1  0.62520000  0.74136000  0.54633000  1.0
  C  C160  1  0.65757000  0.67289000  0.04670000  1.0
  C  C161  1  0.32711000  0.34243000  0.45330000  1.0
  C  C162  1  0.34243000  0.32711000  0.95329000  1.0
  C  C163  1  0.67289000  0.65757000  0.54670000  1.0
  C  C164  1  0.60208000  0.64245000  0.07562000  1.0
  C  C165  1  0.35755000  0.39792000  0.42438000  1.0
  C  C166  1  0.39791000  0.35755000  0.92438000  1.0
  C  C167  1  0.64246000  0.60208000  0.57562000  1.0
  C  C168  1  0.52359000  0.68829000  0.07825000  1.0
  C  C169  1  0.31171000  0.47642000  0.42175000  1.0
  C  C170  1  0.47641000  0.31171000  0.92175000  1.0
  C  C171  1  0.68830000  0.52359000  0.57824000  1.0
  C  C172  1  0.50209000  0.76496000  0.05150000  1.0
  C  C173  1  0.23504000  0.49791000  0.44851000  1.0
  C  C174  1  0.49791000  0.23504000  0.94850000  1.0
  C  C175  1  0.76497000  0.50209000  0.55148000  1.0
  C  C176  1  0.55789000  0.79514000  0.02302000  1.0
  C  C177  1  0.20486000  0.44211000  0.47699000  1.0
  C  C178  1  0.44211000  0.20486000  0.97699000  1.0
  C  C179  1  0.79514000  0.55789000  0.52301000  1.0
  C  C180  1  0.63569000  0.74912000  0.02048000  1.0
  C  C181  1  0.25088000  0.36431000  0.47952000  1.0
  C  C182  1  0.36431000  0.25088000  0.97952000  1.0
  C  C183  1  0.74913000  0.63569000  0.52047000  1.0
  C  C184  1  0.53405000  0.87766000  0.99711000  1.0
  C  C185  1  0.12234000  0.46595000  0.50290000  1.0
  C  C186  1  0.46595000  0.12234000  0.00290000  1.0
  C  C187  1  0.87766000  0.53405000  0.49710000  1.0
  C  C188  1  0.46547000  0.66025000  0.10756000  1.0
  C  C189  1  0.33976000  0.53453000  0.39246000  1.0
  C  C190  1  0.53452000  0.33975000  0.89244000  1.0
  C  C191  1  0.66024000  0.46547000  0.60754000  1.0
  C  C192  1  0.41070000  0.64175000  0.13154000  1.0
  C  C193  1  0.35825000  0.58930000  0.36847000  1.0
  C  C194  1  0.58930000  0.35824000  0.86846000  1.0
  C  C195  1  0.64175000  0.41070000  0.63153000  1.0
  C  C196  1  0.34881000  0.62293000  0.15548000  1.0
  C  C197  1  0.37708000  0.65120000  0.34452000  1.0
  C  C198  1  0.65120000  0.37706000  0.84452000  1.0
  C  C199  1  0.62292000  0.34881000  0.65547000  1.0
  C  C200  1  0.29074000  0.60786000  0.17542000  1.0
  C  C201  1  0.39214000  0.70925000  0.32458000  1.0
  C  C202  1  0.70926000  0.39213000  0.82458000  1.0
  C  C203  1  0.60786000  0.29075000  0.67542000  1.0
  C  C204  1  0.22183000  0.59142000  0.19202000  1.0
  C  C205  1  0.40858000  0.77817000  0.30797000  1.0
  C  C206  1  0.77818000  0.40857000  0.80797000  1.0
  C  C207  1  0.59142000  0.22183000  0.69203000  1.0
  C  C208  1  0.18405000  0.60666000  0.25775000  1.0
  C  C209  1  0.39335000  0.81595000  0.24225000  1.0
  C  C210  1  0.81595000  0.39334000  0.74225000  1.0
  C  C211  1  0.60665000  0.18405000  0.75775000  1.0
  C  C212  1  0.11430000  0.59252000  0.27131000  1.0
  C  C213  1  0.40748000  0.88570000  0.22869000  1.0
  C  C214  1  0.88570000  0.40747000  0.72869000  1.0
  C  C215  1  0.59252000  0.11431000  0.77131000  1.0
  C  C216  1  0.08156000  0.56396000  0.21937000  1.0
  C  C217  1  0.43604000  0.91844000  0.28063000  1.0
  C  C218  1  0.91844000  0.43604000  0.78063000  1.0
  C  C219  1  0.56396000  0.08156000  0.71937000  1.0
  C  C220  1  0.11899000  0.54789000  0.15415000  1.0
  C  C221  1  0.45212000  0.88101000  0.34585000  1.0
  C  C222  1  0.88100000  0.45211000  0.84585000  1.0
  C  C223  1  0.54789000  0.11899000  0.65415000  1.0
  C  C224  1  0.18895000  0.56104000  0.14064000  1.0
  C  C225  1  0.43896000  0.81105000  0.35936000  1.0
  C  C226  1  0.81105000  0.43896000  0.85936000  1.0
  C  C227  1  0.56103000  0.18895000  0.64064000  1.0
  C  C228  1  0.07391000  0.60914000  0.34097000  1.0
  C  C229  1  0.39087000  0.92609000  0.15903000  1.0
  C  C230  1  0.92610000  0.39086000  0.65903000  1.0
  C  C231  1  0.60913000  0.07391000  0.84097000  1.0
  C  C232  1  0.08284000  0.51822000  0.09824000  1.0
  C  C233  1  0.48178000  0.91716000  0.40176000  1.0
  C  C234  1  0.91716000  0.48178000  0.90177000  1.0
  C  C235  1  0.51822000  0.08284000  0.59824000  1.0
  C  C236  1  0.78999000  0.88524000  0.93065000  1.0
  C  C237  1  0.11476000  0.21000000  0.56935000  1.0
  C  C238  1  0.21000000  0.11476000  0.06935000  1.0
  C  C239  1  0.88524000  0.79000000  0.43065000  1.0
  C  C240  1  0.87010000  0.83429000  0.91150000  1.0
  C  C241  1  0.16571000  0.12990000  0.58850000  1.0
  C  C242  1  0.12990000  0.16571000  0.08850000  1.0
  C  C243  1  0.83429000  0.87010000  0.41150000  1.0
  C  C244  1  0.89944000  0.75796000  0.93735000  1.0
  C  C245  1  0.24203000  0.10056000  0.56266000  1.0
  C  C246  1  0.10056000  0.24204000  0.06265000  1.0
  C  C247  1  0.75796000  0.89944000  0.43735000  1.0
  C  C248  1  0.97546000  0.71288000  0.92017000  1.0
  C  C249  1  0.28712000  0.02454000  0.57983000  1.0
  C  C250  1  0.02454000  0.28712000  0.07983000  1.0
  C  C251  1  0.71288000  0.97546000  0.42017000  1.0
  C  C252  1  0.02254000  0.74437000  0.87838000  1.0
  C  C253  1  0.25563000  0.97746000  0.62162000  1.0
  C  C254  1  0.97746000  0.25564000  0.12162000  1.0
  C  C255  1  0.74436000  0.02254000  0.37838000  1.0
  C  C256  1  0.99334000  0.82083000  0.85155000  1.0
  C  C257  1  0.17916000  0.00666000  0.64844000  1.0
  C  C258  1  0.00666000  0.17916000  0.14844000  1.0
  C  C259  1  0.82083000  0.99335000  0.35156000  1.0
  C  C260  1  0.91615000  0.86515000  0.86783000  1.0
  C  C261  1  0.13485000  0.08386000  0.63217000  1.0
  C  C262  1  0.08386000  0.13485000  0.13217000  1.0
  C  C263  1  0.86515000  0.91615000  0.36783000  1.0
  C  C264  1  0.03909000  0.85374000  0.80801000  1.0
  C  C265  1  0.14625000  0.96090000  0.69198000  1.0
  C  C266  1  0.96091000  0.14626000  0.19199000  1.0
  C  C267  1  0.85374000  0.03909000  0.30802000  1.0
  C  C268  1  0.07549000  0.88628000  0.77025000  1.0
  C  C269  1  0.11371000  0.92450000  0.72974000  1.0
  C  C270  1  0.92450000  0.11372000  0.22974000  1.0
  C  C271  1  0.88628000  0.07550000  0.27026000  1.0
  C  C272  1  0.83050000  0.49904000  0.22075000  1.0
  C  C273  1  0.50096000  0.16949000  0.27926000  1.0
  C  C274  1  0.16950000  0.50097000  0.77925000  1.0
  C  C275  1  0.49904000  0.83050000  0.72074000  1.0
  C  C276  1  0.77698000  0.46556000  0.33167000  1.0
  C  C277  1  0.53444000  0.22302000  0.16833000  1.0
  C  C278  1  0.22302000  0.53444000  0.66834000  1.0
  C  C279  1  0.46555000  0.77698000  0.83167000  1.0
  C  C280  1  0.85772000  0.55091000  0.32642000  1.0
  C  C281  1  0.44909000  0.14228000  0.17357000  1.0
  C  C282  1  0.14229000  0.44909000  0.67357000  1.0
  C  C283  1  0.55091000  0.85772000  0.82643000  1.0
  C  C284  1  0.62572000  0.94670000  0.14328000  1.0
  C  C285  1  0.05330000  0.37428000  0.35672000  1.0
  C  C286  1  0.37429000  0.05330000  0.85672000  1.0
  C  C287  1  0.94670000  0.62572000  0.64328000  1.0
  C  C288  1  0.62058000  0.93581000  0.27005000  1.0
  C  C289  1  0.06419000  0.37942000  0.22995000  1.0
  C  C290  1  0.37942000  0.06419000  0.72995000  1.0
  C  C291  1  0.93581000  0.62058000  0.77005000  1.0
  C  C292  1  0.67876000  0.02634000  0.20770000  1.0
  C  C293  1  0.97366000  0.32124000  0.29230000  1.0
  C  C294  1  0.32124000  0.97366000  0.79230000  1.0
  C  C295  1  0.02634000  0.67876000  0.70770000  1.0
  C  C296  1  0.74649000  0.11390000  0.98528000  1.0
  C  C297  1  0.88610000  0.25351000  0.51472000  1.0
  C  C298  1  0.25352000  0.88610000  0.01472000  1.0
  C  C299  1  0.11390000  0.74649000  0.48528000  1.0
  C  C300  1  0.79272000  0.14124000  0.09371000  1.0
  C  C301  1  0.85876000  0.20728000  0.40629000  1.0
  C  C302  1  0.20728000  0.85876000  0.90629000  1.0
  C  C303  1  0.14124000  0.79272000  0.59371000  1.0
  C  C304  1  0.79583000  0.22191000  0.98645000  1.0
  C  C305  1  0.77809000  0.20417000  0.51355000  1.0
  C  C306  1  0.20417000  0.77809000  0.01355000  1.0
  C  C307  1  0.22191000  0.79583000  0.48645000  1.0
  C  C308  1  0.85887000  0.73310000  0.11744000  1.0
  C  C309  1  0.26690000  0.14113000  0.38256000  1.0
  C  C310  1  0.14113000  0.26690000  0.88256000  1.0
  C  C311  1  0.73310000  0.85887000  0.61744000  1.0
  C  C312  1  0.83692000  0.86557000  0.14865000  1.0
  C  C313  1  0.13443000  0.16308000  0.35135000  1.0
  C  C314  1  0.16308000  0.13443000  0.85135000  1.0
  C  C315  1  0.86557000  0.83692000  0.64865000  1.0
  C  C316  1  0.91966000  0.75589000  0.22018000  1.0
  C  C317  1  0.24411000  0.08033000  0.27982000  1.0
  C  C318  1  0.08034000  0.24411000  0.77982000  1.0
  C  C319  1  0.75589000  0.91967000  0.72018000  1.0
  C  C320  1  0.00581000  0.62932000  0.94432000  1.0
  C  C321  1  0.37067000  0.99419000  0.55568000  1.0
  C  C322  1  0.99419000  0.37067000  0.05568000  1.0
  C  C323  1  0.62932000  0.00581000  0.44433000  1.0
  N  N324  1  0.82081000  0.50557000  0.28991000  1.0
  N  N325  1  0.49443000  0.17919000  0.21009000  1.0
  N  N326  1  0.17919000  0.49444000  0.71009000  1.0
  N  N327  1  0.50556000  0.82081000  0.78991000  1.0
  N  N328  1  0.64109000  0.96831000  0.20469000  1.0
  N  N329  1  0.03169000  0.35891000  0.29530000  1.0
  N  N330  1  0.35891000  0.03169000  0.79531000  1.0
  N  N331  1  0.96832000  0.64109000  0.70470000  1.0
  N  N332  1  0.77868000  0.15630000  0.01989000  1.0
  N  N333  1  0.84370000  0.22131000  0.48011000  1.0
  N  N334  1  0.22131000  0.84370000  0.98011000  1.0
  N  N335  1  0.15630000  0.77869000  0.51989000  1.0
  N  N336  1  0.87209000  0.78284000  0.15988000  1.0
  N  N337  1  0.21716000  0.12791000  0.34012000  1.0
  N  N338  1  0.12791000  0.21716000  0.84012000  1.0
  N  N339  1  0.78284000  0.87209000  0.65988000  1.0
  O  O340  1  0.76233000  0.55939000  0.07841000  1.0
  O  O341  1  0.44060000  0.23767000  0.42159000  1.0
  O  O342  1  0.23767000  0.44061000  0.92158000  1.0
  O  O343  1  0.55940000  0.76233000  0.57842000  1.0
  O  O344  1  0.79028000  0.65286000  0.01585000  1.0
  O  O345  1  0.34713000  0.20972000  0.48415000  1.0
  O  O346  1  0.20972000  0.34714000  0.98415000  1.0
  O  O347  1  0.65287000  0.79028000  0.51585000  1.0
  O  O348  1  0.58672000  0.90419000  0.97484000  1.0
  O  O349  1  0.09581000  0.41328000  0.52516000  1.0
  O  O350  1  0.41328000  0.09581000  0.02516000  1.0
  O  O351  1  0.90420000  0.58672000  0.47484000  1.0
  O  O352  1  0.46253000  0.91600000  0.99806000  1.0
  O  O353  1  0.08400000  0.53746000  0.50194000  1.0
  O  O354  1  0.53747000  0.08400000  0.00194000  1.0
  O  O355  1  0.91600000  0.46254000  0.49806000  1.0
  O  O356  1  0.09796000  0.64573000  0.38441000  1.0
  O  O357  1  0.35427000  0.90204000  0.11559000  1.0
  O  O358  1  0.90204000  0.35427000  0.61559000  1.0
  O  O359  1  0.64574000  0.09796000  0.88440000  1.0
  O  O360  1  0.01594000  0.58670000  0.35625000  1.0
  O  O361  1  0.41331000  0.98406000  0.14375000  1.0
  O  O362  1  0.98406000  0.41330000  0.64375000  1.0
  O  O363  1  0.58669000  0.01594000  0.85625000  1.0
  O  O364  1  0.12153000  0.49871000  0.04198000  1.0
  O  O365  1  0.50129000  0.87847000  0.45802000  1.0
  O  O366  1  0.87846000  0.50129000  0.95802000  1.0
  O  O367  1  0.49871000  0.12153000  0.54198000  1.0
  O  O368  1  0.01555000  0.51521000  0.11215000  1.0
  O  O369  1  0.48480000  0.98445000  0.38785000  1.0
  O  O370  1  0.98444000  0.48479000  0.88785000  1.0
  O  O371  1  0.51520000  0.01555000  0.61216000  1.0
  O  O372  1  0.75595000  0.94071000  0.88855000  1.0
  O  O373  1  0.05929000  0.24406000  0.61145000  1.0
  O  O374  1  0.24405000  0.05929000  0.11145000  1.0
  O  O375  1  0.94071000  0.75595000  0.38855000  1.0
  O  O376  1  0.75835000  0.87419000  0.98878000  1.0
  O  O377  1  0.12582000  0.24165000  0.51122000  1.0
  O  O378  1  0.24165000  0.12582000  0.01122000  1.0
  O  O379  1  0.87419000  0.75835000  0.48878000  1.0
  O  O380  1  0.96488000  0.60580000  0.98887000  1.0
  O  O381  1  0.39420000  0.03511000  0.51114000  1.0
  O  O382  1  0.03511000  0.39421000  0.01113000  1.0
  O  O383  1  0.60580000  0.96489000  0.48888000  1.0
  O  O384  1  0.06946000  0.58764000  0.91728000  1.0
  O  O385  1  0.41236000  0.93054000  0.58272000  1.0
  O  O386  1  0.93053000  0.41236000  0.08272000  1.0
  O  O387  1  0.58764000  0.06947000  0.41729000  1.0
  O  O388  1  0.87224000  0.52857000  0.18469000  1.0
  O  O389  1  0.47144000  0.12776000  0.31531000  1.0
  O  O390  1  0.12776000  0.47144000  0.81531000  1.0
  O  O391  1  0.52856000  0.87224000  0.68469000  1.0
  O  O392  1  0.64391000  0.97258000  0.08653000  1.0
  O  O393  1  0.02742000  0.35609000  0.41346000  1.0
  O  O394  1  0.35609000  0.02742000  0.91347000  1.0
  O  O395  1  0.97258000  0.64391000  0.58654000  1.0
  O  O396  1  0.72691000  0.05962000  0.01316000  1.0
  O  O397  1  0.94038000  0.27309000  0.48684000  1.0
  O  O398  1  0.27309000  0.94038000  0.98684000  1.0
  O  O399  1  0.05962000  0.72691000  0.51316000  1.0
  O  O400  1  0.88748000  0.66148000  0.12534000  1.0
  O  O401  1  0.33852000  0.11252000  0.37466000  1.0
  O  O402  1  0.11252000  0.33851000  0.87466000  1.0
  O  O403  1  0.66148000  0.88748000  0.62534000  1.0
