# generated using pymatgen
data_CoH18C18(NO3)2
_symmetry_space_group_name_H-M   'P 1'
_cell_length_a   7.49659000
_cell_length_b   11.11140000
_cell_length_c   15.42120000
_cell_angle_alpha   89.99870000
_cell_angle_beta   89.99750000
_cell_angle_gamma   107.88600000
_symmetry_Int_Tables_number   1
_chemical_formula_structural   CoH18C18(NO3)2
_chemical_formula_sum   'Co2 H36 C36 N4 O12'
_cell_volume   1222.46617298
_cell_formula_units_Z   2
loop_
 _symmetry_equiv_pos_site_id
 _symmetry_equiv_pos_as_xyz
  1  'x, y, z'
loop_
 _atom_site_type_symbol
 _atom_site_label
 _atom_site_symmetry_multiplicity
 _atom_site_fract_x
 _atom_site_fract_y
 _atom_site_fract_z
 _atom_site_occupancy
  Co  Co0  1  0.99999000  0.00002000  0.99999000  1.0
  Co  Co1  1  0.49997000  0.99996000  0.50000000  1.0
  H  H2  1  0.81061000  0.83118000  0.86419000  1.0
  H  H3  1  0.68942000  0.16886000  0.36417000  1.0
  H  H4  1  0.18950000  0.16889000  0.13581000  1.0
  H  H5  1  0.31053000  0.83105000  0.63583000  1.0
  H  H6  1  0.79986000  0.83677000  0.70147000  1.0
  H  H7  1  0.70017000  0.16327000  0.20149000  1.0
  H  H8  1  0.20024000  0.16329000  0.29851000  1.0
  H  H9  1  0.29971000  0.83669000  0.79852000  1.0
  H  H10  1  0.98892000  0.03445000  0.62475000  1.0
  H  H11  1  0.51112000  0.96565000  0.12474000  1.0
  H  H12  1  0.01119000  0.96562000  0.37524000  1.0
  H  H13  1  0.48875000  0.03433000  0.87526000  1.0
  H  H14  1  0.18938000  0.21410000  0.71367000  1.0
  H  H15  1  0.31056000  0.78594000  0.21368000  1.0
  H  H16  1  0.81059000  0.78598000  0.28632000  1.0
  H  H17  1  0.68937000  0.21399000  0.78631000  1.0
  H  H18  1  0.18827000  0.19081000  0.87585000  1.0
  H  H19  1  0.31165000  0.80923000  0.37585000  1.0
  H  H20  1  0.81168000  0.80928000  0.12415000  1.0
  H  H21  1  0.68835000  0.19066000  0.62413000  1.0
  H  H22  1  0.22768000  0.38431000  0.03334000  1.0
  H  H23  1  0.27231000  0.61565000  0.53337000  1.0
  H  H24  1  0.77227000  0.61575000  0.96667000  1.0
  H  H25  1  0.72772000  0.38425000  0.46665000  1.0
  H  H26  1  0.66726000  0.37863000  0.97012000  1.0
  H  H27  1  0.83274000  0.62136000  0.47012000  1.0
  H  H28  1  0.33272000  0.62145000  0.02989000  1.0
  H  H29  1  0.16732000  0.37855000  0.52993000  1.0
  H  H30  1  0.67001000  0.01197000  0.99712000  1.0
  H  H31  1  0.83009000  0.98805000  0.49715000  1.0
  H  H32  1  0.32990000  0.98813000  0.00284000  1.0
  H  H33  1  0.16997000  0.01189000  0.50284000  1.0
  H  H34  1  0.55320000  0.86579000  0.99223000  1.0
  H  H35  1  0.94688000  0.13425000  0.49225000  1.0
  H  H36  1  0.44686000  0.13428000  0.00770000  1.0
  H  H37  1  0.05312000  0.86569000  0.50772000  1.0
  C  C38  1  0.89264000  0.91304000  0.82749000  1.0
  C  C39  1  0.60743000  0.08696000  0.32750000  1.0
  C  C40  1  0.10747000  0.08700000  0.17249000  1.0
  C  C41  1  0.39251000  0.91297000  0.67249000  1.0
  C  C42  1  0.88781000  0.91767000  0.73754000  1.0
  C  C43  1  0.61228000  0.08237000  0.23755000  1.0
  C  C44  1  0.11231000  0.08238000  0.26245000  1.0
  C  C45  1  0.38761000  0.91757000  0.76246000  1.0
  C  C46  1  0.99362000  0.02693000  0.69489000  1.0
  C  C47  1  0.50645000  0.97313000  0.19488000  1.0
  C  C48  1  0.00649000  0.97314000  0.30510000  1.0
  C  C49  1  0.49343000  0.02682000  0.80511000  1.0
  C  C50  1  0.10304000  0.12749000  0.74446000  1.0
  C  C51  1  0.39701000  0.87255000  0.24444000  1.0
  C  C52  1  0.89702000  0.87260000  0.25554000  1.0
  C  C53  1  0.60291000  0.12739000  0.75555000  1.0
  C  C54  1  0.10352000  0.11604000  0.83418000  1.0
  C  C55  1  0.39647000  0.88396000  0.33417000  1.0
  C  C56  1  0.89651000  0.88402000  0.16582000  1.0
  C  C57  1  0.60346000  0.11596000  0.66583000  1.0
  C  C58  1  0.87816000  0.22563000  0.00301000  1.0
  C  C59  1  0.62183000  0.77435000  0.50299000  1.0
  C  C60  1  0.12179000  0.77443000  0.99698000  1.0
  C  C61  1  0.37822000  0.22556000  0.49702000  1.0
  C  C62  1  0.94130000  0.36734000  0.00219000  1.0
  C  C63  1  0.55871000  0.63264000  0.50220000  1.0
  C  C64  1  0.05865000  0.63273000  0.99781000  1.0
  C  C65  1  0.44135000  0.36727000  0.49784000  1.0
  C  C66  1  0.12904000  0.43600000  0.01882000  1.0
  C  C67  1  0.37099000  0.56400000  0.51888000  1.0
  C  C68  1  0.87092000  0.56407000  0.98119000  1.0
  C  C69  1  0.62908000  0.43592000  0.48120000  1.0
  C  C70  1  0.81268000  0.43258000  0.98333000  1.0
  C  C71  1  0.68733000  0.56740000  0.48336000  1.0
  C  C72  1  0.18729000  0.56750000  0.01665000  1.0
  C  C73  1  0.31273000  0.43252000  0.51667000  1.0
  N  N74  1  0.99891000  0.01067000  0.87548000  1.0
  N  N75  1  0.50110000  0.98933000  0.37548000  1.0
  N  N76  1  0.00111000  0.98938000  0.12452000  1.0
  N  N77  1  0.49883000  0.01060000  0.62452000  1.0
  O  O78  1  0.70481000  0.16611000  0.99851000  1.0
  O  O79  1  0.79521000  0.83387000  0.49849000  1.0
  O  O80  1  0.29516000  0.83396000  0.00145000  1.0
  O  O81  1  0.20484000  0.16607000  0.50150000  1.0
  O  O82  1  0.01064000  0.17482000  0.00747000  1.0
  O  O83  1  0.48941000  0.82520000  0.50747000  1.0
  O  O84  1  0.98934000  0.82526000  0.99255000  1.0
  O  O85  1  0.51068000  0.17473000  0.49252000  1.0
  O  O86  1  0.67993000  0.92438000  0.00019000  1.0
  O  O87  1  0.82009000  0.07563000  0.50007000  1.0
  O  O88  1  0.32004000  0.07574000  0.99987000  1.0
  O  O89  1  0.17992000  0.92430000  0.49991000  1.0
