# generated using pymatgen
data_KH11C10O11
_symmetry_space_group_name_H-M   'P 1'
_cell_length_a   7.50622000
_cell_length_b   9.73208000
_cell_length_c   19.34980000
_cell_angle_alpha   90.00010000
_cell_angle_beta   90.00010000
_cell_angle_gamma   111.37500000
_symmetry_Int_Tables_number   1
_chemical_formula_structural   KH11C10O11
_chemical_formula_sum   'K4 H44 C40 O44'
_cell_volume   1316.29542650
_cell_formula_units_Z   4
loop_
 _symmetry_equiv_pos_site_id
 _symmetry_equiv_pos_as_xyz
  1  'x, y, z'
loop_
 _atom_site_type_symbol
 _atom_site_label
 _atom_site_symmetry_multiplicity
 _atom_site_fract_x
 _atom_site_fract_y
 _atom_site_fract_z
 _atom_site_occupancy
  K  K0  1  0.87703000  0.54882000  0.28892000  1.0
  K  K1  1  0.87701000  0.04882000  0.21108000  1.0
  K  K2  1  0.12297000  0.45119000  0.71108000  1.0
  K  K3  1  0.12298000  0.95119000  0.78892000  1.0
  H  H4  1  0.29792000  0.06710000  0.58221000  1.0
  H  H5  1  0.29791000  0.56710000  0.91779000  1.0
  H  H6  1  0.70209000  0.93290000  0.41779000  1.0
  H  H7  1  0.70209000  0.43290000  0.08221000  1.0
  H  H8  1  0.20706000  0.69574000  0.39838000  1.0
  H  H9  1  0.20706000  0.19574000  0.10162000  1.0
  H  H10  1  0.79293000  0.30426000  0.60162000  1.0
  H  H11  1  0.79293000  0.80426000  0.89838000  1.0
  H  H12  1  0.55883000  0.25362000  0.20436000  1.0
  H  H13  1  0.55883000  0.75362000  0.29564000  1.0
  H  H14  1  0.44117000  0.74638000  0.79563000  1.0
  H  H15  1  0.44117000  0.24638000  0.70436000  1.0
  H  H16  1  0.19059000  0.40999000  0.28236000  1.0
  H  H17  1  0.19059000  0.90999000  0.21764000  1.0
  H  H18  1  0.80941000  0.59001000  0.71764000  1.0
  H  H19  1  0.80941000  0.09001000  0.78236000  1.0
  H  H20  1  0.47871000  0.74435000  0.69201000  1.0
  H  H21  1  0.47871000  0.24435000  0.80799000  1.0
  H  H22  1  0.52129000  0.25565000  0.30799000  1.0
  H  H23  1  0.52130000  0.75565000  0.19201000  1.0
  H  H24  1  0.41187000  0.33082000  0.22375000  1.0
  H  H25  1  0.41187000  0.83082000  0.27625000  1.0
  H  H26  1  0.58812000  0.66918000  0.77625000  1.0
  H  H27  1  0.58812000  0.16918000  0.72375000  1.0
  H  H28  1  0.28826000  0.41572000  0.49454000  1.0
  H  H29  1  0.28826000  0.91572000  0.00545000  1.0
  H  H30  1  0.71174000  0.58428000  0.50546000  1.0
  H  H31  1  0.71174000  0.08428000  0.99455000  1.0
  H  H32  1  0.44112000  0.56153000  0.34538000  1.0
  H  H33  1  0.44112000  0.06153000  0.15462000  1.0
  H  H34  1  0.55888000  0.43847000  0.65462000  1.0
  H  H35  1  0.55888000  0.93847000  0.84538000  1.0
  H  H36  1  0.16483000  0.38276000  0.36254000  1.0
  H  H37  1  0.16483000  0.88276000  0.13746000  1.0
  H  H38  1  0.83517000  0.61724000  0.63746000  1.0
  H  H39  1  0.83517000  0.11724000  0.86254000  1.0
  H  H40  1  0.60168000  0.66424000  0.39615000  1.0
  H  H41  1  0.60168000  0.16424000  0.10385000  1.0
  H  H42  1  0.39832000  0.33576000  0.60385000  1.0
  H  H43  1  0.39832000  0.83576000  0.89615000  1.0
  H  H44  1  0.09896000  0.10854000  0.37276000  1.0
  H  H45  1  0.09897000  0.60855000  0.12724000  1.0
  H  H46  1  0.90104000  0.89145000  0.62724000  1.0
  H  H47  1  0.90104000  0.39146000  0.87276000  1.0
  C  C48  1  0.23443000  0.01914000  0.47483000  1.0
  C  C49  1  0.23442000  0.51914000  0.02517000  1.0
  C  C50  1  0.76558000  0.98086000  0.52517000  1.0
  C  C51  1  0.76558000  0.48086000  0.97483000  1.0
  C  C52  1  0.20948000  0.91266000  0.42153000  1.0
  C  C53  1  0.20948000  0.41266000  0.07847000  1.0
  C  C54  1  0.79052000  0.08733000  0.57847000  1.0
  C  C55  1  0.79052000  0.58734000  0.92153000  1.0
  C  C56  1  0.22576000  0.77770000  0.43874000  1.0
  C  C57  1  0.22576000  0.27769000  0.06126000  1.0
  C  C58  1  0.77423000  0.22230000  0.56126000  1.0
  C  C59  1  0.77423000  0.72230000  0.93874000  1.0
  C  C60  1  0.25665000  0.74219000  0.50632000  1.0
  C  C61  1  0.25664000  0.24219000  0.99368000  1.0
  C  C62  1  0.74335000  0.25781000  0.49368000  1.0
  C  C63  1  0.74336000  0.75781000  0.00632000  1.0
  C  C64  1  0.28500000  0.84815000  0.55856000  1.0
  C  C65  1  0.28500000  0.34815000  0.94144000  1.0
  C  C66  1  0.71500000  0.15185000  0.44144000  1.0
  C  C67  1  0.71500000  0.65185000  0.05857000  1.0
  C  C68  1  0.27626000  0.98465000  0.54185000  1.0
  C  C69  1  0.27626000  0.48465000  0.95815000  1.0
  C  C70  1  0.72375000  0.01535000  0.45815000  1.0
  C  C71  1  0.72375000  0.51535000  0.04185000  1.0
  C  C72  1  0.22251000  0.17009000  0.46777000  1.0
  C  C73  1  0.22251000  0.67009000  0.03223000  1.0
  C  C74  1  0.77749000  0.82991000  0.53223000  1.0
  C  C75  1  0.77749000  0.32991000  0.96777000  1.0
  C  C76  1  0.16008000  0.92490000  0.34661000  1.0
  C  C77  1  0.16009000  0.42490000  0.15339000  1.0
  C  C78  1  0.83991000  0.07509000  0.65339000  1.0
  C  C79  1  0.83991000  0.57509000  0.84661000  1.0
  C  C80  1  0.23658000  0.58789000  0.52453000  1.0
  C  C81  1  0.23658000  0.08789000  0.97546000  1.0
  C  C82  1  0.76342000  0.41211000  0.47547000  1.0
  C  C83  1  0.76342000  0.91210000  0.02454000  1.0
  C  C84  1  0.31831000  0.81486000  0.63219000  1.0
  C  C85  1  0.31831000  0.31486000  0.86780000  1.0
  C  C86  1  0.68169000  0.18515000  0.36780000  1.0
  C  C87  1  0.68169000  0.68515000  0.13220000  1.0
  O  O88  1  0.28709000  0.26231000  0.51573000  1.0
  O  O89  1  0.28709000  0.76231000  0.98426000  1.0
  O  O90  1  0.71291000  0.73769000  0.48427000  1.0
  O  O91  1  0.71291000  0.23769000  0.01574000  1.0
  O  O92  1  0.14220000  0.20264000  0.41438000  1.0
  O  O93  1  0.14220000  0.70264000  0.08562000  1.0
  O  O94  1  0.85781000  0.79736000  0.58562000  1.0
  O  O95  1  0.85780000  0.29736000  0.91439000  1.0
  O  O96  1  0.19113000  0.83983000  0.30280000  1.0
  O  O97  1  0.19113000  0.33983000  0.19720000  1.0
  O  O98  1  0.80886000  0.16017000  0.69720000  1.0
  O  O99  1  0.80886000  0.66017000  0.80280000  1.0
  O  O100  1  0.07824000  0.01503000  0.32876000  1.0
  O  O101  1  0.07824000  0.51503000  0.17124000  1.0
  O  O102  1  0.92176000  0.98497000  0.67124000  1.0
  O  O103  1  0.92175000  0.48497000  0.82876000  1.0
  O  O104  1  0.30544000  0.52117000  0.47805000  1.0
  O  O105  1  0.30544000  0.02117000  0.02195000  1.0
  O  O106  1  0.69455000  0.47883000  0.52195000  1.0
  O  O107  1  0.69456000  0.97883000  0.97805000  1.0
  O  O108  1  0.15584000  0.53016000  0.57844000  1.0
  O  O109  1  0.15585000  0.03016000  0.92156000  1.0
  O  O110  1  0.84416000  0.46984000  0.42156000  1.0
  O  O111  1  0.84416000  0.96984000  0.07844000  1.0
  O  O112  1  0.21005000  0.82056000  0.67913000  1.0
  O  O113  1  0.21005000  0.32056000  0.82086000  1.0
  O  O114  1  0.78996000  0.17945000  0.32086000  1.0
  O  O115  1  0.78997000  0.67946000  0.17914000  1.0
  O  O116  1  0.47243000  0.78130000  0.64065000  1.0
  O  O117  1  0.47244000  0.28130000  0.85935000  1.0
  O  O118  1  0.52757000  0.21870000  0.35935000  1.0
  O  O119  1  0.52757000  0.71870000  0.14065000  1.0
  O  O120  1  0.20674000  0.46117000  0.32760000  1.0
  O  O121  1  0.20674000  0.96117000  0.17240000  1.0
  O  O122  1  0.79326000  0.53883000  0.67240000  1.0
  O  O123  1  0.79326000  0.03883000  0.82760000  1.0
  O  O124  1  0.57718000  0.63259000  0.34779000  1.0
  O  O125  1  0.57718000  0.13259000  0.15221000  1.0
  O  O126  1  0.42282000  0.36741000  0.65221000  1.0
  O  O127  1  0.42282000  0.86741000  0.84779000  1.0
  O  O128  1  0.53278000  0.32198000  0.23943000  1.0
  O  O129  1  0.53278000  0.82198000  0.26057000  1.0
  O  O130  1  0.46722000  0.67802000  0.76057000  1.0
  O  O131  1  0.46722000  0.17802000  0.73943000  1.0
