# generated using pymatgen
data_CdH14(C7N5)2
_symmetry_space_group_name_H-M   'P 1'
_cell_length_a   8.82442000
_cell_length_b   9.89742000
_cell_length_c   11.40560000
_cell_angle_alpha   104.16400000
_cell_angle_beta   104.34600000
_cell_angle_gamma   109.78700000
_symmetry_Int_Tables_number   1
_chemical_formula_structural   CdH14(C7N5)2
_chemical_formula_sum   'Cd2 H28 C28 N20'
_cell_volume   847.07078439
_cell_formula_units_Z   2
loop_
 _symmetry_equiv_pos_site_id
 _symmetry_equiv_pos_as_xyz
  1  'x, y, z'
loop_
 _atom_site_type_symbol
 _atom_site_label
 _atom_site_symmetry_multiplicity
 _atom_site_fract_x
 _atom_site_fract_y
 _atom_site_fract_z
 _atom_site_occupancy
  Cd  Cd0  1  0.02179000  0.29163000  0.24675000  1.0
  Cd  Cd1  1  0.97820000  0.70837000  0.75325000  1.0
  H  H2  1  0.32289000  0.94143000  0.39246000  1.0
  H  H3  1  0.67711000  0.05857000  0.60754000  1.0
  H  H4  1  0.37249000  0.03585000  0.55907000  1.0
  H  H5  1  0.62751000  0.96415000  0.44093000  1.0
  H  H6  1  0.38446000  0.21713000  0.44424000  1.0
  H  H7  1  0.61554000  0.78287000  0.55576000  1.0
  H  H8  1  0.59221000  0.27313000  0.55963000  1.0
  H  H9  1  0.40779000  0.72688000  0.44037000  1.0
  H  H10  1  0.83761000  0.31962000  0.48435000  1.0
  H  H11  1  0.16239000  0.68038000  0.51565000  1.0
  H  H12  1  0.58313000  0.11829000  0.07781000  1.0
  H  H13  1  0.41687000  0.88171000  0.92219000  1.0
  H  H14  1  0.33742000  0.05762000  0.19528000  1.0
  H  H15  1  0.66258000  0.94238000  0.80472000  1.0
  H  H16  1  0.52370000  0.64891000  0.97223000  1.0
  H  H17  1  0.47630000  0.35109000  0.02777000  1.0
  H  H18  1  0.52309000  0.62681000  0.12156000  1.0
  H  H19  1  0.47691000  0.37319000  0.87844000  1.0
  H  H20  1  0.77699000  0.55432000  0.13283000  1.0
  H  H21  1  0.22301000  0.44568000  0.86717000  1.0
  H  H22  1  0.78516000  0.60375000  0.99366000  1.0
  H  H23  1  0.21484000  0.39625000  0.00634000  1.0
  H  H24  1  0.84174000  0.90301000  0.02744000  1.0
  H  H25  1  0.15826000  0.09699000  0.97256000  1.0
  H  H26  1  0.07921000  0.08050000  0.43514000  1.0
  H  H27  1  0.92079000  0.91950000  0.56486000  1.0
  H  H28  1  0.92306000  0.75917000  0.34838000  1.0
  H  H29  1  0.07694000  0.24083000  0.65162000  1.0
  C  C30  1  0.42860000  0.02675000  0.48291000  1.0
  C  C31  1  0.57140000  0.97325000  0.51709000  1.0
  C  C32  1  0.49174000  0.18397000  0.46890000  1.0
  C  C33  1  0.50827000  0.81603000  0.53110000  1.0
  C  C34  1  0.73785000  0.25558000  0.38845000  1.0
  C  C35  1  0.26215000  0.74442000  0.61155000  1.0
  C  C36  1  0.59924000  0.14935000  0.17951000  1.0
  C  C37  1  0.40077000  0.85065000  0.82049000  1.0
  C  C38  1  0.47700000  0.11784000  0.23591000  1.0
  C  C39  1  0.52300000  0.88216000  0.76409000  1.0
  C  C40  1  0.55422000  0.58641000  0.03569000  1.0
  C  C41  1  0.44578000  0.41359000  0.96431000  1.0
  C  C42  1  0.74670000  0.62511000  0.07842000  1.0
  C  C43  1  0.25330000  0.37489000  0.92157000  1.0
  C  C44  1  0.88597000  0.91102000  0.12758000  1.0
  C  C45  1  0.11403000  0.08898000  0.87241000  1.0
  C  C46  1  0.00649000  0.99618000  0.33774000  1.0
  C  C47  1  0.99351000  0.00382000  0.66226000  1.0
  C  C48  1  0.92873000  0.83830000  0.29699000  1.0
  C  C49  1  0.07127000  0.16170000  0.70301000  1.0
  C  C50  1  0.14571000  0.62413000  0.21209000  1.0
  C  C51  1  0.85429000  0.37587000  0.78791000  1.0
  C  C52  1  0.17062000  0.74417000  0.06338000  1.0
  C  C53  1  0.82938000  0.25583000  0.93662000  1.0
  C  C54  1  0.43587000  0.43500000  0.27249000  1.0
  C  C55  1  0.56413000  0.56500000  0.72751000  1.0
  C  C56  1  0.71308000  0.57483000  0.42803000  1.0
  C  C57  1  0.28692000  0.42517000  0.57197000  1.0
  N  N58  1  0.56680000  0.18684000  0.36825000  1.0
  N  N59  1  0.43320000  0.81316000  0.63175000  1.0
  N  N60  1  0.76090000  0.23542000  0.27563000  1.0
  N  N61  1  0.23910000  0.76458000  0.72437000  1.0
  N  N62  1  0.85317000  0.78597000  0.16356000  1.0
  N  N63  1  0.14683000  0.21403000  0.83644000  1.0
  N  N64  1  0.97936000  0.04009000  0.23123000  1.0
  N  N65  1  0.02064000  0.95991000  0.76877000  1.0
  N  N66  1  0.23256000  0.70540000  0.15838000  1.0
  N  N67  1  0.76744000  0.29460000  0.84162000  1.0
  N  N68  1  0.08154000  0.55333000  0.27052000  1.0
  N  N69  1  0.91846000  0.44667000  0.72948000  1.0
  N  N70  1  0.13011000  0.78946000  0.97939000  1.0
  N  N71  1  0.86989000  0.21054000  0.02061000  1.0
  N  N72  1  0.59666000  0.52920000  0.31526000  1.0
  N  N73  1  0.40334000  0.47080000  0.68474000  1.0
  N  N74  1  0.28770000  0.34998000  0.22006000  1.0
  N  N75  1  0.71229000  0.65002000  0.77994000  1.0
  N  N76  1  0.83221000  0.62807000  0.52647000  1.0
  N  N77  1  0.16778000  0.37193000  0.47353000  1.0
