# generated using pymatgen
data_Zn3H26C42(NO3)4
_symmetry_space_group_name_H-M   'P 1'
_cell_length_a   15.11790000
_cell_length_b   15.11790000
_cell_length_c   21.93240000
_cell_angle_alpha   90.00000000
_cell_angle_beta   89.99990000
_cell_angle_gamma   109.95500000
_symmetry_Int_Tables_number   1
_chemical_formula_structural   Zn3H26C42(NO3)4
_chemical_formula_sum   'Zn12 H104 C168 N16 O48'
_cell_volume   4711.71385197
_cell_formula_units_Z   4
loop_
 _symmetry_equiv_pos_site_id
 _symmetry_equiv_pos_as_xyz
  1  'x, y, z'
loop_
 _atom_site_type_symbol
 _atom_site_label
 _atom_site_symmetry_multiplicity
 _atom_site_fract_x
 _atom_site_fract_y
 _atom_site_fract_z
 _atom_site_occupancy
  Zn  Zn0  1  0.13768000  0.21237000  0.16070000  1.0
  Zn  Zn1  1  0.86232000  0.78763000  0.66070000  1.0
  Zn  Zn2  1  0.78763000  0.86232000  0.33930000  1.0
  Zn  Zn3  1  0.21237000  0.13768000  0.83930000  1.0
  Zn  Zn4  1  0.64588000  0.22959000  0.10467000  1.0
  Zn  Zn5  1  0.35412000  0.77041000  0.60467000  1.0
  Zn  Zn6  1  0.77041000  0.35412000  0.39533000  1.0
  Zn  Zn7  1  0.22959000  0.64588000  0.89533000  1.0
  Zn  Zn8  1  0.71928000  0.28072000  0.25000000  1.0
  Zn  Zn9  1  0.28071000  0.71928000  0.75000000  1.0
  Zn  Zn10  1  0.17590000  0.17590000  0.00000000  1.0
  Zn  Zn11  1  0.82410000  0.82410000  0.50000000  1.0
  H  H12  1  0.50548000  0.36342000  0.29851000  1.0
  H  H13  1  0.49452000  0.63658000  0.79851000  1.0
  H  H14  1  0.63658000  0.49452000  0.20149000  1.0
  H  H15  1  0.36342000  0.50548000  0.70149000  1.0
  H  H16  1  0.35965000  0.39015000  0.33447000  1.0
  H  H17  1  0.64035000  0.60985000  0.83448000  1.0
  H  H18  1  0.60984000  0.64035000  0.16553000  1.0
  H  H19  1  0.39016000  0.35965000  0.66553000  1.0
  H  H20  1  0.34829000  0.21744000  0.14300000  1.0
  H  H21  1  0.65171000  0.78256000  0.64300000  1.0
  H  H22  1  0.78256000  0.65171000  0.35700000  1.0
  H  H23  1  0.21744000  0.34829000  0.85700000  1.0
  H  H24  1  0.23827000  0.42470000  0.34912000  1.0
  H  H25  1  0.76174000  0.57530000  0.84912000  1.0
  H  H26  1  0.57530000  0.76173000  0.15088000  1.0
  H  H27  1  0.42470000  0.23827000  0.65088000  1.0
  H  H28  1  0.08056000  0.43684000  0.37115000  1.0
  H  H29  1  0.91945000  0.56317000  0.87115000  1.0
  H  H30  1  0.56317000  0.91945000  0.12885000  1.0
  H  H31  1  0.43684000  0.08056000  0.62885000  1.0
  H  H32  1  0.96711000  0.23855000  0.22602000  1.0
  H  H33  1  0.03289000  0.76145000  0.72602000  1.0
  H  H34  1  0.76145000  0.03289000  0.27398000  1.0
  H  H35  1  0.23855000  0.96711000  0.77398000  1.0
  H  H36  1  0.23035000  0.46769000  0.95879000  1.0
  H  H37  1  0.76965000  0.53231000  0.45879000  1.0
  H  H38  1  0.53231000  0.76965000  0.54121000  1.0
  H  H39  1  0.46769000  0.23035000  0.04121000  1.0
  H  H40  1  0.10952000  0.46776000  0.13643000  1.0
  H  H41  1  0.89048000  0.53224000  0.63643000  1.0
  H  H42  1  0.53224000  0.89048000  0.36357000  1.0
  H  H43  1  0.46776000  0.10952000  0.86357000  1.0
  H  H44  1  0.08807000  0.62066000  0.10902000  1.0
  H  H45  1  0.91193000  0.37934000  0.60902000  1.0
  H  H46  1  0.37934000  0.91193000  0.39098000  1.0
  H  H47  1  0.62066000  0.08807000  0.89098000  1.0
  H  H48  1  0.22747000  0.85527000  0.88153000  1.0
  H  H49  1  0.77253000  0.14474000  0.38153000  1.0
  H  H50  1  0.14474000  0.77252000  0.61847000  1.0
  H  H51  1  0.85526000  0.22748000  0.11847000  1.0
  H  H52  1  0.05975000  0.73930000  0.07377000  1.0
  H  H53  1  0.94025000  0.26070000  0.57377000  1.0
  H  H54  1  0.26070000  0.94025000  0.42623000  1.0
  H  H55  1  0.73930000  0.05975000  0.92623000  1.0
  H  H56  1  0.06357000  0.89493000  0.03303000  1.0
  H  H57  1  0.93642000  0.10507000  0.53303000  1.0
  H  H58  1  0.10507000  0.93642000  0.46697000  1.0
  H  H59  1  0.89493000  0.06357000  0.96697000  1.0
  H  H60  1  0.25929000  0.83840000  0.16800000  1.0
  H  H61  1  0.74071000  0.16160000  0.66800000  1.0
  H  H62  1  0.16160000  0.74070000  0.33200000  1.0
  H  H63  1  0.83840000  0.25930000  0.83199000  1.0
  H  H64  1  0.32008000  0.70664000  0.15678000  1.0
  H  H65  1  0.67992000  0.29336000  0.65678000  1.0
  H  H66  1  0.29336000  0.67992000  0.34322000  1.0
  H  H67  1  0.70664000  0.32008000  0.84322000  1.0
  H  H68  1  0.42202000  0.70204000  0.06798000  1.0
  H  H69  1  0.57798000  0.29796000  0.56798000  1.0
  H  H70  1  0.29796000  0.57798000  0.43202000  1.0
  H  H71  1  0.70204000  0.42202000  0.93202000  1.0
  H  H72  1  0.46713000  0.83289000  0.99335000  1.0
  H  H73  1  0.53288000  0.16712000  0.49335000  1.0
  H  H74  1  0.16711000  0.53288000  0.50665000  1.0
  H  H75  1  0.83289000  0.46712000  0.00665000  1.0
  H  H76  1  0.40833000  0.96693000  0.00530000  1.0
  H  H77  1  0.59167000  0.03307000  0.50530000  1.0
  H  H78  1  0.03307000  0.59167000  0.49470000  1.0
  H  H79  1  0.96693000  0.40832000  0.99470000  1.0
  H  H80  1  0.32440000  0.04998000  0.06094000  1.0
  H  H81  1  0.67559000  0.95002000  0.56094000  1.0
  H  H82  1  0.95002000  0.67560000  0.43906000  1.0
  H  H83  1  0.04998000  0.32440000  0.93906000  1.0
  H  H84  1  0.17481000  0.92781000  0.14988000  1.0
  H  H85  1  0.82518000  0.07219000  0.64988000  1.0
  H  H86  1  0.07219000  0.82519000  0.35012000  1.0
  H  H87  1  0.92781000  0.17481000  0.85012000  1.0
  H  H88  1  0.87608000  0.48414000  0.18559000  1.0
  H  H89  1  0.12392000  0.51586000  0.68559000  1.0
  H  H90  1  0.51587000  0.12392000  0.31441000  1.0
  H  H91  1  0.48413000  0.87608000  0.81441000  1.0
  H  H92  1  0.77925000  0.56911000  0.09000000  1.0
  H  H93  1  0.22075000  0.43089000  0.59000000  1.0
  H  H94  1  0.43089000  0.22075000  0.41000000  1.0
  H  H95  1  0.56911000  0.77924000  0.91000000  1.0
  H  H96  1  0.97390000  0.62660000  0.21149000  1.0
  H  H97  1  0.02610000  0.37339000  0.71149000  1.0
  H  H98  1  0.37340000  0.02611000  0.28851000  1.0
  H  H99  1  0.62660000  0.97389000  0.78851000  1.0
  H  H100  1  0.06139000  0.78929000  0.24413000  1.0
  H  H101  1  0.93861000  0.21071000  0.74413000  1.0
  H  H102  1  0.21071000  0.93861000  0.25587000  1.0
  H  H103  1  0.78929000  0.06139000  0.75587000  1.0
  H  H104  1  0.02652000  0.92502000  0.19767000  1.0
  H  H105  1  0.97348000  0.07498000  0.69767000  1.0
  H  H106  1  0.07498000  0.97348000  0.30233000  1.0
  H  H107  1  0.92501000  0.02652000  0.80233000  1.0
  H  H108  1  0.90322000  0.89559000  0.11833000  1.0
  H  H109  1  0.09678000  0.10441000  0.61833000  1.0
  H  H110  1  0.10441000  0.09678000  0.38167000  1.0
  H  H111  1  0.89559000  0.90322000  0.88167000  1.0
  H  H112  1  0.81482000  0.73153000  0.08488000  1.0
  H  H113  1  0.18518000  0.26847000  0.58488000  1.0
  H  H114  1  0.26848000  0.18518000  0.41513000  1.0
  H  H115  1  0.73152000  0.81482000  0.91512000  1.0
  C  C116  1  0.52348000  0.26946000  0.19587000  1.0
  C  C117  1  0.47652000  0.73054000  0.69587000  1.0
  C  C118  1  0.73054000  0.47652000  0.30413000  1.0
  C  C119  1  0.26946000  0.52348000  0.80413000  1.0
  C  C120  1  0.43822000  0.28908000  0.21788000  1.0
  C  C121  1  0.56178000  0.71092000  0.71788000  1.0
  C  C122  1  0.71092000  0.56178000  0.28212000  1.0
  C  C123  1  0.28908000  0.43823000  0.78212000  1.0
  C  C124  1  0.44040000  0.33785000  0.27236000  1.0
  C  C125  1  0.55960000  0.66215000  0.77236000  1.0
  C  C126  1  0.66215000  0.55960000  0.22764000  1.0
  C  C127  1  0.33785000  0.44040000  0.72764000  1.0
  C  C128  1  0.35894000  0.35181000  0.29236000  1.0
  C  C129  1  0.64106000  0.64819000  0.79236000  1.0
  C  C130  1  0.64819000  0.64106000  0.20764000  1.0
  C  C131  1  0.35181000  0.35894000  0.70765000  1.0
  C  C132  1  0.27598000  0.31354000  0.25855000  1.0
  C  C133  1  0.72402000  0.68646000  0.75856000  1.0
  C  C134  1  0.68646000  0.72402000  0.24145000  1.0
  C  C135  1  0.31354000  0.27598000  0.74145000  1.0
  C  C136  1  0.35338000  0.25486000  0.18607000  1.0
  C  C137  1  0.64662000  0.74513000  0.68607000  1.0
  C  C138  1  0.74514000  0.64662000  0.31393000  1.0
  C  C139  1  0.25486000  0.35338000  0.81393000  1.0
  C  C140  1  0.18541000  0.32342000  0.27619000  1.0
  C  C141  1  0.81459000  0.67658000  0.77619000  1.0
  C  C142  1  0.67658000  0.81459000  0.22381000  1.0
  C  C143  1  0.32342000  0.18541000  0.72381000  1.0
  C  C144  1  0.17690000  0.38300000  0.32305000  1.0
  C  C145  1  0.82310000  0.61700000  0.82305000  1.0
  C  C146  1  0.61700000  0.82310000  0.17695000  1.0
  C  C147  1  0.38300000  0.17690000  0.67695000  1.0
  C  C148  1  0.08940000  0.39049000  0.33532000  1.0
  C  C149  1  0.91060000  0.60951000  0.83533000  1.0
  C  C150  1  0.60951000  0.91060000  0.16468000  1.0
  C  C151  1  0.39049000  0.08940000  0.66468000  1.0
  C  C152  1  0.01201000  0.33819000  0.30036000  1.0
  C  C153  1  0.98799000  0.66181000  0.80037000  1.0
  C  C154  1  0.66181000  0.98799000  0.19963000  1.0
  C  C155  1  0.33819000  0.01201000  0.69963000  1.0
  C  C156  1  0.02577000  0.27993000  0.25444000  1.0
  C  C157  1  0.97423000  0.72007000  0.75444000  1.0
  C  C158  1  0.72007000  0.97424000  0.24556000  1.0
  C  C159  1  0.27994000  0.02576000  0.74556000  1.0
  C  C160  1  0.91474000  0.34085000  0.31034000  1.0
  C  C161  1  0.08527000  0.65915000  0.81033000  1.0
  C  C162  1  0.65915000  0.08527000  0.18966000  1.0
  C  C163  1  0.34085000  0.91473000  0.68966000  1.0
  C  C164  1  0.18304000  0.36315000  0.06381000  1.0
  C  C165  1  0.81696000  0.63685000  0.56381000  1.0
  C  C166  1  0.63685000  0.81696000  0.43619000  1.0
  C  C167  1  0.36315000  0.18304000  0.93619000  1.0
  C  C168  1  0.19937000  0.49950000  0.99361000  1.0
  C  C169  1  0.80063000  0.50050000  0.49361000  1.0
  C  C170  1  0.50050000  0.80063000  0.50639000  1.0
  C  C171  1  0.49950000  0.19937000  0.00639000  1.0
  C  C172  1  0.17174000  0.45624000  0.04998000  1.0
  C  C173  1  0.82826000  0.54376000  0.54999000  1.0
  C  C174  1  0.54376000  0.82826000  0.45001000  1.0
  C  C175  1  0.45624000  0.17174000  0.95001000  1.0
  C  C176  1  0.13139000  0.50073000  0.09214000  1.0
  C  C177  1  0.86861000  0.49928000  0.59214000  1.0
  C  C178  1  0.49927000  0.86861000  0.40786000  1.0
  C  C179  1  0.50072000  0.13139000  0.90786000  1.0
  C  C180  1  0.11972000  0.58541000  0.07682000  1.0
  C  C181  1  0.88028000  0.41459000  0.57682000  1.0
  C  C182  1  0.41459000  0.88028000  0.42318000  1.0
  C  C183  1  0.58541000  0.11972000  0.92318000  1.0
  C  C184  1  0.15049000  0.62534000  0.01964000  1.0
  C  C185  1  0.84951000  0.37466000  0.51964000  1.0
  C  C186  1  0.37466000  0.84951000  0.48036000  1.0
  C  C187  1  0.62534000  0.15049000  0.98036000  1.0
  C  C188  1  0.18995000  0.83243000  0.92438000  1.0
  C  C189  1  0.81005000  0.16757000  0.42438000  1.0
  C  C190  1  0.16757000  0.81004000  0.57562000  1.0
  C  C191  1  0.83243000  0.18995000  0.07562000  1.0
  C  C192  1  0.14469000  0.71666000  0.99933000  1.0
  C  C193  1  0.85531000  0.28334000  0.49933000  1.0
  C  C194  1  0.28334000  0.85530000  0.50067000  1.0
  C  C195  1  0.71666000  0.14470000  0.00067000  1.0
  C  C196  1  0.09700000  0.76658000  0.03156000  1.0
  C  C197  1  0.90300000  0.23341000  0.53156000  1.0
  C  C198  1  0.23341000  0.90300000  0.46844000  1.0
  C  C199  1  0.76659000  0.09700000  0.96844000  1.0
  C  C200  1  0.09818000  0.85289000  0.00886000  1.0
  C  C201  1  0.90182000  0.14711000  0.50886000  1.0
  C  C202  1  0.14711000  0.90182000  0.49114000  1.0
  C  C203  1  0.85289000  0.09818000  0.99114000  1.0
  C  C204  1  0.14599000  0.88764000  0.95452000  1.0
  C  C205  1  0.85401000  0.11236000  0.45452000  1.0
  C  C206  1  0.11236000  0.85401000  0.54548000  1.0
  C  C207  1  0.88764000  0.14599000  0.04548000  1.0
  C  C208  1  0.15446000  0.98429000  0.93183000  1.0
  C  C209  1  0.84554000  0.01571000  0.43183000  1.0
  C  C210  1  0.01571000  0.84554000  0.56817000  1.0
  C  C211  1  0.98429000  0.15446000  0.06817000  1.0
  C  C212  1  0.30447000  0.83743000  0.12939000  1.0
  C  C213  1  0.69553000  0.16257000  0.62939000  1.0
  C  C214  1  0.16257000  0.69553000  0.37061000  1.0
  C  C215  1  0.83743000  0.30447000  0.87061000  1.0
  C  C216  1  0.33905000  0.76347000  0.12329000  1.0
  C  C217  1  0.66096000  0.23653000  0.62329000  1.0
  C  C218  1  0.23653000  0.66095000  0.37671000  1.0
  C  C219  1  0.76347000  0.33904000  0.87671000  1.0
  C  C220  1  0.39733000  0.76139000  0.07411000  1.0
  C  C221  1  0.60267000  0.23862000  0.57411000  1.0
  C  C222  1  0.23861000  0.60267000  0.42589000  1.0
  C  C223  1  0.76139000  0.39733000  0.92589000  1.0
  C  C224  1  0.42294000  0.83527000  0.03207000  1.0
  C  C225  1  0.57706000  0.16473000  0.53207000  1.0
  C  C226  1  0.16473000  0.57706000  0.46793000  1.0
  C  C227  1  0.83527000  0.42294000  0.96793000  1.0
  C  C228  1  0.38914000  0.90976000  0.03856000  1.0
  C  C229  1  0.61086000  0.09024000  0.53856000  1.0
  C  C230  1  0.09024000  0.61086000  0.46144000  1.0
  C  C231  1  0.90976000  0.38914000  0.96144000  1.0
  C  C232  1  0.32778000  0.91146000  0.08650000  1.0
  C  C233  1  0.67222000  0.08854000  0.58650000  1.0
  C  C234  1  0.08854000  0.67222000  0.41349000  1.0
  C  C235  1  0.91146000  0.32778000  0.91349000  1.0
  C  C236  1  0.28976000  0.98809000  0.08917000  1.0
  C  C237  1  0.71024000  0.01190000  0.58917000  1.0
  C  C238  1  0.01191000  0.71024000  0.41083000  1.0
  C  C239  1  0.98810000  0.28976000  0.91083000  1.0
  C  C240  1  0.21442000  0.98809000  0.12206000  1.0
  C  C241  1  0.78557000  0.01190000  0.62206000  1.0
  C  C242  1  0.01191000  0.78557000  0.37794000  1.0
  C  C243  1  0.98810000  0.21443000  0.87794000  1.0
  C  C244  1  0.18327000  0.07023000  0.12624000  1.0
  C  C245  1  0.81673000  0.92977000  0.62624000  1.0
  C  C246  1  0.92977000  0.81673000  0.37376000  1.0
  C  C247  1  0.07023000  0.18327000  0.87376000  1.0
  C  C248  1  0.76035000  0.40057000  0.12671000  1.0
  C  C249  1  0.23965000  0.59943000  0.62671000  1.0
  C  C250  1  0.59943000  0.23965000  0.37329000  1.0
  C  C251  1  0.40057000  0.76035000  0.87329000  1.0
  C  C252  1  0.83029000  0.48967000  0.14852000  1.0
  C  C253  1  0.16970000  0.51033000  0.64852000  1.0
  C  C254  1  0.51034000  0.16970000  0.35148000  1.0
  C  C255  1  0.48966000  0.83030000  0.85149000  1.0
  C  C256  1  0.83093000  0.57285000  0.12577000  1.0
  C  C257  1  0.16906000  0.42715000  0.62578000  1.0
  C  C258  1  0.42715000  0.16906000  0.37423000  1.0
  C  C259  1  0.57285000  0.83093000  0.87423000  1.0
  C  C260  1  0.88800000  0.66718000  0.14527000  1.0
  C  C261  1  0.11200000  0.33281000  0.64527000  1.0
  C  C262  1  0.33282000  0.11200000  0.35473000  1.0
  C  C263  1  0.66718000  0.88800000  0.85473000  1.0
  C  C264  1  0.95879000  0.68514000  0.19020000  1.0
  C  C265  1  0.04121000  0.31486000  0.69020000  1.0
  C  C266  1  0.31486000  0.04121000  0.30980000  1.0
  C  C267  1  0.68513000  0.95879000  0.80980000  1.0
  C  C268  1  0.00808000  0.77691000  0.20856000  1.0
  C  C269  1  0.99192000  0.22309000  0.70856000  1.0
  C  C270  1  0.22309000  0.99192000  0.29144000  1.0
  C  C271  1  0.77690000  0.00808000  0.79144000  1.0
  C  C272  1  0.98827000  0.85308000  0.18318000  1.0
  C  C273  1  0.01173000  0.14692000  0.68318000  1.0
  C  C274  1  0.14692000  0.01173000  0.31682000  1.0
  C  C275  1  0.85308000  0.98827000  0.81682000  1.0
  C  C276  1  0.91890000  0.83648000  0.13835000  1.0
  C  C277  1  0.08110000  0.16352000  0.63835000  1.0
  C  C278  1  0.16352000  0.08110000  0.36165000  1.0
  C  C279  1  0.83648000  0.91890000  0.86165000  1.0
  C  C280  1  0.86961000  0.74468000  0.11961000  1.0
  C  C281  1  0.13039000  0.25532000  0.61961000  1.0
  C  C282  1  0.25532000  0.13039000  0.38039000  1.0
  C  C283  1  0.74468000  0.86961000  0.88039000  1.0
  N  N284  1  0.27434000  0.26504000  0.20669000  1.0
  N  N285  1  0.72566000  0.73496000  0.70669000  1.0
  N  N286  1  0.73496000  0.72566000  0.29331000  1.0
  N  N287  1  0.26504000  0.27434000  0.79331000  1.0
  N  N288  1  0.10972000  0.27282000  0.24278000  1.0
  N  N289  1  0.89028000  0.72718000  0.74278000  1.0
  N  N290  1  0.72718000  0.89028000  0.25722000  1.0
  N  N291  1  0.27282000  0.10972000  0.75722000  1.0
  N  N292  1  0.18956000  0.58164000  0.97950000  1.0
  N  N293  1  0.81043000  0.41836000  0.47950000  1.0
  N  N294  1  0.41836000  0.81043000  0.52050000  1.0
  N  N295  1  0.58164000  0.18957000  0.02050000  1.0
  N  N296  1  0.18931000  0.74988000  0.94648000  1.0
  N  N297  1  0.81069000  0.25012000  0.44648000  1.0
  N  N298  1  0.25012000  0.81069000  0.55352000  1.0
  N  N299  1  0.74988000  0.18931000  0.05352000  1.0
  O  O300  1  0.57949000  0.26469000  0.23749000  1.0
  O  O301  1  0.42051000  0.73531000  0.73749000  1.0
  O  O302  1  0.73530000  0.42050000  0.26251000  1.0
  O  O303  1  0.26470000  0.57950000  0.76251000  1.0
  O  O304  1  0.53098000  0.25831000  0.13891000  1.0
  O  O305  1  0.46902000  0.74168000  0.63891000  1.0
  O  O306  1  0.74169000  0.46902000  0.36109000  1.0
  O  O307  1  0.25831000  0.53098000  0.86109000  1.0
  O  O308  1  0.90236000  0.38826000  0.35539000  1.0
  O  O309  1  0.09764000  0.61174000  0.85539000  1.0
  O  O310  1  0.61174000  0.09764000  0.14461000  1.0
  O  O311  1  0.38826000  0.90236000  0.64461000  1.0
  O  O312  1  0.85371000  0.29295000  0.27265000  1.0
  O  O313  1  0.14629000  0.70706000  0.77265000  1.0
  O  O314  1  0.70706000  0.14629000  0.22735000  1.0
  O  O315  1  0.29294000  0.85371000  0.72735000  1.0
  O  O316  1  0.19539000  0.31652000  0.01864000  1.0
  O  O317  1  0.80461000  0.68348000  0.51864000  1.0
  O  O318  1  0.68348000  0.80461000  0.48135000  1.0
  O  O319  1  0.31652000  0.19539000  0.98135000  1.0
  O  O320  1  0.17775000  0.34155000  0.11992000  1.0
  O  O321  1  0.82225000  0.65845000  0.61992000  1.0
  O  O322  1  0.65845000  0.82225000  0.38008000  1.0
  O  O323  1  0.34155000  0.17775000  0.88008000  1.0
  O  O324  1  0.18316000  0.00463000  0.87717000  1.0
  O  O325  1  0.81684000  0.99537000  0.37717000  1.0
  O  O326  1  0.99537000  0.81684000  0.62283000  1.0
  O  O327  1  0.00463000  0.18316000  0.12283000  1.0
  O  O328  1  0.13325000  0.03609000  0.97020000  1.0
  O  O329  1  0.86675000  0.96391000  0.47020000  1.0
  O  O330  1  0.96392000  0.86675000  0.52980000  1.0
  O  O331  1  0.03608000  0.13325000  0.02980000  1.0
  O  O332  1  0.12862000  0.07212000  0.17059000  1.0
  O  O333  1  0.87138000  0.92788000  0.67059000  1.0
  O  O334  1  0.92788000  0.87138000  0.32941000  1.0
  O  O335  1  0.07212000  0.12862000  0.82941000  1.0
  O  O336  1  0.21449000  0.14053000  0.08994000  1.0
  O  O337  1  0.78551000  0.85947000  0.58994000  1.0
  O  O338  1  0.85947000  0.78551000  0.41006000  1.0
  O  O339  1  0.14053000  0.21449000  0.91006000  1.0
  O  O340  1  0.75513000  0.32298000  0.15569000  1.0
  O  O341  1  0.24487000  0.67701000  0.65569000  1.0
  O  O342  1  0.67702000  0.24487000  0.34431000  1.0
  O  O343  1  0.32298000  0.75513000  0.84431000  1.0
  O  O344  1  0.70769000  0.39805000  0.08196000  1.0
  O  O345  1  0.29231000  0.60195000  0.58196000  1.0
  O  O346  1  0.60196000  0.29231000  0.41804000  1.0
  O  O347  1  0.39804000  0.70769000  0.91804000  1.0
