# generated using pymatgen
data_CuH16C16Br2(N2O)2
_symmetry_space_group_name_H-M   'P 1'
_cell_length_a   7.59232000
_cell_length_b   7.65226000
_cell_length_c   8.12939000
_cell_angle_alpha   67.13220000
_cell_angle_beta   85.43180000
_cell_angle_gamma   76.18370000
_symmetry_Int_Tables_number   1
_chemical_formula_structural   CuH16C16Br2(N2O)2
_chemical_formula_sum   'Cu1 H16 C16 Br2 N4 O2'
_cell_volume   422.54620624
_cell_formula_units_Z   1
loop_
 _symmetry_equiv_pos_site_id
 _symmetry_equiv_pos_as_xyz
  1  'x, y, z'
loop_
 _atom_site_type_symbol
 _atom_site_label
 _atom_site_symmetry_multiplicity
 _atom_site_fract_x
 _atom_site_fract_y
 _atom_site_fract_z
 _atom_site_occupancy
  Cu  Cu0  1  0.00000000  0.00000000  0.50000000  1.0
  H  H1  1  0.22484000  0.28691000  0.37572000  1.0
  H  H2  1  0.77516000  0.71310000  0.62428000  1.0
  H  H3  1  0.03815000  0.26778000  0.97479000  1.0
  H  H4  1  0.96185000  0.73222000  0.02521000  1.0
  H  H5  1  0.95269000  0.05263000  0.84056000  1.0
  H  H6  1  0.04731000  0.94737000  0.15944000  1.0
  H  H7  1  0.31824000  0.51741000  0.48672000  1.0
  H  H8  1  0.68175000  0.48259000  0.51329000  1.0
  H  H9  1  0.28524000  0.81546000  0.88881000  1.0
  H  H10  1  0.71476000  0.18454000  0.11118000  1.0
  H  H11  1  0.51527000  0.76901000  0.82391000  1.0
  H  H12  1  0.48474000  0.23099000  0.17608000  1.0
  H  H13  1  0.64277000  0.42927000  0.80710000  1.0
  H  H14  1  0.35723000  0.57073000  0.19289000  1.0
  H  H15  1  0.49146000  0.27179000  0.85768000  1.0
  H  H16  1  0.50855000  0.72821000  0.14231000  1.0
  C  C17  1  0.18723000  0.28855000  0.50713000  1.0
  C  C18  1  0.81276000  0.71144000  0.49287000  1.0
  C  C19  1  0.21150000  0.56248000  0.80172000  1.0
  C  C20  1  0.78849000  0.43752000  0.19828000  1.0
  C  C21  1  0.18523000  0.40943000  0.73945000  1.0
  C  C22  1  0.81477000  0.59057000  0.26055000  1.0
  C  C23  1  0.08352000  0.27508000  0.84188000  1.0
  C  C24  1  0.91648000  0.72492000  0.15812000  1.0
  C  C25  1  0.03658000  0.15509000  0.76932000  1.0
  C  C26  1  0.96342000  0.84491000  0.23068000  1.0
  C  C27  1  0.24031000  0.41329000  0.57033000  1.0
  C  C28  1  0.75969000  0.58671000  0.42967000  1.0
  C  C29  1  0.41055000  0.70267000  0.91121000  1.0
  C  C30  1  0.58946000  0.29733000  0.08879000  1.0
  C  C31  1  0.52936000  0.38244000  0.89293000  1.0
  C  C32  1  0.47064000  0.61756000  0.10706000  1.0
  Br  Br33  1  0.31398000  0.91279000  0.38879000  1.0
  Br  Br34  1  0.68601000  0.08722000  0.61120000  1.0
  N  N35  1  0.08553000  0.16288000  0.60380000  1.0
  N  N36  1  0.91447000  0.83712000  0.39620000  1.0
  N  N37  1  0.37707000  0.55003000  0.86035000  1.0
  N  N38  1  0.62294000  0.44997000  0.13965000  1.0
  O  O39  1  0.07715000  0.69749000  0.79344000  1.0
  O  O40  1  0.92285000  0.30251000  0.20656000  1.0
