# generated using pymatgen
data_AgPH7C5O3
_symmetry_space_group_name_H-M   'P 1'
_cell_length_a   6.09343000
_cell_length_b   6.69702000
_cell_length_c   15.74420000
_cell_angle_alpha   86.68340000
_cell_angle_beta   89.99990000
_cell_angle_gamma   89.99960000
_symmetry_Int_Tables_number   1
_chemical_formula_structural   AgPH7C5O3
_chemical_formula_sum   'Ag4 P4 H28 C20 O12'
_cell_volume   641.41041762
_cell_formula_units_Z   4
loop_
 _symmetry_equiv_pos_site_id
 _symmetry_equiv_pos_as_xyz
  1  'x, y, z'
loop_
 _atom_site_type_symbol
 _atom_site_label
 _atom_site_symmetry_multiplicity
 _atom_site_fract_x
 _atom_site_fract_y
 _atom_site_fract_z
 _atom_site_occupancy
  Ag  Ag0  1  0.59884000  0.08016000  0.82066000  1.0
  Ag  Ag1  1  0.09883000  0.91984000  0.67935000  1.0
  Ag  Ag2  1  0.40116000  0.91984000  0.17934000  1.0
  Ag  Ag3  1  0.90117000  0.08014000  0.32066000  1.0
  P  P4  1  0.11361000  0.27873000  0.81475000  1.0
  P  P5  1  0.61361000  0.72127000  0.68525000  1.0
  P  P6  1  0.88639000  0.72127000  0.18525000  1.0
  P  P7  1  0.38639000  0.27872000  0.31475000  1.0
  H  H8  1  0.28843000  0.56611000  0.78737000  1.0
  H  H9  1  0.78843000  0.43389000  0.71262000  1.0
  H  H10  1  0.71157000  0.43389000  0.21262000  1.0
  H  H11  1  0.21157000  0.56610000  0.28738000  1.0
  H  H12  1  0.13207000  0.33886000  0.08667000  1.0
  H  H13  1  0.63209000  0.66114000  0.41333000  1.0
  H  H14  1  0.86792000  0.66116000  0.91333000  1.0
  H  H15  1  0.36793000  0.33885000  0.58667000  1.0
  H  H16  1  0.25608000  0.47135000  0.99840000  1.0
  H  H17  1  0.75610000  0.52865000  0.50160000  1.0
  H  H18  1  0.74392000  0.52866000  0.00160000  1.0
  H  H19  1  0.24392000  0.47133000  0.49840000  1.0
  H  H20  1  0.39542000  0.44184000  0.09781000  1.0
  H  H21  1  0.89545000  0.55816000  0.40219000  1.0
  H  H22  1  0.60457000  0.55817000  0.90219000  1.0
  H  H23  1  0.10457000  0.44183000  0.59781000  1.0
  H  H24  1  0.33275000  0.80505000  0.88844000  1.0
  H  H25  1  0.83275000  0.19496000  0.61156000  1.0
  H  H26  1  0.66724000  0.19497000  0.11156000  1.0
  H  H27  1  0.16726000  0.80504000  0.38845000  1.0
  H  H28  1  0.98881000  0.21789000  0.95734000  1.0
  H  H29  1  0.48882000  0.78212000  0.54266000  1.0
  H  H30  1  0.01118000  0.78212000  0.04266000  1.0
  H  H31  1  0.51119000  0.21788000  0.45734000  1.0
  H  H32  1  0.00182000  0.99894000  0.89996000  1.0
  H  H33  1  0.50182000  0.00107000  0.60004000  1.0
  H  H34  1  0.99817000  0.00107000  0.10005000  1.0
  H  H35  1  0.49818000  0.99893000  0.39996000  1.0
  C  C36  1  0.28878000  0.36749000  0.05344000  1.0
  C  C37  1  0.78881000  0.63252000  0.44656000  1.0
  C  C38  1  0.71120000  0.63253000  0.94656000  1.0
  C  C39  1  0.21121000  0.36747000  0.55344000  1.0
  C  C40  1  0.39296000  0.17822000  0.02576000  1.0
  C  C41  1  0.89299000  0.82178000  0.47424000  1.0
  C  C42  1  0.60701000  0.82179000  0.97424000  1.0
  C  C43  1  0.10703000  0.17821000  0.52576000  1.0
  C  C44  1  0.30613000  0.07226000  0.95865000  1.0
  C  C45  1  0.80614000  0.92774000  0.54135000  1.0
  C  C46  1  0.69385000  0.92773000  0.04135000  1.0
  C  C47  1  0.19388000  0.07225000  0.45865000  1.0
  C  C48  1  0.41502000  0.89801000  0.93351000  1.0
  C  C49  1  0.91503000  0.10199000  0.56649000  1.0
  C  C50  1  0.58495000  0.10200000  0.06650000  1.0
  C  C51  1  0.08498000  0.89800000  0.43351000  1.0
  C  C52  1  0.09414000  0.13312000  0.91580000  1.0
  C  C53  1  0.59415000  0.86689000  0.58420000  1.0
  C  C54  1  0.90584000  0.86689000  0.08420000  1.0
  C  C55  1  0.40585000  0.13311000  0.41580000  1.0
  O  O56  1  0.26607000  0.17542000  0.75375000  1.0
  O  O57  1  0.76606000  0.82458000  0.74624000  1.0
  O  O58  1  0.73393000  0.82458000  0.24625000  1.0
  O  O59  1  0.23393000  0.17541000  0.25375000  1.0
  O  O60  1  0.21439000  0.48562000  0.83840000  1.0
  O  O61  1  0.71439000  0.51438000  0.66160000  1.0
  O  O62  1  0.78561000  0.51438000  0.16160000  1.0
  O  O63  1  0.28562000  0.48561000  0.33840000  1.0
  O  O64  1  0.87617000  0.30331000  0.78287000  1.0
  O  O65  1  0.37617000  0.69669000  0.71712000  1.0
  O  O66  1  0.12384000  0.69669000  0.21712000  1.0
  O  O67  1  0.62383000  0.30329000  0.28287000  1.0
