# generated using pymatgen
data_CuH7C7IN2
_symmetry_space_group_name_H-M   'P 1'
_cell_length_a   7.73667000
_cell_length_b   7.94587000
_cell_length_c   8.10346000
_cell_angle_alpha   117.15200000
_cell_angle_beta   90.65950000
_cell_angle_gamma   109.37400000
_symmetry_Int_Tables_number   1
_chemical_formula_structural   CuH7C7IN2
_chemical_formula_sum   'Cu2 H14 C14 I2 N4'
_cell_volume   410.20961031
_cell_formula_units_Z   2
loop_
 _symmetry_equiv_pos_site_id
 _symmetry_equiv_pos_as_xyz
  1  'x, y, z'
loop_
 _atom_site_type_symbol
 _atom_site_label
 _atom_site_symmetry_multiplicity
 _atom_site_fract_x
 _atom_site_fract_y
 _atom_site_fract_z
 _atom_site_occupancy
  Cu  Cu0  1  0.83968000  0.60263000  0.62840000  1.0
  Cu  Cu1  1  0.16032000  0.39738000  0.37161000  1.0
  H  H2  1  0.90472000  0.15876000  0.74496000  1.0
  H  H3  1  0.09529000  0.84124000  0.25503000  1.0
  H  H4  1  0.08017000  0.18711000  0.97026000  1.0
  H  H5  1  0.91982000  0.81289000  0.02974000  1.0
  H  H6  1  0.16278000  0.98176000  0.89880000  1.0
  H  H7  1  0.83723000  0.01827000  0.10121000  1.0
  H  H8  1  0.79354000  0.07171000  0.39288000  1.0
  H  H9  1  0.20646000  0.92828000  0.60711000  1.0
  H  H10  1  0.52264000  0.85333000  0.11235000  1.0
  H  H11  1  0.47737000  0.14665000  0.88763000  1.0
  H  H12  1  0.51845000  0.68249000  0.62293000  1.0
  H  H13  1  0.48155000  0.31752000  0.37708000  1.0
  H  H14  1  0.26490000  0.56422000  0.10686000  1.0
  H  H15  1  0.73510000  0.43577000  0.89314000  1.0
  C  C16  1  0.83891000  0.99134000  0.68164000  1.0
  C  C17  1  0.16109000  0.00866000  0.31835000  1.0
  C  C18  1  0.68382000  0.88129000  0.52045000  1.0
  C  C19  1  0.31618000  0.11871000  0.47955000  1.0
  C  C20  1  0.03968000  0.02314000  0.92327000  1.0
  C  C21  1  0.96032000  0.97687000  0.07673000  1.0
  C  C22  1  0.68056000  0.93805000  0.38072000  1.0
  C  C23  1  0.31945000  0.06194000  0.61928000  1.0
  C  C24  1  0.53078000  0.81949000  0.22766000  1.0
  C  C25  1  0.46922000  0.18050000  0.77234000  1.0
  C  C26  1  0.52864000  0.71948000  0.50843000  1.0
  C  C27  1  0.47136000  0.28052000  0.49157000  1.0
  C  C28  1  0.38517000  0.65691000  0.22335000  1.0
  C  C29  1  0.61483000  0.34309000  0.77665000  1.0
  I  I30  1  0.14177000  0.54886000  0.74374000  1.0
  I  I31  1  0.85823000  0.45115000  0.25627000  1.0
  N  N32  1  0.89950000  0.89674000  0.74856000  1.0
  N  N33  1  0.10049000  0.10326000  0.25144000  1.0
  N  N34  1  0.38016000  0.61135000  0.36556000  1.0
  N  N35  1  0.61984000  0.38866000  0.63444000  1.0
