# generated using pymatgen
data_ZnH24C26(NO3)2
_symmetry_space_group_name_H-M   'P 1'
_cell_length_a   10.50490000
_cell_length_b   10.53390000
_cell_length_c   13.03086920
_cell_angle_alpha   93.90711593
_cell_angle_beta   113.40631809
_cell_angle_gamma   114.91700000
_symmetry_Int_Tables_number   1
_chemical_formula_structural   ZnH24C26(NO3)2
_chemical_formula_sum   'Zn2 H48 C52 N4 O12'
_cell_volume   1151.08532545
_cell_formula_units_Z   2
loop_
 _symmetry_equiv_pos_site_id
 _symmetry_equiv_pos_as_xyz
  1  'x, y, z'
loop_
 _atom_site_type_symbol
 _atom_site_label
 _atom_site_symmetry_multiplicity
 _atom_site_fract_x
 _atom_site_fract_y
 _atom_site_fract_z
 _atom_site_occupancy
  Zn  Zn0  1  0.75263000  0.50256000  0.25000000  1.0
  Zn  Zn1  1  0.24737000  0.49744000  0.75000000  1.0
  H  H2  1  0.68498000  0.86718000  0.91732000  1.0
  H  H3  1  0.54980000  0.23244000  0.41733000  1.0
  H  H4  1  0.31502000  0.13282000  0.08268000  1.0
  H  H5  1  0.45020000  0.76756000  0.58267000  1.0
  H  H6  1  0.60529000  0.62574000  0.06309000  1.0
  H  H7  1  0.93705000  0.45721000  0.56288000  1.0
  H  H8  1  0.39471000  0.37426000  0.93691000  1.0
  H  H9  1  0.06295000  0.54279000  0.43712000  1.0
  H  H10  1  0.59851000  0.71974000  0.79335000  1.0
  H  H11  1  0.57375000  0.19543000  0.29324000  1.0
  H  H12  1  0.40149000  0.28027000  0.20665000  1.0
  H  H13  1  0.42624000  0.80456000  0.70675000  1.0
  H  H14  1  0.25204000  0.07299000  0.31742000  1.0
  H  H15  1  0.74446000  0.06553000  0.81723000  1.0
  H  H16  1  0.74796000  0.92700000  0.68258000  1.0
  H  H17  1  0.25554000  0.93447000  0.18277000  1.0
  H  H18  1  0.32380000  0.31873000  0.42521000  1.0
  H  H19  1  0.60615000  0.10159000  0.92522000  1.0
  H  H20  1  0.67620000  0.68127000  0.57479000  1.0
  H  H21  1  0.39385000  0.89841000  0.07478000  1.0
  H  H22  1  0.14372000  0.04073000  0.50862000  1.0
  H  H23  1  0.96709000  0.36470000  0.00876000  1.0
  H  H24  1  0.85627000  0.95926000  0.49137000  1.0
  H  H25  1  0.03291000  0.63530000  0.99124000  1.0
  H  H26  1  0.89158000  0.82964000  0.34909000  1.0
  H  H27  1  0.01925000  0.45736000  0.84911000  1.0
  H  H28  1  0.10842000  0.17035000  0.65091000  1.0
  H  H29  1  0.98075000  0.54264000  0.15089000  1.0
  H  H30  1  0.11921000  0.39586000  0.37282000  1.0
  H  H31  1  0.47662000  0.25359000  0.87306000  1.0
  H  H32  1  0.88079000  0.60414000  0.62718000  1.0
  H  H33  1  0.52338000  0.74640000  0.12694000  1.0
  H  H34  1  0.77001000  0.98645000  0.11063000  1.0
  H  H35  1  0.62468000  0.34061000  0.61048000  1.0
  H  H36  1  0.22999000  0.01355000  0.88937000  1.0
  H  H37  1  0.37532000  0.65939000  0.38952000  1.0
  H  H38  1  0.36267000  0.99587000  0.63656000  1.0
  H  H39  1  0.13995000  0.27368000  0.13665000  1.0
  H  H40  1  0.63732000  0.00413000  0.36344000  1.0
  H  H41  1  0.86005000  0.72632000  0.86335000  1.0
  H  H42  1  0.97630000  0.90744000  0.15890000  1.0
  H  H43  1  0.75182000  0.18263000  0.65854000  1.0
  H  H44  1  0.02370000  0.09256000  0.84110000  1.0
  H  H45  1  0.24818000  0.81737000  0.34146000  1.0
  H  H46  1  0.43143000  0.76515000  0.88413000  1.0
  H  H47  1  0.61868000  0.45239000  0.38413000  1.0
  H  H48  1  0.56857000  0.23485000  0.11587000  1.0
  H  H49  1  0.38133000  0.54761000  0.61587000  1.0
  C  C50  1  0.81079000  0.24600000  0.20683000  1.0
  C  C51  1  0.46105000  0.39614000  0.70689000  1.0
  C  C52  1  0.18921000  0.75400000  0.79317000  1.0
  C  C53  1  0.53896000  0.60386000  0.29311000  1.0
  C  C54  1  0.93271000  0.19633000  0.23764000  1.0
  C  C55  1  0.54140000  0.30503000  0.73766000  1.0
  C  C56  1  0.06729000  0.80367000  0.76236000  1.0
  C  C57  1  0.45860000  0.69497000  0.26234000  1.0
  C  C58  1  0.08867000  0.28902000  0.32645000  1.0
  C  C59  1  0.53729000  0.23789000  0.82653000  1.0
  C  C60  1  0.91133000  0.71098000  0.67355000  1.0
  C  C61  1  0.46271000  0.76211000  0.17347000  1.0
  C  C62  1  0.20349000  0.24504000  0.35567000  1.0
  C  C63  1  0.61040000  0.15232000  0.85563000  1.0
  C  C64  1  0.79651000  0.75497000  0.64433000  1.0
  C  C65  1  0.38960000  0.84768000  0.14437000  1.0
  C  C66  1  0.16269000  0.10789000  0.29475000  1.0
  C  C67  1  0.68682000  0.13210000  0.79454000  1.0
  C  C68  1  0.83732000  0.89212000  0.70526000  1.0
  C  C69  1  0.31318000  0.86790000  0.20546000  1.0
  C  C70  1  0.00760000  0.01453000  0.20588000  1.0
  C  C71  1  0.69149000  0.19828000  0.70561000  1.0
  C  C72  1  0.99240000  0.98547000  0.79412000  1.0
  C  C73  1  0.30851000  0.80172000  0.29439000  1.0
  C  C74  1  0.89240000  0.05809000  0.17806000  1.0
  C  C75  1  0.62021000  0.28562000  0.67789000  1.0
  C  C76  1  0.10760000  0.94191000  0.82194000  1.0
  C  C77  1  0.37979000  0.71438000  0.32211000  1.0
  C  C78  1  0.08668000  0.65493000  0.45596000  1.0
  C  C79  1  0.30108000  0.36919000  0.95580000  1.0
  C  C80  1  0.91332000  0.34507000  0.54404000  1.0
  C  C81  1  0.69892000  0.63082000  0.04420000  1.0
  C  C82  1  0.23166000  0.76537000  0.54551000  1.0
  C  C83  1  0.27987000  0.31367000  0.04537000  1.0
  C  C84  1  0.76834000  0.23463000  0.45449000  1.0
  C  C85  1  0.72013000  0.68633000  0.95463000  1.0
  C  C86  1  0.25232000  0.90657000  0.56613000  1.0
  C  C87  1  0.15901000  0.31365000  0.06614000  1.0
  C  C88  1  0.74768000  0.09343000  0.43387000  1.0
  C  C89  1  0.84099000  0.68635000  0.93386000  1.0
  C  C90  1  0.13034000  0.93175000  0.49587000  1.0
  C  C91  1  0.06361000  0.36540000  0.99596000  1.0
  C  C92  1  0.86965000  0.06824000  0.50413000  1.0
  C  C93  1  0.93639000  0.63460000  0.00404000  1.0
  C  C94  1  0.99015000  0.81548000  0.40712000  1.0
  C  C95  1  0.09143000  0.41689000  0.90716000  1.0
  C  C96  1  0.00985000  0.18452000  0.59288000  1.0
  C  C97  1  0.90857000  0.58311000  0.09284000  1.0
  C  C98  1  0.36324000  0.73483000  0.61644000  1.0
  C  C99  1  0.38137000  0.25317000  0.11635000  1.0
  C  C100  1  0.63676000  0.26517000  0.38356000  1.0
  C  C101  1  0.61863000  0.74683000  0.88365000  1.0
  N  N102  1  0.96878000  0.67924000  0.38795000  1.0
  N  N103  1  0.20878000  0.41910000  0.88787000  1.0
  N  N104  1  0.03122000  0.32076000  0.61205000  1.0
  N  N105  1  0.79122000  0.58090000  0.11213000  1.0
  O  O106  1  0.66665000  0.15543000  0.13507000  1.0
  O  O107  1  0.48004000  0.46838000  0.63503000  1.0
  O  O108  1  0.33335000  0.84457000  0.86493000  1.0
  O  O109  1  0.51996000  0.53162000  0.36497000  1.0
  O  O110  1  0.86388000  0.37963000  0.25679000  1.0
  O  O111  1  0.37722000  0.39313000  0.75709000  1.0
  O  O112  1  0.13612000  0.62037000  0.74321000  1.0
  O  O113  1  0.62278000  0.60687000  0.24291000  1.0
  O  O114  1  0.30315000  0.58445000  0.61184000  1.0
  O  O115  1  0.52758000  0.30880000  0.11179000  1.0
  O  O116  1  0.69685000  0.41555000  0.38816000  1.0
  O  O117  1  0.47242000  0.69120000  0.88821000  1.0
