# generated using pymatgen
data_HgH3C6S2BrN4
_symmetry_space_group_name_H-M   'P 1'
_cell_length_a   5.93559000
_cell_length_b   7.33605000
_cell_length_c   13.51960000
_cell_angle_alpha   88.79270000
_cell_angle_beta   86.74420000
_cell_angle_gamma   66.22160000
_symmetry_Int_Tables_number   1
_chemical_formula_structural   HgH3C6S2BrN4
_chemical_formula_sum   'Hg2 H6 C12 S4 Br2 N8'
_cell_volume   537.85068285
_cell_formula_units_Z   2
loop_
 _symmetry_equiv_pos_site_id
 _symmetry_equiv_pos_as_xyz
  1  'x, y, z'
loop_
 _atom_site_type_symbol
 _atom_site_label
 _atom_site_symmetry_multiplicity
 _atom_site_fract_x
 _atom_site_fract_y
 _atom_site_fract_z
 _atom_site_occupancy
  Hg  Hg0  1  0.04105000  0.39522000  0.75426000  1.0
  Hg  Hg1  1  0.43445000  0.60236000  0.25275000  1.0
  H  H2  1  0.36335000  0.44987000  0.93862000  1.0
  H  H3  1  0.82061000  0.54587000  0.43365000  1.0
  H  H4  1  0.97151000  0.92464000  0.12864000  1.0
  H  H5  1  0.89279000  0.08195000  0.62910000  1.0
  H  H6  1  0.61515000  0.75331000  0.89858000  1.0
  H  H7  1  0.36657000  0.24722000  0.39898000  1.0
  C  C8  1  0.18977000  0.57065000  0.96256000  1.0
  C  C9  1  0.76503000  0.42727000  0.45921000  1.0
  C  C10  1  0.97267000  0.82891000  0.06771000  1.0
  C  C11  1  0.80103000  0.17440000  0.56695000  1.0
  C  C12  1  0.75657000  0.85709000  0.02174000  1.0
  C  C13  1  0.61278000  0.14523000  0.52158000  1.0
  C  C14  1  0.77349000  0.73676000  0.94077000  1.0
  C  C15  1  0.51050000  0.26325000  0.44007000  1.0
  C  C16  1  0.40467000  0.60093000  0.70793000  1.0
  C  C17  1  0.00397000  0.39812000  0.20648000  1.0
  C  C18  1  0.73068000  0.13957000  0.81777000  1.0
  C  C19  1  0.86907000  0.85912000  0.31711000  1.0
  S  S20  1  0.17188000  0.61068000  0.64356000  1.0
  S  S21  1  0.78164000  0.38906000  0.14131000  1.0
  S  S22  1  0.02925000  0.08481000  0.82149000  1.0
  S  S23  1  0.11476000  0.91131000  0.32262000  1.0
  Br  Br24  1  0.45303000  0.05244000  0.06971000  1.0
  Br  Br25  1  0.50222000  0.95197000  0.57096000  1.0
  N  N26  1  0.99239000  0.59471000  0.91129000  1.0
  N  N27  1  0.59014000  0.40283000  0.40898000  1.0
  N  N28  1  0.18903000  0.68301000  0.03918000  1.0
  N  N29  1  0.87445000  0.31789000  0.53668000  1.0
  N  N30  1  0.57071000  0.59968000  0.75236000  1.0
  N  N31  1  0.16862000  0.39877000  0.25124000  1.0
  N  N32  1  0.51957000  0.17222000  0.81650000  1.0
  N  N33  1  0.68899000  0.82885000  0.31466000  1.0
