# generated using pymatgen
data_AlH6C24(NO3)6
_symmetry_space_group_name_H-M   'P 1'
_cell_length_a   4.16303000
_cell_length_b   29.30700000
_cell_length_c   29.30793595
_cell_angle_alpha   120.00083070
_cell_angle_beta   90.00099997
_cell_angle_gamma   89.99930000
_symmetry_Int_Tables_number   1
_chemical_formula_structural   AlH6C24(NO3)6
_chemical_formula_sum   'Al2 H12 C48 N12 O36'
_cell_volume   3096.65722291
_cell_formula_units_Z   2
loop_
 _symmetry_equiv_pos_site_id
 _symmetry_equiv_pos_as_xyz
  1  'x, y, z'
loop_
 _atom_site_type_symbol
 _atom_site_label
 _atom_site_symmetry_multiplicity
 _atom_site_fract_x
 _atom_site_fract_y
 _atom_site_fract_z
 _atom_site_occupancy
  Al  Al0  1  0.99995000  1.00000000  0.50000000  1.0
  Al  Al1  1  0.00078000  0.33332000  0.16666000  1.0
  H  H2  1  0.49053000  0.57901000  0.36327000  1.0
  H  H3  1  0.50980000  0.57902000  0.21576000  1.0
  H  H4  1  0.50969000  0.75436000  0.45094000  1.0
  H  H5  1  0.49028000  0.75436000  0.30344000  1.0
  H  H6  1  0.49045000  0.13672000  0.21576000  1.0
  H  H7  1  0.50984000  0.28424000  0.36326000  1.0
  H  H8  1  0.50968000  0.04906000  0.30343000  1.0
  H  H9  1  0.49030000  0.19657000  0.45093000  1.0
  H  H10  1  0.49051000  0.28426000  0.92098000  1.0
  H  H11  1  0.50979000  0.13674000  0.92096000  1.0
  H  H12  1  0.50969000  0.19658000  0.74563000  1.0
  H  H13  1  0.49032000  0.04909000  0.74564000  1.0
  C  C14  1  0.49993000  0.04039000  0.58076000  1.0
  C  C15  1  0.49994000  0.91923000  0.45962000  1.0
  C  C16  1  0.49993000  0.04038000  0.45961000  1.0
  C  C17  1  0.50063000  0.41411000  0.20704000  1.0
  C  C18  1  0.50066000  0.29294000  0.20707000  1.0
  C  C19  1  0.50064000  0.29292000  0.08587000  1.0
  C  C20  1  0.50041000  0.47397000  0.23698000  1.0
  C  C21  1  0.50541000  0.50391000  0.29255000  1.0
  C  C22  1  0.49764000  0.55862000  0.32043000  1.0
  C  C23  1  0.50015000  0.58699000  0.29350000  1.0
  C  C24  1  0.50275000  0.55862000  0.23820000  1.0
  C  C25  1  0.49517000  0.50393000  0.21137000  1.0
  C  C26  1  0.50013000  0.64266000  0.32134000  1.0
  C  C27  1  0.50003000  0.69069000  0.34535000  1.0
  C  C28  1  0.50000000  0.74635000  0.37318000  1.0
  C  C29  1  0.50285000  0.77472000  0.42847000  1.0
  C  C30  1  0.49522000  0.82943000  0.45530000  1.0
  C  C31  1  0.49997000  0.85938000  0.42970000  1.0
  C  C32  1  0.50474000  0.82942000  0.37414000  1.0
  C  C33  1  0.49712000  0.77473000  0.34627000  1.0
  C  C34  1  0.50042000  0.26301000  0.23699000  1.0
  C  C35  1  0.50536000  0.20743000  0.21137000  1.0
  C  C36  1  0.49761000  0.17956000  0.23820000  1.0
  C  C37  1  0.50016000  0.20650000  0.29350000  1.0
  C  C38  1  0.50278000  0.26180000  0.32043000  1.0
  C  C39  1  0.49520000  0.28863000  0.29256000  1.0
  C  C40  1  0.50019000  0.17866000  0.32134000  1.0
  C  C41  1  0.50009000  0.15466000  0.34535000  1.0
  C  C42  1  0.50004000  0.12682000  0.37318000  1.0
  C  C43  1  0.50285000  0.07153000  0.34626000  1.0
  C  C44  1  0.49521000  0.04471000  0.37414000  1.0
  C  C45  1  0.49995000  0.07030000  0.42969000  1.0
  C  C46  1  0.50473000  0.12586000  0.45529000  1.0
  C  C47  1  0.49714000  0.15374000  0.42847000  1.0
  C  C48  1  0.50038000  0.26301000  0.02602000  1.0
  C  C49  1  0.50537000  0.28864000  0.99607000  1.0
  C  C50  1  0.49762000  0.26182000  0.94137000  1.0
  C  C51  1  0.50016000  0.20651000  0.91299000  1.0
  C  C52  1  0.50276000  0.17957000  0.94135000  1.0
  C  C53  1  0.49514000  0.20743000  0.99605000  1.0
  C  C54  1  0.50017000  0.17868000  0.85732000  1.0
  C  C55  1  0.50008000  0.15466000  0.80930000  1.0
  C  C56  1  0.50005000  0.12684000  0.75364000  1.0
  C  C57  1  0.50286000  0.15375000  0.72526000  1.0
  C  C58  1  0.49520000  0.12588000  0.67057000  1.0
  C  C59  1  0.49995000  0.07032000  0.64061000  1.0
  C  C60  1  0.50473000  0.04472000  0.67057000  1.0
  C  C61  1  0.49715000  0.07155000  0.72527000  1.0
  N  N62  1  0.51570000  0.48014000  0.32727000  1.0
  N  N63  1  0.48488000  0.48018000  0.15288000  1.0
  N  N64  1  0.48458000  0.85313000  0.51375000  1.0
  N  N65  1  0.51534000  0.85312000  0.33939000  1.0
  N  N66  1  0.51558000  0.17270000  0.15288000  1.0
  N  N67  1  0.48489000  0.34711000  0.32730000  1.0
  N  N68  1  0.48458000  0.98625000  0.33938000  1.0
  N  N69  1  0.51532000  0.16061000  0.51374000  1.0
  N  N70  1  0.51566000  0.34713000  0.01984000  1.0
  N  N71  1  0.48490000  0.17269000  0.01979000  1.0
  N  N72  1  0.48455000  0.16063000  0.64687000  1.0
  N  N73  1  0.51531000  0.98626000  0.64687000  1.0
  O  O74  1  0.26030000  0.01121000  0.45297000  1.0
  O  O75  1  0.26029000  0.04703000  0.55823000  1.0
  O  O76  1  0.26030000  0.94176000  0.48879000  1.0
  O  O77  1  0.73957000  0.04702000  0.48878000  1.0
  O  O78  1  0.73957000  0.94176000  0.45298000  1.0
  O  O79  1  0.73956000  0.01122000  0.55824000  1.0
  O  O80  1  0.26113000  0.28626000  0.10841000  1.0
  O  O81  1  0.26109000  0.39158000  0.17785000  1.0
  O  O82  1  0.26113000  0.32214000  0.21373000  1.0
  O  O83  1  0.74029000  0.32209000  0.10838000  1.0
  O  O84  1  0.74031000  0.28628000  0.17790000  1.0
  O  O85  1  0.74029000  0.39161000  0.21371000  1.0
  O  O86  1  0.72392000  0.44699000  0.31859000  1.0
  O  O87  1  0.32052000  0.49838000  0.36402000  1.0
  O  O88  1  0.27663000  0.44704000  0.12839000  1.0
  O  O89  1  0.68009000  0.49843000  0.13439000  1.0
  O  O90  1  0.27634000  0.88629000  0.53820000  1.0
  O  O91  1  0.67923000  0.83482000  0.53226000  1.0
  O  O92  1  0.72356000  0.88630000  0.34810000  1.0
  O  O93  1  0.32065000  0.83482000  0.30258000  1.0
  O  O94  1  0.72376000  0.18138000  0.12840000  1.0
  O  O95  1  0.32044000  0.13596000  0.13438000  1.0
  O  O96  1  0.27662000  0.37160000  0.31864000  1.0
  O  O97  1  0.68009000  0.36561000  0.36404000  1.0
  O  O98  1  0.27632000  0.96180000  0.34809000  1.0
  O  O99  1  0.67925000  0.96773000  0.30257000  1.0
  O  O100  1  0.72353000  0.15192000  0.53821000  1.0
  O  O101  1  0.32062000  0.19742000  0.53225000  1.0
  O  O102  1  0.72388000  0.37159000  0.05300000  1.0
  O  O103  1  0.32054000  0.36564000  0.00161000  1.0
  O  O104  1  0.27668000  0.18134000  0.05294000  1.0
  O  O105  1  0.68013000  0.13595000  0.00154000  1.0
  O  O106  1  0.27632000  0.15191000  0.61370000  1.0
  O  O107  1  0.67921000  0.19744000  0.66517000  1.0
  O  O108  1  0.72355000  0.96180000  0.61371000  1.0
  O  O109  1  0.32062000  0.96776000  0.66517000  1.0
