# generated using pymatgen
data_H8PbC10N3ClO2
_symmetry_space_group_name_H-M   'P 1'
_cell_length_a   8.13802000
_cell_length_b   9.67795000
_cell_length_c   14.48670000
_cell_angle_alpha   89.99970000
_cell_angle_beta   93.47730000
_cell_angle_gamma   89.99960000
_symmetry_Int_Tables_number   1
_chemical_formula_structural   H8PbC10N3ClO2
_chemical_formula_sum   'H32 Pb4 C40 N12 Cl4 O8'
_cell_volume   1138.86246587
_cell_formula_units_Z   4
loop_
 _symmetry_equiv_pos_site_id
 _symmetry_equiv_pos_as_xyz
  1  'x, y, z'
loop_
 _atom_site_type_symbol
 _atom_site_label
 _atom_site_symmetry_multiplicity
 _atom_site_fract_x
 _atom_site_fract_y
 _atom_site_fract_z
 _atom_site_occupancy
  H  H0  1  0.23717000  0.98863000  0.45833000  1.0
  H  H1  1  0.26283000  0.48863000  0.54167000  1.0
  H  H2  1  0.76283000  0.01137000  0.54167000  1.0
  H  H3  1  0.73717000  0.51137000  0.45833000  1.0
  H  H4  1  0.12029000  0.14109000  0.48089000  1.0
  H  H5  1  0.37971000  0.64109000  0.51911000  1.0
  H  H6  1  0.87971000  0.85890000  0.51911000  1.0
  H  H7  1  0.62029000  0.35891000  0.48089000  1.0
  H  H8  1  0.39389000  0.41231000  0.24578000  1.0
  H  H9  1  0.10611000  0.91231000  0.75422000  1.0
  H  H10  1  0.60611000  0.58769000  0.75422000  1.0
  H  H11  1  0.89389000  0.08769000  0.24578000  1.0
  H  H12  1  0.70001000  0.25500000  0.99110000  1.0
  H  H13  1  0.80000000  0.75500000  0.00890000  1.0
  H  H14  1  0.30000000  0.74500000  0.00890000  1.0
  H  H15  1  0.20000000  0.24500000  0.99110000  1.0
  H  H16  1  0.53560000  0.34034000  0.12002000  1.0
  H  H17  1  0.96441000  0.84034000  0.87998000  1.0
  H  H18  1  0.46441000  0.65966000  0.87998000  1.0
  H  H19  1  0.03559000  0.15966000  0.12002000  1.0
  H  H20  1  0.22630000  0.37138000  0.40301000  1.0
  H  H21  1  0.27369000  0.87138000  0.59698000  1.0
  H  H22  1  0.77369000  0.62862000  0.59699000  1.0
  H  H23  1  0.72631000  0.12862000  0.40301000  1.0
  H  H24  1  0.66295000  0.84484000  0.10457000  1.0
  H  H25  1  0.83705000  0.34484000  0.89542000  1.0
  H  H26  1  0.33705000  0.15516000  0.89543000  1.0
  H  H27  1  0.16295000  0.65515000  0.10458000  1.0
  H  H28  1  0.77721000  0.00559000  0.98579000  1.0
  H  H29  1  0.72279000  0.50559000  0.01421000  1.0
  H  H30  1  0.22279000  0.99441000  0.01421000  1.0
  H  H31  1  0.27721000  0.49441000  0.98579000  1.0
  Pb  Pb32  1  0.41143000  0.82648000  0.28094000  1.0
  Pb  Pb33  1  0.08857000  0.32648000  0.71905000  1.0
  Pb  Pb34  1  0.58856000  0.17352000  0.71905000  1.0
  Pb  Pb35  1  0.91143000  0.67353000  0.28095000  1.0
  C  C36  1  0.42123000  0.18123000  0.25691000  1.0
  C  C37  1  0.07877000  0.68123000  0.74309000  1.0
  C  C38  1  0.57877000  0.81877000  0.74309000  1.0
  C  C39  1  0.92123000  0.31877000  0.25691000  1.0
  C  C40  1  0.51182000  0.13624000  0.17864000  1.0
  C  C41  1  0.98818000  0.63624000  0.82136000  1.0
  C  C42  1  0.48818000  0.86376000  0.82136000  1.0
  C  C43  1  0.01182000  0.36376000  0.17864000  1.0
  C  C44  1  0.24233000  0.10117000  0.46688000  1.0
  C  C45  1  0.25767000  0.60117000  0.53312000  1.0
  C  C46  1  0.75767000  0.89883000  0.53312000  1.0
  C  C47  1  0.74233000  0.39883000  0.46688000  1.0
  C  C48  1  0.37214000  0.31589000  0.28115000  1.0
  C  C49  1  0.12787000  0.81589000  0.71884000  1.0
  C  C50  1  0.62786000  0.68411000  0.71885000  1.0
  C  C51  1  0.87213000  0.18411000  0.28116000  1.0
  C  C52  1  0.65957000  0.18381000  0.04324000  1.0
  C  C53  1  0.84043000  0.68381000  0.95676000  1.0
  C  C54  1  0.34043000  0.81619000  0.95676000  1.0
  C  C55  1  0.15957000  0.31619000  0.04324000  1.0
  C  C56  1  0.56533000  0.23107000  0.11367000  1.0
  C  C57  1  0.93468000  0.73106000  0.88633000  1.0
  C  C58  1  0.43468000  0.76894000  0.88633000  1.0
  C  C59  1  0.06532000  0.26894000  0.11367000  1.0
  C  C60  1  0.29027000  0.29869000  0.36121000  1.0
  C  C61  1  0.20972000  0.79869000  0.63879000  1.0
  C  C62  1  0.70972000  0.70131000  0.63879000  1.0
  C  C63  1  0.79027000  0.20131000  0.36121000  1.0
  C  C64  1  0.64010000  0.95594000  0.10502000  1.0
  C  C65  1  0.85990000  0.45594000  0.89498000  1.0
  C  C66  1  0.35990000  0.04406000  0.89498000  1.0
  C  C67  1  0.14010000  0.54406000  0.10502000  1.0
  C  C68  1  0.70141000  0.04428000  0.03960000  1.0
  C  C69  1  0.79860000  0.54428000  0.96040000  1.0
  C  C70  1  0.29860000  0.95572000  0.96040000  1.0
  C  C71  1  0.20140000  0.45572000  0.03960000  1.0
  C  C72  1  0.36343000  0.13480000  0.54956000  1.0
  C  C73  1  0.13657000  0.63480000  0.45044000  1.0
  C  C74  1  0.63658000  0.86521000  0.45044000  1.0
  C  C75  1  0.86342000  0.36520000  0.54956000  1.0
  N  N76  1  0.29335000  0.16159000  0.38190000  1.0
  N  N77  1  0.20665000  0.66159000  0.61810000  1.0
  N  N78  1  0.70665000  0.83841000  0.61810000  1.0
  N  N79  1  0.79335000  0.33841000  0.38190000  1.0
  N  N80  1  0.37427000  0.08849000  0.31993000  1.0
  N  N81  1  0.12574000  0.58849000  0.68007000  1.0
  N  N82  1  0.62573000  0.91151000  0.68007000  1.0
  N  N83  1  0.87426000  0.41151000  0.31993000  1.0
  N  N84  1  0.54604000  0.99974000  0.17207000  1.0
  N  N85  1  0.95396000  0.49974000  0.82793000  1.0
  N  N86  1  0.45396000  0.00026000  0.82793000  1.0
  N  N87  1  0.04604000  0.50026000  0.17207000  1.0
  Cl  Cl88  1  0.58462000  0.61740000  0.17674000  1.0
  Cl  Cl89  1  0.91538000  0.11740000  0.82326000  1.0
  Cl  Cl90  1  0.41539000  0.38261000  0.82326000  1.0
  Cl  Cl91  1  0.08461000  0.88261000  0.17674000  1.0
  O  O92  1  0.50970000  0.16772000  0.53478000  1.0
  O  O93  1  0.99030000  0.66773000  0.46522000  1.0
  O  O94  1  0.49031000  0.83228000  0.46522000  1.0
  O  O95  1  0.00969000  0.33227000  0.53478000  1.0
  O  O96  1  0.30664000  0.12524000  0.62973000  1.0
  O  O97  1  0.19336000  0.62524000  0.37027000  1.0
  O  O98  1  0.69336000  0.87475000  0.37026000  1.0
  O  O99  1  0.80664000  0.37475000  0.62973000  1.0
