# generated using pymatgen
data_Ni2H26C36N4O11
_symmetry_space_group_name_H-M   'P 1'
_cell_length_a   8.06385000
_cell_length_b   11.23250000
_cell_length_c   12.95310695
_cell_angle_alpha   75.76351648
_cell_angle_beta   71.86560706
_cell_angle_gamma   89.97000000
_symmetry_Int_Tables_number   1
_chemical_formula_structural   Ni2H26C36N4O11
_chemical_formula_sum   'Ni2 H26 C36 N4 O11'
_cell_volume   1077.05056359
_cell_formula_units_Z   1
loop_
 _symmetry_equiv_pos_site_id
 _symmetry_equiv_pos_as_xyz
  1  'x, y, z'
loop_
 _atom_site_type_symbol
 _atom_site_label
 _atom_site_symmetry_multiplicity
 _atom_site_fract_x
 _atom_site_fract_y
 _atom_site_fract_z
 _atom_site_occupancy
  Ni  Ni0  1  0.87776000  0.43711000  0.62591000  1.0
  Ni  Ni1  1  0.50368000  0.56287000  0.37409000  1.0
  H  H2  1  0.34987000  0.70576000  0.63514000  1.0
  H  H3  1  0.26445000  0.80001000  0.79827000  1.0
  H  H4  1  0.33872000  0.69837000  0.97305000  1.0
  H  H5  1  0.88847000  0.57979000  0.78628000  1.0
  H  H6  1  0.87757000  0.79645000  0.80059000  1.0
  H  H7  1  0.86928000  0.90155000  0.45761000  1.0
  H  H8  1  0.88254000  0.68081000  0.45783000  1.0
  H  H9  1  0.71746000  0.27209000  0.52719000  1.0
  H  H10  1  0.70860000  0.05107000  0.52305000  1.0
  H  H11  1  0.01806000  0.98766000  0.74781000  1.0
  H  H12  1  0.00651000  0.20952000  0.74536000  1.0
  H  H13  1  0.22017000  0.47855000  0.61638000  1.0
  H  H14  1  0.08727000  0.42409000  0.74034000  1.0
  H  H15  1  0.98553000  0.29434000  0.36488000  1.0
  H  H16  1  0.06315000  0.20018000  0.20167000  1.0
  H  H17  1  0.31190000  0.30190000  0.02685000  1.0
  H  H18  1  0.67454000  0.42008000  0.21384000  1.0
  H  H19  1  0.67806000  0.20345000  0.19947000  1.0
  H  H20  1  0.32724000  0.09830000  0.54252000  1.0
  H  H21  1  0.34051000  0.31903000  0.54234000  1.0
  H  H22  1  0.24486000  0.72799000  0.47266000  1.0
  H  H23  1  0.23185000  0.94898000  0.47696000  1.0
  H  H24  1  0.76589000  0.01224000  0.25216000  1.0
  H  H25  1  0.75206000  0.79039000  0.25454000  1.0
  H  H26  1  0.83672000  0.52133000  0.38362000  1.0
  H  H27  1  0.82766000  0.57576000  0.25965000  1.0
  C  C28  1  0.45993000  0.55267000  0.90396000  1.0
  C  C29  1  0.51081000  0.49818000  0.81360000  1.0
  C  C30  1  0.46908000  0.55591000  0.71602000  1.0
  C  C31  1  0.37900000  0.66330000  0.71196000  1.0
  C  C32  1  0.33142000  0.71536000  0.80295000  1.0
  C  C33  1  0.37163000  0.65979000  0.90012000  1.0
  C  C34  1  0.59886000  0.37791000  0.82848000  1.0
  C  C35  1  0.51989000  0.50832000  0.61361000  1.0
  C  C36  1  0.88917000  0.65500000  0.71454000  1.0
  C  C37  1  0.88221000  0.77628000  0.72172000  1.0
  C  C38  1  0.87348000  0.86949000  0.62944000  1.0
  C  C39  1  0.87317000  0.83372000  0.53295000  1.0
  C  C40  1  0.88170000  0.71044000  0.53202000  1.0
  C  C41  1  0.78374000  0.20534000  0.57357000  1.0
  C  C42  1  0.78065000  0.08230000  0.57136000  1.0
  C  C43  1  0.86714000  0.99965000  0.63304000  1.0
  C  C44  1  0.94863000  0.04658000  0.69765000  1.0
  C  C45  1  0.94424000  0.17065000  0.69624000  1.0
  C  C46  1  0.36398000  0.44750000  0.09598000  1.0
  C  C47  1  0.32448000  0.50199000  0.18633000  1.0
  C  C48  1  0.18527000  0.44425000  0.28391000  1.0
  C  C49  1  0.09130000  0.33683000  0.28802000  1.0
  C  C50  1  0.13467000  0.28481000  0.19701000  1.0
  C  C51  1  0.27189000  0.34042000  0.09980000  1.0
  C  C52  1  0.42738000  0.62219000  0.17146000  1.0
  C  C53  1  0.13357000  0.49178000  0.38635000  1.0
  C  C54  1  0.60364000  0.34488000  0.28560000  1.0
  C  C55  1  0.60398000  0.22360000  0.27839000  1.0
  C  C56  1  0.50304000  0.13039000  0.37064000  1.0
  C  C57  1  0.40627000  0.16613000  0.46715000  1.0
  C  C58  1  0.41380000  0.28941000  0.46812000  1.0
  C  C59  1  0.35750000  0.79467000  0.42635000  1.0
  C  C60  1  0.35221000  0.91769000  0.42864000  1.0
  C  C61  1  0.50031000  0.00029000  0.36699000  1.0
  C  C62  1  0.64641000  0.95333000  0.30235000  1.0
  C  C63  1  0.64064000  0.82926000  0.30369000  1.0
  N  N64  1  0.88925000  0.62168000  0.62141000  1.0
  N  N65  1  0.86653000  0.24983000  0.63341000  1.0
  N  N66  1  0.51060000  0.37820000  0.37874000  1.0
  N  N67  1  0.50012000  0.75015000  0.36648000  1.0
  O  O68  1  0.76884000  0.38809000  0.79667000  1.0
  O  O69  1  0.50305000  0.28049000  0.87268000  1.0
  O  O70  1  0.64941000  0.44480000  0.59030000  1.0
  O  O71  1  0.42505000  0.53641000  0.54867000  1.0
  O  O72  1  0.11452000  0.41962000  0.66275000  1.0
  O  O73  1  0.56546000  0.61182000  0.20337000  1.0
  O  O74  1  0.37590000  0.71972000  0.12724000  1.0
  O  O75  1  0.23964000  0.55527000  0.40974000  1.0
  O  O76  1  0.97383000  0.46362000  0.45129000  1.0
  O  O77  1  0.77729000  0.58022000  0.33725000  1.0
  O  O78  1  0.50558000  0.50010000  0.99998000  1.0
