# generated using pymatgen
data_ZnH9C18NO6
_symmetry_space_group_name_H-M   'P 1'
_cell_length_a   11.80600000
_cell_length_b   13.15660000
_cell_length_c   13.15900000
_cell_angle_alpha   88.52140000
_cell_angle_beta   85.90000000
_cell_angle_gamma   85.17110000
_symmetry_Int_Tables_number   1
_chemical_formula_structural   ZnH9C18NO6
_chemical_formula_sum   'Zn2 H18 C36 N2 O12'
_cell_volume   2031.07581468
_cell_formula_units_Z   2
loop_
 _symmetry_equiv_pos_site_id
 _symmetry_equiv_pos_as_xyz
  1  'x, y, z'
loop_
 _atom_site_type_symbol
 _atom_site_label
 _atom_site_symmetry_multiplicity
 _atom_site_fract_x
 _atom_site_fract_y
 _atom_site_fract_z
 _atom_site_occupancy
  Zn  Zn0  1  0.38112000  0.49879000  0.49640000  1.0
  Zn  Zn1  1  0.61889000  0.50121000  0.50361000  1.0
  H  H2  1  0.17109000  0.59372000  0.58852000  1.0
  H  H3  1  0.72542000  0.48348000  0.17298000  1.0
  H  H4  1  0.71327000  0.16967000  0.55182000  1.0
  H  H5  1  0.28674000  0.83032000  0.44817000  1.0
  H  H6  1  0.96144000  0.65270000  0.64514000  1.0
  H  H7  1  0.03857000  0.34730000  0.35486000  1.0
  H  H8  1  0.24519000  0.36834000  0.37392000  1.0
  H  H9  1  0.75481000  0.63166000  0.62609000  1.0
  H  H10  1  0.82891000  0.40628000  0.41148000  1.0
  H  H11  1  0.63944000  0.48454000  0.82014000  1.0
  H  H12  1  0.36056000  0.51549000  0.17987000  1.0
  H  H13  1  0.37067000  0.18190000  0.46108000  1.0
  H  H14  1  0.62933000  0.81811000  0.53891000  1.0
  H  H15  1  0.83970000  0.46994000  0.03515000  1.0
  H  H16  1  0.16030000  0.53011000  0.96485000  1.0
  H  H17  1  0.18292000  0.96958000  0.41128000  1.0
  H  H18  1  0.81708000  0.03041000  0.58871000  1.0
  H  H19  1  0.27458000  0.51656000  0.82703000  1.0
  C  C20  1  0.53470000  0.30088000  0.50198000  1.0
  C  C21  1  0.01842000  0.53566000  0.53397000  1.0
  C  C22  1  0.98158000  0.46434000  0.46603000  1.0
  C  C23  1  0.82240000  0.58626000  0.58316000  1.0
  C  C24  1  0.17760000  0.41374000  0.41685000  1.0
  C  C25  1  0.93582000  0.59723000  0.59301000  1.0
  C  C26  1  0.06419000  0.40277000  0.40699000  1.0
  C  C27  1  0.46531000  0.69912000  0.49802000  1.0
  C  C28  1  0.86284000  0.45919000  0.46183000  1.0
  C  C29  1  0.13717000  0.54082000  0.53817000  1.0
  C  C30  1  0.45837000  0.50060000  0.81295000  1.0
  C  C31  1  0.54162000  0.49942000  0.18706000  1.0
  C  C32  1  0.54105000  0.18640000  0.50544000  1.0
  C  C33  1  0.45896000  0.81360000  0.49455000  1.0
  C  C34  1  0.46658000  0.49874000  0.69857000  1.0
  C  C35  1  0.65642000  0.48707000  0.02570000  1.0
  C  C36  1  0.34357000  0.51296000  0.97431000  1.0
  C  C37  1  0.35370000  0.97666000  0.45963000  1.0
  C  C38  1  0.64631000  0.02334000  0.54035000  1.0
  C  C39  1  0.53342000  0.50128000  0.30144000  1.0
  C  C40  1  0.64821000  0.48925000  0.13143000  1.0
  C  C41  1  0.35179000  0.51079000  0.86857000  1.0
  C  C42  1  0.35953000  0.87083000  0.46636000  1.0
  C  C43  1  0.64048000  0.12917000  0.53363000  1.0
  C  C44  1  0.44239000  0.50743000  0.13618000  1.0
  C  C45  1  0.55760000  0.49260000  0.86383000  1.0
  C  C46  1  0.55265000  0.86290000  0.51795000  1.0
  C  C47  1  0.44735000  0.13710000  0.48204000  1.0
  C  C48  1  0.44565000  0.50519000  0.02859000  1.0
  C  C49  1  0.55435000  0.49484000  0.97141000  1.0
  C  C50  1  0.55039000  0.97060000  0.51511000  1.0
  C  C51  1  0.44961000  0.02941000  0.48487000  1.0
  C  C52  1  0.77390000  0.47764000  0.97758000  1.0
  C  C53  1  0.22610000  0.52240000  0.02242000  1.0
  C  C54  1  0.24574000  0.02614000  0.42482000  1.0
  C  C55  1  0.75426000  0.97385000  0.57517000  1.0
  N  N56  1  0.21247000  0.48233000  0.48185000  1.0
  N  N57  1  0.78753000  0.51767000  0.51816000  1.0
  O  O58  1  0.43560000  0.34632000  0.49819000  1.0
  O  O59  1  0.37222000  0.65713000  0.49655000  1.0
  O  O60  1  0.37396000  0.50120000  0.65416000  1.0
  O  O61  1  0.62603000  0.49883000  0.34584000  1.0
  O  O62  1  0.62779000  0.34287000  0.50343000  1.0
  O  O63  1  0.80387000  0.47804000  0.88628000  1.0
  O  O64  1  0.19611000  0.52197000  0.11373000  1.0
  O  O65  1  0.22053000  0.11756000  0.40980000  1.0
  O  O66  1  0.56441000  0.65368000  0.50184000  1.0
  O  O67  1  0.77947000  0.88244000  0.59019000  1.0
  O  O68  1  0.56661000  0.49498000  0.65536000  1.0
  O  O69  1  0.43339000  0.50501000  0.34464000  1.0
