# generated using pymatgen
data_CdH42C36N5O9
_symmetry_space_group_name_H-M   'P 1'
_cell_length_a   12.11520000
_cell_length_b   14.22160000
_cell_length_c   14.57190000
_cell_angle_alpha   110.26800000
_cell_angle_beta   105.91100000
_cell_angle_gamma   106.31300000
_symmetry_Int_Tables_number   1
_chemical_formula_structural   CdH42C36N5O9
_chemical_formula_sum   'Cd2 H84 C72 N10 O18'
_cell_volume   2059.07996995
_cell_formula_units_Z   2
loop_
 _symmetry_equiv_pos_site_id
 _symmetry_equiv_pos_as_xyz
  1  'x, y, z'
loop_
 _atom_site_type_symbol
 _atom_site_label
 _atom_site_symmetry_multiplicity
 _atom_site_fract_x
 _atom_site_fract_y
 _atom_site_fract_z
 _atom_site_occupancy
  Cd  Cd0  1  0.65252000  0.31779000  0.62670000  1.0
  Cd  Cd1  1  0.56735000  0.08164000  0.04971000  1.0
  H  H2  1  0.56310000  0.20978000  0.75775000  1.0
  H  H3  1  0.39948000  0.17273000  0.82705000  1.0
  H  H4  1  0.21655000  0.31777000  0.65247000  1.0
  H  H5  1  0.38864000  0.34841000  0.59027000  1.0
  H  H6  1  0.20413000  0.07128000  0.78048000  1.0
  H  H7  1  0.01512000  0.33415000  0.89356000  1.0
  H  H8  1  0.19046000  0.97736000  0.86041000  1.0
  H  H9  1  0.11325000  0.93384000  0.98577000  1.0
  H  H10  1  0.96437000  0.83727000  0.88029000  1.0
  H  H11  1  0.21591000  0.81516000  0.90070000  1.0
  H  H12  1  0.06446000  0.71795000  0.79877000  1.0
  H  H13  1  0.09871000  0.74302000  0.93335000  1.0
  H  H14  1  0.03153000  0.90815000  0.66958000  1.0
  H  H15  1  0.92372000  0.81106000  0.68945000  1.0
  H  H16  1  0.06887000  0.80357000  0.69024000  1.0
  H  H17  1  0.04221000  0.43833000  0.83555000  1.0
  H  H18  1  0.31797000  0.60209000  0.93659000  1.0
  H  H19  1  0.19467000  0.63470000  0.95985000  1.0
  H  H20  1  0.28662000  0.47617000  0.02488000  1.0
  H  H21  1  0.16477000  0.51310000  0.04925000  1.0
  H  H22  1  0.32267000  0.61377000  0.11282000  1.0
  H  H23  1  0.05922000  0.43816000  0.66734000  1.0
  H  H24  1  0.21299000  0.54789000  0.74658000  1.0
  H  H25  1  0.07858000  0.56875000  0.75894000  1.0
  H  H26  1  0.82232000  0.23838000  0.85390000  1.0
  H  H27  1  0.65880000  0.19854000  0.92262000  1.0
  H  H28  1  0.82812000  0.04859000  0.07814000  1.0
  H  H29  1  0.99989000  0.08152000  0.01614000  1.0
  H  H30  1  0.85741000  0.21188000  0.65045000  1.0
  H  H31  1  0.99317000  0.15796000  0.56175000  1.0
  H  H32  1  0.90064000  0.33135000  0.38036000  1.0
  H  H33  1  0.77157000  0.37683000  0.47435000  1.0
  H  H34  1  0.14891000  0.02650000  0.29591000  1.0
  H  H35  1  0.07429000  0.36253000  0.38795000  1.0
  H  H36  1  0.05273000  0.91645000  0.32828000  1.0
  H  H37  1  0.18350000  0.04122000  0.57383000  1.0
  H  H38  1  0.24989000  0.07412000  0.48943000  1.0
  H  H39  1  0.19081000  0.85548000  0.50442000  1.0
  H  H40  1  0.34121000  0.96194000  0.55360000  1.0
  H  H41  1  0.25025000  0.88398000  0.41312000  1.0
  H  H42  1  0.86320000  0.84265000  0.35669000  1.0
  H  H43  1  0.95001000  0.91821000  0.49873000  1.0
  H  H44  1  0.98107000  0.80864000  0.42205000  1.0
  H  H45  1  0.17768000  0.47326000  0.36800000  1.0
  H  H46  1  0.28990000  0.49224000  0.20858000  1.0
  H  H47  1  0.37296000  0.54339000  0.34809000  1.0
  H  H48  1  0.18224000  0.62152000  0.24478000  1.0
  H  H49  1  0.34845000  0.69579000  0.31321000  1.0
  H  H50  1  0.25824000  0.66684000  0.38512000  1.0
  H  H51  1  0.05213000  0.37019000  0.12134000  1.0
  H  H52  1  0.01840000  0.46693000  0.21231000  1.0
  H  H53  1  0.97682000  0.33174000  0.20002000  1.0
  H  H54  1  0.22338000  0.23240000  0.12109000  1.0
  H  H55  1  0.35582000  0.18007000  0.02753000  1.0
  H  H56  1  0.44539000  0.00922000  0.19564000  1.0
  H  H57  1  0.32039000  0.05380000  0.29506000  1.0
  H  H58  1  0.73551000  0.57450000  0.69350000  1.0
  H  H59  1  0.73626000  0.70035000  0.60979000  1.0
  H  H60  1  0.48969000  0.41360000  0.30506000  1.0
  H  H61  1  0.49624000  0.29935000  0.40088000  1.0
  H  H62  1  0.59997000  0.87800000  0.41049000  1.0
  H  H63  1  0.63950000  0.52370000  0.26556000  1.0
  H  H64  1  0.55667000  0.90579000  0.53695000  1.0
  H  H65  1  0.57550000  0.97092000  0.72076000  1.0
  H  H66  1  0.46547000  0.83283000  0.63796000  1.0
  H  H67  1  0.73528000  0.90698000  0.80272000  1.0
  H  H68  1  0.62409000  0.76780000  0.71645000  1.0
  H  H69  1  0.59231000  0.85584000  0.81629000  1.0
  H  H70  1  0.78690000  0.95855000  0.57255000  1.0
  H  H71  1  0.81558000  0.94874000  0.69466000  1.0
  H  H72  1  0.76374000  0.04943000  0.67712000  1.0
  H  H73  1  0.60496000  0.47081000  0.10227000  1.0
  H  H74  1  0.73926000  0.57765000  0.99080000  1.0
  H  H75  1  0.65876000  0.43633000  0.95030000  1.0
  H  H76  1  0.45225000  0.46385000  0.92459000  1.0
  H  H77  1  0.52248000  0.49081000  0.83925000  1.0
  H  H78  1  0.53969000  0.60169000  0.95393000  1.0
  H  H79  1  0.87938000  0.62649000  0.17037000  1.0
  H  H80  1  0.82289000  0.48262000  0.13084000  1.0
  H  H81  1  0.82405000  0.57219000  0.25144000  1.0
  H  H82  1  0.49625000  0.70030000  0.06943000  1.0
  H  H83  1  0.48762000  0.82430000  0.98378000  1.0
  H  H84  1  0.73545000  0.10161000  0.27232000  1.0
  H  H85  1  0.75251000  0.98924000  0.36935000  1.0
  C  C86  1  0.48481000  0.23304000  0.73704000  1.0
  C  C87  1  0.39262000  0.21281000  0.77547000  1.0
  C  C88  1  0.29299000  0.24402000  0.74772000  1.0
  C  C89  1  0.29141000  0.29276000  0.67842000  1.0
  C  C90  1  0.38758000  0.31017000  0.64353000  1.0
  C  C91  1  0.19668000  0.22326000  0.79066000  1.0
  C  C92  1  0.16253000  0.12880000  0.80602000  1.0
  C  C93  1  0.07611000  0.10664000  0.85069000  1.0
  C  C94  1  0.02136000  0.18158000  0.88230000  1.0
  C  C95  1  0.05551000  0.27601000  0.86676000  1.0
  C  C96  1  0.14151000  0.29798000  0.82151000  1.0
  C  C97  1  0.08817000  0.93332000  0.83445000  1.0
  C  C98  1  0.06635000  0.87256000  0.90043000  1.0
  C  C99  1  0.11452000  0.78248000  0.88253000  1.0
  C  C100  1  0.02414000  0.85966000  0.71376000  1.0
  C  C101  1  0.13470000  0.47382000  0.83465000  1.0
  C  C102  1  0.22892000  0.56932000  0.94431000  1.0
  C  C103  1  0.25180000  0.54111000  0.03768000  1.0
  C  C104  1  0.12054000  0.50897000  0.74631000  1.0
  C  C105  1  0.92611000  0.16113000  0.92652000  1.0
  C  C106  1  0.82828000  0.19536000  0.90282000  1.0
  C  C107  1  0.73613000  0.17371000  0.94113000  1.0
  C  C108  1  0.83024000  0.09012000  0.02772000  1.0
  C  C109  1  0.92625000  0.10864000  0.99268000  1.0
  C  C110  1  0.87035000  0.23687000  0.59001000  1.0
  C  C111  1  0.94664000  0.20707000  0.54016000  1.0
  C  C112  1  0.96279000  0.24112000  0.46283000  1.0
  C  C113  1  0.89906000  0.30528000  0.44192000  1.0
  C  C114  1  0.82362000  0.33021000  0.49405000  1.0
  C  C115  1  0.04069000  0.21491000  0.40417000  1.0
  C  C116  1  0.06483000  0.11912000  0.37970000  1.0
  C  C117  1  0.13358000  0.10141000  0.31760000  1.0
  C  C118  1  0.18240000  0.17423000  0.27906000  1.0
  C  C119  1  0.16036000  0.27124000  0.30547000  1.0
  C  C120  1  0.09031000  0.28806000  0.36639000  1.0
  C  C121  1  0.05490000  0.95779000  0.40877000  1.0
  C  C122  1  0.18794000  0.00538000  0.49555000  1.0
  C  C123  1  0.24482000  0.92149000  0.49070000  1.0
  C  C124  1  0.95623000  0.87716000  0.42223000  1.0
  C  C125  1  0.17816000  0.43870000  0.28774000  1.0
  C  C126  1  0.28362000  0.52610000  0.28635000  1.0
  C  C127  1  0.26653000  0.63308000  0.30825000  1.0
  C  C128  1  0.04868000  0.39940000  0.20043000  1.0
  C  C129  1  0.25682000  0.14685000  0.21704000  1.0
  C  C130  1  0.26987000  0.18207000  0.13972000  1.0
  C  C131  1  0.34400000  0.15299000  0.08701000  1.0
  C  C132  1  0.39291000  0.05660000  0.17883000  1.0
  C  C133  1  0.31992000  0.08101000  0.23398000  1.0
  C  C134  1  0.68143000  0.54245000  0.60773000  1.0
  C  C135  1  0.68226000  0.61199000  0.56052000  1.0
  C  C136  1  0.61529000  0.56811000  0.44911000  1.0
  C  C137  1  0.54614000  0.45306000  0.39125000  1.0
  C  C138  1  0.54842000  0.38879000  0.44432000  1.0
  C  C139  1  0.61891000  0.63797000  0.39427000  1.0
  C  C140  1  0.61269000  0.74111000  0.43879000  1.0
  C  C141  1  0.61314000  0.80212000  0.38151000  1.0
  C  C142  1  0.62324000  0.76518000  0.28305000  1.0
  C  C143  1  0.63434000  0.66403000  0.24026000  1.0
  C  C144  1  0.62878000  0.60074000  0.29529000  1.0
  C  C145  1  0.61633000  0.88543000  0.59202000  1.0
  C  C146  1  0.56713000  0.88665000  0.67810000  1.0
  C  C147  1  0.63407000  0.85260000  0.75788000  1.0
  C  C148  1  0.75405000  0.96471000  0.63670000  1.0
  C  C149  1  0.67666000  0.53991000  0.10368000  1.0
  C  C150  1  0.65728000  0.51739000  0.98891000  1.0
  C  C151  1  0.53598000  0.51821000  0.92329000  1.0
  C  C152  1  0.80890000  0.55716000  0.16907000  1.0
  C  C153  1  0.62332000  0.83411000  0.22750000  1.0
  C  C154  1  0.55090000  0.78879000  0.11689000  1.0
  C  C155  1  0.54621000  0.85727000  0.06890000  1.0
  C  C156  1  0.68396000  0.01220000  0.23010000  1.0
  C  C157  1  0.69198000  0.94907000  0.28396000  1.0
  N  N158  1  0.48432000  0.28253000  0.67326000  1.0
  N  N159  1  0.73494000  0.12024000  0.00137000  1.0
  N  N160  1  0.80849000  0.29683000  0.56735000  1.0
  N  N161  1  0.40622000  0.09212000  0.10644000  1.0
  N  N162  1  0.61593000  0.43199000  0.55102000  1.0
  N  N163  1  0.61130000  0.96787000  0.12426000  1.0
  N  N164  1  0.83797000  0.45289000  0.85044000  1.0
  N  N165  1  0.53075000  0.08196000  0.47532000  1.0
  N  N166  1  0.68759000  0.31492000  0.21105000  1.0
  N  N167  1  0.38611000  0.95393000  0.82715000  1.0
  O  O168  1  0.03694000  0.01464000  0.86411000  1.0
  O  O169  1  0.18153000  0.38895000  0.80682000  1.0
  O  O170  1  0.01435000  0.04651000  0.41403000  1.0
  O  O171  1  0.21318000  0.34592000  0.27395000  1.0
  O  O172  1  0.59914000  0.77199000  0.53316000  1.0
  O  O173  1  0.65539000  0.63856000  0.14933000  1.0
  O  O174  1  0.79599000  0.50618000  0.80680000  1.0
  O  O175  1  0.79149000  0.34629000  0.79356000  1.0
  O  O176  1  0.92090000  0.49824000  0.94340000  1.0
  O  O177  1  0.51359000  0.15826000  0.45298000  1.0
  O  O178  1  0.59772000  0.10880000  0.57238000  1.0
  O  O179  1  0.48268000  0.98490000  0.40283000  1.0
  O  O180  1  0.70715000  0.23424000  0.22274000  1.0
  O  O181  1  0.61544000  0.29564000  0.11852000  1.0
  O  O182  1  0.73887000  0.40838000  0.28989000  1.0
  O  O183  1  0.42290000  0.89974000  0.87289000  1.0
  O  O184  1  0.43340000  0.06046000  0.88395000  1.0
  O  O185  1  0.30748000  0.90898000  0.73279000  1.0
