# generated using pymatgen
data_CdH14C17N2O5
_symmetry_space_group_name_H-M   'P 1'
_cell_length_a   7.00989000
_cell_length_b   7.05023000
_cell_length_c   16.68010000
_cell_angle_alpha   91.45690000
_cell_angle_beta   98.62550000
_cell_angle_gamma   109.69800000
_symmetry_Int_Tables_number   1
_chemical_formula_structural   CdH14C17N2O5
_chemical_formula_sum   'Cd2 H28 C34 N4 O10'
_cell_volume   764.77527248
_cell_formula_units_Z   2
loop_
 _symmetry_equiv_pos_site_id
 _symmetry_equiv_pos_as_xyz
  1  'x, y, z'
loop_
 _atom_site_type_symbol
 _atom_site_label
 _atom_site_symmetry_multiplicity
 _atom_site_fract_x
 _atom_site_fract_y
 _atom_site_fract_z
 _atom_site_occupancy
  Cd  Cd0  1  0.35081000  0.69276000  0.97063000  1.0
  Cd  Cd1  1  0.64919000  0.30725000  0.02936000  1.0
  H  H2  1  0.93892000  0.88775000  0.38624000  1.0
  H  H3  1  0.06108000  0.11227000  0.61376000  1.0
  H  H4  1  0.49397000  0.77702000  0.42091000  1.0
  H  H5  1  0.50602000  0.22297000  0.57909000  1.0
  H  H6  1  0.74780000  0.83882000  0.47704000  1.0
  H  H7  1  0.25220000  0.16119000  0.52296000  1.0
  H  H8  1  0.91408000  0.04939000  0.25711000  1.0
  H  H9  1  0.08593000  0.95062000  0.74289000  1.0
  H  H10  1  0.29331000  0.87317000  0.60621000  1.0
  H  H11  1  0.70667000  0.12683000  0.39379000  1.0
  H  H12  1  0.22190000  0.80329000  0.50015000  1.0
  H  H13  1  0.77809000  0.19671000  0.49985000  1.0
  H  H14  1  0.49003000  0.02113000  0.84489000  1.0
  H  H15  1  0.50997000  0.97887000  0.15511000  1.0
  H  H16  1  0.08747000  0.42297000  0.26503000  1.0
  H  H17  1  0.91252000  0.57703000  0.73497000  1.0
  H  H18  1  0.02125000  0.56642000  0.38966000  1.0
  H  H19  1  0.97876000  0.43358000  0.61034000  1.0
  H  H20  1  0.57777000  0.05810000  0.70606000  1.0
  H  H21  1  0.42222000  0.94190000  0.29395000  1.0
  H  H22  1  0.52161000  0.42865000  0.69409000  1.0
  H  H23  1  0.47839000  0.57136000  0.30591000  1.0
  H  H24  1  0.43762000  0.41847000  0.83513000  1.0
  H  H25  1  0.56239000  0.58153000  0.16487000  1.0
  H  H26  1  0.01335000  0.10032000  0.12299000  1.0
  H  H27  1  0.98666000  0.89968000  0.87700000  1.0
  H  H28  1  0.08922000  0.91914000  0.07318000  1.0
  H  H29  1  0.91078000  0.08085000  0.92682000  1.0
  C  C30  1  0.96388000  0.81896000  0.33135000  1.0
  C  C31  1  0.03613000  0.18105000  0.66865000  1.0
  C  C32  1  0.60834000  0.87835000  0.47032000  1.0
  C  C33  1  0.39165000  0.12165000  0.52968000  1.0
  C  C34  1  0.95143000  0.91112000  0.25864000  1.0
  C  C35  1  0.04857000  0.08888000  0.74136000  1.0
  C  C36  1  0.34592000  0.90037000  0.54766000  1.0
  C  C37  1  0.65407000  0.09962000  0.45234000  1.0
  C  C38  1  0.49107000  0.89129000  0.80848000  1.0
  C  C39  1  0.50893000  0.10871000  0.19152000  1.0
  C  C40  1  0.99351000  0.83377000  0.18772000  1.0
  C  C41  1  0.00650000  0.16623000  0.81228000  1.0
  C  C42  1  0.04928000  0.56044000  0.26313000  1.0
  C  C43  1  0.95072000  0.43956000  0.73687000  1.0
  C  C44  1  0.54755000  0.74219000  0.68679000  1.0
  C  C45  1  0.45246000  0.25781000  0.31322000  1.0
  C  C46  1  0.61558000  0.75366000  0.60533000  1.0
  C  C47  1  0.38442000  0.24634000  0.39468000  1.0
  C  C48  1  0.10514000  0.57395000  0.11806000  1.0
  C  C49  1  0.89486000  0.42604000  0.88194000  1.0
  C  C50  1  0.01168000  0.64201000  0.33370000  1.0
  C  C51  1  0.98832000  0.35799000  0.66630000  1.0
  C  C52  1  0.04477000  0.65684000  0.19084000  1.0
  C  C53  1  0.95523000  0.34316000  0.80916000  1.0
  C  C54  1  0.53924000  0.91051000  0.73046000  1.0
  C  C55  1  0.46075000  0.08949000  0.26955000  1.0
  C  C56  1  0.51179000  0.56205000  0.72488000  1.0
  C  C57  1  0.48821000  0.43796000  0.27512000  1.0
  C  C58  1  0.46508000  0.55493000  0.80306000  1.0
  C  C59  1  0.53493000  0.44507000  0.19694000  1.0
  C  C60  1  0.76687000  0.84964000  0.05818000  1.0
  C  C61  1  0.23313000  0.15035000  0.94181000  1.0
  C  C62  1  0.97888000  0.93779000  0.11042000  1.0
  C  C63  1  0.02113000  0.06221000  0.88957000  1.0
  N  N64  1  0.52833000  0.84470000  0.54658000  1.0
  N  N65  1  0.47166000  0.15529000  0.45342000  1.0
  N  N66  1  0.45302000  0.71626000  0.84387000  1.0
  N  N67  1  0.54699000  0.28374000  0.15614000  1.0
  O  O68  1  0.75289000  0.68551000  0.59434000  1.0
  O  O69  1  0.24711000  0.31450000  0.40566000  1.0
  O  O70  1  0.99711000  0.40003000  0.08499000  1.0
  O  O71  1  0.00289000  0.59997000  0.91500000  1.0
  O  O72  1  0.67706000  0.96823000  0.02844000  1.0
  O  O73  1  0.32295000  0.03177000  0.97156000  1.0
  O  O74  1  0.67921000  0.65904000  0.04498000  1.0
  O  O75  1  0.32079000  0.34096000  0.95502000  1.0
  O  O76  1  0.27034000  0.68919000  0.09676000  1.0
  O  O77  1  0.72966000  0.31081000  0.90324000  1.0
