# generated using pymatgen
data_H8PbC10(NCl)2
_symmetry_space_group_name_H-M   'P 1'
_cell_length_a   3.93222000
_cell_length_b   11.91530000
_cell_length_c   12.18400000
_cell_angle_alpha   94.09720000
_cell_angle_beta   93.43080000
_cell_angle_gamma   93.08630000
_symmetry_Int_Tables_number   1
_chemical_formula_structural   H8PbC10(NCl)2
_chemical_formula_sum   'H16 Pb2 C20 N4 Cl4'
_cell_volume   567.41551211
_cell_formula_units_Z   2
loop_
 _symmetry_equiv_pos_site_id
 _symmetry_equiv_pos_as_xyz
  1  'x, y, z'
loop_
 _atom_site_type_symbol
 _atom_site_label
 _atom_site_symmetry_multiplicity
 _atom_site_fract_x
 _atom_site_fract_y
 _atom_site_fract_z
 _atom_site_occupancy
  H  H0  1  0.99361000  0.47146000  0.09259000  1.0
  H  H1  1  0.00674000  0.52851000  0.90744000  1.0
  H  H2  1  0.79148000  0.27108000  0.08230000  1.0
  H  H3  1  0.20864000  0.72891000  0.91770000  1.0
  H  H4  1  0.52193000  0.32322000  0.42131000  1.0
  H  H5  1  0.47782000  0.67680000  0.57866000  1.0
  H  H6  1  0.74765000  0.52330000  0.41726000  1.0
  H  H7  1  0.25225000  0.47671000  0.58273000  1.0
  H  H8  1  0.50883000  0.93916000  0.41541000  1.0
  H  H9  1  0.49104000  0.06087000  0.58460000  1.0
  H  H10  1  0.68178000  0.14422000  0.42341000  1.0
  H  H11  1  0.31805000  0.85582000  0.57659000  1.0
  H  H12  1  0.34288000  0.13771000  0.07827000  1.0
  H  H13  1  0.65724000  0.86226000  0.92170000  1.0
  H  H14  1  0.18666000  0.93184000  0.08574000  1.0
  H  H15  1  0.81349000  0.06813000  0.91425000  1.0
  Pb  Pb16  1  0.28170000  0.71074000  0.25359000  1.0
  Pb  Pb17  1  0.71825000  0.28927000  0.74644000  1.0
  C  C18  1  0.88717000  0.43579000  0.16412000  1.0
  C  C19  1  0.11302000  0.56419000  0.83589000  1.0
  C  C20  1  0.77113000  0.32310000  0.15851000  1.0
  C  C21  1  0.22896000  0.67689000  0.84150000  1.0
  C  C22  1  0.63945000  0.27897000  0.25183000  1.0
  C  C23  1  0.36051000  0.72103000  0.74816000  1.0
  C  C24  1  0.62797000  0.35226000  0.34692000  1.0
  C  C25  1  0.37191000  0.64775000  0.65307000  1.0
  C  C26  1  0.75041000  0.46374000  0.34483000  1.0
  C  C27  1  0.24957000  0.53626000  0.65516000  1.0
  C  C28  1  0.47176000  0.98703000  0.34318000  1.0
  C  C29  1  0.52816000  0.01299000  0.65683000  1.0
  C  C30  1  0.56619000  0.10131000  0.34715000  1.0
  C  C31  1  0.43368000  0.89872000  0.65284000  1.0
  C  C32  1  0.52642000  0.15871000  0.25113000  1.0
  C  C33  1  0.47353000  0.84129000  0.74886000  1.0
  C  C34  1  0.38515000  0.09704000  0.15504000  1.0
  C  C35  1  0.61491000  0.90294000  0.84493000  1.0
  C  C36  1  0.29696000  0.98277000  0.15849000  1.0
  C  C37  1  0.70311000  0.01722000  0.84150000  1.0
  N  N38  1  0.87883000  0.50574000  0.25535000  1.0
  N  N39  1  0.12133000  0.49426000  0.74467000  1.0
  N  N40  1  0.34204000  0.92806000  0.25061000  1.0
  N  N41  1  0.65796000  0.07195000  0.74939000  1.0
  Cl  Cl42  1  0.78799000  0.73256000  0.08410000  1.0
  Cl  Cl43  1  0.21195000  0.26742000  0.91592000  1.0
  Cl  Cl44  1  0.86429000  0.75674000  0.42704000  1.0
  Cl  Cl45  1  0.13561000  0.24327000  0.57298000  1.0
