# generated using pymatgen
data_CuH19C27(NO2)3
_symmetry_space_group_name_H-M   'P 1'
_cell_length_a   10.13630000
_cell_length_b   10.21480000
_cell_length_c   13.43860000
_cell_angle_alpha   95.50320000
_cell_angle_beta   92.13210000
_cell_angle_gamma   92.54950000
_symmetry_Int_Tables_number   1
_chemical_formula_structural   CuH19C27(NO2)3
_chemical_formula_sum   'Cu2 H38 C54 N6 O12'
_cell_volume   1382.44838173
_cell_formula_units_Z   2
loop_
 _symmetry_equiv_pos_site_id
 _symmetry_equiv_pos_as_xyz
  1  'x, y, z'
loop_
 _atom_site_type_symbol
 _atom_site_label
 _atom_site_symmetry_multiplicity
 _atom_site_fract_x
 _atom_site_fract_y
 _atom_site_fract_z
 _atom_site_occupancy
  Cu  Cu0  1  0.12339000  0.35823000  0.95376000  1.0
  Cu  Cu1  1  0.87660000  0.64176000  0.04623000  1.0
  H  H2  1  0.29939000  0.49895000  0.10806000  1.0
  H  H3  1  0.70060000  0.50101000  0.89191000  1.0
  H  H4  1  0.97315000  0.24237000  0.11493000  1.0
  H  H5  1  0.02685000  0.75760000  0.88508000  1.0
  H  H6  1  0.97563000  0.26524000  0.29932000  1.0
  H  H7  1  0.02437000  0.73475000  0.70068000  1.0
  H  H8  1  0.31833000  0.53433000  0.29444000  1.0
  H  H9  1  0.68167000  0.46565000  0.70553000  1.0
  H  H10  1  0.42919000  0.63402000  0.00152000  1.0
  H  H11  1  0.57079000  0.36599000  0.99845000  1.0
  H  H12  1  0.58925000  0.00535000  0.14348000  1.0
  H  H13  1  0.41076000  0.99465000  0.85650000  1.0
  H  H14  1  0.16607000  0.93392000  0.09815000  1.0
  H  H15  1  0.83393000  0.06607000  0.90187000  1.0
  H  H16  1  0.43875000  0.18459000  0.18297000  1.0
  H  H17  1  0.56126000  0.81540000  0.81704000  1.0
  H  H18  1  0.26799000  0.16273000  0.14501000  1.0
  H  H19  1  0.73201000  0.83728000  0.85501000  1.0
  H  H20  1  0.51305000  0.14412000  0.33833000  1.0
  H  H21  1  0.48697000  0.85587000  0.66167000  1.0
  H  H22  1  0.46296000  0.10283000  0.51528000  1.0
  H  H23  1  0.53708000  0.89715000  0.48472000  1.0
  H  H24  1  0.05831000  0.00873000  0.41624000  1.0
  H  H25  1  0.94172000  0.99123000  0.58379000  1.0
  H  H26  1  0.11890000  0.06160000  0.24547000  1.0
  H  H27  1  0.88110000  0.93841000  0.75456000  1.0
  H  H28  1  0.01158000  0.27863000  0.45229000  1.0
  H  H29  1  0.98842000  0.72141000  0.54771000  1.0
  H  H30  1  0.24159000  0.48852000  0.45533000  1.0
  H  H31  1  0.75841000  0.51151000  0.54466000  1.0
  H  H32  1  0.95002000  0.20398000  0.59784000  1.0
  H  H33  1  0.05001000  0.79602000  0.40214000  1.0
  H  H34  1  0.25975000  0.51118000  0.62193000  1.0
  H  H35  1  0.74019000  0.48891000  0.37809000  1.0
  H  H36  1  0.96735000  0.20950000  0.78618000  1.0
  H  H37  1  0.03265000  0.79050000  0.21381000  1.0
  H  H38  1  0.26388000  0.50178000  0.80698000  1.0
  H  H39  1  0.73606000  0.49828000  0.19304000  1.0
  C  C40  1  0.22919000  0.45129000  0.15406000  1.0
  C  C41  1  0.77080000  0.54870000  0.84592000  1.0
  C  C42  1  0.04652000  0.30780000  0.15774000  1.0
  C  C43  1  0.95346000  0.69218000  0.84226000  1.0
  C  C44  1  0.04967000  0.32084000  0.26138000  1.0
  C  C45  1  0.95032000  0.67916000  0.73862000  1.0
  C  C46  1  0.23916000  0.46917000  0.25781000  1.0
  C  C47  1  0.76083000  0.53083000  0.74217000  1.0
  C  C48  1  0.16770000  0.68377000  0.01631000  1.0
  C  C49  1  0.83227000  0.31623000  0.98370000  1.0
  C  C50  1  0.28556000  0.77485000  0.04833000  1.0
  C  C51  1  0.71442000  0.22515000  0.95166000  1.0
  C  C52  1  0.41419000  0.73272000  0.03664000  1.0
  C  C53  1  0.58579000  0.26727000  0.96335000  1.0
  C  C54  1  0.52270000  0.81687000  0.07029000  1.0
  C  C55  1  0.47729000  0.18313000  0.92968000  1.0
  C  C56  1  0.50278000  0.94271000  0.11672000  1.0
  C  C57  1  0.49723000  0.05729000  0.88326000  1.0
  C  C58  1  0.37480000  0.98486000  0.12832000  1.0
  C  C59  1  0.62520000  0.01514000  0.87169000  1.0
  C  C60  1  0.26682000  0.90152000  0.09296000  1.0
  C  C61  1  0.73317000  0.09848000  0.90705000  1.0
  C  C62  1  0.14861000  0.40331000  0.31509000  1.0
  C  C63  1  0.85138000  0.59670000  0.68491000  1.0
  C  C64  1  0.35090000  0.11786000  0.18135000  1.0
  C  C65  1  0.64910000  0.88214000  0.81867000  1.0
  C  C66  1  0.66207000  0.77609000  0.05806000  1.0
  C  C67  1  0.33792000  0.22391000  0.94191000  1.0
  C  C68  1  0.41331000  0.11944000  0.36040000  1.0
  C  C69  1  0.58672000  0.88055000  0.63961000  1.0
  C  C70  1  0.38543000  0.09161000  0.45652000  1.0
  C  C71  1  0.61460000  0.90837000  0.54349000  1.0
  C  C72  1  0.16063000  0.03569000  0.40170000  1.0
  C  C73  1  0.83940000  0.96429000  0.59833000  1.0
  C  C74  1  0.19147000  0.06735000  0.30748000  1.0
  C  C75  1  0.80855000  0.93264000  0.69255000  1.0
  C  C76  1  0.26017000  0.04101000  0.47752000  1.0
  C  C77  1  0.73987000  0.95896000  0.52250000  1.0
  C  C78  1  0.23714000  0.97966000  0.57633000  1.0
  C  C79  1  0.76292000  0.02030000  0.42369000  1.0
  C  C80  1  0.08928000  0.34962000  0.48468000  1.0
  C  C81  1  0.91072000  0.65042000  0.51531000  1.0
  C  C82  1  0.16294000  0.41830000  0.42366000  1.0
  C  C83  1  0.83706000  0.58172000  0.57632000  1.0
  C  C84  1  0.10334000  0.35655000  0.59320000  1.0
  C  C85  1  0.89665000  0.64349000  0.40681000  1.0
  C  C86  1  0.02085000  0.27136000  0.64217000  1.0
  C  C87  1  0.97917000  0.72866000  0.35782000  1.0
  C  C88  1  0.19343000  0.44101000  0.65394000  1.0
  C  C89  1  0.80655000  0.55904000  0.34607000  1.0
  C  C90  1  0.03034000  0.27302000  0.74552000  1.0
  C  C91  1  0.96967000  0.72699000  0.25448000  1.0
  C  C92  1  0.19709000  0.43726000  0.75698000  1.0
  C  C93  1  0.80287000  0.56280000  0.24303000  1.0
  N  N94  1  0.13368000  0.37243000  0.10400000  1.0
  N  N95  1  0.86630000  0.62754000  0.89599000  1.0
  N  N96  1  0.31711000  0.10470000  0.28707000  1.0
  N  N97  1  0.68290000  0.89528000  0.71294000  1.0
  N  N98  1  0.11613000  0.35524000  0.80256000  1.0
  N  N99  1  0.88385000  0.64477000  0.19744000  1.0
  O  O100  1  0.18072000  0.58509000  0.95508000  1.0
  O  O101  1  0.81926000  0.41490000  0.04494000  1.0
  O  O102  1  0.05978000  0.71769000  0.05749000  1.0
  O  O103  1  0.94020000  0.28232000  0.94251000  1.0
  O  O104  1  0.75472000  0.86133000  0.05760000  1.0
  O  O105  1  0.24528000  0.13867000  0.94237000  1.0
  O  O106  1  0.67763000  0.64997000  0.04834000  1.0
  O  O107  1  0.32236000  0.35004000  0.95166000  1.0
  O  O108  1  0.32858000  0.00025000  0.64266000  1.0
  O  O109  1  0.67145000  0.99976000  0.35737000  1.0
  O  O110  1  0.13099000  0.90872000  0.57640000  1.0
  O  O111  1  0.86909000  0.09119000  0.42360000  1.0
