# generated using pymatgen
data_TlH13C13(NO2)2
_symmetry_space_group_name_H-M   'P 1'
_cell_length_a   6.04032000
_cell_length_b   7.87290000
_cell_length_c   14.27810000
_cell_angle_alpha   101.60200000
_cell_angle_beta   100.42200000
_cell_angle_gamma   98.33360000
_symmetry_Int_Tables_number   1
_chemical_formula_structural   TlH13C13(NO2)2
_chemical_formula_sum   'Tl2 H26 C26 N4 O8'
_cell_volume   642.45697245
_cell_formula_units_Z   2
loop_
 _symmetry_equiv_pos_site_id
 _symmetry_equiv_pos_as_xyz
  1  'x, y, z'
loop_
 _atom_site_type_symbol
 _atom_site_label
 _atom_site_symmetry_multiplicity
 _atom_site_fract_x
 _atom_site_fract_y
 _atom_site_fract_z
 _atom_site_occupancy
  Tl  Tl0  1  0.93746000  0.68837000  0.90829000  1.0
  Tl  Tl1  1  0.06254000  0.31163000  0.09170000  1.0
  H  H2  1  0.05805000  0.08038000  0.85593000  1.0
  H  H3  1  0.94195000  0.91961000  0.14407000  1.0
  H  H4  1  0.70565000  0.86705000  0.75508000  1.0
  H  H5  1  0.29436000  0.13295000  0.24492000  1.0
  H  H6  1  0.49020000  0.30765000  0.78606000  1.0
  H  H7  1  0.50980000  0.69234000  0.21394000  1.0
  H  H8  1  0.66056000  0.37579000  0.90608000  1.0
  H  H9  1  0.33944000  0.62421000  0.09391000  1.0
  H  H10  1  0.42411000  0.15137000  0.96160000  1.0
  H  H11  1  0.57591000  0.84863000  0.03840000  1.0
  H  H12  1  0.30593000  0.70382000  0.69699000  1.0
  H  H13  1  0.69408000  0.29618000  0.30301000  1.0
  H  H14  1  0.46878000  0.80995000  0.57398000  1.0
  H  H15  1  0.53122000  0.19005000  0.42602000  1.0
  H  H16  1  0.18187000  0.84124000  0.56026000  1.0
  H  H17  1  0.81813000  0.15877000  0.43974000  1.0
  H  H18  1  0.09992000  0.13395000  0.56030000  1.0
  H  H19  1  0.90008000  0.86605000  0.43970000  1.0
  H  H20  1  0.23860000  0.44821000  0.56483000  1.0
  H  H21  1  0.76140000  0.55179000  0.43517000  1.0
  H  H22  1  0.65798000  0.57896000  0.62333000  1.0
  H  H23  1  0.34201000  0.42104000  0.37666000  1.0
  H  H24  1  0.93128000  0.39026000  0.67249000  1.0
  H  H25  1  0.06871000  0.60975000  0.32751000  1.0
  H  H26  1  0.79338000  0.07192000  0.65947000  1.0
  H  H27  1  0.20662000  0.92808000  0.34053000  1.0
  C  C28  1  0.32943000  0.44991000  0.88997000  1.0
  C  C29  1  0.67056000  0.55008000  0.11003000  1.0
  C  C30  1  0.48548000  0.31922000  0.86362000  1.0
  C  C31  1  0.51452000  0.68077000  0.13638000  1.0
  C  C32  1  0.42154000  0.13504000  0.88301000  1.0
  C  C33  1  0.57847000  0.86496000  0.11699000  1.0
  C  C34  1  0.14859000  0.91201000  0.74743000  1.0
  C  C35  1  0.85140000  0.08799000  0.25257000  1.0
  C  C36  1  0.34596000  0.84851000  0.70787000  1.0
  C  C37  1  0.65404000  0.15149000  0.29213000  1.0
  C  C38  1  0.60764000  0.03385000  0.86010000  1.0
  C  C39  1  0.39238000  0.96615000  0.13991000  1.0
  C  C40  1  0.35458000  0.88947000  0.60656000  1.0
  C  C41  1  0.64541000  0.11053000  0.39344000  1.0
  C  C42  1  0.43671000  0.08119000  0.61038000  1.0
  C  C43  1  0.56329000  0.91881000  0.38962000  1.0
  C  C44  1  0.28266000  0.18972000  0.58450000  1.0
  C  C45  1  0.71734000  0.81029000  0.41550000  1.0
  C  C46  1  0.36070000  0.36744000  0.58809000  1.0
  C  C47  1  0.63930000  0.63256000  0.41190000  1.0
  C  C48  1  0.59392000  0.44078000  0.62015000  1.0
  C  C49  1  0.40607000  0.55922000  0.37984000  1.0
  C  C50  1  0.74881000  0.33419000  0.64702000  1.0
  C  C51  1  0.25118000  0.66582000  0.35298000  1.0
  C  C52  1  0.67126000  0.15562000  0.64084000  1.0
  C  C53  1  0.32874000  0.84438000  0.35916000  1.0
  N  N54  1  0.19432000  0.04200000  0.82813000  1.0
  N  N55  1  0.80569000  0.95800000  0.17188000  1.0
  N  N56  1  0.56430000  0.91115000  0.77648000  1.0
  N  N57  1  0.43571000  0.08886000  0.22352000  1.0
  O  O58  1  0.15011000  0.39506000  0.91923000  1.0
  O  O59  1  0.84990000  0.60493000  0.08077000  1.0
  O  O60  1  0.38776000  0.60458000  0.87886000  1.0
  O  O61  1  0.61224000  0.39542000  0.12113000  1.0
  O  O62  1  0.80243000  0.07299000  0.91669000  1.0
  O  O63  1  0.19757000  0.92699000  0.08331000  1.0
  O  O64  1  0.94796000  0.83620000  0.70319000  1.0
  O  O65  1  0.05204000  0.16380000  0.29682000  1.0
