# generated using pymatgen
data_KH3C3(N5O)2
_symmetry_space_group_name_H-M   'P 1'
_cell_length_a   5.46234000
_cell_length_b   7.79589000
_cell_length_c   11.51140000
_cell_angle_alpha   96.20930000
_cell_angle_beta   103.18700000
_cell_angle_gamma   108.94600000
_symmetry_Int_Tables_number   1
_chemical_formula_structural   KH3C3(N5O)2
_chemical_formula_sum   'K2 H6 C6 N20 O4'
_cell_volume   442.49003466
_cell_formula_units_Z   2
loop_
 _symmetry_equiv_pos_site_id
 _symmetry_equiv_pos_as_xyz
  1  'x, y, z'
loop_
 _atom_site_type_symbol
 _atom_site_label
 _atom_site_symmetry_multiplicity
 _atom_site_fract_x
 _atom_site_fract_y
 _atom_site_fract_z
 _atom_site_occupancy
  K  K0  1  0.84540000  0.65898000  0.07851000  1.0
  K  K1  1  0.15459000  0.34102000  0.92149000  1.0
  H  H2  1  0.56067000  0.99174000  0.39363000  1.0
  H  H3  1  0.43933000  0.00826000  0.60637000  1.0
  H  H4  1  0.44530000  0.69449000  0.19539000  1.0
  H  H5  1  0.55470000  0.30551000  0.80461000  1.0
  H  H6  1  0.32426000  0.48935000  0.21529000  1.0
  H  H7  1  0.67574000  0.51065000  0.78471000  1.0
  C  C8  1  0.28368000  0.27577000  0.41784000  1.0
  C  C9  1  0.71632000  0.72423000  0.58215000  1.0
  C  C10  1  0.47949000  0.19552000  0.29520000  1.0
  C  C11  1  0.52052000  0.80448000  0.70480000  1.0
  C  C12  1  0.60397000  0.17352000  0.20025000  1.0
  C  C13  1  0.39604000  0.82648000  0.79975000  1.0
  N  N14  1  0.47830000  0.09288000  0.38274000  1.0
  N  N15  1  0.52170000  0.90712000  0.61727000  1.0
  N  N16  1  0.35503000  0.14242000  0.46300000  1.0
  N  N17  1  0.64496000  0.85758000  0.53700000  1.0
  N  N18  1  0.35537000  0.31473000  0.31527000  1.0
  N  N19  1  0.64463000  0.68527000  0.68473000  1.0
  N  N20  1  0.14412000  0.37066000  0.46778000  1.0
  N  N21  1  0.85588000  0.62934000  0.53222000  1.0
  N  N22  1  0.08531000  0.33188000  0.56189000  1.0
  N  N23  1  0.91469000  0.66812000  0.43811000  1.0
  N  N24  1  0.01475000  0.31409000  0.64744000  1.0
  N  N25  1  0.98525000  0.68591000  0.35256000  1.0
  N  N26  1  0.70811000  0.03749000  0.18813000  1.0
  N  N27  1  0.29189000  0.96252000  0.81187000  1.0
  N  N28  1  0.81575000  0.05260000  0.09386000  1.0
  N  N29  1  0.18425000  0.94740000  0.90614000  1.0
  N  N30  1  0.77704000  0.19458000  0.05050000  1.0
  N  N31  1  0.22296000  0.80542000  0.94950000  1.0
  N  N32  1  0.64780000  0.27249000  0.11355000  1.0
  N  N33  1  0.35221000  0.72751000  0.88645000  1.0
  O  O34  1  0.71112000  0.91137000  0.25342000  1.0
  O  O35  1  0.28888000  0.08863000  0.74658000  1.0
  O  O36  1  0.31262000  0.56945000  0.15458000  1.0
  O  O37  1  0.68738000  0.43055000  0.84542000  1.0
