# generated using pymatgen
data_FeH14C14(NO3)2
_symmetry_space_group_name_H-M   'P 1'
_cell_length_a   8.82025000
_cell_length_b   9.68934000
_cell_length_c   10.67250000
_cell_angle_alpha   63.06260000
_cell_angle_beta   78.54440000
_cell_angle_gamma   63.96800000
_symmetry_Int_Tables_number   1
_chemical_formula_structural   FeH14C14(NO3)2
_chemical_formula_sum   'Fe2 H28 C28 N4 O12'
_cell_volume   730.64323479
_cell_formula_units_Z   2
loop_
 _symmetry_equiv_pos_site_id
 _symmetry_equiv_pos_as_xyz
  1  'x, y, z'
loop_
 _atom_site_type_symbol
 _atom_site_label
 _atom_site_symmetry_multiplicity
 _atom_site_fract_x
 _atom_site_fract_y
 _atom_site_fract_z
 _atom_site_occupancy
  Fe  Fe0  1  0.75019000  0.70550000  0.58926000  1.0
  Fe  Fe1  1  0.24981000  0.29450000  0.41074000  1.0
  H  H2  1  0.07608000  0.59353000  0.51488000  1.0
  H  H3  1  0.42400000  0.89177000  0.51460000  1.0
  H  H4  1  0.92392000  0.40647000  0.48512000  1.0
  H  H5  1  0.57600000  0.10823000  0.48540000  1.0
  H  H6  1  0.02922000  0.69495000  0.61497000  1.0
  H  H7  1  0.47104000  0.69052000  0.61486000  1.0
  H  H8  1  0.97078000  0.30506000  0.38503000  1.0
  H  H9  1  0.52896000  0.30947000  0.38515000  1.0
  H  H10  1  0.61568000  0.68567000  0.36653000  1.0
  H  H11  1  0.88452000  0.94808000  0.36649000  1.0
  H  H12  1  0.38432000  0.31433000  0.63347000  1.0
  H  H13  1  0.11548000  0.05192000  0.63350000  1.0
  H  H14  1  0.60756000  0.81256000  0.10795000  1.0
  H  H15  1  0.89231000  0.07936000  0.10791000  1.0
  H  H16  1  0.39244000  0.18743000  0.89205000  1.0
  H  H17  1  0.10769000  0.92065000  0.89209000  1.0
  H  H18  1  0.74983000  0.01480000  0.97006000  1.0
  H  H19  1  0.25017000  0.98519000  0.02994000  1.0
  H  H20  1  0.98346000  0.40669000  0.80785000  1.0
  H  H21  1  0.51695000  0.78520000  0.80801000  1.0
  H  H22  1  0.01653000  0.59331000  0.19216000  1.0
  H  H23  1  0.48305000  0.21480000  0.19199000  1.0
  H  H24  1  0.99646000  0.27205000  0.07086000  1.0
  H  H25  1  0.50374000  0.65634000  0.07102000  1.0
  H  H26  1  0.00354000  0.72795000  0.92915000  1.0
  H  H27  1  0.49626000  0.34366000  0.92898000  1.0
  H  H28  1  0.75004000  0.39637000  0.20634000  1.0
  H  H29  1  0.24996000  0.60363000  0.79366000  1.0
  C  C30  1  0.66498000  0.41761000  0.63318000  1.0
  C  C31  1  0.83539000  0.94951000  0.63333000  1.0
  C  C32  1  0.33502000  0.58240000  0.36682000  1.0
  C  C33  1  0.16461000  0.05049000  0.36666000  1.0
  C  C34  1  0.72609000  0.24807000  0.64283000  1.0
  C  C35  1  0.77434000  0.10942000  0.64289000  1.0
  C  C36  1  0.27390000  0.75195000  0.35715000  1.0
  C  C37  1  0.22566000  0.89058000  0.35711000  1.0
  C  C38  1  0.67419000  0.77478000  0.30650000  1.0
  C  C39  1  0.82592000  0.91882000  0.30654000  1.0
  C  C40  1  0.32581000  0.22522000  0.69350000  1.0
  C  C41  1  0.17408000  0.08119000  0.69346000  1.0
  C  C42  1  0.67058000  0.84656000  0.16049000  1.0
  C  C43  1  0.82936000  0.99287000  0.16049000  1.0
  C  C44  1  0.32942000  0.15344000  0.83951000  1.0
  C  C45  1  0.17064000  0.00713000  0.83951000  1.0
  C  C46  1  0.74992000  0.95753000  0.08478000  1.0
  C  C47  1  0.25008000  0.04246000  0.91522000  1.0
  C  C48  1  0.88085000  0.45775000  0.87079000  1.0
  C  C49  1  0.61948000  0.67117000  0.87088000  1.0
  C  C50  1  0.11914000  0.54226000  0.12921000  1.0
  C  C51  1  0.38052000  0.32883000  0.12912000  1.0
  C  C52  1  0.88589000  0.38346000  0.01668000  1.0
  C  C53  1  0.61434000  0.59928000  0.01674000  1.0
  C  C54  1  0.11411000  0.61654000  0.98333000  1.0
  C  C55  1  0.38567000  0.40072000  0.98327000  1.0
  C  C56  1  0.75011000  0.45362000  0.09213000  1.0
  C  C57  1  0.24989000  0.54639000  0.90787000  1.0
  N  N58  1  0.75010000  0.80971000  0.38078000  1.0
  N  N59  1  0.24990000  0.19028000  0.61922000  1.0
  N  N60  1  0.75022000  0.60118000  0.79756000  1.0
  N  N61  1  0.24978000  0.39882000  0.20244000  1.0
  O  O62  1  0.51198000  0.49013000  0.65874000  1.0
  O  O63  1  0.98846000  0.85165000  0.65871000  1.0
  O  O64  1  0.48802000  0.50987000  0.34125000  1.0
  O  O65  1  0.01153000  0.14836000  0.34129000  1.0
  O  O66  1  0.77852000  0.47999000  0.59552000  1.0
  O  O67  1  0.72176000  0.92460000  0.59592000  1.0
  O  O68  1  0.22147000  0.52003000  0.40448000  1.0
  O  O69  1  0.27824000  0.07538000  0.40409000  1.0
  O  O70  1  0.01080000  0.60923000  0.59845000  1.0
  O  O71  1  0.48934000  0.79282000  0.59824000  1.0
  O  O72  1  0.98919000  0.39078000  0.40155000  1.0
  O  O73  1  0.51067000  0.20718000  0.40177000  1.0
