# generated using pymatgen
data_TbP4H20Ru2(CO5)4
_symmetry_space_group_name_H-M   'P 1'
_cell_length_a   9.50951000
_cell_length_b   9.51166000
_cell_length_c   15.52400000
_cell_angle_alpha   92.94320000
_cell_angle_beta   92.94390000
_cell_angle_gamma   98.98160000
_symmetry_Int_Tables_number   1
_chemical_formula_structural   TbP4H20Ru2(CO5)4
_chemical_formula_sum   'Tb2 P8 H40 Ru4 C8 O40'
_cell_volume   1382.60686349
_cell_formula_units_Z   2
loop_
 _symmetry_equiv_pos_site_id
 _symmetry_equiv_pos_as_xyz
  1  'x, y, z'
loop_
 _atom_site_type_symbol
 _atom_site_label
 _atom_site_symmetry_multiplicity
 _atom_site_fract_x
 _atom_site_fract_y
 _atom_site_fract_z
 _atom_site_occupancy
  Tb  Tb0  1  0.99315000  0.00683000  0.74996000  1.0
  Tb  Tb1  1  0.00686000  0.99317000  0.25004000  1.0
  P  P2  1  0.05903000  0.34314000  0.64033000  1.0
  P  P3  1  0.65685000  0.94098000  0.85966000  1.0
  P  P4  1  0.94096000  0.65686000  0.35966000  1.0
  P  P5  1  0.34315000  0.05903000  0.14036000  1.0
  P  P6  1  0.99687000  0.64849000  0.65946000  1.0
  P  P7  1  0.35147000  0.00318000  0.84054000  1.0
  P  P8  1  0.00312000  0.35150000  0.34052000  1.0
  P  P9  1  0.64853000  0.99684000  0.15947000  1.0
  H  H10  1  0.82583000  0.44096000  0.72253000  1.0
  H  H11  1  0.55906000  0.17415000  0.77746000  1.0
  H  H12  1  0.17416000  0.55902000  0.27746000  1.0
  H  H13  1  0.44096000  0.82585000  0.22255000  1.0
  H  H14  1  0.41339000  0.67680000  0.54832000  1.0
  H  H15  1  0.32317000  0.58684000  0.95169000  1.0
  H  H16  1  0.58663000  0.32318000  0.45167000  1.0
  H  H17  1  0.67685000  0.41314000  0.04833000  1.0
  H  H18  1  0.39393000  0.51184000  0.53689000  1.0
  H  H19  1  0.48817000  0.60630000  0.96315000  1.0
  H  H20  1  0.60599000  0.48813000  0.46316000  1.0
  H  H21  1  0.51186000  0.39376000  0.03683000  1.0
  H  H22  1  0.82686000  0.14218000  0.62028000  1.0
  H  H23  1  0.85788000  0.17312000  0.87965000  1.0
  H  H24  1  0.17313000  0.85782000  0.37972000  1.0
  H  H25  1  0.14213000  0.82688000  0.12034000  1.0
  H  H26  1  0.71145000  0.07488000  0.68345000  1.0
  H  H27  1  0.92512000  0.28850000  0.81646000  1.0
  H  H28  1  0.28855000  0.92513000  0.31656000  1.0
  H  H29  1  0.07488000  0.71150000  0.18353000  1.0
  H  H30  1  0.12422000  0.90292000  0.91610000  1.0
  H  H31  1  0.09715000  0.87568000  0.58387000  1.0
  H  H32  1  0.87578000  0.09708000  0.08390000  1.0
  H  H33  1  0.90285000  0.12432000  0.41612000  1.0
  H  H34  1  0.95680000  0.88478000  0.92568000  1.0
  H  H35  1  0.11527000  0.04303000  0.57418000  1.0
  H  H36  1  0.04319000  0.11520000  0.07431000  1.0
  H  H37  1  0.88471000  0.95696000  0.42580000  1.0
  H  H38  1  0.17159000  0.43496000  0.82022000  1.0
  H  H39  1  0.56498000  0.82844000  0.67980000  1.0
  H  H40  1  0.82840000  0.56504000  0.17977000  1.0
  H  H41  1  0.43502000  0.17156000  0.32022000  1.0
  H  H42  1  0.14440000  0.61914000  0.82684000  1.0
  H  H43  1  0.38076000  0.85565000  0.67318000  1.0
  H  H44  1  0.85558000  0.38085000  0.17315000  1.0
  H  H45  1  0.61924000  0.14436000  0.32683000  1.0
  H  H46  1  0.25886000  0.55888000  0.75032000  1.0
  H  H47  1  0.44104000  0.74122000  0.74971000  1.0
  H  H48  1  0.74113000  0.44113000  0.24967000  1.0
  H  H49  1  0.55895000  0.25879000  0.25031000  1.0
  Ru  Ru50  1  0.12167000  0.54167000  0.49738000  1.0
  Ru  Ru51  1  0.45830000  0.87837000  0.00262000  1.0
  Ru  Ru52  1  0.87832000  0.45833000  0.50261000  1.0
  Ru  Ru53  1  0.54171000  0.12165000  0.99739000  1.0
  C  C54  1  0.03451000  0.49219000  0.71722000  1.0
  C  C55  1  0.50779000  0.96553000  0.78279000  1.0
  C  C56  1  0.96549000  0.50781000  0.28277000  1.0
  C  C57  1  0.49222000  0.03448000  0.21723000  1.0
  C  C58  1  0.16040000  0.52880000  0.78343000  1.0
  C  C59  1  0.47113000  0.83965000  0.71659000  1.0
  C  C60  1  0.83959000  0.47120000  0.21656000  1.0
  C  C61  1  0.52886000  0.16036000  0.28343000  1.0
  O  O62  1  0.17934000  0.39779000  0.58034000  1.0
  O  O63  1  0.60220000  0.82070000  0.91965000  1.0
  O  O64  1  0.82066000  0.60220000  0.41965000  1.0
  O  O65  1  0.39781000  0.17931000  0.08036000  1.0
  O  O66  1  0.91263000  0.30530000  0.58527000  1.0
  O  O67  1  0.69476000  0.08733000  0.91472000  1.0
  O  O68  1  0.08736000  0.69469000  0.41472000  1.0
  O  O69  1  0.30525000  0.91268000  0.08529000  1.0
  O  O70  1  0.08974000  0.21996000  0.69121000  1.0
  O  O71  1  0.78001000  0.91024000  0.80874000  1.0
  O  O72  1  0.91026000  0.78003000  0.30878000  1.0
  O  O73  1  0.22000000  0.08976000  0.19127000  1.0
  O  O74  1  0.12160000  0.68924000  0.59830000  1.0
  O  O75  1  0.31068000  0.87849000  0.90171000  1.0
  O  O76  1  0.87840000  0.31075000  0.40169000  1.0
  O  O77  1  0.68932000  0.12152000  0.09830000  1.0
  O  O78  1  0.85463000  0.59378000  0.60474000  1.0
  O  O79  1  0.40622000  0.14538000  0.89527000  1.0
  O  O80  1  0.14536000  0.40622000  0.39525000  1.0
  O  O81  1  0.59378000  0.85463000  0.10474000  1.0
  O  O82  1  0.98473000  0.76768000  0.72467000  1.0
  O  O83  1  0.23231000  0.01536000  0.77533000  1.0
  O  O84  1  0.01526000  0.23232000  0.27532000  1.0
  O  O85  1  0.76770000  0.98466000  0.22468000  1.0
  O  O86  1  0.90798000  0.44386000  0.76369000  1.0
  O  O87  1  0.55613000  0.09201000  0.73630000  1.0
  O  O88  1  0.09201000  0.55614000  0.23629000  1.0
  O  O89  1  0.44388000  0.90799000  0.26371000  1.0
  O  O90  1  0.38163000  0.59703000  0.50619000  1.0
  O  O91  1  0.40295000  0.61855000  0.99384000  1.0
  O  O92  1  0.61840000  0.40293000  0.49382000  1.0
  O  O93  1  0.59709000  0.38144000  0.00617000  1.0
  O  O94  1  0.79969000  0.05949000  0.65554000  1.0
  O  O95  1  0.94051000  0.20026000  0.84434000  1.0
  O  O96  1  0.20031000  0.94051000  0.34446000  1.0
  O  O97  1  0.05949000  0.79974000  0.15565000  1.0
  O  O98  1  0.03689000  0.94295000  0.90158000  1.0
  O  O99  1  0.05715000  0.96301000  0.59837000  1.0
  O  O100  1  0.96311000  0.05704000  0.09842000  1.0
  O  O101  1  0.94286000  0.03699000  0.40163000  1.0
