# generated using pymatgen
data_ZnH22C28(NO4)2
_symmetry_space_group_name_H-M   'P 1'
_cell_length_a   8.72977000
_cell_length_b   11.47950000
_cell_length_c   14.36763996
_cell_angle_alpha   96.48274615
_cell_angle_beta   107.67108604
_cell_angle_gamma   112.31930000
_symmetry_Int_Tables_number   1
_chemical_formula_structural   ZnH22C28(NO4)2
_chemical_formula_sum   'Zn2 H44 C56 N4 O16'
_cell_volume   1225.84770081
_cell_formula_units_Z   2
loop_
 _symmetry_equiv_pos_site_id
 _symmetry_equiv_pos_as_xyz
  1  'x, y, z'
loop_
 _atom_site_type_symbol
 _atom_site_label
 _atom_site_symmetry_multiplicity
 _atom_site_fract_x
 _atom_site_fract_y
 _atom_site_fract_z
 _atom_site_occupancy
  Zn  Zn0  1  0.82523000  0.25001000  0.25002000  1.0
  Zn  Zn1  1  0.17477000  0.74999000  0.74998000  1.0
  H  H2  1  0.01140000  0.87642000  0.25369000  1.0
  H  H3  1  0.38093000  0.62381000  0.24617000  1.0
  H  H4  1  0.98860000  0.12358000  0.74631000  1.0
  H  H5  1  0.61907000  0.37619000  0.75383000  1.0
  H  H6  1  0.90388000  0.64978000  0.96170000  1.0
  H  H7  1  0.79221000  0.85002000  0.53809000  1.0
  H  H8  1  0.09611000  0.35022000  0.03830000  1.0
  H  H9  1  0.20779000  0.14998000  0.46191000  1.0
  H  H10  1  0.78077000  0.79038000  0.87938000  1.0
  H  H11  1  0.61095000  0.70936000  0.62045000  1.0
  H  H12  1  0.21923000  0.20962000  0.12062000  1.0
  H  H13  1  0.38905000  0.29064000  0.37955000  1.0
  H  H14  1  0.77327000  0.97588000  0.98601000  1.0
  H  H15  1  0.31124000  0.52431000  0.51391000  1.0
  H  H16  1  0.22672000  0.02412000  0.01399000  1.0
  H  H17  1  0.68876000  0.47569000  0.48609000  1.0
  H  H18  1  0.58084000  0.58732000  0.17415000  1.0
  H  H19  1  0.31940000  0.91271000  0.32586000  1.0
  H  H20  1  0.41915000  0.41268000  0.82584000  1.0
  H  H21  1  0.68060000  0.08729000  0.67414000  1.0
  H  H22  1  0.52975000  0.32280000  0.91368000  1.0
  H  H23  1  0.79318000  0.17693000  0.58624000  1.0
  H  H24  1  0.47025000  0.67720000  0.08632000  1.0
  H  H25  1  0.20683000  0.82307000  0.41377000  1.0
  H  H26  1  0.66993000  0.22064000  0.03285000  1.0
  H  H27  1  0.91617000  0.27907000  0.46703000  1.0
  H  H28  1  0.33006000  0.77936000  0.96715000  1.0
  H  H29  1  0.08383000  0.72093000  0.53297000  1.0
  H  H30  1  0.71635000  0.40268000  0.34743000  1.0
  H  H31  1  0.46617000  0.09722000  0.15251000  1.0
  H  H32  1  0.28365000  0.59733000  0.65257000  1.0
  H  H33  1  0.53383000  0.90278000  0.84749000  1.0
  H  H34  1  0.66351000  0.53745000  0.33530000  1.0
  H  H35  1  0.29086000  0.96251000  0.16470000  1.0
  H  H36  1  0.33650000  0.46255000  0.66470000  1.0
  H  H37  1  0.70914000  0.03749000  0.83530000  1.0
  H  H38  1  0.87827000  0.55180000  0.34452000  1.0
  H  H39  1  0.48193000  0.94803000  0.15540000  1.0
  H  H40  1  0.12173000  0.44820000  0.65548000  1.0
  H  H41  1  0.51807000  0.05197000  0.84460000  1.0
  H  H42  1  0.07487000  0.51808000  0.15244000  1.0
  H  H43  1  0.90383000  0.98186000  0.34746000  1.0
  H  H44  1  0.92512000  0.48192000  0.84756000  1.0
  H  H45  1  0.09617000  0.01814000  0.65254000  1.0
  C  C46  1  0.89320000  0.93852000  0.12598000  1.0
  C  C47  1  0.32845000  0.56165000  0.37390000  1.0
  C  C48  1  0.10680000  0.06148000  0.87403000  1.0
  C  C49  1  0.67155000  0.43835000  0.62610000  1.0
  C  C50  1  0.96117000  0.85854000  0.17180000  1.0
  C  C51  1  0.43049000  0.64160000  0.32806000  1.0
  C  C52  1  0.03883000  0.14146000  0.82820000  1.0
  C  C53  1  0.56951000  0.35840000  0.67194000  1.0
  C  C54  1  0.96414000  0.75408000  0.11345000  1.0
  C  C55  1  0.59618000  0.74598000  0.38639000  1.0
  C  C56  1  0.03586000  0.24592000  0.88655000  1.0
  C  C57  1  0.40382000  0.25402000  0.61361000  1.0
  C  C58  1  0.89990000  0.72996000  0.00761000  1.0
  C  C59  1  0.66212000  0.76999000  0.49222000  1.0
  C  C60  1  0.10010000  0.27004000  0.99239000  1.0
  C  C61  1  0.33787000  0.23001000  0.50777000  1.0
  C  C62  1  0.83038000  0.80927000  0.96158000  1.0
  C  C63  1  0.55943000  0.69065000  0.53827000  1.0
  C  C64  1  0.16962000  0.19073000  0.03842000  1.0
  C  C65  1  0.44057000  0.30935000  0.46173000  1.0
  C  C66  1  0.82587000  0.91244000  0.02031000  1.0
  C  C67  1  0.39295000  0.58768000  0.47956000  1.0
  C  C68  1  0.17413000  0.08756000  0.97969000  1.0
  C  C69  1  0.60705000  0.41232000  0.52044000  1.0
  C  C70  1  0.89283000  0.04975000  0.19041000  1.0
  C  C71  1  0.15264000  0.45035000  0.30948000  1.0
  C  C72  1  0.10717000  0.95025000  0.80959000  1.0
  C  C73  1  0.84736000  0.54966000  0.69052000  1.0
  C  C74  1  0.03310000  0.67089000  0.16847000  1.0
  C  C75  1  0.69320000  0.82922000  0.33140000  1.0
  C  C76  1  0.96690000  0.32911000  0.83153000  1.0
  C  C77  1  0.30680000  0.17078000  0.66860000  1.0
  C  C78  1  0.67106000  0.44105000  0.20101000  1.0
  C  C79  1  0.52885000  0.05888000  0.29893000  1.0
  C  C80  1  0.32894000  0.55895000  0.79899000  1.0
  C  C81  1  0.47115000  0.94111000  0.70107000  1.0
  C  C82  1  0.59492000  0.50514000  0.13854000  1.0
  C  C83  1  0.45118000  0.99485000  0.36145000  1.0
  C  C84  1  0.40507000  0.49486000  0.86145000  1.0
  C  C85  1  0.54882000  0.00514000  0.63855000  1.0
  C  C86  1  0.54117000  0.46634000  0.03328000  1.0
  C  C87  1  0.54149000  0.03361000  0.46669000  1.0
  C  C88  1  0.45882000  0.53366000  0.96671000  1.0
  C  C89  1  0.45851000  0.96639000  0.53331000  1.0
  C  C90  1  0.56902000  0.36141000  0.99434000  1.0
  C  C91  1  0.71316000  0.13842000  0.50560000  1.0
  C  C92  1  0.43098000  0.63859000  0.00566000  1.0
  C  C93  1  0.28684000  0.86158000  0.49440000  1.0
  C  C94  1  0.64531000  0.30172000  0.06023000  1.0
  C  C95  1  0.78314000  0.19805000  0.43965000  1.0
  C  C96  1  0.35469000  0.69828000  0.93977000  1.0
  C  C97  1  0.21686000  0.80195000  0.56035000  1.0
  C  C98  1  0.73459000  0.48534000  0.31341000  1.0
  C  C99  1  0.43586000  0.01457000  0.18655000  1.0
  C  C100  1  0.26541000  0.51466000  0.68659000  1.0
  C  C101  1  0.56414000  0.98543000  0.81345000  1.0
  N  N102  1  0.69459000  0.33920000  0.16141000  1.0
  N  N103  1  0.69379000  0.16067000  0.33850000  1.0
  N  N104  1  0.30540000  0.66080000  0.83858000  1.0
  N  N105  1  0.30621000  0.83933000  0.66150000  1.0
  O  O106  1  0.81076000  0.11217000  0.14517000  1.0
  O  O107  1  0.05323000  0.38810000  0.35470000  1.0
  O  O108  1  0.18924000  0.88783000  0.85483000  1.0
  O  O109  1  0.94676000  0.61190000  0.64530000  1.0
  O  O110  1  0.97213000  0.08034000  0.28570000  1.0
  O  O111  1  0.10650000  0.41955000  0.21423000  1.0
  O  O112  1  0.02787000  0.91966000  0.71430000  1.0
  O  O113  1  0.89351000  0.58046000  0.78578000  1.0
  O  O114  1  0.08007000  0.68951000  0.26139000  1.0
  O  O115  1  0.62872000  0.81078000  0.23849000  1.0
  O  O116  1  0.91993000  0.31049000  0.73861000  1.0
  O  O117  1  0.37128000  0.18922000  0.76151000  1.0
  O  O118  1  0.03787000  0.57532000  0.10937000  1.0
  O  O119  1  0.85263000  0.92462000  0.39052000  1.0
  O  O120  1  0.96213000  0.42468000  0.89063000  1.0
  O  O121  1  0.14737000  0.07538000  0.60948000  1.0
