# generated using pymatgen
data_CdH24C21(N3O2)2
_symmetry_space_group_name_H-M   'P 1'
_cell_length_a   10.85820000
_cell_length_b   10.89720000
_cell_length_c   13.19670000
_cell_angle_alpha   88.15780000
_cell_angle_beta   71.93070000
_cell_angle_gamma   64.51450000
_symmetry_Int_Tables_number   1
_chemical_formula_structural   CdH24C21(N3O2)2
_chemical_formula_sum   'Cd2 H48 C42 N12 O8'
_cell_volume   1330.65768744
_cell_formula_units_Z   2
loop_
 _symmetry_equiv_pos_site_id
 _symmetry_equiv_pos_as_xyz
  1  'x, y, z'
loop_
 _atom_site_type_symbol
 _atom_site_label
 _atom_site_symmetry_multiplicity
 _atom_site_fract_x
 _atom_site_fract_y
 _atom_site_fract_z
 _atom_site_occupancy
  Cd  Cd0  1  0.59988000  0.89838000  0.82856000  1.0
  Cd  Cd1  1  0.40012000  0.10161000  0.17144000  1.0
  H  H2  1  0.04889000  0.17690000  0.89530000  1.0
  H  H3  1  0.95111000  0.82310000  0.10470000  1.0
  H  H4  1  0.20546000  0.78659000  0.01423000  1.0
  H  H5  1  0.79453000  0.21342000  0.98577000  1.0
  H  H6  1  0.80002000  0.71588000  0.10802000  1.0
  H  H7  1  0.19998000  0.28412000  0.89198000  1.0
  H  H8  1  0.01770000  0.44711000  0.81240000  1.0
  H  H9  1  0.98231000  0.55289000  0.18759000  1.0
  H  H10  1  0.80539000  0.79677000  0.49445000  1.0
  H  H11  1  0.19461000  0.20324000  0.50554000  1.0
  H  H12  1  0.85676000  0.71154000  0.60212000  1.0
  H  H13  1  0.14325000  0.28846000  0.39787000  1.0
  H  H14  1  0.93947000  0.89990000  0.53905000  1.0
  H  H15  1  0.06053000  0.10011000  0.46095000  1.0
  H  H16  1  0.75586000  0.01890000  0.58754000  1.0
  H  H17  1  0.24415000  0.98110000  0.41246000  1.0
  H  H18  1  0.63218000  0.26984000  0.80709000  1.0
  H  H19  1  0.36783000  0.73016000  0.19291000  1.0
  H  H20  1  0.60378000  0.17757000  0.71531000  1.0
  H  H21  1  0.39622000  0.82243000  0.28469000  1.0
  H  H22  1  0.86657000  0.11440000  0.68641000  1.0
  H  H23  1  0.13344000  0.88559000  0.31360000  1.0
  H  H24  1  0.84400000  0.06242000  0.81705000  1.0
  H  H25  1  0.15599000  0.93757000  0.18296000  1.0
  H  H26  1  0.96075000  0.72386000  0.71754000  1.0
  H  H27  1  0.03924000  0.27613000  0.28246000  1.0
  H  H28  1  0.95589000  0.83852000  0.81147000  1.0
  H  H29  1  0.04411000  0.16147000  0.18853000  1.0
  H  H30  1  0.12163000  0.95531000  0.75296000  1.0
  H  H31  1  0.87836000  0.04469000  0.24705000  1.0
  H  H32  1  0.35867000  0.92892000  0.63477000  1.0
  H  H33  1  0.64132000  0.07108000  0.36524000  1.0
  H  H34  1  0.37216000  0.63407000  0.41606000  1.0
  H  H35  1  0.62784000  0.36594000  0.58394000  1.0
  H  H36  1  0.13296000  0.65812000  0.53829000  1.0
  H  H37  1  0.86704000  0.34188000  0.46171000  1.0
  H  H38  1  0.64480000  0.54213000  0.46425000  1.0
  H  H39  1  0.35519000  0.45787000  0.53577000  1.0
  H  H40  1  0.75193000  0.83348000  0.29312000  1.0
  H  H41  1  0.24808000  0.16651000  0.70689000  1.0
  H  H42  1  0.60773000  0.77666000  0.64080000  1.0
  H  H43  1  0.39227000  0.22334000  0.35919000  1.0
  H  H44  1  0.57067000  0.93954000  0.62486000  1.0
  H  H45  1  0.42933000  0.06047000  0.37513000  1.0
  H  H46  1  0.45344000  0.17725000  0.89200000  1.0
  H  H47  1  0.54656000  0.82275000  0.10799000  1.0
  H  H48  1  0.58924000  0.12007000  0.93837000  1.0
  H  H49  1  0.41076000  0.87993000  0.06163000  1.0
  C  C50  1  0.29595000  0.95804000  0.89262000  1.0
  C  C51  1  0.70405000  0.04196000  0.10739000  1.0
  C  C52  1  0.14337000  0.97969000  0.94916000  1.0
  C  C53  1  0.85663000  0.02032000  0.05084000  1.0
  C  C54  1  0.02685000  0.09939000  0.94095000  1.0
  C  C55  1  0.97314000  0.90062000  0.05905000  1.0
  C  C56  1  0.11496000  0.88031000  0.00874000  1.0
  C  C57  1  0.88504000  0.11970000  0.99126000  1.0
  C  C58  1  0.78946000  0.68838000  0.90829000  1.0
  C  C59  1  0.21054000  0.31162000  0.09171000  1.0
  C  C60  1  0.89679000  0.58981000  0.95620000  1.0
  C  C61  1  0.10321000  0.41019000  0.04378000  1.0
  C  C62  1  0.88745000  0.62029000  0.06168000  1.0
  C  C63  1  0.11256000  0.37970000  0.93832000  1.0
  C  C64  1  0.01022000  0.46874000  0.89473000  1.0
  C  C65  1  0.98978000  0.53126000  0.10526000  1.0
  C  C66  1  0.78960000  0.81054000  0.58054000  1.0
  C  C67  1  0.21040000  0.18947000  0.41945000  1.0
  C  C68  1  0.83450000  0.91979000  0.60018000  1.0
  C  C69  1  0.16550000  0.08021000  0.39982000  1.0
  C  C70  1  0.64535000  0.16768000  0.78275000  1.0
  C  C71  1  0.35465000  0.83231000  0.21724000  1.0
  C  C72  1  0.80687000  0.06974000  0.74753000  1.0
  C  C73  1  0.19313000  0.93025000  0.25248000  1.0
  C  C74  1  0.96590000  0.82110000  0.72711000  1.0
  C  C75  1  0.03410000  0.17889000  0.27289000  1.0
  C  C76  1  0.10957000  0.80921000  0.65380000  1.0
  C  C77  1  0.89043000  0.19079000  0.34620000  1.0
  C  C78  1  0.17404000  0.88629000  0.67846000  1.0
  C  C79  1  0.82595000  0.11370000  0.32155000  1.0
  C  C80  1  0.30854000  0.87160000  0.61190000  1.0
  C  C81  1  0.69146000  0.12839000  0.38810000  1.0
  C  C82  1  0.37951000  0.77887000  0.51877000  1.0
  C  C83  1  0.62049000  0.22114000  0.48124000  1.0
  C  C84  1  0.31600000  0.70356000  0.49055000  1.0
  C  C85  1  0.68399000  0.29645000  0.50945000  1.0
  C  C86  1  0.18171000  0.71909000  0.55840000  1.0
  C  C87  1  0.81829000  0.28091000  0.44160000  1.0
  C  C88  1  0.64368000  0.63471000  0.43090000  1.0
  C  C89  1  0.35631000  0.36530000  0.56911000  1.0
  C  C90  1  0.69460000  0.78411000  0.34765000  1.0
  C  C91  1  0.30541000  0.21587000  0.65236000  1.0
  N  N92  1  0.63834000  0.85150000  0.64746000  1.0
  N  N93  1  0.36165000  0.14850000  0.35253000  1.0
  N  N94  1  0.83742000  0.93139000  0.70951000  1.0
  N  N95  1  0.16258000  0.06861000  0.29049000  1.0
  N  N96  1  0.56279000  0.11806000  0.86974000  1.0
  N  N97  1  0.43720000  0.88194000  0.13026000  1.0
  N  N98  1  0.52142000  0.75443000  0.45307000  1.0
  N  N99  1  0.47859000  0.24556000  0.54693000  1.0
  N  N100  1  0.55287000  0.85244000  0.39986000  1.0
  N  N101  1  0.44713000  0.14756000  0.60014000  1.0
  N  N102  1  0.75522000  0.65008000  0.36500000  1.0
  N  N103  1  0.24479000  0.34991000  0.63501000  1.0
  O  O104  1  0.32044000  0.02365000  0.81449000  1.0
  O  O105  1  0.67956000  0.97637000  0.18552000  1.0
  O  O106  1  0.39556000  0.87078000  0.92647000  1.0
  O  O107  1  0.60443000  0.12922000  0.07353000  1.0
  O  O108  1  0.70694000  0.80879000  0.96001000  1.0
  O  O109  1  0.29307000  0.19121000  0.03999000  1.0
  O  O110  1  0.78550000  0.65347000  0.81890000  1.0
  O  O111  1  0.21449000  0.34654000  0.18110000  1.0
