# generated using pymatgen
data_Zn4H16C33O19
_symmetry_space_group_name_H-M   'P 1'
_cell_length_a   18.32180000
_cell_length_b   18.35410000
_cell_length_c   18.38810000
_cell_angle_alpha   90.28760000
_cell_angle_beta   119.82500000
_cell_angle_gamma   119.67600000
_symmetry_Int_Tables_number   1
_chemical_formula_structural   Zn4H16C33O19
_chemical_formula_sum   'Zn8 H32 C66 O38'
_cell_volume   4394.34629128
_cell_formula_units_Z   2
loop_
 _symmetry_equiv_pos_site_id
 _symmetry_equiv_pos_as_xyz
  1  'x, y, z'
loop_
 _atom_site_type_symbol
 _atom_site_label
 _atom_site_symmetry_multiplicity
 _atom_site_fract_x
 _atom_site_fract_y
 _atom_site_fract_z
 _atom_site_occupancy
  Zn  Zn0  1  0.08848000  0.29423000  0.20716000  1.0
  Zn  Zn1  1  0.91156000  0.70527000  0.79192000  1.0
  Zn  Zn2  1  0.91452000  0.29514000  0.20726000  1.0
  Zn  Zn3  1  0.09026000  0.70885000  0.79689000  1.0
  Zn  Zn4  1  0.08708000  0.29217000  0.37998000  1.0
  Zn  Zn5  1  0.91430000  0.70785000  0.62106000  1.0
  Zn  Zn6  1  0.91361000  0.11902000  0.20712000  1.0
  Zn  Zn7  1  0.08819000  0.88223000  0.79285000  1.0
  H  H8  1  0.86777000  0.28772000  0.88043000  1.0
  H  H9  1  0.88535000  0.45417000  0.33845000  1.0
  H  H10  1  0.13915000  0.47617000  0.07230000  1.0
  H  H11  1  0.85925000  0.52184000  0.92566000  1.0
  H  H12  1  0.13844000  0.57276000  0.97561000  1.0
  H  H13  1  0.85936000  0.42421000  0.02133000  1.0
  H  H14  1  0.80379000  0.04053000  0.92767000  1.0
  H  H15  1  0.19247000  0.95311000  0.06365000  1.0
  H  H16  1  0.08130000  0.21842000  0.94521000  1.0
  H  H17  1  0.92106000  0.78115000  0.05760000  1.0
  H  H18  1  0.03111000  0.32329000  0.90605000  1.0
  H  H19  1  0.12539000  0.70515000  0.11206000  1.0
  H  H20  1  0.96935000  0.67476000  0.09310000  1.0
  H  H21  1  0.40410000  0.45092000  0.56869000  1.0
  H  H22  1  0.59626000  0.54949000  0.43036000  1.0
  H  H23  1  0.59699000  0.54853000  0.66442000  1.0
  H  H24  1  0.40332000  0.45223000  0.33465000  1.0
  H  H25  1  0.11847000  0.16412000  0.56665000  1.0
  H  H26  1  0.87822000  0.83439000  0.43175000  1.0
  H  H27  1  0.44256000  0.15295000  0.92894000  1.0
  H  H28  1  0.53217000  0.84051000  0.07501000  1.0
  H  H29  1  0.59938000  0.04936000  0.85663000  1.0
  H  H30  1  0.11929000  0.06863000  0.66400000  1.0
  H  H31  1  0.21238000  0.72924000  0.07093000  1.0
  H  H32  1  0.86891000  0.94701000  0.70656000  1.0
  H  H33  1  0.03707000  0.93025000  0.25111000  1.0
  H  H34  1  0.87674000  0.93011000  0.33443000  1.0
  H  H35  1  0.60034000  0.13932000  0.97636000  1.0
  H  H36  1  0.40320000  0.86862000  0.03168000  1.0
  H  H37  1  0.11818000  0.45038000  0.56863000  1.0
  H  H38  1  0.88484000  0.54854000  0.43741000  1.0
  H  H39  1  0.11780000  0.54486000  0.66767000  1.0
  C  C40  1  0.72438000  0.11358000  0.11298000  1.0
  C  C41  1  0.02422000  0.99273000  0.08430000  1.0
  C  C42  1  0.99942000  0.94527000  0.94660000  1.0
  C  C43  1  0.00186000  0.05403000  0.05410000  1.0
  C  C44  1  0.02316000  0.93708000  0.03040000  1.0
  C  C45  1  0.97802000  0.06204000  0.97054000  1.0
  C  C46  1  0.44699000  0.47310000  0.53921000  1.0
  C  C47  1  0.55340000  0.52773000  0.45987000  1.0
  C  C48  1  0.55372000  0.52705000  0.59219000  1.0
  C  C49  1  0.44666000  0.47392000  0.40689000  1.0
  C  C50  1  0.60739000  0.55464000  0.55276000  1.0
  C  C51  1  0.27940000  0.89118000  0.89083000  1.0
  C  C52  1  0.39301000  0.44644000  0.44632000  1.0
  C  C53  1  0.06626000  0.09189000  0.53793000  1.0
  C  C54  1  0.93056000  0.90662000  0.46042000  1.0
  C  C55  1  0.27832000  0.38883000  0.38916000  1.0
  C  C56  1  0.72198000  0.61245000  0.61002000  1.0
  C  C57  1  0.06667000  0.03906000  0.59185000  1.0
  C  C58  1  0.93001000  0.95950000  0.40656000  1.0
  C  C59  1  0.99888000  0.94615000  0.55325000  1.0
  C  C60  1  0.99812000  0.05240000  0.44514000  1.0
  C  C61  1  0.55636000  0.07984000  0.98817000  1.0
  C  C62  1  0.00968000  0.20264000  0.93284000  1.0
  C  C63  1  0.44735000  0.92639000  0.01836000  1.0
  C  C64  1  0.44895000  0.02589000  0.93193000  1.0
  C  C65  1  0.55467000  0.97975000  0.07414000  1.0
  C  C66  1  0.39429000  0.94875000  0.94746000  1.0
  C  C67  1  0.60936000  0.05683000  0.05842000  1.0
  C  C68  1  0.06757000  0.47240000  0.54077000  1.0
  C  C69  1  0.93562000  0.52670000  0.46531000  1.0
  C  C70  1  0.06732000  0.52464000  0.59556000  1.0
  C  C71  1  0.93591000  0.47452000  0.41056000  1.0
  C  C72  1  0.00148000  0.55219000  0.55806000  1.0
  C  C73  1  0.99130000  0.79595000  0.06746000  1.0
  C  C74  1  0.00203000  0.44726000  0.44805000  1.0
  C  C75  1  0.07872000  0.48715000  0.04023000  1.0
  C  C76  1  0.92029000  0.51167000  0.95849000  1.0
  C  C77  1  0.07843000  0.54077000  0.98702000  1.0
  C  C78  1  0.92059000  0.45807000  0.01165000  1.0
  C  C79  1  0.00015000  0.38838000  0.11031000  1.0
  C  C80  1  0.99980000  0.61185000  0.88976000  1.0
  C  C81  1  0.99933000  0.55350000  0.94612000  1.0
  C  C82  1  0.99994000  0.44585000  0.05295000  1.0
  C  C83  1  0.99826000  0.10937000  0.38744000  1.0
  C  C84  1  0.98128000  0.26139000  0.91094000  1.0
  C  C85  1  0.99921000  0.88932000  0.61096000  1.0
  C  C86  1  0.00249000  0.39108000  0.38941000  1.0
  C  C87  1  0.00171000  0.60949000  0.61621000  1.0
  C  C88  1  0.00218000  0.11220000  0.11243000  1.0
  C  C89  1  0.99895000  0.88722000  0.88814000  1.0
  C  C90  1  0.82578000  0.16184000  0.90161000  1.0
  C  C91  1  0.16877000  0.83143000  0.08740000  1.0
  C  C92  1  0.85386000  0.10241000  0.92297000  1.0
  C  C93  1  0.14261000  0.89244000  0.07005000  1.0
  C  C94  1  0.94660000  0.12309000  0.93999000  1.0
  C  C95  1  0.01814000  0.73604000  0.08675000  1.0
  C  C96  1  0.05360000  0.87499000  0.05901000  1.0
  C  C97  1  0.39496000  0.04646000  0.85050000  1.0
  C  C98  1  0.60955000  0.95858000  0.15456000  1.0
  C  C99  1  0.72944000  0.14300000  0.88588000  1.0
  C  C100  1  0.26238000  0.85376000  0.09339000  1.0
  C  C101  1  0.95637000  0.01521000  0.82842000  1.0
  C  C102  1  0.05954000  0.99776000  0.17854000  1.0
  C  C103  1  0.89033000  0.24195000  0.89634000  1.0
  C  C104  1  0.10627000  0.75323000  0.09649000  1.0
  C  C105  1  0.97840000  0.00727000  0.91713000  1.0
  O  O106  1  0.99978000  0.24952000  0.24924000  1.0
  O  O107  1  0.76709000  0.63609000  0.57082000  1.0
  O  O108  1  0.76699000  0.07251000  0.13016000  1.0
  O  O109  1  0.23542000  0.93123000  0.86575000  1.0
  O  O110  1  0.23427000  0.37016000  0.30529000  1.0
  O  O111  1  0.76583000  0.63368000  0.69397000  1.0
  O  O112  1  0.93677000  0.36527000  0.13098000  1.0
  O  O113  1  0.07116000  0.64375000  0.87777000  1.0
  O  O114  1  0.05682000  0.19333000  0.42673000  1.0
  O  O115  1  0.94181000  0.80526000  0.57206000  1.0
  O  O116  1  0.94107000  0.37037000  0.30553000  1.0
  O  O117  1  0.00220000  0.75167000  0.75190000  1.0
  O  O118  1  0.06379000  0.63157000  0.70035000  1.0
  O  O119  1  0.93724000  0.07114000  0.13100000  1.0
  O  O120  1  0.06249000  0.92826000  0.86816000  1.0
  O  O121  1  0.06435000  0.36855000  0.42803000  1.0
  O  O122  1  0.93989000  0.63193000  0.57689000  1.0
  O  O123  1  0.06539000  0.19546000  0.13567000  1.0
  O  O124  1  0.93584000  0.80385000  0.86502000  1.0
  O  O125  1  0.34771000  0.99842000  0.77544000  1.0
  O  O126  1  0.40689000  0.12557000  0.86538000  1.0
  O  O127  1  0.67324000  0.01181000  0.22944000  1.0
  O  O128  1  0.06396000  0.36797000  0.13387000  1.0
  O  O129  1  0.58045000  0.87258000  0.13896000  1.0
  O  O130  1  0.71171000  0.19873000  0.88871000  1.0
  O  O131  1  0.66035000  0.05509000  0.86748000  1.0
  O  O132  1  0.32696000  0.92766000  0.10202000  1.0
  O  O133  1  0.27417000  0.78650000  0.08734000  1.0
  O  O134  1  0.00384000  0.08355000  0.81683000  1.0
  O  O135  1  0.87573000  0.93629000  0.76114000  1.0
  O  O136  1  0.12754000  0.06712000  0.24127000  1.0
  O  O137  1  0.00769000  0.91826000  0.18738000  1.0
  O  O138  1  0.92997000  0.62570000  0.85926000  1.0
  O  O139  1  0.94012000  0.06936000  0.30355000  1.0
  O  O140  1  0.05644000  0.92934000  0.69479000  1.0
  O  O141  1  0.76742000  0.19718000  0.13403000  1.0
  O  O142  1  0.23686000  0.80779000  0.87392000  1.0
  O  O143  1  0.23378000  0.36331000  0.42872000  1.0
