# generated using pymatgen
data_AgH14C16ClO4
_symmetry_space_group_name_H-M   'P 1'
_cell_length_a   5.38523000
_cell_length_b   13.25890000
_cell_length_c   20.39950000
_cell_angle_alpha   89.99950000
_cell_angle_beta   90.00060000
_cell_angle_gamma   89.99930000
_symmetry_Int_Tables_number   1
_chemical_formula_structural   AgH14C16ClO4
_chemical_formula_sum   'Ag4 H56 C64 Cl4 O16'
_cell_volume   1456.56971000
_cell_formula_units_Z   4
loop_
 _symmetry_equiv_pos_site_id
 _symmetry_equiv_pos_as_xyz
  1  'x, y, z'
loop_
 _atom_site_type_symbol
 _atom_site_label
 _atom_site_symmetry_multiplicity
 _atom_site_fract_x
 _atom_site_fract_y
 _atom_site_fract_z
 _atom_site_occupancy
  Ag  Ag0  1  0.72100000  0.23549000  0.25000000  1.0
  Ag  Ag1  1  0.22100000  0.26451000  0.75000000  1.0
  Ag  Ag2  1  0.77900000  0.73549000  0.25000000  1.0
  Ag  Ag3  1  0.27899000  0.76451000  0.75000000  1.0
  H  H4  1  0.05241000  0.15860000  0.12470000  1.0
  H  H5  1  0.55241000  0.34139000  0.62471000  1.0
  H  H6  1  0.05239000  0.15862000  0.37530000  1.0
  H  H7  1  0.44761000  0.65861000  0.12470000  1.0
  H  H8  1  0.94759000  0.84138000  0.87530000  1.0
  H  H9  1  0.44761000  0.65862000  0.37529000  1.0
  H  H10  1  0.94760000  0.84139000  0.62471000  1.0
  H  H11  1  0.55240000  0.34137000  0.87529000  1.0
  H  H12  1  0.07822000  0.32533000  0.18030000  1.0
  H  H13  1  0.57821000  0.17466000  0.68030000  1.0
  H  H14  1  0.07818000  0.32535000  0.31970000  1.0
  H  H15  1  0.42180000  0.82534000  0.18030000  1.0
  H  H16  1  0.92181000  0.67465000  0.81970000  1.0
  H  H17  1  0.42180000  0.82534000  0.31969000  1.0
  H  H18  1  0.92180000  0.67466000  0.68030000  1.0
  H  H19  1  0.57816000  0.17465000  0.81969000  1.0
  H  H20  1  0.72365000  0.44660000  0.17311000  1.0
  H  H21  1  0.22364000  0.05339000  0.67311000  1.0
  H  H22  1  0.72362000  0.44662000  0.32689000  1.0
  H  H23  1  0.77636000  0.94660000  0.17311000  1.0
  H  H24  1  0.27638000  0.55339000  0.82689000  1.0
  H  H25  1  0.77635000  0.94662000  0.32689000  1.0
  H  H26  1  0.27637000  0.55339000  0.67311000  1.0
  H  H27  1  0.22359000  0.05338000  0.82689000  1.0
  H  H28  1  0.36210000  0.40533000  0.10124000  1.0
  H  H29  1  0.86210000  0.09467000  0.60124000  1.0
  H  H30  1  0.36208000  0.40534000  0.39877000  1.0
  H  H31  1  0.13791000  0.90533000  0.10124000  1.0
  H  H32  1  0.63792000  0.59467000  0.89877000  1.0
  H  H33  1  0.13790000  0.90534000  0.39876000  1.0
  H  H34  1  0.63792000  0.59467000  0.60124000  1.0
  H  H35  1  0.86206000  0.09467000  0.89877000  1.0
  H  H36  1  0.34828000  0.24507000  0.04060000  1.0
  H  H37  1  0.84828000  0.25494000  0.54060000  1.0
  H  H38  1  0.34826000  0.24507000  0.45940000  1.0
  H  H39  1  0.15174000  0.74506000  0.04060000  1.0
  H  H40  1  0.65174000  0.75494000  0.95940000  1.0
  H  H41  1  0.15174000  0.74506000  0.45940000  1.0
  H  H42  1  0.65172000  0.75494000  0.54060000  1.0
  H  H43  1  0.84826000  0.25494000  0.95940000  1.0
  H  H44  1  0.85960000  0.04508000  0.05236000  1.0
  H  H45  1  0.35962000  0.45492000  0.55237000  1.0
  H  H46  1  0.85960000  0.04509000  0.44763000  1.0
  H  H47  1  0.64044000  0.54507000  0.05237000  1.0
  H  H48  1  0.14037000  0.95491000  0.94763000  1.0
  H  H49  1  0.64041000  0.54509000  0.44763000  1.0
  H  H50  1  0.14038000  0.95492000  0.55237000  1.0
  H  H51  1  0.35961000  0.45491000  0.94762000  1.0
  H  H52  1  0.32283000  0.09144000  0.00922000  1.0
  H  H53  1  0.82287000  0.40858000  0.50922000  1.0
  H  H54  1  0.32285000  0.09144000  0.49079000  1.0
  H  H55  1  0.17718000  0.59143000  0.00922000  1.0
  H  H56  1  0.67713000  0.90857000  0.99078000  1.0
  H  H57  1  0.17716000  0.59144000  0.49078000  1.0
  H  H58  1  0.67713000  0.90857000  0.50922000  1.0
  H  H59  1  0.82287000  0.40858000  0.99078000  1.0
  C  C60  1  0.89959000  0.21215000  0.11998000  1.0
  C  C61  1  0.39958000  0.28784000  0.61998000  1.0
  C  C62  1  0.89956000  0.21217000  0.38002000  1.0
  C  C63  1  0.60042000  0.71215000  0.11998000  1.0
  C  C64  1  0.10043000  0.78783000  0.88002000  1.0
  C  C65  1  0.60043000  0.71216000  0.38002000  1.0
  C  C66  1  0.10042000  0.78784000  0.61998000  1.0
  C  C67  1  0.39956000  0.28783000  0.88002000  1.0
  C  C68  1  0.90990000  0.30451000  0.15383000  1.0
  C  C69  1  0.40989000  0.19548000  0.65383000  1.0
  C  C70  1  0.90987000  0.30452000  0.34617000  1.0
  C  C71  1  0.59013000  0.80452000  0.15383000  1.0
  C  C72  1  0.09012000  0.69548000  0.84617000  1.0
  C  C73  1  0.59012000  0.80452000  0.34617000  1.0
  C  C74  1  0.09011000  0.69548000  0.65383000  1.0
  C  C75  1  0.40985000  0.19547000  0.84616000  1.0
  C  C76  1  0.71358000  0.37433000  0.14786000  1.0
  C  C77  1  0.21358000  0.12566000  0.64786000  1.0
  C  C78  1  0.71356000  0.37435000  0.35215000  1.0
  C  C79  1  0.78642000  0.87434000  0.14786000  1.0
  C  C80  1  0.28645000  0.62565000  0.85215000  1.0
  C  C81  1  0.78641000  0.87435000  0.35214000  1.0
  C  C82  1  0.28643000  0.62566000  0.64786000  1.0
  C  C83  1  0.21353000  0.12565000  0.85214000  1.0
  C  C84  1  0.51295000  0.35123000  0.10675000  1.0
  C  C85  1  0.01295000  0.14877000  0.60674000  1.0
  C  C86  1  0.51294000  0.35124000  0.39326000  1.0
  C  C87  1  0.98706000  0.85123000  0.10674000  1.0
  C  C88  1  0.48706000  0.64877000  0.89326000  1.0
  C  C89  1  0.98706000  0.85124000  0.39326000  1.0
  C  C90  1  0.48705000  0.64877000  0.60674000  1.0
  C  C91  1  0.01292000  0.14877000  0.89326000  1.0
  C  C92  1  0.50493000  0.26025000  0.07290000  1.0
  C  C93  1  0.00492000  0.23975000  0.57290000  1.0
  C  C94  1  0.50490000  0.26026000  0.42710000  1.0
  C  C95  1  0.99510000  0.76025000  0.07291000  1.0
  C  C96  1  0.49509000  0.73975000  0.92710000  1.0
  C  C97  1  0.99509000  0.76025000  0.42709000  1.0
  C  C98  1  0.49508000  0.73975000  0.57290000  1.0
  C  C99  1  0.00490000  0.23975000  0.92709000  1.0
  C  C100  1  0.69562000  0.18784000  0.07968000  1.0
  C  C101  1  0.19562000  0.31216000  0.57969000  1.0
  C  C102  1  0.69561000  0.18785000  0.42032000  1.0
  C  C103  1  0.80441000  0.68784000  0.07969000  1.0
  C  C104  1  0.30438000  0.81216000  0.92032000  1.0
  C  C105  1  0.80440000  0.68785000  0.42031000  1.0
  C  C106  1  0.30438000  0.81216000  0.57968000  1.0
  C  C107  1  0.19561000  0.31216000  0.92032000  1.0
  C  C108  1  0.69047000  0.09021000  0.04751000  1.0
  C  C109  1  0.19049000  0.40980000  0.54751000  1.0
  C  C110  1  0.69047000  0.09022000  0.45249000  1.0
  C  C111  1  0.80956000  0.59021000  0.04751000  1.0
  C  C112  1  0.30950000  0.90979000  0.95249000  1.0
  C  C113  1  0.80954000  0.59022000  0.45249000  1.0
  C  C114  1  0.30950000  0.90979000  0.54751000  1.0
  C  C115  1  0.19048000  0.40979000  0.95249000  1.0
  C  C116  1  0.49620000  0.04914000  0.01445000  1.0
  C  C117  1  0.99624000  0.45087000  0.51446000  1.0
  C  C118  1  0.49621000  0.04914000  0.48555000  1.0
  C  C119  1  0.00381000  0.54914000  0.01446000  1.0
  C  C120  1  0.50376000  0.95087000  0.98554000  1.0
  C  C121  1  0.00380000  0.54915000  0.48554000  1.0
  C  C122  1  0.50377000  0.95087000  0.51446000  1.0
  C  C123  1  0.99624000  0.45087000  0.98554000  1.0
  Cl  Cl124  1  0.23278000  0.06951000  0.25001000  1.0
  Cl  Cl125  1  0.73278000  0.43048000  0.75000000  1.0
  Cl  Cl126  1  0.26722000  0.56952000  0.25000000  1.0
  Cl  Cl127  1  0.76721000  0.93048000  0.74999000  1.0
  O  O128  1  0.30782000  0.17789000  0.25001000  1.0
  O  O129  1  0.80780000  0.32210000  0.75000000  1.0
  O  O130  1  0.19220000  0.67790000  0.25000000  1.0
  O  O131  1  0.69218000  0.82210000  0.75000000  1.0
  O  O132  1  0.95954000  0.06702000  0.25000000  1.0
  O  O133  1  0.45954000  0.43298000  0.75000000  1.0
  O  O134  1  0.54047000  0.56702000  0.25000000  1.0
  O  O135  1  0.04045000  0.93297000  0.75000000  1.0
  O  O136  1  0.32733000  0.02113000  0.30868000  1.0
  O  O137  1  0.82734000  0.47886000  0.80867000  1.0
  O  O138  1  0.32733000  0.02114000  0.19133000  1.0
  O  O139  1  0.17266000  0.52114000  0.30867000  1.0
  O  O140  1  0.67268000  0.97885000  0.69132000  1.0
  O  O141  1  0.17268000  0.52115000  0.19132000  1.0
  O  O142  1  0.67264000  0.97886000  0.80867000  1.0
  O  O143  1  0.82734000  0.47885000  0.69132000  1.0
