# generated using pymatgen
data_CdH19C16N2O5
_symmetry_space_group_name_H-M   'P 1'
_cell_length_a   8.69988000
_cell_length_b   10.30760000
_cell_length_c   10.92740000
_cell_angle_alpha   64.05340000
_cell_angle_beta   70.78950000
_cell_angle_gamma   78.38810000
_symmetry_Int_Tables_number   1
_chemical_formula_structural   CdH19C16N2O5
_chemical_formula_sum   'Cd2 H38 C32 N4 O10'
_cell_volume   830.17721281
_cell_formula_units_Z   2
loop_
 _symmetry_equiv_pos_site_id
 _symmetry_equiv_pos_as_xyz
  1  'x, y, z'
loop_
 _atom_site_type_symbol
 _atom_site_label
 _atom_site_symmetry_multiplicity
 _atom_site_fract_x
 _atom_site_fract_y
 _atom_site_fract_z
 _atom_site_occupancy
  Cd  Cd0  1  0.22732000  0.08430000  0.08742000  1.0
  Cd  Cd1  1  0.77268000  0.91571000  0.91258000  1.0
  H  H2  1  0.25382000  0.79304000  0.32723000  1.0
  H  H3  1  0.74618000  0.20696000  0.67277000  1.0
  H  H4  1  0.40461000  0.64428000  0.34023000  1.0
  H  H5  1  0.59539000  0.35572000  0.65977000  1.0
  H  H6  1  0.23247000  0.94935000  0.45183000  1.0
  H  H7  1  0.76753000  0.05065000  0.54817000  1.0
  H  H8  1  0.47954000  0.79980000  0.77758000  1.0
  H  H9  1  0.52045000  0.20019000  0.22242000  1.0
  H  H10  1  0.61875000  0.59714000  0.70853000  1.0
  H  H11  1  0.38125000  0.40286000  0.29147000  1.0
  H  H12  1  0.57500000  0.57754000  0.50266000  1.0
  H  H13  1  0.42500000  0.42246000  0.49733000  1.0
  H  H14  1  0.25632000  0.10994000  0.56325000  1.0
  H  H15  1  0.74368000  0.89006000  0.43675000  1.0
  H  H16  1  0.33032000  0.03342000  0.71605000  1.0
  H  H17  1  0.66968000  0.96658000  0.28395000  1.0
  H  H18  1  0.95822000  0.28831000  0.25117000  1.0
  H  H19  1  0.04178000  0.71169000  0.74883000  1.0
  H  H20  1  0.25154000  0.64512000  0.00314000  1.0
  H  H21  1  0.74846000  0.35488000  0.99687000  1.0
  H  H22  1  0.41483000  0.40310000  0.95196000  1.0
  H  H23  1  0.58517000  0.59690000  0.04804000  1.0
  H  H24  1  0.82707000  0.53019000  0.24148000  1.0
  H  H25  1  0.17293000  0.46981000  0.75852000  1.0
  H  H26  1  0.92759000  0.68475000  0.10780000  1.0
  H  H27  1  0.07241000  0.31525000  0.89220000  1.0
  H  H28  1  0.09247000  0.67093000  0.26264000  1.0
  H  H29  1  0.90753000  0.32907000  0.73737000  1.0
  H  H30  1  0.88077000  0.69505000  0.33419000  1.0
  H  H31  1  0.11923000  0.30495000  0.66581000  1.0
  H  H32  1  0.07955000  0.40191000  0.42021000  1.0
  H  H33  1  0.92044000  0.59809000  0.57980000  1.0
  H  H34  1  0.86837000  0.42980000  0.48847000  1.0
  H  H35  1  0.13163000  0.57020000  0.51153000  1.0
  H  H36  1  0.19133000  0.89435000  0.97483000  1.0
  H  H37  1  0.80867000  0.10565000  0.02518000  1.0
  H  H38  1  0.37500000  0.91784000  0.95630000  1.0
  H  H39  1  0.62500000  0.08216000  0.04370000  1.0
  C  C40  1  0.49760000  0.85156000  0.20404000  1.0
  C  C41  1  0.50240000  0.14844000  0.79596000  1.0
  C  C42  1  0.37850000  0.75446000  0.33594000  1.0
  C  C43  1  0.62150000  0.24554000  0.66406000  1.0
  C  C44  1  0.39908000  0.76082000  0.46526000  1.0
  C  C45  1  0.60092000  0.23918000  0.53474000  1.0
  C  C46  1  0.31739000  0.87202000  0.50815000  1.0
  C  C47  1  0.68262000  0.12798000  0.49185000  1.0
  C  C48  1  0.34592000  0.88744000  0.61984000  1.0
  C  C49  1  0.65407000  0.11256000  0.38016000  1.0
  C  C50  1  0.45427000  0.78714000  0.69218000  1.0
  C  C51  1  0.54573000  0.21286000  0.30782000  1.0
  C  C52  1  0.53395000  0.67426000  0.65194000  1.0
  C  C53  1  0.46605000  0.32574000  0.34805000  1.0
  C  C54  1  0.50807000  0.66210000  0.53795000  1.0
  C  C55  1  0.49193000  0.33790000  0.46205000  1.0
  C  C56  1  0.26163000  0.01268000  0.65930000  1.0
  C  C57  1  0.73837000  0.98732000  0.34070000  1.0
  C  C58  1  0.08859000  0.98029000  0.75213000  1.0
  C  C59  1  0.91141000  0.01971000  0.24787000  1.0
  C  C60  1  0.06254000  0.34967000  0.17718000  1.0
  C  C61  1  0.93746000  0.65033000  0.82281000  1.0
  C  C62  1  0.21840000  0.53462000  0.04673000  1.0
  C  C63  1  0.78160000  0.46538000  0.95327000  1.0
  C  C64  1  0.29739000  0.41438000  0.02352000  1.0
  C  C65  1  0.70261000  0.58563000  0.97648000  1.0
  C  C66  1  0.94126000  0.58434000  0.19838000  1.0
  C  C67  1  0.05874000  0.41566000  0.80163000  1.0
  C  C68  1  0.97782000  0.61627000  0.30924000  1.0
  C  C69  1  0.02218000  0.38373000  0.69076000  1.0
  C  C70  1  0.98426000  0.48249000  0.44434000  1.0
  C  C71  1  0.01574000  0.51751000  0.55567000  1.0
  N  N72  1  0.19898000  0.29967000  0.10573000  1.0
  N  N73  1  0.80102000  0.70033000  0.89427000  1.0
  N  N74  1  0.06959000  0.49171000  0.14377000  1.0
  N  N75  1  0.93041000  0.50829000  0.85623000  1.0
  O  O76  1  0.46216000  0.98913000  0.15902000  1.0
  O  O77  1  0.53784000  0.01087000  0.84098000  1.0
  O  O78  1  0.62769000  0.79318000  0.14918000  1.0
  O  O79  1  0.37231000  0.20682000  0.85082000  1.0
  O  O80  1  0.06454000  0.90816000  0.88647000  1.0
  O  O81  1  0.93547000  0.09184000  0.11353000  1.0
  O  O82  1  0.97231000  0.02092000  0.69469000  1.0
  O  O83  1  0.02769000  0.97908000  0.30531000  1.0
  O  O84  1  0.26979000  0.88331000  0.02963000  1.0
  O  O85  1  0.73021000  0.11669000  0.97037000  1.0
