# generated using pymatgen
data_SrCu2H12C10N4O13
_symmetry_space_group_name_H-M   'P 1'
_cell_length_a   9.10318000
_cell_length_b   9.16294000
_cell_length_c   11.71000000
_cell_angle_alpha   92.12280000
_cell_angle_beta   109.99200000
_cell_angle_gamma   112.17700000
_symmetry_Int_Tables_number   1
_chemical_formula_structural   SrCu2H12C10N4O13
_chemical_formula_sum   'Sr2 Cu4 H24 C20 N8 O26'
_cell_volume   834.36480198
_cell_formula_units_Z   2
loop_
 _symmetry_equiv_pos_site_id
 _symmetry_equiv_pos_as_xyz
  1  'x, y, z'
loop_
 _atom_site_type_symbol
 _atom_site_label
 _atom_site_symmetry_multiplicity
 _atom_site_fract_x
 _atom_site_fract_y
 _atom_site_fract_z
 _atom_site_occupancy
  Sr  Sr0  1  0.76990000  0.50721000  0.06392000  1.0
  Sr  Sr1  1  0.23010000  0.49278000  0.93608000  1.0
  Cu  Cu2  1  0.43267000  0.32035000  0.68120000  1.0
  Cu  Cu3  1  0.56734000  0.67966000  0.31882000  1.0
  Cu  Cu4  1  0.31871000  0.19030000  0.33109000  1.0
  Cu  Cu5  1  0.68128000  0.80969000  0.66890000  1.0
  H  H6  1  0.95618000  0.49619000  0.57822000  1.0
  H  H7  1  0.04382000  0.50382000  0.42178000  1.0
  H  H8  1  0.20115000  0.88014000  0.56936000  1.0
  H  H9  1  0.79885000  0.11985000  0.43063000  1.0
  H  H10  1  0.94928000  0.83048000  0.94979000  1.0
  H  H11  1  0.05072000  0.16952000  0.05021000  1.0
  H  H12  1  0.00580000  0.88548000  0.09282000  1.0
  H  H13  1  0.99420000  0.11452000  0.90718000  1.0
  H  H14  1  0.72953000  0.14014000  0.04056000  1.0
  H  H15  1  0.27046000  0.85986000  0.95943000  1.0
  H  H16  1  0.83809000  0.22395000  0.96663000  1.0
  H  H17  1  0.16191000  0.77605000  0.03336000  1.0
  H  H18  1  0.62977000  0.77012000  0.04791000  1.0
  H  H19  1  0.37024000  0.22988000  0.95208000  1.0
  H  H20  1  0.55883000  0.71382000  0.90227000  1.0
  H  H21  1  0.44117000  0.28618000  0.09773000  1.0
  H  H22  1  0.36665000  0.03639000  0.77789000  1.0
  H  H23  1  0.63335000  0.96361000  0.22211000  1.0
  H  H24  1  0.56552000  0.14147000  0.84284000  1.0
  H  H25  1  0.43448000  0.85853000  0.15716000  1.0
  H  H26  1  0.22006000  0.86853000  0.32551000  1.0
  H  H27  1  0.77993000  0.13147000  0.67449000  1.0
  H  H28  1  0.40924000  0.94007000  0.32111000  1.0
  H  H29  1  0.59075000  0.05994000  0.67889000  1.0
  C  C30  1  0.67871000  0.36983000  0.44407000  1.0
  C  C31  1  0.32129000  0.63018000  0.55593000  1.0
  C  C32  1  0.81949000  0.44293000  0.55803000  1.0
  C  C33  1  0.18051000  0.55707000  0.44197000  1.0
  C  C34  1  0.74345000  0.43317000  0.64534000  1.0
  C  C35  1  0.25655000  0.56682000  0.35466000  1.0
  C  C36  1  0.64413000  0.33401000  0.31030000  1.0
  C  C37  1  0.35588000  0.66599000  0.68971000  1.0
  C  C38  1  0.79658000  0.47572000  0.78088000  1.0
  C  C39  1  0.20342000  0.52428000  0.21912000  1.0
  C  C40  1  0.99496000  0.86282000  0.63966000  1.0
  C  C41  1  0.00503000  0.13718000  0.36034000  1.0
  C  C42  1  0.06769000  0.84960000  0.55338000  1.0
  C  C43  1  0.93231000  0.15039000  0.44663000  1.0
  C  C44  1  0.92639000  0.78950000  0.43987000  1.0
  C  C45  1  0.07361000  0.21051000  0.56012000  1.0
  C  C46  1  0.05437000  0.91558000  0.77385000  1.0
  C  C47  1  0.94563000  0.08442000  0.22615000  1.0
  C  C48  1  0.88969000  0.73742000  0.30908000  1.0
  C  C49  1  0.11031000  0.26258000  0.69092000  1.0
  N  N50  1  0.57004000  0.35844000  0.58440000  1.0
  N  N51  1  0.42997000  0.64157000  0.41562000  1.0
  N  N52  1  0.53195000  0.32141000  0.46655000  1.0
  N  N53  1  0.46805000  0.67859000  0.53343000  1.0
  N  N54  1  0.78238000  0.77022000  0.46046000  1.0
  N  N55  1  0.21762000  0.22979000  0.53956000  1.0
  N  N56  1  0.82257000  0.81297000  0.57815000  1.0
  N  N57  1  0.17743000  0.18702000  0.42183000  1.0
  O  O58  1  0.66957000  0.45348000  0.81707000  1.0
  O  O59  1  0.33043000  0.54651000  0.18293000  1.0
  O  O60  1  0.94900000  0.52640000  0.85590000  1.0
  O  O61  1  0.05099000  0.47359000  0.14410000  1.0
  O  O62  1  0.48031000  0.25380000  0.24023000  1.0
  O  O63  1  0.51970000  0.74620000  0.75977000  1.0
  O  O64  1  0.76000000  0.37866000  0.26837000  1.0
  O  O65  1  0.23999000  0.62134000  0.73163000  1.0
  O  O66  1  0.72761000  0.68026000  0.23545000  1.0
  O  O67  1  0.27239000  0.31973000  0.76455000  1.0
  O  O68  1  0.00240000  0.74253000  0.26871000  1.0
  O  O69  1  0.99761000  0.25748000  0.73129000  1.0
  O  O70  1  0.93275000  0.90201000  0.81353000  1.0
  O  O71  1  0.06725000  0.09799000  0.18647000  1.0
  O  O72  1  0.21178000  0.97175000  0.84346000  1.0
  O  O73  1  0.78822000  0.02825000  0.15655000  1.0
  O  O74  1  0.97304000  0.79252000  0.02992000  1.0
  O  O75  1  0.02696000  0.20748000  0.97008000  1.0
  O  O76  1  0.73169000  0.21262000  0.97980000  1.0
  O  O77  1  0.26831000  0.78738000  0.02019000  1.0
  O  O78  1  0.56464000  0.67463000  0.98212000  1.0
  O  O79  1  0.43537000  0.32537000  0.01788000  1.0
  O  O80  1  0.46817000  0.10249000  0.75952000  1.0
  O  O81  1  0.53182000  0.89751000  0.24048000  1.0
  O  O82  1  0.33359000  0.96137000  0.35657000  1.0
  O  O83  1  0.66640000  0.03863000  0.64343000  1.0
