# generated using pymatgen
data_CuH12C12(NO3)2
_symmetry_space_group_name_H-M   'P 1'
_cell_length_a   10.10950000
_cell_length_b   11.58110000
_cell_length_c   12.46030000
_cell_angle_alpha   89.99990000
_cell_angle_beta   89.99980000
_cell_angle_gamma   83.63430000
_symmetry_Int_Tables_number   1
_chemical_formula_structural   CuH12C12(NO3)2
_chemical_formula_sum   'Cu4 H48 C48 N8 O24'
_cell_volume   1449.84656316
_cell_formula_units_Z   4
loop_
 _symmetry_equiv_pos_site_id
 _symmetry_equiv_pos_as_xyz
  1  'x, y, z'
loop_
 _atom_site_type_symbol
 _atom_site_label
 _atom_site_symmetry_multiplicity
 _atom_site_fract_x
 _atom_site_fract_y
 _atom_site_fract_z
 _atom_site_occupancy
  Cu  Cu0  1  0.94733000  0.08290000  0.06326000  1.0
  Cu  Cu1  1  0.55267000  0.41710000  0.56326000  1.0
  Cu  Cu2  1  0.05268000  0.91711000  0.93673000  1.0
  Cu  Cu3  1  0.44733000  0.58289000  0.43673000  1.0
  H  H4  1  0.63250000  0.63970000  0.81264000  1.0
  H  H5  1  0.86752000  0.86030000  0.31264000  1.0
  H  H6  1  0.36750000  0.36031000  0.18737000  1.0
  H  H7  1  0.13248000  0.13969000  0.68736000  1.0
  H  H8  1  0.79074000  0.65371000  0.87447000  1.0
  H  H9  1  0.70927000  0.84628000  0.37447000  1.0
  H  H10  1  0.20927000  0.34629000  0.12554000  1.0
  H  H11  1  0.29072000  0.15371000  0.62553000  1.0
  H  H12  1  0.71986000  0.76321000  0.78795000  1.0
  H  H13  1  0.78016000  0.73679000  0.28795000  1.0
  H  H14  1  0.28015000  0.23680000  0.21205000  1.0
  H  H15  1  0.21984000  0.26320000  0.71205000  1.0
  H  H16  1  0.42867000  0.95139000  0.20437000  1.0
  H  H17  1  0.07134000  0.54859000  0.70438000  1.0
  H  H18  1  0.57135000  0.04861000  0.79563000  1.0
  H  H19  1  0.92865000  0.45141000  0.29563000  1.0
  H  H20  1  0.54154000  0.04105000  0.14274000  1.0
  H  H21  1  0.95845000  0.45894000  0.64274000  1.0
  H  H22  1  0.45846000  0.95896000  0.85727000  1.0
  H  H23  1  0.04154000  0.54104000  0.35727000  1.0
  H  H24  1  0.60296000  0.93174000  0.23360000  1.0
  H  H25  1  0.89705000  0.56825000  0.73361000  1.0
  H  H26  1  0.39705000  0.06827000  0.76641000  1.0
  H  H27  1  0.10294000  0.43174000  0.26641000  1.0
  H  H28  1  0.73213000  0.52790000  0.03103000  1.0
  H  H29  1  0.76787000  0.97209000  0.53103000  1.0
  H  H30  1  0.26785000  0.47210000  0.96896000  1.0
  H  H31  1  0.23213000  0.02790000  0.46897000  1.0
  H  H32  1  0.69896000  0.58654000  0.16265000  1.0
  H  H33  1  0.80104000  0.91345000  0.66265000  1.0
  H  H34  1  0.30103000  0.41346000  0.83735000  1.0
  H  H35  1  0.19895000  0.08655000  0.33735000  1.0
  H  H36  1  0.57132000  0.52916000  0.09152000  1.0
  H  H37  1  0.92868000  0.97085000  0.59153000  1.0
  H  H38  1  0.42867000  0.47084000  0.90848000  1.0
  H  H39  1  0.07132000  0.02915000  0.40848000  1.0
  H  H40  1  0.82931000  0.06116000  0.28861000  1.0
  H  H41  1  0.67070000  0.43884000  0.78860000  1.0
  H  H42  1  0.17068000  0.93884000  0.71139000  1.0
  H  H43  1  0.32931000  0.56116000  0.21139000  1.0
  H  H44  1  0.66354000  0.11371000  0.33074000  1.0
  H  H45  1  0.83646000  0.38628000  0.83073000  1.0
  H  H46  1  0.33646000  0.88628000  0.66926000  1.0
  H  H47  1  0.16353000  0.61372000  0.16926000  1.0
  H  H48  1  0.80048000  0.16544000  0.39572000  1.0
  H  H49  1  0.69953000  0.33456000  0.89571000  1.0
  H  H50  1  0.19952000  0.83455000  0.60427000  1.0
  H  H51  1  0.30047000  0.66545000  0.10428000  1.0
  C  C52  1  0.78872000  0.89766000  0.01154000  1.0
  C  C53  1  0.71128000  0.60234000  0.51155000  1.0
  C  C54  1  0.21130000  0.10235000  0.98844000  1.0
  C  C55  1  0.28870000  0.39766000  0.48844000  1.0
  C  C56  1  0.66317000  0.84443000  0.01201000  1.0
  C  C57  1  0.83684000  0.65557000  0.51201000  1.0
  C  C58  1  0.33685000  0.15558000  0.98801000  1.0
  C  C59  1  0.16315000  0.34442000  0.48800000  1.0
  C  C60  1  0.62794000  0.76156000  0.94143000  1.0
  C  C61  1  0.87206000  0.73843000  0.44144000  1.0
  C  C62  1  0.37207000  0.23844000  0.05858000  1.0
  C  C63  1  0.12793000  0.26156000  0.55858000  1.0
  C  C64  1  0.69546000  0.70033000  0.84889000  1.0
  C  C65  1  0.80456000  0.79966000  0.34891000  1.0
  C  C66  1  0.30455000  0.29968000  0.15110000  1.0
  C  C67  1  0.19544000  0.20033000  0.65110000  1.0
  C  C68  1  0.54927000  0.86921000  0.08020000  1.0
  C  C69  1  0.95074000  0.63078000  0.58022000  1.0
  C  C70  1  0.45075000  0.13079000  0.91980000  1.0
  C  C71  1  0.04925000  0.36922000  0.41980000  1.0
  C  C72  1  0.52855000  0.95322000  0.17064000  1.0
  C  C73  1  0.97146000  0.54676000  0.67065000  1.0
  C  C74  1  0.47147000  0.04678000  0.82936000  1.0
  C  C75  1  0.02853000  0.45323000  0.32936000  1.0
  C  C76  1  0.60475000  0.39806000  0.33394000  1.0
  C  C77  1  0.89525000  0.10193000  0.83394000  1.0
  C  C78  1  0.39522000  0.60194000  0.66605000  1.0
  C  C79  1  0.10478000  0.89807000  0.16605000  1.0
  C  C80  1  0.68762000  0.34621000  0.24559000  1.0
  C  C81  1  0.81238000  0.15379000  0.74559000  1.0
  C  C82  1  0.31237000  0.65379000  0.75440000  1.0
  C  C83  1  0.18763000  0.84621000  0.25441000  1.0
  C  C84  1  0.71982000  0.40163000  0.15295000  1.0
  C  C85  1  0.78018000  0.09837000  0.65296000  1.0
  C  C86  1  0.28017000  0.59837000  0.84704000  1.0
  C  C87  1  0.21982000  0.90164000  0.34704000  1.0
  C  C88  1  0.67894000  0.51759000  0.10641000  1.0
  C  C89  1  0.82106000  0.98241000  0.60641000  1.0
  C  C90  1  0.32105000  0.48241000  0.89359000  1.0
  C  C91  1  0.17894000  0.01760000  0.39359000  1.0
  C  C92  1  0.76278000  0.23411000  0.24076000  1.0
  C  C93  1  0.73722000  0.26588000  0.74076000  1.0
  C  C94  1  0.23722000  0.76588000  0.75923000  1.0
  C  C95  1  0.26279000  0.73412000  0.25923000  1.0
  C  C96  1  0.76492000  0.13660000  0.31821000  1.0
  C  C97  1  0.73508000  0.36340000  0.81820000  1.0
  C  C98  1  0.23507000  0.86339000  0.68179000  1.0
  C  C99  1  0.26492000  0.63661000  0.18180000  1.0
  N  N100  1  0.45393000  0.80556000  0.05409000  1.0
  N  N101  1  0.04609000  0.69443000  0.55410000  1.0
  N  N102  1  0.54609000  0.19446000  0.94591000  1.0
  N  N103  1  0.95391000  0.30555000  0.44590000  1.0
  N  N104  1  0.83492000  0.22430000  0.15243000  1.0
  N  N105  1  0.66507000  0.27570000  0.65243000  1.0
  N  N106  1  0.16507000  0.77570000  0.84757000  1.0
  N  N107  1  0.33492000  0.72430000  0.34757000  1.0
  O  O108  1  0.79338000  0.98780000  0.06963000  1.0
  O  O109  1  0.70662000  0.51220000  0.56963000  1.0
  O  O110  1  0.20664000  0.01222000  0.93036000  1.0
  O  O111  1  0.29336000  0.48779000  0.43036000  1.0
  O  O112  1  0.88104000  0.84895000  0.95136000  1.0
  O  O113  1  0.61896000  0.65105000  0.45136000  1.0
  O  O114  1  0.11897000  0.15106000  0.04866000  1.0
  O  O115  1  0.38103000  0.34895000  0.54865000  1.0
  O  O116  1  0.61630000  0.34612000  0.42394000  1.0
  O  O117  1  0.88370000  0.15387000  0.92394000  1.0
  O  O118  1  0.38366000  0.65387000  0.57606000  1.0
  O  O119  1  0.11634000  0.84614000  0.07606000  1.0
  O  O120  1  0.53200000  0.49309000  0.31277000  1.0
  O  O121  1  0.96800000  0.00691000  0.81277000  1.0
  O  O122  1  0.46800000  0.50691000  0.68722000  1.0
  O  O123  1  0.03200000  0.99310000  0.18722000  1.0
  O  O124  1  0.50360000  0.73693000  0.96493000  1.0
  O  O125  1  0.99641000  0.76306000  0.46494000  1.0
  O  O126  1  0.49640000  0.26309000  0.03506000  1.0
  O  O127  1  0.00359000  0.23692000  0.53506000  1.0
  O  O128  1  0.80912000  0.33073000  0.09646000  1.0
  O  O129  1  0.69087000  0.16926000  0.59646000  1.0
  O  O130  1  0.19088000  0.66926000  0.90354000  1.0
  O  O131  1  0.30912000  0.83073000  0.40354000  1.0
