# generated using pymatgen
data_CuH26C28(NO)6
_symmetry_space_group_name_H-M   'P 1'
_cell_length_a   7.77212000
_cell_length_b   9.52680000
_cell_length_c   10.19530000
_cell_angle_alpha   71.34350000
_cell_angle_beta   69.28530000
_cell_angle_gamma   72.85490000
_symmetry_Int_Tables_number   1
_chemical_formula_structural   CuH26C28(NO)6
_chemical_formula_sum   'Cu1 H26 C28 N6 O6'
_cell_volume   654.78750064
_cell_formula_units_Z   1
loop_
 _symmetry_equiv_pos_site_id
 _symmetry_equiv_pos_as_xyz
  1  'x, y, z'
loop_
 _atom_site_type_symbol
 _atom_site_label
 _atom_site_symmetry_multiplicity
 _atom_site_fract_x
 _atom_site_fract_y
 _atom_site_fract_z
 _atom_site_occupancy
  Cu  Cu0  1  0.00000000  0.50000000  0.50000000  1.0
  H  H1  1  0.45340000  0.27446000  0.26955000  1.0
  H  H2  1  0.54660000  0.72554000  0.73045000  1.0
  H  H3  1  0.71476000  0.24001000  0.80777000  1.0
  H  H4  1  0.28524000  0.75999000  0.19223000  1.0
  H  H5  1  0.25644000  0.24642000  0.20044000  1.0
  H  H6  1  0.74356000  0.75359000  0.79955000  1.0
  H  H7  1  0.85185000  0.47829000  0.06742000  1.0
  H  H8  1  0.14815000  0.52171000  0.93259000  1.0
  H  H9  1  0.00328000  0.55783000  0.20200000  1.0
  H  H10  1  0.99671000  0.44218000  0.79800000  1.0
  H  H11  1  0.67141000  0.35390000  0.59687000  1.0
  H  H12  1  0.32859000  0.64610000  0.40314000  1.0
  H  H13  1  0.50014000  0.27476000  0.47973000  1.0
  H  H14  1  0.49986000  0.72524000  0.52027000  1.0
  H  H15  1  0.70038000  0.02012000  0.47439000  1.0
  H  H16  1  0.29963000  0.97988000  0.52561000  1.0
  H  H17  1  0.83408000  0.00065000  0.29600000  1.0
  H  H18  1  0.16592000  0.99935000  0.70400000  1.0
  H  H19  1  0.13225000  0.96392000  0.35631000  1.0
  H  H20  1  0.86776000  0.03608000  0.64369000  1.0
  H  H21  1  0.98186000  0.14032000  0.37502000  1.0
  H  H22  1  0.01815000  0.85968000  0.62498000  1.0
  H  H23  1  0.22710000  0.11863000  0.84152000  1.0
  H  H24  1  0.77289000  0.88137000  0.15848000  1.0
  H  H25  1  0.07850000  0.16010000  0.08968000  1.0
  H  H26  1  0.92150000  0.83991000  0.91032000  1.0
  C  C27  1  0.57267000  0.22340000  0.87175000  1.0
  C  C28  1  0.42732000  0.77660000  0.12825000  1.0
  C  C29  1  0.50030000  0.25259000  0.00997000  1.0
  C  C30  1  0.49970000  0.74742000  0.99003000  1.0
  C  C31  1  0.32011000  0.22711000  0.09200000  1.0
  C  C32  1  0.67989000  0.77290000  0.90800000  1.0
  C  C33  1  0.62347000  0.31109000  0.05534000  1.0
  C  C34  1  0.37652000  0.68891000  0.94466000  1.0
  C  C35  1  0.66483000  0.36616000  0.26174000  1.0
  C  C36  1  0.33517000  0.63384000  0.73825000  1.0
  C  C37  1  0.80818000  0.44873000  0.18431000  1.0
  C  C38  1  0.19182000  0.55127000  0.81569000  1.0
  C  C39  1  0.89258000  0.49324000  0.25937000  1.0
  C  C40  1  0.10742000  0.50675000  0.74063000  1.0
  C  C41  1  0.70685000  0.38106000  0.47977000  1.0
  C  C42  1  0.29316000  0.61894000  0.52023000  1.0
  C  C43  1  0.61278000  0.33501000  0.41360000  1.0
  C  C44  1  0.38722000  0.66499000  0.58640000  1.0
  C  C45  1  0.85586000  0.79610000  0.46254000  1.0
  C  C46  1  0.14414000  0.20390000  0.53746000  1.0
  C  C47  1  0.83518000  0.96646000  0.40954000  1.0
  C  C48  1  0.16483000  0.03354000  0.59046000  1.0
  C  C49  1  0.99758000  0.01763000  0.42196000  1.0
  C  C50  1  0.00242000  0.98237000  0.57804000  1.0
  C  C51  1  0.30425000  0.15421000  0.89232000  1.0
  C  C52  1  0.69575000  0.84579000  0.10768000  1.0
  C  C53  1  0.22086000  0.17752000  0.03134000  1.0
  C  C54  1  0.77914000  0.82248000  0.96866000  1.0
  N  N55  1  0.57127000  0.31435000  0.19845000  1.0
  N  N56  1  0.42873000  0.68565000  0.80155000  1.0
  N  N57  1  0.84544000  0.45861000  0.40481000  1.0
  N  N58  1  0.15456000  0.54139000  0.59519000  1.0
  N  N59  1  0.47840000  0.17522000  0.81291000  1.0
  N  N60  1  0.52160000  0.82478000  0.18710000  1.0
  O  O61  1  0.76699000  0.35245000  0.96621000  1.0
  O  O62  1  0.23302000  0.64755000  0.03379000  1.0
  O  O63  1  0.75664000  0.73717000  0.58521000  1.0
  O  O64  1  0.24337000  0.26283000  0.41479000  1.0
  O  O65  1  0.98411000  0.71617000  0.37936000  1.0
  O  O66  1  0.01590000  0.28383000  0.62063000  1.0
