# generated using pymatgen
data_Cu2H11C24(NO5)2
_symmetry_space_group_name_H-M   'P 1'
_cell_length_a   18.87740000
_cell_length_b   18.87740000
_cell_length_c   34.98240000
_cell_angle_alpha   90.00000000
_cell_angle_beta   90.00000000
_cell_angle_gamma   89.99990000
_symmetry_Int_Tables_number   1
_chemical_formula_structural   Cu2H11C24(NO5)2
_chemical_formula_sum   'Cu16 H88 C192 N16 O80'
_cell_volume   12466.19620692
_cell_formula_units_Z   8
loop_
 _symmetry_equiv_pos_site_id
 _symmetry_equiv_pos_as_xyz
  1  'x, y, z'
loop_
 _atom_site_type_symbol
 _atom_site_label
 _atom_site_symmetry_multiplicity
 _atom_site_fract_x
 _atom_site_fract_y
 _atom_site_fract_z
 _atom_site_occupancy
  Cu  Cu0  1  0.70677000  0.73271000  0.22383000  1.0
  Cu  Cu1  1  0.29323000  0.26730000  0.22383000  1.0
  Cu  Cu2  1  0.20677000  0.76730000  0.27617000  1.0
  Cu  Cu3  1  0.26730000  0.70677000  0.22383000  1.0
  Cu  Cu4  1  0.23270000  0.20677000  0.27617000  1.0
  Cu  Cu5  1  0.73270000  0.29323000  0.22383000  1.0
  Cu  Cu6  1  0.76730000  0.79323000  0.27617000  1.0
  Cu  Cu7  1  0.79323000  0.23270000  0.27617000  1.0
  Cu  Cu8  1  0.29323000  0.26730000  0.77617000  1.0
  Cu  Cu9  1  0.70677000  0.73270000  0.77617000  1.0
  Cu  Cu10  1  0.79323000  0.23270000  0.72383000  1.0
  Cu  Cu11  1  0.73270000  0.29323000  0.77617000  1.0
  Cu  Cu12  1  0.76730000  0.79323000  0.72383000  1.0
  Cu  Cu13  1  0.26730000  0.70677000  0.77617000  1.0
  Cu  Cu14  1  0.23270000  0.20677000  0.72383000  1.0
  Cu  Cu15  1  0.20677000  0.76730000  0.72383000  1.0
  H  H16  1  0.54851000  0.01503000  0.06166000  1.0
  H  H17  1  0.45149000  0.98497000  0.06166000  1.0
  H  H18  1  0.04852000  0.48496000  0.43834000  1.0
  H  H19  1  0.98496000  0.54851000  0.06166000  1.0
  H  H20  1  0.51504000  0.04851000  0.43834000  1.0
  H  H21  1  0.01504000  0.45148000  0.06166000  1.0
  H  H22  1  0.48497000  0.95149000  0.43834000  1.0
  H  H23  1  0.95149000  0.51503000  0.43834000  1.0
  H  H24  1  0.45149000  0.98497000  0.93834000  1.0
  H  H25  1  0.54851000  0.01503000  0.93834000  1.0
  H  H26  1  0.95149000  0.51504000  0.56166000  1.0
  H  H27  1  0.01503000  0.45149000  0.93834000  1.0
  H  H28  1  0.48496000  0.95149000  0.56166000  1.0
  H  H29  1  0.98497000  0.54851000  0.93834000  1.0
  H  H30  1  0.51503000  0.04851000  0.56166000  1.0
  H  H31  1  0.04852000  0.48496000  0.56166000  1.0
  H  H32  1  0.73251000  0.08436000  0.00000000  1.0
  H  H33  1  0.26749000  0.91564000  0.00000000  1.0
  H  H34  1  0.23251000  0.41564000  0.50000000  1.0
  H  H35  1  0.91564000  0.73251000  0.00000000  1.0
  H  H36  1  0.58436000  0.23251000  0.50000000  1.0
  H  H37  1  0.08436000  0.26749000  0.00000000  1.0
  H  H38  1  0.41564000  0.76749000  0.50000000  1.0
  H  H39  1  0.76749000  0.58436000  0.50000000  1.0
  H  H40  1  0.64391000  0.96849000  0.09147000  1.0
  H  H41  1  0.35609000  0.03151000  0.09147000  1.0
  H  H42  1  0.14391000  0.53151000  0.40853000  1.0
  H  H43  1  0.03151000  0.64391000  0.09147000  1.0
  H  H44  1  0.46849000  0.14391000  0.40853000  1.0
  H  H45  1  0.96849000  0.35609000  0.09147000  1.0
  H  H46  1  0.53151000  0.85609000  0.40853000  1.0
  H  H47  1  0.85609000  0.46849000  0.40853000  1.0
  H  H48  1  0.35609000  0.03151000  0.90853000  1.0
  H  H49  1  0.64391000  0.96849000  0.90853000  1.0
  H  H50  1  0.85609000  0.46849000  0.59147000  1.0
  H  H51  1  0.96849000  0.35609000  0.90853000  1.0
  H  H52  1  0.53151000  0.85609000  0.59147000  1.0
  H  H53  1  0.03151000  0.64391000  0.90853000  1.0
  H  H54  1  0.46849000  0.14391000  0.59147000  1.0
  H  H55  1  0.14391000  0.53151000  0.59147000  1.0
  H  H56  1  0.68311000  0.90158000  0.14393000  1.0
  H  H57  1  0.31689000  0.09842000  0.14393000  1.0
  H  H58  1  0.18311000  0.59842000  0.35607000  1.0
  H  H59  1  0.09842000  0.68311000  0.14393000  1.0
  H  H60  1  0.40158000  0.18311000  0.35607000  1.0
  H  H61  1  0.90158000  0.31689000  0.14393000  1.0
  H  H62  1  0.59842000  0.81689000  0.35607000  1.0
  H  H63  1  0.81689000  0.40158000  0.35607000  1.0
  H  H64  1  0.31689000  0.09842000  0.85607000  1.0
  H  H65  1  0.68311000  0.90158000  0.85607000  1.0
  H  H66  1  0.81689000  0.40158000  0.64393000  1.0
  H  H67  1  0.90158000  0.31689000  0.85607000  1.0
  H  H68  1  0.59842000  0.81689000  0.64393000  1.0
  H  H69  1  0.09842000  0.68311000  0.85607000  1.0
  H  H70  1  0.40158000  0.18311000  0.64393000  1.0
  H  H71  1  0.18311000  0.59842000  0.64393000  1.0
  H  H72  1  0.75305000  0.01346000  0.24422000  1.0
  H  H73  1  0.24695000  0.98654000  0.24422000  1.0
  H  H74  1  0.25305000  0.48654000  0.25578000  1.0
  H  H75  1  0.98654000  0.75305000  0.24422000  1.0
  H  H76  1  0.51346000  0.25305000  0.25578000  1.0
  H  H77  1  0.01346000  0.24695000  0.24422000  1.0
  H  H78  1  0.48654000  0.74695000  0.25578000  1.0
  H  H79  1  0.74695000  0.51346000  0.25578000  1.0
  H  H80  1  0.24695000  0.98654000  0.75578000  1.0
  H  H81  1  0.75305000  0.01346000  0.75578000  1.0
  H  H82  1  0.74695000  0.51346000  0.74422000  1.0
  H  H83  1  0.01346000  0.24695000  0.75578000  1.0
  H  H84  1  0.48654000  0.74695000  0.74422000  1.0
  H  H85  1  0.98653000  0.75305000  0.75578000  1.0
  H  H86  1  0.51346000  0.25305000  0.74422000  1.0
  H  H87  1  0.25305000  0.48654000  0.74422000  1.0
  H  H88  1  0.70286000  0.12977000  0.14165000  1.0
  H  H89  1  0.29714000  0.87023000  0.14165000  1.0
  H  H90  1  0.20286000  0.37023000  0.35835000  1.0
  H  H91  1  0.87023000  0.70286000  0.14165000  1.0
  H  H92  1  0.62977000  0.20286000  0.35835000  1.0
  H  H93  1  0.12977000  0.29714000  0.14165000  1.0
  H  H94  1  0.37023000  0.79714000  0.35835000  1.0
  H  H95  1  0.79714000  0.62977000  0.35835000  1.0
  H  H96  1  0.29714000  0.87023000  0.85835000  1.0
  H  H97  1  0.70286000  0.12977000  0.85835000  1.0
  H  H98  1  0.79714000  0.62977000  0.64165000  1.0
  H  H99  1  0.12977000  0.29714000  0.85835000  1.0
  H  H100  1  0.37023000  0.79714000  0.64165000  1.0
  H  H101  1  0.87023000  0.70286000  0.85835000  1.0
  H  H102  1  0.62977000  0.20286000  0.64165000  1.0
  H  H103  1  0.20286000  0.37023000  0.64165000  1.0
  C  C104  1  0.53765000  0.01135000  0.00000000  1.0
  C  C105  1  0.46235000  0.98865000  0.00000000  1.0
  C  C106  1  0.03765000  0.48865000  0.50000000  1.0
  C  C107  1  0.98865000  0.53765000  0.00000000  1.0
  C  C108  1  0.51135000  0.03765000  0.50000000  1.0
  C  C109  1  0.01135000  0.46235000  0.00000000  1.0
  C  C110  1  0.48865000  0.96235000  0.50000000  1.0
  C  C111  1  0.96235000  0.51135000  0.50000000  1.0
  C  C112  1  0.57475000  0.02289000  0.03425000  1.0
  C  C113  1  0.42525000  0.97711000  0.03425000  1.0
  C  C114  1  0.07475000  0.47711000  0.46575000  1.0
  C  C115  1  0.97711000  0.57475000  0.03425000  1.0
  C  C116  1  0.52289000  0.07475000  0.46575000  1.0
  C  C117  1  0.02289000  0.42525000  0.03425000  1.0
  C  C118  1  0.47711000  0.92525000  0.46575000  1.0
  C  C119  1  0.92525000  0.52289000  0.46575000  1.0
  C  C120  1  0.42525000  0.97711000  0.96575000  1.0
  C  C121  1  0.57475000  0.02289000  0.96575000  1.0
  C  C122  1  0.92525000  0.52289000  0.53425000  1.0
  C  C123  1  0.02289000  0.42525000  0.96575000  1.0
  C  C124  1  0.47711000  0.92525000  0.53425000  1.0
  C  C125  1  0.97711000  0.57475000  0.96575000  1.0
  C  C126  1  0.52289000  0.07475000  0.53425000  1.0
  C  C127  1  0.07475000  0.47711000  0.53425000  1.0
  C  C128  1  0.64458000  0.04773000  0.03441000  1.0
  C  C129  1  0.35542000  0.95227000  0.03441000  1.0
  C  C130  1  0.14458000  0.45227000  0.46559000  1.0
  C  C131  1  0.95227000  0.64458000  0.03441000  1.0
  C  C132  1  0.54773000  0.14458000  0.46559000  1.0
  C  C133  1  0.04773000  0.35542000  0.03441000  1.0
  C  C134  1  0.45227000  0.85542000  0.46559000  1.0
  C  C135  1  0.85542000  0.54773000  0.46559000  1.0
  C  C136  1  0.35542000  0.95227000  0.96559000  1.0
  C  C137  1  0.64458000  0.04773000  0.96559000  1.0
  C  C138  1  0.85542000  0.54773000  0.53441000  1.0
  C  C139  1  0.04773000  0.35542000  0.96559000  1.0
  C  C140  1  0.45227000  0.85542000  0.53441000  1.0
  C  C141  1  0.95227000  0.64458000  0.96559000  1.0
  C  C142  1  0.54773000  0.14458000  0.53441000  1.0
  C  C143  1  0.14458000  0.45227000  0.53441000  1.0
  C  C144  1  0.67912000  0.06238000  0.00000000  1.0
  C  C145  1  0.32088000  0.93762000  0.00000000  1.0
  C  C146  1  0.17912000  0.43762000  0.50000000  1.0
  C  C147  1  0.93762000  0.67912000  0.00000000  1.0
  C  C148  1  0.56238000  0.17912000  0.50000000  1.0
  C  C149  1  0.06238000  0.32088000  0.00000000  1.0
  C  C150  1  0.43762000  0.82088000  0.50000000  1.0
  C  C151  1  0.82088000  0.56238000  0.50000000  1.0
  C  C152  1  0.68251000  0.06256000  0.07123000  1.0
  C  C153  1  0.31749000  0.93744000  0.07123000  1.0
  C  C154  1  0.18251000  0.43744000  0.42877000  1.0
  C  C155  1  0.93744000  0.68251000  0.07123000  1.0
  C  C156  1  0.56256000  0.18252000  0.42877000  1.0
  C  C157  1  0.06256000  0.31749000  0.07123000  1.0
  C  C158  1  0.43744000  0.81748000  0.42877000  1.0
  C  C159  1  0.81749000  0.56256000  0.42876000  1.0
  C  C160  1  0.31748000  0.93744000  0.92877000  1.0
  C  C161  1  0.68252000  0.06256000  0.92877000  1.0
  C  C162  1  0.81749000  0.56256000  0.57123000  1.0
  C  C163  1  0.06256000  0.31749000  0.92877000  1.0
  C  C164  1  0.43744000  0.81748000  0.57123000  1.0
  C  C165  1  0.93744000  0.68251000  0.92876000  1.0
  C  C166  1  0.56256000  0.18251000  0.57123000  1.0
  C  C167  1  0.18251000  0.43744000  0.57123000  1.0
  C  C168  1  0.69127000  0.01587000  0.13793000  1.0
  C  C169  1  0.30873000  0.98413000  0.13793000  1.0
  C  C170  1  0.19127000  0.48413000  0.36207000  1.0
  C  C171  1  0.98412000  0.69127000  0.13793000  1.0
  C  C172  1  0.51587000  0.19127000  0.36207000  1.0
  C  C173  1  0.01587000  0.30873000  0.13793000  1.0
  C  C174  1  0.48413000  0.80873000  0.36207000  1.0
  C  C175  1  0.80873000  0.51587000  0.36207000  1.0
  C  C176  1  0.30873000  0.98413000  0.86207000  1.0
  C  C177  1  0.69127000  0.01587000  0.86207000  1.0
  C  C178  1  0.80873000  0.51587000  0.63793000  1.0
  C  C179  1  0.01587000  0.30873000  0.86207000  1.0
  C  C180  1  0.48412000  0.80873000  0.63793000  1.0
  C  C181  1  0.98413000  0.69127000  0.86207000  1.0
  C  C182  1  0.51587000  0.19127000  0.63793000  1.0
  C  C183  1  0.19127000  0.48413000  0.63793000  1.0
  C  C184  1  0.69590000  0.95170000  0.15785000  1.0
  C  C185  1  0.30410000  0.04830000  0.15785000  1.0
  C  C186  1  0.19590000  0.54830000  0.34215000  1.0
  C  C187  1  0.04830000  0.69590000  0.15785000  1.0
  C  C188  1  0.45170000  0.19590000  0.34215000  1.0
  C  C189  1  0.95170000  0.30410000  0.15785000  1.0
  C  C190  1  0.54830000  0.80410000  0.34215000  1.0
  C  C191  1  0.80410000  0.45170000  0.34215000  1.0
  C  C192  1  0.30410000  0.04830000  0.84215000  1.0
  C  C193  1  0.69590000  0.95170000  0.84215000  1.0
  C  C194  1  0.80410000  0.45170000  0.65785000  1.0
  C  C195  1  0.95170000  0.30410000  0.84215000  1.0
  C  C196  1  0.54830000  0.80410000  0.65785000  1.0
  C  C197  1  0.04830000  0.69590000  0.84215000  1.0
  C  C198  1  0.45170000  0.19590000  0.65785000  1.0
  C  C199  1  0.19590000  0.54830000  0.65785000  1.0
  C  C200  1  0.71788000  0.95087000  0.19600000  1.0
  C  C201  1  0.28212000  0.04913000  0.19600000  1.0
  C  C202  1  0.21789000  0.54913000  0.30400000  1.0
  C  C203  1  0.04913000  0.71789000  0.19600000  1.0
  C  C204  1  0.45087000  0.21788000  0.30400000  1.0
  C  C205  1  0.95087000  0.28212000  0.19601000  1.0
  C  C206  1  0.54913000  0.78212000  0.30399000  1.0
  C  C207  1  0.78211000  0.45087000  0.30399000  1.0
  C  C208  1  0.28212000  0.04913000  0.80399000  1.0
  C  C209  1  0.71788000  0.95087000  0.80400000  1.0
  C  C210  1  0.78212000  0.45087000  0.69600000  1.0
  C  C211  1  0.95087000  0.28211000  0.80400000  1.0
  C  C212  1  0.54913000  0.78212000  0.69601000  1.0
  C  C213  1  0.04913000  0.71788000  0.80400000  1.0
  C  C214  1  0.45087000  0.21789000  0.69600000  1.0
  C  C215  1  0.21789000  0.54913000  0.69601000  1.0
  C  C216  1  0.73542000  0.01406000  0.21462000  1.0
  C  C217  1  0.26458000  0.98594000  0.21462000  1.0
  C  C218  1  0.23542000  0.48594000  0.28538000  1.0
  C  C219  1  0.98594000  0.73542000  0.21462000  1.0
  C  C220  1  0.51406000  0.23542000  0.28538000  1.0
  C  C221  1  0.01406000  0.26458000  0.21462000  1.0
  C  C222  1  0.48594000  0.76459000  0.28538000  1.0
  C  C223  1  0.76458000  0.51406000  0.28538000  1.0
  C  C224  1  0.26458000  0.98594000  0.78538000  1.0
  C  C225  1  0.73542000  0.01406000  0.78538000  1.0
  C  C226  1  0.76458000  0.51406000  0.71462000  1.0
  C  C227  1  0.01406000  0.26458000  0.78538000  1.0
  C  C228  1  0.48594000  0.76458000  0.71462000  1.0
  C  C229  1  0.98594000  0.73542000  0.78538000  1.0
  C  C230  1  0.51406000  0.23542000  0.71462000  1.0
  C  C231  1  0.23542000  0.48594000  0.71462000  1.0
  C  C232  1  0.72899000  0.07808000  0.19483000  1.0
  C  C233  1  0.27101000  0.92192000  0.19483000  1.0
  C  C234  1  0.22899000  0.42192000  0.30516000  1.0
  C  C235  1  0.92192000  0.72899000  0.19483000  1.0
  C  C236  1  0.57808000  0.22898000  0.30517000  1.0
  C  C237  1  0.07808000  0.27101000  0.19483000  1.0
  C  C238  1  0.42192000  0.77101000  0.30517000  1.0
  C  C239  1  0.77101000  0.57808000  0.30516000  1.0
  C  C240  1  0.27101000  0.92192000  0.80517000  1.0
  C  C241  1  0.72899000  0.07808000  0.80517000  1.0
  C  C242  1  0.77101000  0.57808000  0.69483000  1.0
  C  C243  1  0.07808000  0.27101000  0.80517000  1.0
  C  C244  1  0.42192000  0.77101000  0.69483000  1.0
  C  C245  1  0.92192000  0.72899000  0.80517000  1.0
  C  C246  1  0.57808000  0.22899000  0.69483000  1.0
  C  C247  1  0.22899000  0.42192000  0.69483000  1.0
  C  C248  1  0.70726000  0.07953000  0.15658000  1.0
  C  C249  1  0.29274000  0.92047000  0.15658000  1.0
  C  C250  1  0.20726000  0.42047000  0.34342000  1.0
  C  C251  1  0.92047000  0.70726000  0.15658000  1.0
  C  C252  1  0.57954000  0.20726000  0.34342000  1.0
  C  C253  1  0.07954000  0.29274000  0.15658000  1.0
  C  C254  1  0.42046000  0.79274000  0.34342000  1.0
  C  C255  1  0.79274000  0.57954000  0.34342000  1.0
  C  C256  1  0.29274000  0.92046000  0.84342000  1.0
  C  C257  1  0.70726000  0.07954000  0.84342000  1.0
  C  C258  1  0.79274000  0.57954000  0.65658000  1.0
  C  C259  1  0.07954000  0.29274000  0.84342000  1.0
  C  C260  1  0.42046000  0.79274000  0.65658000  1.0
  C  C261  1  0.92046000  0.70726000  0.84342000  1.0
  C  C262  1  0.57954000  0.20726000  0.65658000  1.0
  C  C263  1  0.20726000  0.42047000  0.65658000  1.0
  C  C264  1  0.72334000  0.88182000  0.21657000  1.0
  C  C265  1  0.27666000  0.11818000  0.21657000  1.0
  C  C266  1  0.22334000  0.61819000  0.28344000  1.0
  C  C267  1  0.11818000  0.72334000  0.21656000  1.0
  C  C268  1  0.38181000  0.22334000  0.28344000  1.0
  C  C269  1  0.88181000  0.27666000  0.21656000  1.0
  C  C270  1  0.61819000  0.77666000  0.28344000  1.0
  C  C271  1  0.77666000  0.38182000  0.28344000  1.0
  C  C272  1  0.27666000  0.11818000  0.78343000  1.0
  C  C273  1  0.72334000  0.88182000  0.78344000  1.0
  C  C274  1  0.77666000  0.38182000  0.71656000  1.0
  C  C275  1  0.88182000  0.27666000  0.78344000  1.0
  C  C276  1  0.61818000  0.77666000  0.71656000  1.0
  C  C277  1  0.11818000  0.72334000  0.78344000  1.0
  C  C278  1  0.38181000  0.22334000  0.71656000  1.0
  C  C279  1  0.22334000  0.61818000  0.71656000  1.0
  C  C280  1  0.74317000  0.14653000  0.21487000  1.0
  C  C281  1  0.25683000  0.85347000  0.21487000  1.0
  C  C282  1  0.24317000  0.35347000  0.28513000  1.0
  C  C283  1  0.85347000  0.74317000  0.21488000  1.0
  C  C284  1  0.64653000  0.24317000  0.28513000  1.0
  C  C285  1  0.14653000  0.25683000  0.21488000  1.0
  C  C286  1  0.35347000  0.75683000  0.28513000  1.0
  C  C287  1  0.75683000  0.64653000  0.28513000  1.0
  C  C288  1  0.25683000  0.85347000  0.78513000  1.0
  C  C289  1  0.74317000  0.14653000  0.78513000  1.0
  C  C290  1  0.75683000  0.64653000  0.71487000  1.0
  C  C291  1  0.14653000  0.25683000  0.78512000  1.0
  C  C292  1  0.35347000  0.75683000  0.71487000  1.0
  C  C293  1  0.85347000  0.74317000  0.78513000  1.0
  C  C294  1  0.64653000  0.24317000  0.71487000  1.0
  C  C295  1  0.24317000  0.35347000  0.71487000  1.0
  N  N296  1  0.66755000  0.01424000  0.09985000  1.0
  N  N297  1  0.33245000  0.98576000  0.09985000  1.0
  N  N298  1  0.16755000  0.48576000  0.40015000  1.0
  N  N299  1  0.98576000  0.66755000  0.09985000  1.0
  N  N300  1  0.51424000  0.16755000  0.40015000  1.0
  N  N301  1  0.01424000  0.33245000  0.09985000  1.0
  N  N302  1  0.48576000  0.83245000  0.40015000  1.0
  N  N303  1  0.83245000  0.51424000  0.40015000  1.0
  N  N304  1  0.33245000  0.98576000  0.90015000  1.0
  N  N305  1  0.66755000  0.01424000  0.90015000  1.0
  N  N306  1  0.83245000  0.51424000  0.59985000  1.0
  N  N307  1  0.01424000  0.33245000  0.90015000  1.0
  N  N308  1  0.48576000  0.83245000  0.59985000  1.0
  N  N309  1  0.98576000  0.66755000  0.90015000  1.0
  N  N310  1  0.51424000  0.16755000  0.59985000  1.0
  N  N311  1  0.16755000  0.48576000  0.59985000  1.0
  O  O312  1  0.72251000  0.11357000  0.07509000  1.0
  O  O313  1  0.27749000  0.88644000  0.07509000  1.0
  O  O314  1  0.22251000  0.38643000  0.42491000  1.0
  O  O315  1  0.88643000  0.72251000  0.07509000  1.0
  O  O316  1  0.61357000  0.22251000  0.42491000  1.0
  O  O317  1  0.11357000  0.27749000  0.07509000  1.0
  O  O318  1  0.38644000  0.77749000  0.42491000  1.0
  O  O319  1  0.77749000  0.61357000  0.42491000  1.0
  O  O320  1  0.27749000  0.88644000  0.92491000  1.0
  O  O321  1  0.72251000  0.11356000  0.92491000  1.0
  O  O322  1  0.77749000  0.61357000  0.57509000  1.0
  O  O323  1  0.11357000  0.27749000  0.92491000  1.0
  O  O324  1  0.38643000  0.77749000  0.57509000  1.0
  O  O325  1  0.88643000  0.72251000  0.92491000  1.0
  O  O326  1  0.61356000  0.22251000  0.57509000  1.0
  O  O327  1  0.22251000  0.38643000  0.57509000  1.0
  O  O328  1  0.69566000  0.82767000  0.20040000  1.0
  O  O329  1  0.30434000  0.17232000  0.20040000  1.0
  O  O330  1  0.19566000  0.67232000  0.29960000  1.0
  O  O331  1  0.17233000  0.69566000  0.20040000  1.0
  O  O332  1  0.32767000  0.19566000  0.29960000  1.0
  O  O333  1  0.82767000  0.30434000  0.20040000  1.0
  O  O334  1  0.67233000  0.80434000  0.29960000  1.0
  O  O335  1  0.80434000  0.32768000  0.29960000  1.0
  O  O336  1  0.30434000  0.17232000  0.79960000  1.0
  O  O337  1  0.69566000  0.82768000  0.79960000  1.0
  O  O338  1  0.80434000  0.32768000  0.70040000  1.0
  O  O339  1  0.82768000  0.30434000  0.79960000  1.0
  O  O340  1  0.67232000  0.80434000  0.70040000  1.0
  O  O341  1  0.17232000  0.69566000  0.79960000  1.0
  O  O342  1  0.32768000  0.19566000  0.70040000  1.0
  O  O343  1  0.19566000  0.67232000  0.70040000  1.0
  O  O344  1  0.75569000  0.88228000  0.24870000  1.0
  O  O345  1  0.24431000  0.11772000  0.24870000  1.0
  O  O346  1  0.25569000  0.61772000  0.25130000  1.0
  O  O347  1  0.11772000  0.75570000  0.24870000  1.0
  O  O348  1  0.38228000  0.25569000  0.25130000  1.0
  O  O349  1  0.88228000  0.24430000  0.24870000  1.0
  O  O350  1  0.61772000  0.74431000  0.25130000  1.0
  O  O351  1  0.74430000  0.38228000  0.25130000  1.0
  O  O352  1  0.24431000  0.11772000  0.75130000  1.0
  O  O353  1  0.75569000  0.88228000  0.75130000  1.0
  O  O354  1  0.74430000  0.38228000  0.74870000  1.0
  O  O355  1  0.88228000  0.24431000  0.75130000  1.0
  O  O356  1  0.61772000  0.74430000  0.74870000  1.0
  O  O357  1  0.11772000  0.75569000  0.75130000  1.0
  O  O358  1  0.38228000  0.25569000  0.74870000  1.0
  O  O359  1  0.25570000  0.61772000  0.74870000  1.0
  O  O360  1  0.72240000  0.20284000  0.19779000  1.0
  O  O361  1  0.27760000  0.79716000  0.19778000  1.0
  O  O362  1  0.22240000  0.29716000  0.30221000  1.0
  O  O363  1  0.79716000  0.72240000  0.19779000  1.0
  O  O364  1  0.70284000  0.22240000  0.30222000  1.0
  O  O365  1  0.20284000  0.27760000  0.19778000  1.0
  O  O366  1  0.29716000  0.77760000  0.30222000  1.0
  O  O367  1  0.77760000  0.70284000  0.30221000  1.0
  O  O368  1  0.27760000  0.79716000  0.80222000  1.0
  O  O369  1  0.72240000  0.20284000  0.80222000  1.0
  O  O370  1  0.77760000  0.70284000  0.69778000  1.0
  O  O371  1  0.20284000  0.27760000  0.80222000  1.0
  O  O372  1  0.29716000  0.77760000  0.69778000  1.0
  O  O373  1  0.79716000  0.72240000  0.80222000  1.0
  O  O374  1  0.70284000  0.22240000  0.69778000  1.0
  O  O375  1  0.22240000  0.29716000  0.69779000  1.0
  O  O376  1  0.77381000  0.14381000  0.24742000  1.0
  O  O377  1  0.22619000  0.85619000  0.24742000  1.0
  O  O378  1  0.27381000  0.35619000  0.25258000  1.0
  O  O379  1  0.85619000  0.77381000  0.24742000  1.0
  O  O380  1  0.64381000  0.27381000  0.25258000  1.0
  O  O381  1  0.14381000  0.22619000  0.24742000  1.0
  O  O382  1  0.35619000  0.72619000  0.25258000  1.0
  O  O383  1  0.72619000  0.64381000  0.25258000  1.0
  O  O384  1  0.22619000  0.85619000  0.75258000  1.0
  O  O385  1  0.77381000  0.14381000  0.75258000  1.0
  O  O386  1  0.72619000  0.64381000  0.74742000  1.0
  O  O387  1  0.14381000  0.22619000  0.75258000  1.0
  O  O388  1  0.35619000  0.72619000  0.74742000  1.0
  O  O389  1  0.85619000  0.77381000  0.75258000  1.0
  O  O390  1  0.64381000  0.27381000  0.74742000  1.0
  O  O391  1  0.27381000  0.35619000  0.74742000  1.0
