# generated using pymatgen
data_ZnH5C13Br2NO6
_symmetry_space_group_name_H-M   'P 1'
_cell_length_a   10.10130000
_cell_length_b   10.96860000
_cell_length_c   11.00090000
_cell_angle_alpha   74.62310000
_cell_angle_beta   87.61350000
_cell_angle_gamma   89.64140000
_symmetry_Int_Tables_number   1
_chemical_formula_structural   ZnH5C13Br2NO6
_chemical_formula_sum   'Zn2 H10 C26 Br4 N2 O12'
_cell_volume   1174.20167664
_cell_formula_units_Z   2
loop_
 _symmetry_equiv_pos_site_id
 _symmetry_equiv_pos_as_xyz
  1  'x, y, z'
loop_
 _atom_site_type_symbol
 _atom_site_label
 _atom_site_symmetry_multiplicity
 _atom_site_fract_x
 _atom_site_fract_y
 _atom_site_fract_z
 _atom_site_occupancy
  Zn  Zn0  1  0.35813000  0.49949000  0.50611000  1.0
  Zn  Zn1  1  0.64787000  0.50380000  0.49197000  1.0
  H  H2  1  0.70131000  0.11671000  0.49266000  1.0
  H  H3  1  0.70356000  0.89679000  0.47104000  1.0
  H  H4  1  0.17767000  0.91710000  0.41491000  1.0
  H  H5  1  0.17924000  0.07657000  0.60854000  1.0
  H  H6  1  0.72744000  0.49148000  0.87785000  1.0
  H  H7  1  0.72983000  0.50233000  0.10206000  1.0
  H  H8  1  0.21219000  0.82882000  0.70512000  1.0
  H  H9  1  0.20292000  0.16628000  0.31513000  1.0
  H  H10  1  0.76500000  0.66091000  0.29677000  1.0
  H  H11  1  0.74779000  0.30524000  0.65498000  1.0
  C  C12  1  0.52279000  0.49084000  0.73554000  1.0
  C  C13  1  0.52924000  0.50775000  0.26206000  1.0
  C  C14  1  0.93619000  0.59919000  0.41524000  1.0
  C  C15  1  0.92520000  0.42670000  0.59238000  1.0
  C  C16  1  0.07570000  0.59777000  0.41928000  1.0
  C  C17  1  0.06495000  0.42604000  0.59353000  1.0
  C  C18  1  0.48609000  0.26302000  0.51676000  1.0
  C  C19  1  0.49206000  0.74005000  0.47766000  1.0
  C  C20  1  0.37302000  0.06139000  0.50756000  1.0
  C  C21  1  0.37415000  0.93916000  0.49402000  1.0
  C  C22  1  0.48896000  0.12984000  0.50788000  1.0
  C  C23  1  0.49150000  0.87464000  0.48219000  1.0
  C  C24  1  0.60815000  0.06654000  0.49406000  1.0
  C  C25  1  0.60941000  0.94290000  0.48133000  1.0
  C  C26  1  0.22369000  0.92686000  0.50059000  1.0
  C  C27  1  0.22251000  0.06827000  0.51781000  1.0
  C  C28  1  0.63543000  0.49631000  0.93137000  1.0
  C  C29  1  0.63676000  0.49955000  0.05640000  1.0
  C  C30  1  0.51865000  0.49654000  0.12911000  1.0
  C  C31  1  0.51576000  0.50038000  0.86995000  1.0
  C  C32  1  0.39785000  0.49059000  0.07100000  1.0
  C  C33  1  0.39654000  0.50584000  0.93970000  1.0
  C  C34  1  0.16632000  0.82994000  0.61412000  1.0
  C  C35  1  0.15891000  0.16239000  0.41095000  1.0
  C  C36  1  0.85901000  0.69678000  0.32264000  1.0
  C  C37  1  0.83781000  0.33810000  0.69118000  1.0
  Br  Br38  1  0.23565000  0.44595000  0.16623000  1.0
  Br  Br39  1  0.23319000  0.54843000  0.85973000  1.0
  Br  Br40  1  0.17687000  0.71299000  0.29589000  1.0
  Br  Br41  1  0.15168000  0.30370000  0.71411000  1.0
  N  N42  1  0.13931000  0.50888000  0.50531000  1.0
  N  N43  1  0.86453000  0.50935000  0.49888000  1.0
  O  O44  1  0.42013000  0.45645000  0.69102000  1.0
  O  O45  1  0.42662000  0.53665000  0.31813000  1.0
  O  O46  1  0.63554000  0.51420000  0.67637000  1.0
  O  O47  1  0.64457000  0.49247000  0.30795000  1.0
  O  O48  1  0.37298000  0.31629000  0.50276000  1.0
  O  O49  1  0.38137000  0.68194000  0.50801000  1.0
  O  O50  1  0.59406000  0.31361000  0.53487000  1.0
  O  O51  1  0.60003000  0.69322000  0.44754000  1.0
  O  O52  1  0.07691000  0.75655000  0.61093000  1.0
  O  O53  1  0.06626000  0.23038000  0.42433000  1.0
  O  O54  1  0.89535000  0.80621000  0.28137000  1.0
  O  O55  1  0.86450000  0.30589000  0.80216000  1.0
