# generated using pymatgen
data_NdH6C5O9
_symmetry_space_group_name_H-M   'P 1'
_cell_length_a   6.13567000
_cell_length_b   7.32645000
_cell_length_c   22.58600000
_cell_angle_alpha   90.00010000
_cell_angle_beta   90.15380000
_cell_angle_gamma   89.99980000
_symmetry_Int_Tables_number   1
_chemical_formula_structural   NdH6C5O9
_chemical_formula_sum   'Nd4 H24 C20 O36'
_cell_volume   1015.29756063
_cell_formula_units_Z   4
loop_
 _symmetry_equiv_pos_site_id
 _symmetry_equiv_pos_as_xyz
  1  'x, y, z'
loop_
 _atom_site_type_symbol
 _atom_site_label
 _atom_site_symmetry_multiplicity
 _atom_site_fract_x
 _atom_site_fract_y
 _atom_site_fract_z
 _atom_site_occupancy
  Nd  Nd0  1  0.43849000  0.51168000  0.85954000  1.0
  Nd  Nd1  1  0.56150000  0.01168000  0.64046000  1.0
  Nd  Nd2  1  0.56151000  0.48833000  0.14046000  1.0
  Nd  Nd3  1  0.43850000  0.98833000  0.35954000  1.0
  H  H4  1  0.30903000  0.75541000  0.75584000  1.0
  H  H5  1  0.48600000  0.57525000  0.62460000  1.0
  H  H6  1  0.99676000  0.64122000  0.87064000  1.0
  H  H7  1  0.07511000  0.71743000  0.93126000  1.0
  H  H8  1  0.03980000  0.45812000  0.71762000  1.0
  H  H9  1  0.11329000  0.54415000  0.62163000  1.0
  H  H10  1  0.69097000  0.25541000  0.74416000  1.0
  H  H11  1  0.51400000  0.07525000  0.87540000  1.0
  H  H12  1  0.00324000  0.14121000  0.62936000  1.0
  H  H13  1  0.92490000  0.21742000  0.56874000  1.0
  H  H14  1  0.96021000  0.95812000  0.78238000  1.0
  H  H15  1  0.88671000  0.04415000  0.87837000  1.0
  H  H16  1  0.69097000  0.24459000  0.24416000  1.0
  H  H17  1  0.51400000  0.42475000  0.37540000  1.0
  H  H18  1  0.00325000  0.35879000  0.12936000  1.0
  H  H19  1  0.92490000  0.28258000  0.06874000  1.0
  H  H20  1  0.96021000  0.54187000  0.28238000  1.0
  H  H21  1  0.88671000  0.45584000  0.37837000  1.0
  H  H22  1  0.30903000  0.74459000  0.25584000  1.0
  H  H23  1  0.48601000  0.92475000  0.12460000  1.0
  H  H24  1  0.99676000  0.85878000  0.37064000  1.0
  H  H25  1  0.07511000  0.78257000  0.43126000  1.0
  H  H26  1  0.03980000  0.04188000  0.21762000  1.0
  H  H27  1  0.11330000  0.95585000  0.12163000  1.0
  C  C28  1  0.38188000  0.40285000  0.71363000  1.0
  C  C29  1  0.19168000  0.53758000  0.71455000  1.0
  C  C30  1  0.18992000  0.63690000  0.65384000  1.0
  C  C31  1  0.05749000  0.81262000  0.65633000  1.0
  C  C32  1  0.58954000  0.57571000  0.99799000  1.0
  C  C33  1  0.61812000  0.90284000  0.78637000  1.0
  C  C34  1  0.80832000  0.03759000  0.78545000  1.0
  C  C35  1  0.81007000  0.13690000  0.84616000  1.0
  C  C36  1  0.94251000  0.31263000  0.84367000  1.0
  C  C37  1  0.41043000  0.07571000  0.50200000  1.0
  C  C38  1  0.61812000  0.59716000  0.28637000  1.0
  C  C39  1  0.80832000  0.46241000  0.28545000  1.0
  C  C40  1  0.81007000  0.36309000  0.34616000  1.0
  C  C41  1  0.94250000  0.18737000  0.34367000  1.0
  C  C42  1  0.41046000  0.42430000  0.00200000  1.0
  C  C43  1  0.38188000  0.09715000  0.21363000  1.0
  C  C44  1  0.19168000  0.96241000  0.21455000  1.0
  C  C45  1  0.18993000  0.86309000  0.15384000  1.0
  C  C46  1  0.05750000  0.68738000  0.15633000  1.0
  C  C47  1  0.58952000  0.92430000  0.49799000  1.0
  O  O48  1  0.51178000  0.40257000  0.75773000  1.0
  O  O49  1  0.40482000  0.30459000  0.66812000  1.0
  O  O50  1  0.20308000  0.65302000  0.76509000  1.0
  O  O51  1  0.40441000  0.68615000  0.63381000  1.0
  O  O52  1  0.16131000  0.96269000  0.65149000  1.0
  O  O53  1  0.85456000  0.79705000  0.66297000  1.0
  O  O54  1  0.62483000  0.64272000  0.94724000  1.0
  O  O55  1  0.68546000  0.61897000  0.04570000  1.0
  O  O56  1  0.11872000  0.71148000  0.88985000  1.0
  O  O57  1  0.48822000  0.90257000  0.74227000  1.0
  O  O58  1  0.59519000  0.80460000  0.83188000  1.0
  O  O59  1  0.79693000  0.15302000  0.73491000  1.0
  O  O60  1  0.59559000  0.18615000  0.86619000  1.0
  O  O61  1  0.83869000  0.46270000  0.84852000  1.0
  O  O62  1  0.14545000  0.29705000  0.83703000  1.0
  O  O63  1  0.37515000  0.14272000  0.55276000  1.0
  O  O64  1  0.31452000  0.11897000  0.45431000  1.0
  O  O65  1  0.88128000  0.21147000  0.61015000  1.0
  O  O66  1  0.48822000  0.59743000  0.24227000  1.0
  O  O67  1  0.59518000  0.69540000  0.33188000  1.0
  O  O68  1  0.79692000  0.34698000  0.23491000  1.0
  O  O69  1  0.59559000  0.31385000  0.36619000  1.0
  O  O70  1  0.83868000  0.03730000  0.34851000  1.0
  O  O71  1  0.14543000  0.20294000  0.33703000  1.0
  O  O72  1  0.37517000  0.35729000  0.05276000  1.0
  O  O73  1  0.31455000  0.38104000  0.95431000  1.0
  O  O74  1  0.88129000  0.28853000  0.11015000  1.0
  O  O75  1  0.51178000  0.09744000  0.25773000  1.0
  O  O76  1  0.40482000  0.19540000  0.16812000  1.0
  O  O77  1  0.20308000  0.84698000  0.26509000  1.0
  O  O78  1  0.40442000  0.81385000  0.13381000  1.0
  O  O79  1  0.16132000  0.53731000  0.15149000  1.0
  O  O80  1  0.85456000  0.70295000  0.16297000  1.0
  O  O81  1  0.62481000  0.85728000  0.44724000  1.0
  O  O82  1  0.68545000  0.88104000  0.54570000  1.0
  O  O83  1  0.11872000  0.78852000  0.38985000  1.0
