# generated using pymatgen
data_Li2H12C9O5
_symmetry_space_group_name_H-M   'P 1'
_cell_length_a   9.24119178
_cell_length_b   9.24390000
_cell_length_c   10.73740000
_cell_angle_alpha   89.98920000
_cell_angle_beta   89.99870152
_cell_angle_gamma   60.02293468
_symmetry_Int_Tables_number   1
_chemical_formula_structural   Li2H12C9O5
_chemical_formula_sum   'Li6 H36 C27 O15'
_cell_volume   794.53548411
_cell_formula_units_Z   3
loop_
 _symmetry_equiv_pos_site_id
 _symmetry_equiv_pos_as_xyz
  1  'x, y, z'
loop_
 _atom_site_type_symbol
 _atom_site_label
 _atom_site_symmetry_multiplicity
 _atom_site_fract_x
 _atom_site_fract_y
 _atom_site_fract_z
 _atom_site_occupancy
  Li  Li0  1  0.02957000  0.09855000  0.58524000  1.0
  Li  Li1  1  0.09848000  0.87182000  0.91851000  1.0
  Li  Li2  1  0.87174000  0.02975000  0.25188000  1.0
  Li  Li3  1  0.89698000  0.91354000  0.71943000  1.0
  Li  Li4  1  0.91363000  0.18939000  0.05280000  1.0
  Li  Li5  1  0.18932000  0.89721000  0.38607000  1.0
  H  H6  1  0.06776000  0.16042000  0.80771000  1.0
  H  H7  1  0.16036000  0.77194000  0.14092000  1.0
  H  H8  1  0.77175000  0.06783000  0.47435000  1.0
  H  H9  1  0.96979000  0.70886000  0.53967000  1.0
  H  H10  1  0.70902000  0.32141000  0.87317000  1.0
  H  H11  1  0.32137000  0.96971000  0.20642000  1.0
  H  H12  1  0.32021000  0.49462000  0.80361000  1.0
  H  H13  1  0.49467000  0.18492000  0.13694000  1.0
  H  H14  1  0.18521000  0.32063000  0.47019000  1.0
  H  H15  1  0.56725000  0.20875000  0.78796000  1.0
  H  H16  1  0.20864000  0.22385000  0.12107000  1.0
  H  H17  1  0.22395000  0.56782000  0.45438000  1.0
  H  H18  1  0.74815000  0.37071000  0.47763000  1.0
  H  H19  1  0.37078000  0.88054000  0.81122000  1.0
  H  H20  1  0.88059000  0.74855000  0.14440000  1.0
  H  H21  1  0.49545000  0.65209000  0.49065000  1.0
  H  H22  1  0.65226000  0.85189000  0.82436000  1.0
  H  H23  1  0.85237000  0.49552000  0.15738000  1.0
  H  H24  1  0.14310000  0.34917000  0.82647000  1.0
  H  H25  1  0.34900000  0.50798000  0.15981000  1.0
  H  H26  1  0.50778000  0.14295000  0.49319000  1.0
  H  H27  1  0.06860000  0.42430000  0.67357000  1.0
  H  H28  1  0.42426000  0.50725000  0.00696000  1.0
  H  H29  1  0.50700000  0.06852000  0.34031000  1.0
  H  H30  1  0.26629000  0.23736000  0.69549000  1.0
  H  H31  1  0.23719000  0.49653000  0.02881000  1.0
  H  H32  1  0.49636000  0.26621000  0.36220000  1.0
  H  H33  1  0.78933000  0.63635000  0.49689000  1.0
  H  H34  1  0.63671000  0.57405000  0.82996000  1.0
  H  H35  1  0.57412000  0.78939000  0.16339000  1.0
  H  H36  1  0.64603000  0.84607000  0.54502000  1.0
  H  H37  1  0.84652000  0.50784000  0.87800000  1.0
  H  H38  1  0.50766000  0.64606000  0.21162000  1.0
  H  H39  1  0.71732000  0.67608000  0.65331000  1.0
  H  H40  1  0.67652000  0.60665000  0.98629000  1.0
  H  H41  1  0.60667000  0.71722000  0.31980000  1.0
  C  C42  1  0.23901000  0.76012000  0.65358000  1.0
  C  C43  1  0.76027000  0.00060000  0.98694000  1.0
  C  C44  1  0.00092000  0.23919000  0.32027000  1.0
  C  C45  1  0.39135000  0.59319000  0.64892000  1.0
  C  C46  1  0.59333000  0.01502000  0.98241000  1.0
  C  C47  1  0.01551000  0.39155000  0.31553000  1.0
  C  C48  1  0.41550000  0.46685000  0.73325000  1.0
  C  C49  1  0.46693000  0.11732000  0.06663000  1.0
  C  C50  1  0.11770000  0.41584000  0.39982000  1.0
  C  C51  1  0.55504000  0.30769000  0.72569000  1.0
  C  C52  1  0.30768000  0.13695000  0.05897000  1.0
  C  C53  1  0.13712000  0.55555000  0.39224000  1.0
  C  C54  1  0.67889000  0.26803000  0.63256000  1.0
  C  C55  1  0.26798000  0.05270000  0.96592000  1.0
  C  C56  1  0.05278000  0.67941000  0.29915000  1.0
  C  C57  1  0.65425000  0.39812000  0.54921000  1.0
  C  C58  1  0.39820000  0.94706000  0.88274000  1.0
  C  C59  1  0.94726000  0.65463000  0.21592000  1.0
  C  C60  1  0.51340000  0.55474000  0.55654000  1.0
  C  C61  1  0.55487000  0.93132000  0.89017000  1.0
  C  C62  1  0.93179000  0.51357000  0.22319000  1.0
  C  C63  1  0.13723000  0.31123000  0.73034000  1.0
  C  C64  1  0.31109000  0.55173000  0.06366000  1.0
  C  C65  1  0.55152000  0.13715000  0.39704000  1.0
  C  C66  1  0.75312000  0.72593000  0.57385000  1.0
  C  C67  1  0.72636000  0.52089000  0.90693000  1.0
  C  C68  1  0.52087000  0.75309000  0.24044000  1.0
  O  O69  1  0.14341000  0.80057000  0.74877000  1.0
  O  O70  1  0.80069000  0.05602000  0.08199000  1.0
  O  O71  1  0.05612000  0.14360000  0.41546000  1.0
  O  O72  1  0.20498000  0.85941000  0.56111000  1.0
  O  O73  1  0.85958000  0.93517000  0.89453000  1.0
  O  O74  1  0.93551000  0.20512000  0.22790000  1.0
  O  O75  1  0.80909000  0.11577000  0.62034000  1.0
  O  O76  1  0.11561000  0.07493000  0.95365000  1.0
  O  O77  1  0.07488000  0.80960000  0.28683000  1.0
  O  O78  1  0.05206000  0.21763000  0.72561000  1.0
  O  O79  1  0.21757000  0.73040000  0.05883000  1.0
  O  O80  1  0.73026000  0.05207000  0.39225000  1.0
  O  O81  1  0.89206000  0.74526000  0.61016000  1.0
  O  O82  1  0.74567000  0.36275000  0.94351000  1.0
  O  O83  1  0.36277000  0.89197000  0.27692000  1.0
