# generated using pymatgen
data_Al2H19C26O10F
_symmetry_space_group_name_H-M   'P 1'
_cell_length_a   6.64118000
_cell_length_b   11.17340000
_cell_length_c   15.23980000
_cell_angle_alpha   80.73850000
_cell_angle_beta   77.99360000
_cell_angle_gamma   72.81710000
_symmetry_Int_Tables_number   1
_chemical_formula_structural   Al2H19C26O10F
_chemical_formula_sum   'Al2 H19 C26 O10 F1'
_cell_volume   1050.74828576
_cell_formula_units_Z   1
loop_
 _symmetry_equiv_pos_site_id
 _symmetry_equiv_pos_as_xyz
  1  'x, y, z'
loop_
 _atom_site_type_symbol
 _atom_site_label
 _atom_site_symmetry_multiplicity
 _atom_site_fract_x
 _atom_site_fract_y
 _atom_site_fract_z
 _atom_site_occupancy
  Al  Al0  1  0.51972000  0.48303000  0.49270000  1.0
  Al  Al1  1  0.01896000  0.48230000  0.49407000  1.0
  H  H2  1  0.30366000  0.34242000  0.56772000  1.0
  H  H3  1  0.73491000  0.62532000  0.42229000  1.0
  H  H4  1  0.77390000  0.58863000  0.93263000  1.0
  H  H5  1  0.14484000  0.56528000  0.04546000  1.0
  H  H6  1  0.71944000  0.39978000  0.22983000  1.0
  H  H7  1  0.81167000  0.40512000  0.06241000  1.0
  H  H8  1  0.39305000  0.41038000  0.76271000  1.0
  H  H9  1  0.29682000  0.39976000  0.93040000  1.0
  H  H10  1  0.71880000  0.11194000  0.41423000  1.0
  H  H11  1  0.21938000  0.07121000  0.65716000  1.0
  H  H12  1  0.40823000  0.08936000  0.55694000  1.0
  H  H13  1  0.52607000  0.85418000  0.55271000  1.0
  H  H14  1  0.33645000  0.83642000  0.65227000  1.0
  H  H15  1  0.94757000  0.67338000  0.80666000  1.0
  H  H16  1  0.84780000  0.69995000  0.70315000  1.0
  H  H17  1  0.05717000  0.56565000  0.72323000  1.0
  H  H18  1  0.88959000  0.62496000  0.16737000  1.0
  H  H19  1  0.97538000  0.66001000  0.26106000  1.0
  H  H20  1  0.91485000  0.51625000  0.26654000  1.0
  C  C21  1  0.87423000  0.25681000  0.49645000  1.0
  C  C22  1  0.69310000  0.49581000  0.65431000  1.0
  C  C23  1  0.16609000  0.70920000  0.48657000  1.0
  C  C24  1  0.33921000  0.47597000  0.33185000  1.0
  C  C25  1  0.63775000  0.50319000  0.75361000  1.0
  C  C26  1  0.38210000  0.47893000  0.23160000  1.0
  C  C27  1  0.74665000  0.55674000  0.80093000  1.0
  C  C28  1  0.69259000  0.54731000  0.89513000  1.0
  C  C29  1  0.21532000  0.52664000  0.18008000  1.0
  C  C30  1  0.27086000  0.52657000  0.08637000  1.0
  C  C31  1  0.59448000  0.43598000  0.18844000  1.0
  C  C32  1  0.64589000  0.43930000  0.09507000  1.0
  C  C33  1  0.47496000  0.44939000  0.80126000  1.0
  C  C34  1  0.42129000  0.44386000  0.89459000  1.0
  C  C35  1  0.53327000  0.49127000  0.94317000  1.0
  C  C36  1  0.48305000  0.48473000  0.04261000  1.0
  C  C37  1  0.95175000  0.11830000  0.49304000  1.0
  C  C38  1  0.09408000  0.84830000  0.48614000  1.0
  C  C39  1  0.12348000  0.04216000  0.53286000  1.0
  C  C40  1  0.92298000  0.92773000  0.44476000  1.0
  C  C41  1  0.19019000  0.91201000  0.52971000  1.0
  C  C42  1  0.85171000  0.05736000  0.44803000  1.0
  C  C43  1  0.28696000  0.04012000  0.58974000  1.0
  C  C44  1  0.36158000  0.89236000  0.58671000  1.0
  C  C45  1  0.90887000  0.62740000  0.75629000  1.0
  C  C46  1  0.98645000  0.58443000  0.22059000  1.0
  O  O47  1  0.68412000  0.31089000  0.48281000  1.0
  O  O48  1  0.87476000  0.51000000  0.61453000  1.0
  O  O49  1  0.03365000  0.65363000  0.47485000  1.0
  O  O50  1  0.48151000  0.49450000  0.36897000  1.0
  O  O51  1  0.35670000  0.65600000  0.50006000  1.0
  O  O52  1  0.16245000  0.45638000  0.37332000  1.0
  O  O53  1  0.00428000  0.31055000  0.51348000  1.0
  O  O54  1  0.55820000  0.47089000  0.61618000  1.0
  O  O55  1  0.27703000  0.42703000  0.53703000  1.0
  O  O56  1  0.76198000  0.53910000  0.45027000  1.0
  F  F57  1  0.82086000  0.87773000  0.39698000  1.0
