# generated using pymatgen
data_Zn2H9C19N7O6
_symmetry_space_group_name_H-M   'P 1'
_cell_length_a   10.92830000
_cell_length_b   10.92830000
_cell_length_c   24.98250000
_cell_angle_alpha   90.00010000
_cell_angle_beta   90.00020000
_cell_angle_gamma   90.00000000
_symmetry_Int_Tables_number   1
_chemical_formula_structural   Zn2H9C19N7O6
_chemical_formula_sum   'Zn8 H36 C76 N28 O24'
_cell_volume   2983.60353676
_cell_formula_units_Z   4
loop_
 _symmetry_equiv_pos_site_id
 _symmetry_equiv_pos_as_xyz
  1  'x, y, z'
loop_
 _atom_site_type_symbol
 _atom_site_label
 _atom_site_symmetry_multiplicity
 _atom_site_fract_x
 _atom_site_fract_y
 _atom_site_fract_z
 _atom_site_occupancy
  Zn  Zn0  1  0.45502000  0.46262000  0.92372000  1.0
  Zn  Zn1  1  0.54498000  0.53738000  0.42372000  1.0
  Zn  Zn2  1  0.03739000  0.95502000  0.17373000  1.0
  Zn  Zn3  1  0.96262000  0.04498000  0.67372000  1.0
  Zn  Zn4  1  0.04498000  0.96261000  0.32628000  1.0
  Zn  Zn5  1  0.95502000  0.03738000  0.82628000  1.0
  Zn  Zn6  1  0.46262000  0.45502000  0.07628000  1.0
  Zn  Zn7  1  0.53738000  0.54498000  0.57628000  1.0
  H  H8  1  0.33885000  0.32167000  0.78286000  1.0
  H  H9  1  0.15618000  0.19031000  0.75737000  1.0
  H  H10  1  0.08468000  0.12900000  0.91887000  1.0
  H  H11  1  0.68110000  0.74241000  0.91573000  1.0
  H  H12  1  0.66115000  0.67833000  0.28285000  1.0
  H  H13  1  0.84383000  0.80968000  0.25737000  1.0
  H  H14  1  0.91531000  0.87100000  0.41887000  1.0
  H  H15  1  0.31890000  0.25760000  0.41573000  1.0
  H  H16  1  0.17834000  0.83886000  0.03285000  1.0
  H  H17  1  0.30969000  0.65618000  0.00736000  1.0
  H  H18  1  0.37100000  0.58468000  0.16887000  1.0
  H  H19  1  0.75760000  0.18110000  0.16573000  1.0
  H  H20  1  0.82167000  0.16114000  0.53285000  1.0
  H  H21  1  0.69032000  0.34382000  0.50736000  1.0
  H  H22  1  0.62900000  0.41531000  0.66887000  1.0
  H  H23  1  0.24240000  0.81890000  0.66573000  1.0
  H  H24  1  0.16115000  0.82167000  0.46715000  1.0
  H  H25  1  0.34383000  0.69032000  0.49263000  1.0
  H  H26  1  0.41532000  0.62900000  0.33113000  1.0
  H  H27  1  0.81890000  0.24240000  0.33427000  1.0
  H  H28  1  0.83885000  0.17833000  0.96715000  1.0
  H  H29  1  0.65617000  0.30968000  0.99263000  1.0
  H  H30  1  0.58468000  0.37100000  0.83113000  1.0
  H  H31  1  0.18110000  0.75759000  0.83427000  1.0
  H  H32  1  0.32166000  0.33886000  0.21715000  1.0
  H  H33  1  0.19031000  0.15618000  0.24264000  1.0
  H  H34  1  0.12900000  0.08468000  0.08113000  1.0
  H  H35  1  0.74241000  0.68110000  0.08427000  1.0
  H  H36  1  0.67833000  0.66114000  0.71715000  1.0
  H  H37  1  0.80969000  0.84382000  0.74264000  1.0
  H  H38  1  0.87100000  0.91532000  0.58113000  1.0
  H  H39  1  0.25759000  0.31890000  0.58427000  1.0
  H  H40  1  0.95256000  0.95257000  0.00000000  1.0
  H  H41  1  0.04744000  0.04744000  0.50000000  1.0
  H  H42  1  0.54744000  0.45257000  0.25000000  1.0
  H  H43  1  0.45257000  0.54744000  0.75000000  1.0
  C  C44  1  0.28161000  0.27867000  0.81336000  1.0
  C  C45  1  0.18095000  0.20651000  0.79910000  1.0
  C  C46  1  0.14113000  0.17311000  0.88860000  1.0
  C  C47  1  0.24117000  0.24695000  0.90208000  1.0
  C  C48  1  0.27036000  0.27159000  0.95798000  1.0
  C  C49  1  0.73023000  0.76372000  0.95249000  1.0
  C  C50  1  0.82315000  0.85157000  0.95210000  1.0
  C  C51  1  0.85912000  0.91394000  0.90125000  1.0
  C  C52  1  0.71838000  0.72133000  0.31336000  1.0
  C  C53  1  0.81905000  0.79349000  0.29910000  1.0
  C  C54  1  0.85887000  0.82689000  0.38860000  1.0
  C  C55  1  0.75883000  0.75305000  0.40208000  1.0
  C  C56  1  0.72964000  0.72841000  0.45798000  1.0
  C  C57  1  0.26976000  0.23629000  0.45249000  1.0
  C  C58  1  0.17685000  0.14843000  0.45209000  1.0
  C  C59  1  0.14088000  0.08606000  0.40124000  1.0
  C  C60  1  0.22133000  0.78162000  0.06336000  1.0
  C  C61  1  0.29349000  0.68096000  0.04910000  1.0
  C  C62  1  0.32689000  0.64113000  0.13860000  1.0
  C  C63  1  0.25305000  0.74117000  0.15208000  1.0
  C  C64  1  0.22841000  0.77036000  0.20798000  1.0
  C  C65  1  0.73629000  0.23025000  0.20248000  1.0
  C  C66  1  0.64843000  0.32315000  0.20209000  1.0
  C  C67  1  0.58607000  0.35913000  0.15125000  1.0
  C  C68  1  0.77866000  0.21838000  0.56336000  1.0
  C  C69  1  0.70651000  0.31904000  0.54910000  1.0
  C  C70  1  0.67311000  0.35887000  0.63859000  1.0
  C  C71  1  0.74695000  0.25882000  0.65208000  1.0
  C  C72  1  0.77159000  0.22964000  0.70798000  1.0
  C  C73  1  0.26371000  0.76975000  0.70249000  1.0
  C  C74  1  0.35157000  0.67685000  0.70209000  1.0
  C  C75  1  0.41394000  0.64088000  0.65124000  1.0
  C  C76  1  0.21838000  0.77867000  0.43664000  1.0
  C  C77  1  0.31905000  0.70651000  0.45090000  1.0
  C  C78  1  0.35887000  0.67311000  0.36140000  1.0
  C  C79  1  0.25883000  0.74695000  0.34792000  1.0
  C  C80  1  0.22964000  0.77159000  0.29202000  1.0
  C  C81  1  0.76976000  0.26372000  0.29751000  1.0
  C  C82  1  0.67685000  0.35157000  0.29791000  1.0
  C  C83  1  0.64088000  0.41394000  0.34875000  1.0
  C  C84  1  0.78162000  0.22133000  0.93664000  1.0
  C  C85  1  0.68095000  0.29349000  0.95090000  1.0
  C  C86  1  0.64113000  0.32689000  0.86140000  1.0
  C  C87  1  0.74117000  0.25305000  0.84792000  1.0
  C  C88  1  0.77036000  0.22841000  0.79202000  1.0
  C  C89  1  0.23024000  0.73628000  0.79752000  1.0
  C  C90  1  0.32315000  0.64843000  0.79791000  1.0
  C  C91  1  0.35912000  0.58606000  0.84875000  1.0
  C  C92  1  0.27867000  0.28162000  0.18664000  1.0
  C  C93  1  0.20651000  0.18095000  0.20090000  1.0
  C  C94  1  0.17311000  0.14113000  0.11141000  1.0
  C  C95  1  0.24695000  0.24117000  0.09792000  1.0
  C  C96  1  0.27159000  0.27036000  0.04202000  1.0
  C  C97  1  0.76372000  0.73024000  0.04751000  1.0
  C  C98  1  0.85157000  0.82315000  0.04790000  1.0
  C  C99  1  0.91394000  0.85912000  0.09875000  1.0
  C  C100  1  0.72133000  0.71838000  0.68664000  1.0
  C  C101  1  0.79349000  0.81905000  0.70090000  1.0
  C  C102  1  0.82689000  0.85887000  0.61140000  1.0
  C  C103  1  0.75305000  0.75882000  0.59792000  1.0
  C  C104  1  0.72841000  0.72964000  0.54202000  1.0
  C  C105  1  0.23628000  0.26976000  0.54752000  1.0
  C  C106  1  0.14842000  0.17685000  0.54791000  1.0
  C  C107  1  0.08606000  0.14088000  0.59875000  1.0
  C  C108  1  0.60542000  0.60542000  0.00000000  1.0
  C  C109  1  0.70190000  0.70190000  0.00000000  1.0
  C  C110  1  0.88213000  0.88213000  0.00000000  1.0
  C  C111  1  0.39458000  0.39458000  0.50000000  1.0
  C  C112  1  0.29810000  0.29810000  0.50000000  1.0
  C  C113  1  0.11787000  0.11787000  0.50000000  1.0
  C  C114  1  0.89458000  0.10542000  0.25000000  1.0
  C  C115  1  0.79811000  0.20190000  0.25000000  1.0
  C  C116  1  0.61787000  0.38213000  0.25000000  1.0
  C  C117  1  0.10542000  0.89458000  0.75000000  1.0
  C  C118  1  0.20190000  0.79810000  0.75000000  1.0
  C  C119  1  0.38213000  0.61787000  0.75000000  1.0
  N  N120  1  0.11190000  0.15337000  0.83725000  1.0
  N  N121  1  0.31226000  0.29846000  0.86443000  1.0
  N  N122  1  0.35457000  0.35553000  0.97295000  1.0
  N  N123  1  0.88810000  0.84663000  0.33725000  1.0
  N  N124  1  0.68774000  0.70154000  0.36443000  1.0
  N  N125  1  0.64543000  0.64447000  0.47295000  1.0
  N  N126  1  0.34663000  0.61190000  0.08725000  1.0
  N  N127  1  0.20153000  0.81226000  0.11443000  1.0
  N  N128  1  0.14447000  0.85457000  0.22295000  1.0
  N  N129  1  0.65337000  0.38810000  0.58725000  1.0
  N  N130  1  0.79846000  0.18773000  0.61443000  1.0
  N  N131  1  0.85553000  0.14543000  0.72295000  1.0
  N  N132  1  0.38810000  0.65337000  0.41275000  1.0
  N  N133  1  0.18774000  0.79846000  0.38557000  1.0
  N  N134  1  0.14543000  0.85553000  0.27705000  1.0
  N  N135  1  0.61190000  0.34663000  0.91275000  1.0
  N  N136  1  0.81226000  0.20154000  0.88557000  1.0
  N  N137  1  0.85457000  0.14447000  0.77705000  1.0
  N  N138  1  0.15337000  0.11190000  0.16275000  1.0
  N  N139  1  0.29846000  0.31227000  0.13557000  1.0
  N  N140  1  0.35553000  0.35457000  0.02705000  1.0
  N  N141  1  0.84663000  0.88810000  0.66275000  1.0
  N  N142  1  0.70153000  0.68773000  0.63557000  1.0
  N  N143  1  0.64447000  0.64543000  0.52705000  1.0
  N  N144  1  0.21643000  0.21644000  0.00000000  1.0
  N  N145  1  0.78357000  0.78357000  0.50000000  1.0
  N  N146  1  0.28357000  0.71643000  0.25000000  1.0
  N  N147  1  0.71643000  0.28357000  0.75000000  1.0
  O  O148  1  0.52922000  0.60567000  0.96131000  1.0
  O  O149  1  0.79254000  0.91014000  0.86006000  1.0
  O  O150  1  0.96169000  0.97359000  0.90197000  1.0
  O  O151  1  0.47079000  0.39433000  0.46131000  1.0
  O  O152  1  0.20747000  0.08987000  0.36005000  1.0
  O  O153  1  0.03832000  0.02642000  0.40197000  1.0
  O  O154  1  0.89434000  0.02922000  0.21131000  1.0
  O  O155  1  0.58987000  0.29254000  0.11006000  1.0
  O  O156  1  0.52642000  0.46169000  0.15197000  1.0
  O  O157  1  0.10566000  0.97078000  0.71131000  1.0
  O  O158  1  0.41014000  0.70747000  0.61005000  1.0
  O  O159  1  0.47358000  0.53831000  0.65197000  1.0
  O  O160  1  0.97079000  0.10567000  0.28869000  1.0
  O  O161  1  0.70747000  0.41014000  0.38995000  1.0
  O  O162  1  0.53831000  0.47358000  0.34803000  1.0
  O  O163  1  0.02922000  0.89433000  0.78869000  1.0
  O  O164  1  0.29254000  0.58986000  0.88995000  1.0
  O  O165  1  0.46169000  0.52642000  0.84803000  1.0
  O  O166  1  0.60567000  0.52921000  0.03869000  1.0
  O  O167  1  0.91014000  0.79254000  0.13994000  1.0
  O  O168  1  0.97359000  0.96169000  0.09803000  1.0
  O  O169  1  0.39433000  0.47079000  0.53869000  1.0
  O  O170  1  0.08986000  0.20746000  0.63994000  1.0
  O  O171  1  0.02642000  0.03831000  0.59803000  1.0
