# generated using pymatgen
data_Zn2H12C42N2Cl(O4F5)2
_symmetry_space_group_name_H-M   'P 1'
_cell_length_a   16.50110000
_cell_length_b   17.89840000
_cell_length_c   28.91370000
_cell_angle_alpha   90.29370000
_cell_angle_beta   89.88190000
_cell_angle_gamma   89.96250000
_symmetry_Int_Tables_number   1
_chemical_formula_structural   Zn2H12C42N2Cl(O4F5)2
_chemical_formula_sum   'Zn4 H24 C84 N4 Cl2 O16 F20'
_cell_volume   8539.33501195
_cell_formula_units_Z   2
loop_
 _symmetry_equiv_pos_site_id
 _symmetry_equiv_pos_as_xyz
  1  'x, y, z'
loop_
 _atom_site_type_symbol
 _atom_site_label
 _atom_site_symmetry_multiplicity
 _atom_site_fract_x
 _atom_site_fract_y
 _atom_site_fract_z
 _atom_site_occupancy
  Zn  Zn0  1  0.58310000  0.50126000  0.49878000  1.0
  Zn  Zn1  1  0.41601000  0.49989000  0.49951000  1.0
  Zn  Zn2  1  0.41605000  0.50191000  0.88018000  1.0
  Zn  Zn3  1  0.58317000  0.50339000  0.88048000  1.0
  H  H4  1  0.28748000  0.57960000  0.55332000  1.0
  H  H5  1  0.28681000  0.41844000  0.44855000  1.0
  H  H6  1  0.71119000  0.57870000  0.55346000  1.0
  H  H7  1  0.71294000  0.42100000  0.44678000  1.0
  H  H8  1  0.62808000  0.73663000  0.49650000  1.0
  H  H9  1  0.36646000  0.73985000  0.50255000  1.0
  H  H10  1  0.63129000  0.26325000  0.50452000  1.0
  H  H11  1  0.36962000  0.26149000  0.49867000  1.0
  H  H12  1  0.59686000  0.39711000  0.77577000  1.0
  H  H13  1  0.67718000  0.30400000  0.73247000  1.0
  H  H14  1  0.59697000  0.39637000  0.60322000  1.0
  H  H15  1  0.67723000  0.30363000  0.64609000  1.0
  H  H16  1  0.37031000  0.50519000  0.02775000  1.0
  H  H17  1  0.63201000  0.49686000  0.02733000  1.0
  H  H18  1  0.37074000  0.50279000  0.35210000  1.0
  H  H19  1  0.63245000  0.49486000  0.35169000  1.0
  H  H20  1  0.71172000  0.58084000  0.82610000  1.0
  H  H21  1  0.71262000  0.42387000  0.93221000  1.0
  H  H22  1  0.28813000  0.58145000  0.82662000  1.0
  H  H23  1  0.28624000  0.42088000  0.93070000  1.0
  H  H24  1  0.36665000  0.74163000  0.87603000  1.0
  H  H25  1  0.62823000  0.73899000  0.88209000  1.0
  H  H26  1  0.36956000  0.26372000  0.88032000  1.0
  H  H27  1  0.63125000  0.26496000  0.87461000  1.0
  C  C28  1  0.49648000  0.64597000  0.49842000  1.0
  C  C29  1  0.50239000  0.50578000  0.58893000  1.0
  C  C30  1  0.49920000  0.35477000  0.50112000  1.0
  C  C31  1  0.50140000  0.49671000  0.40905000  1.0
  C  C32  1  0.49680000  0.64807000  0.88072000  1.0
  C  C33  1  0.50236000  0.50659000  0.79056000  1.0
  C  C34  1  0.49934000  0.35676000  0.87823000  1.0
  C  C35  1  0.50100000  0.49957000  0.97038000  1.0
  C  C36  1  0.25167000  0.54449000  0.53020000  1.0
  C  C37  1  0.16762000  0.54562000  0.53079000  1.0
  C  C38  1  0.12164000  0.49985000  0.50096000  1.0
  C  C39  1  0.16725000  0.45365000  0.47105000  1.0
  C  C40  1  0.25125000  0.45421000  0.47149000  1.0
  C  C41  1  0.03651000  0.50002000  0.50102000  1.0
  C  C42  1  0.96275000  0.49986000  0.50096000  1.0
  C  C43  1  0.87763000  0.49978000  0.50075000  1.0
  C  C44  1  0.83135000  0.54519000  0.53078000  1.0
  C  C45  1  0.74732000  0.54443000  0.52994000  1.0
  C  C46  1  0.74829000  0.45552000  0.47045000  1.0
  C  C47  1  0.83229000  0.45429000  0.47043000  1.0
  C  C48  1  0.49719000  0.72966000  0.49951000  1.0
  C  C49  1  0.57140000  0.76761000  0.49833000  1.0
  C  C50  1  0.57121000  0.84480000  0.49939000  1.0
  C  C51  1  0.49943000  0.88778000  0.50103000  1.0
  C  C52  1  0.42644000  0.84659000  0.50205000  1.0
  C  C53  1  0.42405000  0.76938000  0.50160000  1.0
  C  C54  1  0.50066000  0.96626000  0.50138000  1.0
  C  C55  1  0.50183000  0.03436000  0.50144000  1.0
  C  C56  1  0.50170000  0.11285000  0.50147000  1.0
  C  C57  1  0.57370000  0.15544000  0.50283000  1.0
  C  C58  1  0.57433000  0.23270000  0.50317000  1.0
  C  C59  1  0.50035000  0.27108000  0.50153000  1.0
  C  C60  1  0.42705000  0.23168000  0.49993000  1.0
  C  C61  1  0.42898000  0.15450000  0.50015000  1.0
  C  C62  1  0.50303000  0.50675000  0.73856000  1.0
  C  C63  1  0.55037000  0.45233000  0.71442000  1.0
  C  C64  1  0.45819000  0.55904000  0.71449000  1.0
  C  C65  1  0.59685000  0.39758000  0.73809000  1.0
  C  C66  1  0.64179000  0.34553000  0.71381000  1.0
  C  C67  1  0.50308000  0.50634000  0.64095000  1.0
  C  C68  1  0.45821000  0.55884000  0.66527000  1.0
  C  C69  1  0.55042000  0.45212000  0.66482000  1.0
  C  C70  1  0.59693000  0.39718000  0.64090000  1.0
  C  C71  1  0.64183000  0.34533000  0.66494000  1.0
  C  C72  1  0.50112000  0.50044000  0.02218000  1.0
  C  C73  1  0.42750000  0.50329000  0.04637000  1.0
  C  C74  1  0.42888000  0.50374000  0.09416000  1.0
  C  C75  1  0.50132000  0.50219000  0.12008000  1.0
  C  C76  1  0.57367000  0.49999000  0.09390000  1.0
  C  C77  1  0.57486000  0.49873000  0.04612000  1.0
  C  C78  1  0.50146000  0.50253000  0.16865000  1.0
  C  C79  1  0.50161000  0.50225000  0.21081000  1.0
  C  C80  1  0.50162000  0.50128000  0.25937000  1.0
  C  C81  1  0.42921000  0.50231000  0.28552000  1.0
  C  C82  1  0.42790000  0.50121000  0.33333333  1.0
  C  C83  1  0.50156000  0.49814000  0.35725000  1.0
  C  C84  1  0.57526000  0.49690000  0.33309000  1.0
  C  C85  1  0.57400000  0.49887000  0.28531000  1.0
  C  C86  1  0.74762000  0.54667000  0.84949000  1.0
  C  C87  1  0.83166000  0.54736000  0.84863000  1.0
  C  C88  1  0.87771000  0.50209000  0.87847000  1.0
  C  C89  1  0.83215000  0.45694000  0.90869000  1.0
  C  C90  1  0.74814000  0.45819000  0.90866000  1.0
  C  C91  1  0.96282000  0.50205000  0.87820000  1.0
  C  C92  1  0.03657000  0.50206000  0.87815000  1.0
  C  C93  1  0.12169000  0.50186000  0.87832000  1.0
  C  C94  1  0.16800000  0.54750000  0.84876000  1.0
  C  C95  1  0.25206000  0.54646000  0.84951000  1.0
  C  C96  1  0.25094000  0.45650000  0.90785000  1.0
  C  C97  1  0.16696000  0.45589000  0.90814000  1.0
  C  C98  1  0.49739000  0.73172000  0.87910000  1.0
  C  C99  1  0.42421000  0.77124000  0.87682000  1.0
  C  C100  1  0.42644000  0.84843000  0.87609000  1.0
  C  C101  1  0.49934000  0.88976000  0.87702000  1.0
  C  C102  1  0.57121000  0.84698000  0.87874000  1.0
  C  C103  1  0.57152000  0.76982000  0.88010000  1.0
  C  C104  1  0.50038000  0.96824000  0.87670000  1.0
  C  C105  1  0.50141000  0.03634000  0.87686000  1.0
  C  C106  1  0.50135000  0.11483000  0.87708000  1.0
  C  C107  1  0.42871000  0.15660000  0.87847000  1.0
  C  C108  1  0.42693000  0.23379000  0.87898000  1.0
  C  C109  1  0.50032000  0.27306000  0.87756000  1.0
  C  C110  1  0.57424000  0.23452000  0.87583000  1.0
  C  C111  1  0.57346000  0.15727000  0.87593000  1.0
  N  N112  1  0.29149000  0.49928000  0.50073000  1.0
  N  N113  1  0.70774000  0.50022000  0.49990000  1.0
  N  N114  1  0.70783000  0.50265000  0.87934000  1.0
  N  N115  1  0.29153000  0.50143000  0.87887000  1.0
  Cl  Cl116  1  0.40416000  0.62644000  0.63610000  1.0
  Cl  Cl117  1  0.40415000  0.62693000  0.74398000  1.0
  O  O118  1  0.56355000  0.61358000  0.48956000  1.0
  O  O119  1  0.42909000  0.61370000  0.50636000  1.0
  O  O120  1  0.43611000  0.48851000  0.56950000  1.0
  O  O121  1  0.56890000  0.52118000  0.56886000  1.0
  O  O122  1  0.43169000  0.38605000  0.49237000  1.0
  O  O123  1  0.56588000  0.38830000  0.50948000  1.0
  O  O124  1  0.56893000  0.48410000  0.42896000  1.0
  O  O125  1  0.43385000  0.50842000  0.42920000  1.0
  O  O126  1  0.42940000  0.61552000  0.87316000  1.0
  O  O127  1  0.56387000  0.61599000  0.88960000  1.0
  O  O128  1  0.56890000  0.52215000  0.81050000  1.0
  O  O129  1  0.43611000  0.48945000  0.81011000  1.0
  O  O130  1  0.56606000  0.39011000  0.86981000  1.0
  O  O131  1  0.43187000  0.38820000  0.88722000  1.0
  O  O132  1  0.43351000  0.51157000  0.95046000  1.0
  O  O133  1  0.56853000  0.48703000  0.95023000  1.0
  F  F134  1  0.12798000  0.40803000  0.44152000  1.0
  F  F135  1  0.12861000  0.59138000  0.56046000  1.0
  F  F136  1  0.87184000  0.40886000  0.44080000  1.0
  F  F137  1  0.87001000  0.59020000  0.56090000  1.0
  F  F138  1  0.35586000  0.88545000  0.50351000  1.0
  F  F139  1  0.64287000  0.88187000  0.49861000  1.0
  F  F140  1  0.35821000  0.11608000  0.49894000  1.0
  F  F141  1  0.64518000  0.11798000  0.50389000  1.0
  F  F142  1  0.64480000  0.49901000  0.11731000  1.0
  F  F143  1  0.35786000  0.50581000  0.11783000  1.0
  F  F144  1  0.64509000  0.49838000  0.26169000  1.0
  F  F145  1  0.35815000  0.50454000  0.26208000  1.0
  F  F146  1  0.87145000  0.41184000  0.93824000  1.0
  F  F147  1  0.87058000  0.59215000  0.81869000  1.0
  F  F148  1  0.12735000  0.41054000  0.93746000  1.0
  F  F149  1  0.12930000  0.59305000  0.81922000  1.0
  F  F150  1  0.64277000  0.88424000  0.87938000  1.0
  F  F151  1  0.35581000  0.88714000  0.87451000  1.0
  F  F152  1  0.64487000  0.11968000  0.87481000  1.0
  F  F153  1  0.35784000  0.11833000  0.87948000  1.0
