# generated using pymatgen
data_MnH4C4N3O5
_symmetry_space_group_name_H-M   'P 1'
_cell_length_a   6.90484000
_cell_length_b   7.31502000
_cell_length_c   9.04189000
_cell_angle_alpha   99.11520000
_cell_angle_beta   99.07550000
_cell_angle_gamma   112.08900000
_symmetry_Int_Tables_number   1
_chemical_formula_structural   MnH4C4N3O5
_chemical_formula_sum   'Mn2 H8 C8 N6 O10'
_cell_volume   405.87458459
_cell_formula_units_Z   2
loop_
 _symmetry_equiv_pos_site_id
 _symmetry_equiv_pos_as_xyz
  1  'x, y, z'
loop_
 _atom_site_type_symbol
 _atom_site_label
 _atom_site_symmetry_multiplicity
 _atom_site_fract_x
 _atom_site_fract_y
 _atom_site_fract_z
 _atom_site_occupancy
  Mn  Mn0  1  0.74492000  0.97965000  0.77212000  1.0
  Mn  Mn1  1  0.25508000  0.02035000  0.22788000  1.0
  H  H2  1  0.80624000  0.70762000  0.45276000  1.0
  H  H3  1  0.19376000  0.29237000  0.54724000  1.0
  H  H4  1  0.12644000  0.46738000  0.75832000  1.0
  H  H5  1  0.87355000  0.53261000  0.24168000  1.0
  H  H6  1  0.01989000  0.27741000  0.00770000  1.0
  H  H7  1  0.98011000  0.72259000  0.99230000  1.0
  H  H8  1  0.17677000  0.20723000  0.93586000  1.0
  H  H9  1  0.82324000  0.79278000  0.06414000  1.0
  C  C10  1  0.87800000  0.67879000  0.55685000  1.0
  C  C11  1  0.12200000  0.32121000  0.44315000  1.0
  C  C12  1  0.04726000  0.55724000  0.71399000  1.0
  C  C13  1  0.95274000  0.44275000  0.28601000  1.0
  C  C14  1  0.40233000  0.90473000  0.50371000  1.0
  C  C15  1  0.59766000  0.09527000  0.49629000  1.0
  C  C16  1  0.51989000  0.91211000  0.02816000  1.0
  C  C17  1  0.48012000  0.08790000  0.97185000  1.0
  N  N18  1  0.88034000  0.75680000  0.69919000  1.0
  N  N19  1  0.11966000  0.24320000  0.30081000  1.0
  N  N20  1  0.98727000  0.68027000  0.79788000  1.0
  N  N21  1  0.01273000  0.31973000  0.20212000  1.0
  N  N22  1  0.98138000  0.55263000  0.56184000  1.0
  N  N23  1  0.01862000  0.44737000  0.43816000  1.0
  O  O24  1  0.43664000  0.80091000  0.59592000  1.0
  O  O25  1  0.56335000  0.19909000  0.40408000  1.0
  O  O26  1  0.22274000  0.86867000  0.41585000  1.0
  O  O27  1  0.77726000  0.13132000  0.58415000  1.0
  O  O28  1  0.63655000  0.84438000  0.95985000  1.0
  O  O29  1  0.36346000  0.15563000  0.04016000  1.0
  O  O30  1  0.43710000  0.84999000  0.13470000  1.0
  O  O31  1  0.56291000  0.15003000  0.86530000  1.0
  O  O32  1  0.04366000  0.23006000  0.90422000  1.0
  O  O33  1  0.95634000  0.76994000  0.09578000  1.0
