# generated using pymatgen
data_CuH21C23S2N3O5
_symmetry_space_group_name_H-M   'P 1'
_cell_length_a   9.99492000
_cell_length_b   9.99654000
_cell_length_c   30.75860000
_cell_angle_alpha   84.77100000
_cell_angle_beta   84.80420000
_cell_angle_gamma   63.87980000
_symmetry_Int_Tables_number   1
_chemical_formula_structural   CuH21C23S2N3O5
_chemical_formula_sum   'Cu4 H84 C92 S8 N12 O20'
_cell_volume   2743.51327222
_cell_formula_units_Z   4
loop_
 _symmetry_equiv_pos_site_id
 _symmetry_equiv_pos_as_xyz
  1  'x, y, z'
loop_
 _atom_site_type_symbol
 _atom_site_label
 _atom_site_symmetry_multiplicity
 _atom_site_fract_x
 _atom_site_fract_y
 _atom_site_fract_z
 _atom_site_occupancy
  Cu  Cu0  1  0.06397000  0.51563000  0.03260000  1.0
  Cu  Cu1  1  0.48428000  0.93538000  0.46710000  1.0
  Cu  Cu2  1  0.93604000  0.48437000  0.96740000  1.0
  Cu  Cu3  1  0.51571000  0.06463000  0.53290000  1.0
  H  H4  1  0.49105000  0.83924000  0.99070000  1.0
  H  H5  1  0.16095000  0.50833000  0.50935000  1.0
  H  H6  1  0.50896000  0.16075000  0.00930000  1.0
  H  H7  1  0.83904000  0.49169000  0.49065000  1.0
  H  H8  1  0.24953000  0.03534000  0.02370000  1.0
  H  H9  1  0.96498000  0.74998000  0.47630000  1.0
  H  H10  1  0.75049000  0.96466000  0.97630000  1.0
  H  H11  1  0.03503000  0.25004000  0.52370000  1.0
  H  H12  1  0.23883000  0.07665000  0.10337000  1.0
  H  H13  1  0.92375000  0.76078000  0.39657000  1.0
  H  H14  1  0.76118000  0.92336000  0.89663000  1.0
  H  H15  1  0.07626000  0.23924000  0.60342000  1.0
  H  H16  1  0.61332000  0.60854000  0.20094000  1.0
  H  H17  1  0.39143000  0.38676000  0.29914000  1.0
  H  H18  1  0.38668000  0.39146000  0.79906000  1.0
  H  H19  1  0.60858000  0.61324000  0.70086000  1.0
  H  H20  1  0.49199000  0.79206000  0.17932000  1.0
  H  H21  1  0.20792000  0.50779000  0.32077000  1.0
  H  H22  1  0.50800000  0.20795000  0.82068000  1.0
  H  H23  1  0.79209000  0.49222000  0.67922000  1.0
  H  H24  1  0.76615000  0.58558000  0.25903000  1.0
  H  H25  1  0.41442000  0.23395000  0.24105000  1.0
  H  H26  1  0.23382000  0.41443000  0.74097000  1.0
  H  H27  1  0.58559000  0.76604000  0.75895000  1.0
  H  H28  1  0.87026000  0.69769000  0.30727000  1.0
  H  H29  1  0.30228000  0.12992000  0.19279000  1.0
  H  H30  1  0.12971000  0.30232000  0.69274000  1.0
  H  H31  1  0.69772000  0.87008000  0.80721000  1.0
  H  H32  1  0.69835000  0.10621000  0.22660000  1.0
  H  H33  1  0.89377000  0.30165000  0.27337000  1.0
  H  H34  1  0.30168000  0.89378000  0.77339000  1.0
  H  H35  1  0.10624000  0.69835000  0.72663000  1.0
  H  H36  1  0.59439000  0.99368000  0.17840000  1.0
  H  H37  1  0.00631000  0.40557000  0.32158000  1.0
  H  H38  1  0.40563000  0.00632000  0.82159000  1.0
  H  H39  1  0.99371000  0.59442000  0.67842000  1.0
  H  H40  1  0.97209000  0.90854000  0.30476000  1.0
  H  H41  1  0.09152000  0.02779000  0.19539000  1.0
  H  H42  1  0.02791000  0.09145000  0.69524000  1.0
  H  H43  1  0.90849000  0.97221000  0.80461000  1.0
  H  H44  1  0.84320000  0.08820000  0.28600000  1.0
  H  H45  1  0.91183000  0.15660000  0.21412000  1.0
  H  H46  1  0.15680000  0.91179000  0.71400000  1.0
  H  H47  1  0.08818000  0.84339000  0.78588000  1.0
  H  H48  1  0.14078000  0.13626000  0.36476000  1.0
  H  H49  1  0.86372000  0.85877000  0.13531000  1.0
  H  H50  1  0.85923000  0.86374000  0.63524000  1.0
  H  H51  1  0.13626000  0.14124000  0.86469000  1.0
  H  H52  1  0.10547000  0.16834000  0.44479000  1.0
  H  H53  1  0.83149000  0.89431000  0.05532000  1.0
  H  H54  1  0.89454000  0.83164000  0.55522000  1.0
  H  H55  1  0.16848000  0.10570000  0.94468000  1.0
  H  H56  1  0.89162000  0.12853000  0.48624000  1.0
  H  H57  1  0.87110000  0.10826000  0.01384000  1.0
  H  H58  1  0.10838000  0.87146000  0.51376000  1.0
  H  H59  1  0.12889000  0.89174000  0.98616000  1.0
  H  H60  1  0.05126000  0.51150000  0.13653000  1.0
  H  H61  1  0.48858000  0.94800000  0.36346000  1.0
  H  H62  1  0.94872000  0.48849000  0.86348000  1.0
  H  H63  1  0.51144000  0.05200000  0.63654000  1.0
  H  H64  1  0.29137000  0.69185000  0.10795000  1.0
  H  H65  1  0.30801000  0.70855000  0.39189000  1.0
  H  H66  1  0.70861000  0.30813000  0.89206000  1.0
  H  H67  1  0.69199000  0.29147000  0.60811000  1.0
  H  H68  1  0.20589000  0.81271000  0.15199000  1.0
  H  H69  1  0.18690000  0.79390000  0.34784000  1.0
  H  H70  1  0.79409000  0.18728000  0.84801000  1.0
  H  H71  1  0.81311000  0.20612000  0.65216000  1.0
  H  H72  1  0.36685000  0.63955000  0.16085000  1.0
  H  H73  1  0.36006000  0.63294000  0.33904000  1.0
  H  H74  1  0.63313000  0.36043000  0.83916000  1.0
  H  H75  1  0.63993000  0.36706000  0.66097000  1.0
  H  H76  1  0.04138000  0.56237000  0.20371000  1.0
  H  H77  1  0.43744000  0.95867000  0.29622000  1.0
  H  H78  1  0.95861000  0.43764000  0.79631000  1.0
  H  H79  1  0.56257000  0.04131000  0.70377000  1.0
  H  H80  1  0.19760000  0.57770000  0.22199000  1.0
  H  H81  1  0.42208000  0.80271000  0.27782000  1.0
  H  H82  1  0.80238000  0.42231000  0.77802000  1.0
  H  H83  1  0.57792000  0.19728000  0.72218000  1.0
  H  H84  1  0.03435000  0.74265000  0.20757000  1.0
  H  H85  1  0.25714000  0.96587000  0.29221000  1.0
  H  H86  1  0.96563000  0.25736000  0.79244000  1.0
  H  H87  1  0.74286000  0.03412000  0.70779000  1.0
  C  C88  1  0.74204000  0.67590000  0.03122000  1.0
  C  C89  1  0.32446000  0.25736000  0.46891000  1.0
  C  C90  1  0.25797000  0.32409000  0.96878000  1.0
  C  C91  1  0.67553000  0.74266000  0.53109000  1.0
  C  C92  1  0.59539000  0.77728000  0.05179000  1.0
  C  C93  1  0.22277000  0.40405000  0.44826000  1.0
  C  C94  1  0.40462000  0.22271000  0.94821000  1.0
  C  C95  1  0.77723000  0.59596000  0.55173000  1.0
  C  C96  1  0.47588000  0.85950000  0.02541000  1.0
  C  C97  1  0.14069000  0.52352000  0.47463000  1.0
  C  C98  1  0.52413000  0.14050000  0.97459000  1.0
  C  C99  1  0.85932000  0.47648000  0.52536000  1.0
  C  C100  1  0.34341000  0.96665000  0.04354000  1.0
  C  C101  1  0.03355000  0.65606000  0.45646000  1.0
  C  C102  1  0.65660000  0.03335000  0.95646000  1.0
  C  C103  1  0.96645000  0.34396000  0.54353000  1.0
  C  C104  1  0.33615000  0.98781000  0.08797000  1.0
  C  C105  1  0.01252000  0.66341000  0.41201000  1.0
  C  C106  1  0.66387000  0.01219000  0.91203000  1.0
  C  C107  1  0.98748000  0.33661000  0.58799000  1.0
  C  C108  1  0.57235000  0.79783000  0.09748000  1.0
  C  C109  1  0.20240000  0.42711000  0.40255000  1.0
  C  C110  1  0.42765000  0.20217000  0.90252000  1.0
  C  C111  1  0.79758000  0.57291000  0.59745000  1.0
  C  C112  1  0.60784000  0.71529000  0.18645000  1.0
  C  C113  1  0.28475000  0.39202000  0.31362000  1.0
  C  C114  1  0.39216000  0.28471000  0.81355000  1.0
  C  C115  1  0.71525000  0.60798000  0.68637000  1.0
  C  C116  1  0.67090000  0.78271000  0.21577000  1.0
  C  C117  1  0.21732000  0.32907000  0.28427000  1.0
  C  C118  1  0.32910000  0.21729000  0.78423000  1.0
  C  C119  1  0.78269000  0.67092000  0.71573000  1.0
  C  C120  1  0.74953000  0.70075000  0.25212000  1.0
  C  C121  1  0.29924000  0.25054000  0.24793000  1.0
  C  C122  1  0.25045000  0.29925000  0.74788000  1.0
  C  C123  1  0.70077000  0.74946000  0.75207000  1.0
  C  C124  1  0.80853000  0.76346000  0.27922000  1.0
  C  C125  1  0.23650000  0.19161000  0.22082000  1.0
  C  C126  1  0.19145000  0.23654000  0.72078000  1.0
  C  C127  1  0.76351000  0.80839000  0.77918000  1.0
  C  C128  1  0.79040000  0.91052000  0.27053000  1.0
  C  C129  1  0.08945000  0.20967000  0.22950000  1.0
  C  C130  1  0.20960000  0.08947000  0.72947000  1.0
  C  C131  1  0.91055000  0.79033000  0.77050000  1.0
  C  C132  1  0.71172000  0.99232000  0.23416000  1.0
  C  C133  1  0.00767000  0.28828000  0.26585000  1.0
  C  C134  1  0.28829000  0.00767000  0.76584000  1.0
  C  C135  1  0.99234000  0.71172000  0.73415000  1.0
  C  C136  1  0.65321000  0.92948000  0.20703000  1.0
  C  C137  1  0.07053000  0.34675000  0.29298000  1.0
  C  C138  1  0.34679000  0.07052000  0.79297000  1.0
  C  C139  1  0.92948000  0.65324000  0.70702000  1.0
  C  C140  1  0.85345000  0.97906000  0.29954000  1.0
  C  C141  1  0.02091000  0.14643000  0.20054000  1.0
  C  C142  1  0.14654000  0.02094000  0.70045000  1.0
  C  C143  1  0.97909000  0.85357000  0.79946000  1.0
  C  C144  1  0.85739000  0.05280000  0.38349000  1.0
  C  C145  1  0.94683000  0.14235000  0.11657000  1.0
  C  C146  1  0.14261000  0.94721000  0.61650000  1.0
  C  C147  1  0.05317000  0.85764000  0.88343000  1.0
  C  C148  1  0.05201000  0.11817000  0.38387000  1.0
  C  C149  1  0.88169000  0.94763000  0.11622000  1.0
  C  C150  1  0.94800000  0.88182000  0.61613000  1.0
  C  C151  1  0.11830000  0.05237000  0.88378000  1.0
  C  C152  1  0.03090000  0.13828000  0.42866000  1.0
  C  C153  1  0.86146000  0.96890000  0.07143000  1.0
  C  C154  1  0.96910000  0.86171000  0.57134000  1.0
  C  C155  1  0.13853000  0.03111000  0.92857000  1.0
  C  C156  1  0.91571000  0.11441000  0.45123000  1.0
  C  C157  1  0.88518000  0.08413000  0.04885000  1.0
  C  C158  1  0.08429000  0.88559000  0.54877000  1.0
  C  C159  1  0.11481000  0.91587000  0.95115000  1.0
  C  C160  1  0.82725000  0.06933000  0.42921000  1.0
  C  C161  1  0.93027000  0.17259000  0.07085000  1.0
  C  C162  1  0.17275000  0.93067000  0.57078000  1.0
  C  C163  1  0.06973000  0.82740000  0.92915000  1.0
  C  C164  1  0.70882000  0.03863000  0.45488000  1.0
  C  C165  1  0.96123000  0.29056000  0.04513000  1.0
  C  C166  1  0.29118000  0.96138000  0.54512000  1.0
  C  C167  1  0.03878000  0.70943000  0.95486000  1.0
  C  C168  1  0.12753000  0.56104000  0.12385000  1.0
  C  C169  1  0.43910000  0.87156000  0.37602000  1.0
  C  C170  1  0.87246000  0.43894000  0.87616000  1.0
  C  C171  1  0.56091000  0.12844000  0.62398000  1.0
  C  C172  1  0.26362000  0.69581000  0.14320000  1.0
  C  C173  1  0.30384000  0.73625000  0.35662000  1.0
  C  C174  1  0.73637000  0.30418000  0.85681000  1.0
  C  C175  1  0.69616000  0.26376000  0.64338000  1.0
  C  C176  1  0.10684000  0.62682000  0.19933000  1.0
  C  C177  1  0.37291000  0.89327000  0.30051000  1.0
  C  C178  1  0.89314000  0.37318000  0.80067000  1.0
  C  C179  1  0.62710000  0.10672000  0.69949000  1.0
  S  S180  1  0.71026000  0.67585000  0.13323000  1.0
  S  S181  1  0.32447000  0.28943000  0.36685000  1.0
  S  S182  1  0.28974000  0.32414000  0.86678000  1.0
  S  S183  1  0.67552000  0.71058000  0.63315000  1.0
  S  S184  1  0.75118000  0.99829000  0.35262000  1.0
  S  S185  1  0.00139000  0.24863000  0.14743000  1.0
  S  S186  1  0.24882000  0.00172000  0.64738000  1.0
  S  S187  1  0.99861000  0.75136000  0.85257000  1.0
  N  N188  1  0.16725000  0.62225000  0.15455000  1.0
  N  N189  1  0.37743000  0.83257000  0.34527000  1.0
  N  N190  1  0.83273000  0.37774000  0.84546000  1.0
  N  N191  1  0.62258000  0.16743000  0.65473000  1.0
  N  N192  1  0.44585000  0.90324000  0.11450000  1.0
  N  N193  1  0.09707000  0.55371000  0.38551000  1.0
  N  N194  1  0.55416000  0.09676000  0.88550000  1.0
  N  N195  1  0.90292000  0.44631000  0.61449000  1.0
  N  N196  1  0.96769000  0.07769000  0.36168000  1.0
  N  N197  1  0.92215000  0.03195000  0.13841000  1.0
  N  N198  1  0.03231000  0.92232000  0.63832000  1.0
  N  N199  1  0.07784000  0.96805000  0.86159000  1.0
  O  O200  1  0.85581000  0.64917000  0.05277000  1.0
  O  O201  1  0.35135000  0.14400000  0.44721000  1.0
  O  O202  1  0.14420000  0.35080000  0.94724000  1.0
  O  O203  1  0.64866000  0.85601000  0.55279000  1.0
  O  O204  1  0.74306000  0.62852000  0.99422000  1.0
  O  O205  1  0.37127000  0.25708000  0.50588000  1.0
  O  O206  1  0.25695000  0.37150000  0.00577000  1.0
  O  O207  1  0.62872000  0.74292000  0.49411000  1.0
  O  O208  1  0.64958000  0.97213000  0.43549000  1.0
  O  O209  1  0.02786000  0.35028000  0.06435000  1.0
  O  O210  1  0.35043000  0.02786000  0.56451000  1.0
  O  O211  1  0.97217000  0.64969000  0.93565000  1.0
  O  O212  1  0.67901000  0.07991000  0.49393000  1.0
  O  O213  1  0.92067000  0.32025000  0.00596000  1.0
  O  O214  1  0.32098000  0.92010000  0.50606000  1.0
  O  O215  1  0.07933000  0.67976000  0.99404000  1.0
  O  O216  1  0.17122000  0.55950000  0.08458000  1.0
  O  O217  1  0.44098000  0.82714000  0.41523000  1.0
  O  O218  1  0.82879000  0.44046000  0.91543000  1.0
  O  O219  1  0.55904000  0.17286000  0.58477000  1.0
