# generated using pymatgen
data_CsH7(CO)8
_symmetry_space_group_name_H-M   'P 1'
_cell_length_a   5.10264000
_cell_length_b   9.48332681
_cell_length_c   12.51620000
_cell_angle_alpha   88.70014002
_cell_angle_beta   80.23360000
_cell_angle_gamma   80.89832433
_symmetry_Int_Tables_number   1
_chemical_formula_structural   CsH7(CO)8
_chemical_formula_sum   'Cs2 H14 C16 O16'
_cell_volume   589.36088439
_cell_formula_units_Z   2
loop_
 _symmetry_equiv_pos_site_id
 _symmetry_equiv_pos_as_xyz
  1  'x, y, z'
loop_
 _atom_site_type_symbol
 _atom_site_label
 _atom_site_symmetry_multiplicity
 _atom_site_fract_x
 _atom_site_fract_y
 _atom_site_fract_z
 _atom_site_occupancy
  Cs  Cs0  1  0.18608000  0.62500000  0.86146000  1.0
  Cs  Cs1  1  0.81390000  0.37501000  0.13853000  1.0
  H  H2  1  0.31946000  0.03904000  0.72396000  1.0
  H  H3  1  0.68051000  0.96096000  0.27605000  1.0
  H  H4  1  0.19796000  0.24289000  0.83321000  1.0
  H  H5  1  0.80201000  0.75710000  0.16681000  1.0
  H  H6  1  0.78249000  0.04973000  0.91430000  1.0
  H  H7  1  0.21748000  0.95027000  0.08573000  1.0
  H  H8  1  0.51243000  0.83890000  0.65347000  1.0
  H  H9  1  0.48759000  0.16109000  0.34651000  1.0
  H  H10  1  0.95082000  0.88919000  0.50951000  1.0
  H  H11  1  0.04920000  0.11082000  0.49048000  1.0
  H  H12  1  0.86608000  0.78575000  0.35377000  1.0
  H  H13  1  0.13394000  0.21426000  0.64622000  1.0
  H  H14  1  0.48586000  0.59801000  0.40393000  1.0
  H  H15  1  0.51415000  0.40196000  0.59605000  1.0
  C  C16  1  0.67521000  0.93157000  0.78262000  1.0
  C  C17  1  0.32479000  0.06844000  0.21739000  1.0
  C  C18  1  0.44804000  0.05169000  0.78324000  1.0
  C  C19  1  0.55196000  0.94830000  0.21676000  1.0
  C  C20  1  0.37579000  0.16857000  0.84721000  1.0
  C  C21  1  0.62421000  0.83143000  0.15279000  1.0
  C  C22  1  0.49459000  0.21662000  0.93819000  1.0
  C  C23  1  0.50542000  0.78337000  0.06181000  1.0
  C  C24  1  0.34231000  0.77160000  0.52540000  1.0
  C  C25  1  0.65771000  0.22839000  0.47460000  1.0
  C  C26  1  0.10466000  0.80487000  0.47002000  1.0
  C  C27  1  0.89537000  0.19514000  0.52998000  1.0
  C  C28  1  0.05591000  0.74492000  0.38036000  1.0
  C  C29  1  0.94410000  0.25508000  0.61963000  1.0
  C  C30  1  0.21541000  0.62832000  0.30778000  1.0
  C  C31  1  0.78459000  0.37168000  0.69221000  1.0
  O  O32  1  0.84972000  0.93236000  0.84374000  1.0
  O  O33  1  0.15024000  0.06765000  0.15628000  1.0
  O  O34  1  0.68642000  0.82631000  0.71779000  1.0
  O  O35  1  0.31360000  0.17369000  0.28222000  1.0
  O  O36  1  0.71333000  0.14120000  0.96593000  1.0
  O  O37  1  0.28662000  0.85881000  0.03409000  1.0
  O  O38  1  0.38279000  0.32821000  0.98765000  1.0
  O  O39  1  0.61719000  0.67182000  0.01234000  1.0
  O  O40  1  0.34067000  0.86125000  0.60282000  1.0
  O  O41  1  0.65938000  0.13875000  0.39716000  1.0
  O  O42  1  0.52598000  0.66733000  0.49986000  1.0
  O  O43  1  0.47400000  0.33266000  0.50014000  1.0
  O  O44  1  0.44653000  0.56073000  0.33062000  1.0
  O  O45  1  0.55347000  0.43926000  0.66936000  1.0
  O  O46  1  0.12899000  0.59681000  0.22613000  1.0
  O  O47  1  0.87099000  0.40321000  0.77387000  1.0
