# generated using pymatgen
data_CuH7C5N2Cl
_symmetry_space_group_name_H-M   'P 1'
_cell_length_a   6.35210000
_cell_length_b   6.58777000
_cell_length_c   8.23122000
_cell_angle_alpha   79.01060000
_cell_angle_beta   78.48730000
_cell_angle_gamma   82.57340000
_symmetry_Int_Tables_number   1
_chemical_formula_structural   CuH7C5N2Cl
_chemical_formula_sum   'Cu2 H14 C10 N4 Cl2'
_cell_volume   329.83295814
_cell_formula_units_Z   2
loop_
 _symmetry_equiv_pos_site_id
 _symmetry_equiv_pos_as_xyz
  1  'x, y, z'
loop_
 _atom_site_type_symbol
 _atom_site_label
 _atom_site_symmetry_multiplicity
 _atom_site_fract_x
 _atom_site_fract_y
 _atom_site_fract_z
 _atom_site_occupancy
  Cu  Cu0  1  0.85244000  0.88936000  0.16648000  1.0
  Cu  Cu1  1  0.14756000  0.11064000  0.83351000  1.0
  H  H2  1  0.85068000  0.35862000  0.35062000  1.0
  H  H3  1  0.14931000  0.64139000  0.64939000  1.0
  H  H4  1  0.26829000  0.77053000  0.34630000  1.0
  H  H5  1  0.73170000  0.22948000  0.65370000  1.0
  H  H6  1  0.75310000  0.63425000  0.76497000  1.0
  H  H7  1  0.24691000  0.36573000  0.23504000  1.0
  H  H8  1  0.55263000  0.85065000  0.76289000  1.0
  H  H9  1  0.44737000  0.14934000  0.23711000  1.0
  H  H10  1  0.82146000  0.88307000  0.78544000  1.0
  H  H11  1  0.17855000  0.11693000  0.21456000  1.0
  H  H12  1  0.73700000  0.55201000  0.09465000  1.0
  H  H13  1  0.26299000  0.44799000  0.90535000  1.0
  H  H14  1  0.52191000  0.72478000  0.09754000  1.0
  H  H15  1  0.47809000  0.27523000  0.90246000  1.0
  C  C16  1  0.78578000  0.85261000  0.54384000  1.0
  C  C17  1  0.21421000  0.14739000  0.45616000  1.0
  C  C18  1  0.72535000  0.80298000  0.72408000  1.0
  C  C19  1  0.27466000  0.19702000  0.27589000  1.0
  C  C20  1  0.56942000  0.57560000  0.32845000  1.0
  C  C21  1  0.43056000  0.42442000  0.67155000  1.0
  C  C22  1  0.69678000  0.42086000  0.41616000  1.0
  C  C23  1  0.30324000  0.57914000  0.58383000  1.0
  C  C24  1  0.37146000  0.65344000  0.41386000  1.0
  C  C25  1  0.62854000  0.34655000  0.58616000  1.0
  N  N26  1  0.64897000  0.66451000  0.15808000  1.0
  N  N27  1  0.35103000  0.33549000  0.84192000  1.0
  N  N28  1  0.83568000  0.89237000  0.39785000  1.0
  N  N29  1  0.16433000  0.10763000  0.60215000  1.0
  Cl  Cl30  1  0.19155000  0.78062000  0.00508000  1.0
  Cl  Cl31  1  0.80844000  0.21938000  0.99492000  1.0
