# generated using pymatgen
data_MgH8(CO)8
_symmetry_space_group_name_H-M   'P 1'
_cell_length_a   6.92774000
_cell_length_b   8.17603000
_cell_length_c   9.32626572
_cell_angle_alpha   64.01701155
_cell_angle_beta   82.67667354
_cell_angle_gamma   73.08980000
_symmetry_Int_Tables_number   1
_chemical_formula_structural   MgH8(CO)8
_chemical_formula_sum   'Mg2 H16 C16 O16'
_cell_volume   454.32719140
_cell_formula_units_Z   2
loop_
 _symmetry_equiv_pos_site_id
 _symmetry_equiv_pos_as_xyz
  1  'x, y, z'
loop_
 _atom_site_type_symbol
 _atom_site_label
 _atom_site_symmetry_multiplicity
 _atom_site_fract_x
 _atom_site_fract_y
 _atom_site_fract_z
 _atom_site_occupancy
  Mg  Mg0  1  0.74994000  0.31024000  0.37957000  1.0
  Mg  Mg1  1  0.25006000  0.68977000  0.62043000  1.0
  H  H2  1  0.20193000  0.74374000  0.92400000  1.0
  H  H3  1  0.29799000  0.33223000  0.92400000  1.0
  H  H4  1  0.79807000  0.25625000  0.07601000  1.0
  H  H5  1  0.70202000  0.66777000  0.07599000  1.0
  H  H6  1  0.86468000  0.34162000  0.66236000  1.0
  H  H7  1  0.63548000  0.99591000  0.66231000  1.0
  H  H8  1  0.13531000  0.65839000  0.33764000  1.0
  H  H9  1  0.36453000  0.00409000  0.33768000  1.0
  H  H10  1  0.09272000  0.29290000  0.21298000  1.0
  H  H11  1  0.40718000  0.49413000  0.21286000  1.0
  H  H12  1  0.90728000  0.70711000  0.78701000  1.0
  H  H13  1  0.59281000  0.50587000  0.78715000  1.0
  H  H14  1  0.03154000  0.48586000  0.22521000  1.0
  H  H15  1  0.46830000  0.28885000  0.22534000  1.0
  H  H16  1  0.96845000  0.51414000  0.77479000  1.0
  H  H17  1  0.53170000  0.71115000  0.77466000  1.0
  C  C18  1  0.05114000  0.07134000  0.66561000  1.0
  C  C19  1  0.44886000  0.26292000  0.66563000  1.0
  C  C20  1  0.94885000  0.92865000  0.33440000  1.0
  C  C21  1  0.55115000  0.73709000  0.33436000  1.0
  C  C22  1  0.02860000  0.03513000  0.83779000  1.0
  C  C23  1  0.47145000  0.12707000  0.83780000  1.0
  C  C24  1  0.97140000  0.96486000  0.16222000  1.0
  C  C25  1  0.52855000  0.87293000  0.16220000  1.0
  C  C26  1  0.11350000  0.85650000  0.95647000  1.0
  C  C27  1  0.38636000  0.18701000  0.95651000  1.0
  C  C28  1  0.88650000  0.14350000  0.04354000  1.0
  C  C29  1  0.61364000  0.81299000  0.04348000  1.0
  C  C30  1  0.91472000  0.17927000  0.88330000  1.0
  C  C31  1  0.58532000  0.93745000  0.88329000  1.0
  C  C32  1  0.08527000  0.82073000  0.11670000  1.0
  C  C33  1  0.41469000  0.06255000  0.11670000  1.0
  O  O34  1  0.94897000  0.23472000  0.56562000  1.0
  O  O35  1  0.55105000  0.19958000  0.56560000  1.0
  O  O36  1  0.05102000  0.76527000  0.43439000  1.0
  O  O37  1  0.44894000  0.80042000  0.43439000  1.0
  O  O38  1  0.16156000  0.94815000  0.62352000  1.0
  O  O39  1  0.33857000  0.42815000  0.62367000  1.0
  O  O40  1  0.83844000  0.05183000  0.37649000  1.0
  O  O41  1  0.66145000  0.57185000  0.37633000  1.0
  O  O42  1  0.83350000  0.35745000  0.76920000  1.0
  O  O43  1  0.66663000  0.87340000  0.76913000  1.0
  O  O44  1  0.16650000  0.64255000  0.23081000  1.0
  O  O45  1  0.33333333  0.12660000  0.23086000  1.0
  O  O46  1  0.97394000  0.39483000  0.21388000  1.0
  O  O47  1  0.52595000  0.39125000  0.21382000  1.0
  O  O48  1  0.02606000  0.60517000  0.78612000  1.0
  O  O49  1  0.47404000  0.60877000  0.78618000  1.0
