# generated using pymatgen
data_ZnH16C16N6O5
_symmetry_space_group_name_H-M   'P 1'
_cell_length_a   9.67716000
_cell_length_b   10.28770000
_cell_length_c   11.01700000
_cell_angle_alpha   82.43460000
_cell_angle_beta   74.06080000
_cell_angle_gamma   62.57750000
_symmetry_Int_Tables_number   1
_chemical_formula_structural   ZnH16C16N6O5
_chemical_formula_sum   'Zn2 H32 C32 N12 O10'
_cell_volume   936.11519668
_cell_formula_units_Z   2
loop_
 _symmetry_equiv_pos_site_id
 _symmetry_equiv_pos_as_xyz
  1  'x, y, z'
loop_
 _atom_site_type_symbol
 _atom_site_label
 _atom_site_symmetry_multiplicity
 _atom_site_fract_x
 _atom_site_fract_y
 _atom_site_fract_z
 _atom_site_occupancy
  Zn  Zn0  1  0.28045000  0.34777000  0.34631000  1.0
  Zn  Zn1  1  0.71955000  0.65223000  0.65369000  1.0
  H  H2  1  0.91132000  0.79874000  0.33736000  1.0
  H  H3  1  0.08868000  0.20126000  0.66264000  1.0
  H  H4  1  0.89664000  0.22113000  0.35581000  1.0
  H  H5  1  0.10335000  0.77887000  0.64419000  1.0
  H  H6  1  0.34015000  0.82791000  0.34026000  1.0
  H  H7  1  0.65984000  0.17210000  0.65974000  1.0
  H  H8  1  0.09798000  0.55809000  0.58321000  1.0
  H  H9  1  0.90202000  0.44191000  0.41679000  1.0
  H  H10  1  0.45428000  0.11937000  0.57578000  1.0
  H  H11  1  0.54572000  0.88064000  0.42422000  1.0
  H  H12  1  0.22700000  0.51779000  0.86374000  1.0
  H  H13  1  0.77300000  0.48222000  0.13627000  1.0
  H  H14  1  0.05148000  0.61388000  0.80344000  1.0
  H  H15  1  0.94853000  0.38612000  0.19657000  1.0
  H  H16  1  0.12195000  0.33881000  0.97109000  1.0
  H  H17  1  0.87805000  0.66119000  0.02891000  1.0
  H  H18  1  0.94859000  0.43547000  0.91086000  1.0
  H  H19  1  0.05141000  0.56453000  0.08914000  1.0
  H  H20  1  0.50123000  0.47310000  0.13690000  1.0
  H  H21  1  0.49878000  0.52690000  0.86310000  1.0
  H  H22  1  0.54566000  0.04477000  0.19090000  1.0
  H  H23  1  0.45434000  0.95523000  0.80910000  1.0
  H  H24  1  0.81272000  0.06253000  0.87366000  1.0
  H  H25  1  0.18728000  0.93747000  0.12634000  1.0
  H  H26  1  0.75357000  0.93932000  0.97653000  1.0
  H  H27  1  0.24643000  0.06067000  0.02347000  1.0
  H  H28  1  0.94654000  0.90476000  0.10334000  1.0
  H  H29  1  0.05346000  0.09523000  0.89666000  1.0
  H  H30  1  0.04014000  0.85369000  0.94434000  1.0
  H  H31  1  0.95986000  0.14630000  0.05566000  1.0
  H  H32  1  0.67728000  0.18378000  0.36831000  1.0
  H  H33  1  0.32272000  0.81622000  0.63169000  1.0
  C  C34  1  0.22825000  0.63327000  0.33236000  1.0
  C  C35  1  0.77176000  0.36673000  0.66764000  1.0
  C  C36  1  0.13505000  0.79736000  0.33718000  1.0
  C  C37  1  0.86495000  0.20264000  0.66282000  1.0
  C  C38  1  0.97151000  0.86504000  0.33944000  1.0
  C  C39  1  0.02849000  0.13496000  0.66055000  1.0
  C  C40  1  0.88558000  0.01746000  0.34748000  1.0
  C  C41  1  0.11441000  0.98255000  0.65252000  1.0
  C  C42  1  0.96350000  0.10217000  0.34952000  1.0
  C  C43  1  0.03649000  0.89783000  0.65048000  1.0
  C  C44  1  0.12697000  0.03437000  0.34733000  1.0
  C  C45  1  0.87302000  0.96563000  0.65267000  1.0
  C  C46  1  0.21282000  0.88158000  0.34233000  1.0
  C  C47  1  0.78718000  0.11842000  0.65767000  1.0
  C  C48  1  0.21021000  0.12540000  0.34932000  1.0
  C  C49  1  0.78979000  0.87460000  0.65068000  1.0
  C  C50  1  0.18587000  0.45173000  0.60706000  1.0
  C  C51  1  0.81413000  0.54827000  0.39294000  1.0
  C  C52  1  0.36397000  0.22866000  0.60713000  1.0
  C  C53  1  0.63604000  0.77135000  0.39287000  1.0
  C  C54  1  0.13296000  0.50650000  0.83478000  1.0
  C  C55  1  0.86705000  0.49350000  0.16522000  1.0
  C  C56  1  0.03954000  0.44823000  0.94350000  1.0
  C  C57  1  0.96047000  0.55177000  0.05649000  1.0
  C  C58  1  0.54396000  0.35732000  0.12225000  1.0
  C  C59  1  0.45604000  0.64268000  0.87775000  1.0
  C  C60  1  0.56246000  0.14048000  0.15218000  1.0
  C  C61  1  0.43754000  0.85951000  0.84783000  1.0
  C  C62  1  0.80038000  0.01966000  0.97038000  1.0
  C  C63  1  0.19963000  0.98033000  0.02962000  1.0
  C  C64  1  0.96105000  0.94870000  0.00658000  1.0
  C  C65  1  0.03895000  0.05130000  0.99342000  1.0
  N  N66  1  0.28279000  0.33684000  0.53061000  1.0
  N  N67  1  0.71721000  0.66316000  0.46939000  1.0
  N  N68  1  0.32237000  0.27160000  0.72573000  1.0
  N  N69  1  0.67763000  0.72840000  0.27427000  1.0
  N  N70  1  0.20922000  0.41357000  0.72335000  1.0
  N  N71  1  0.79079000  0.58643000  0.27665000  1.0
  N  N72  1  0.47595000  0.27594000  0.19991000  1.0
  N  N73  1  0.52405000  0.72405000  0.80010000  1.0
  N  N74  1  0.66648000  0.27978000  0.02996000  1.0
  N  N75  1  0.33352000  0.72022000  0.97004000  1.0
  N  N76  1  0.67592000  0.14214000  0.05072000  1.0
  N  N77  1  0.32408000  0.85785000  0.94929000  1.0
  O  O78  1  0.72505000  0.07907000  0.35244000  1.0
  O  O79  1  0.27495000  0.92093000  0.64755000  1.0
  O  O80  1  0.14886000  0.56235000  0.32445000  1.0
  O  O81  1  0.85114000  0.43765000  0.67554000  1.0
  O  O82  1  0.37193000  0.57322000  0.33835000  1.0
  O  O83  1  0.62807000  0.42678000  0.66164000  1.0
  O  O84  1  0.13335000  0.26521000  0.32851000  1.0
  O  O85  1  0.86665000  0.73480000  0.67148000  1.0
  O  O86  1  0.34806000  0.06770000  0.36882000  1.0
  O  O87  1  0.65194000  0.93230000  0.63118000  1.0
