# generated using pymatgen
data_Zn4H31C42SN9O19
_symmetry_space_group_name_H-M   'P 1'
_cell_length_a   9.65667000
_cell_length_b   11.04770000
_cell_length_c   22.12550000
_cell_angle_alpha   92.33730000
_cell_angle_beta   90.91880000
_cell_angle_gamma   91.08830000
_symmetry_Int_Tables_number   1
_chemical_formula_structural   Zn4H31C42SN9O19
_chemical_formula_sum   'Zn4 H31 C42 S1 N9 O19'
_cell_volume   2357.71363850
_cell_formula_units_Z   1
loop_
 _symmetry_equiv_pos_site_id
 _symmetry_equiv_pos_as_xyz
  1  'x, y, z'
loop_
 _atom_site_type_symbol
 _atom_site_label
 _atom_site_symmetry_multiplicity
 _atom_site_fract_x
 _atom_site_fract_y
 _atom_site_fract_z
 _atom_site_occupancy
  Zn  Zn0  1  0.64144000  0.49217000  0.49922000  1.0
  Zn  Zn1  1  0.35403000  0.48422000  0.50450000  1.0
  Zn  Zn2  1  0.35691000  0.49230000  0.99669000  1.0
  Zn  Zn3  1  0.64436000  0.49541000  0.00136000  1.0
  H  H4  1  0.11653000  0.31894000  0.45583000  1.0
  H  H5  1  0.14674000  0.64955000  0.55235000  1.0
  H  H6  1  0.85412000  0.33450000  0.45303000  1.0
  H  H7  1  0.71933000  0.10171000  0.49927000  1.0
  H  H8  1  0.27499000  0.10586000  0.49270000  1.0
  H  H9  1  0.70892000  0.87543000  0.50062000  1.0
  H  H10  1  0.27780000  0.52368000  0.18791000  1.0
  H  H11  1  0.81324000  0.40955000  0.20034000  1.0
  H  H12  1  0.83007000  0.57012000  0.20373000  1.0
  H  H13  1  0.81467000  0.57160000  0.31675000  1.0
  H  H14  1  0.80092000  0.41078000  0.31363000  1.0
  H  H15  1  0.28436000  0.50288000  0.80443000  1.0
  H  H16  1  0.72796000  0.49118000  0.81086000  1.0
  H  H17  1  0.29193000  0.50903000  0.69079000  1.0
  H  H18  1  0.87575000  0.36957000  0.06718000  1.0
  H  H19  1  0.85708000  0.62645000  0.93543000  1.0
  H  H20  1  0.13986000  0.37347000  0.06166000  1.0
  H  H21  1  0.27190000  0.09847000  0.99706000  1.0
  H  H22  1  0.71562000  0.12374000  0.99805000  1.0
  H  H23  1  0.28594000  0.87156000  0.99600000  1.0
  H  H24  1  0.76816000  0.70032000  0.54727000  1.0
  H  H25  1  0.93185000  0.75282000  0.57524000  1.0
  H  H26  1  0.23633000  0.78102000  0.47176000  1.0
  H  H27  1  0.15674000  0.91909000  0.46963000  1.0
  H  H28  1  0.76397000  0.47490000  0.64785000  1.0
  H  H29  1  0.84800000  0.46775000  0.71809000  1.0
  H  H30  1  0.23821000  0.67982000  0.93792000  1.0
  H  H31  1  0.07856000  0.72049000  0.90632000  1.0
  H  H32  1  0.76122000  0.80120000  0.01150000  1.0
  H  H33  1  0.84187000  0.94348000  0.01226000  1.0
  H  H34  1  0.25639000  0.41429000  0.37276000  1.0
  C  C35  1  0.49828000  0.25249000  0.49779000  1.0
  C  C36  1  0.48895000  0.49206000  0.38212000  1.0
  C  C37  1  0.49030000  0.72763000  0.49882000  1.0
  C  C38  1  0.50674000  0.49974000  0.61973000  1.0
  C  C39  1  0.49024000  0.25859000  0.99830000  1.0
  C  C40  1  0.50402000  0.50495000  0.11682000  1.0
  C  C41  1  0.50740000  0.73519000  0.99743000  1.0
  C  C42  1  0.50580000  0.49372000  0.88123000  1.0
  C  C43  1  0.93389000  0.59000000  0.52876000  1.0
  C  C44  1  0.06316000  0.39529000  0.47657000  1.0
  C  C45  1  0.08039000  0.57914000  0.53041000  1.0
  C  C46  1  0.92071000  0.40459000  0.47489000  1.0
  C  C47  1  0.48741000  0.86158000  0.49656000  1.0
  C  C48  1  0.49640000  0.11656000  0.49650000  1.0
  C  C49  1  0.36166000  0.92634000  0.49177000  1.0
  C  C50  1  0.62065000  0.05231000  0.49813000  1.0
  C  C51  1  0.36996000  0.05403000  0.49370000  1.0
  C  C52  1  0.61406000  0.92709000  0.49904000  1.0
  C  C53  1  0.49971000  0.50838000  0.18436000  1.0
  C  C54  1  0.48442000  0.50456000  0.31519000  1.0
  C  C55  1  0.61722000  0.50214000  0.22107000  1.0
  C  C56  1  0.36411000  0.51409000  0.27741000  1.0
  C  C57  1  0.60898000  0.50164000  0.28422000  1.0
  C  C58  1  0.37267000  0.51635000  0.21461000  1.0
  C  C59  1  0.77335000  0.49294000  0.22171000  1.0
  C  C60  1  0.76465000  0.49320000  0.29285000  1.0
  C  C61  1  0.51250000  0.50098000  0.68669000  1.0
  C  C62  1  0.50698000  0.49668000  0.81355000  1.0
  C  C63  1  0.63932000  0.49534000  0.72030000  1.0
  C  C64  1  0.38183000  0.50175000  0.78038000  1.0
  C  C65  1  0.63263000  0.49441000  0.78389000  1.0
  C  C66  1  0.38663000  0.50483000  0.71798000  1.0
  C  C67  1  0.06873000  0.58058000  0.96337000  1.0
  C  C68  1  0.93248000  0.42708000  0.03699000  1.0
  C  C69  1  0.92175000  0.57191000  0.96427000  1.0
  C  C70  1  0.07549000  0.43096000  0.03439000  1.0
  C  C71  1  0.50763000  0.86926000  0.99686000  1.0
  C  C72  1  0.49420000  0.12301000  0.99753000  1.0
  C  C73  1  0.63251000  0.94015000  0.99836000  1.0
  C  C74  1  0.37097000  0.05314000  0.99681000  1.0
  C  C75  1  0.62193000  0.06702000  0.99785000  1.0
  C  C76  1  0.37961000  0.92815000  0.99602000  1.0
  S  S77  1  0.19210000  0.52862000  0.30621000  1.0
  N  N78  1  0.85586000  0.50009000  0.50062000  1.0
  N  N79  1  0.14124000  0.48445000  0.50459000  1.0
  N  N80  1  0.14328000  0.50560000  0.99784000  1.0
  N  N81  1  0.85769000  0.49758000  0.00062000  1.0
  N  N82  1  0.87248000  0.68650000  0.55461000  1.0
  N  N83  1  0.23349000  0.86919000  0.48719000  1.0
  N  N84  1  0.76623000  0.49475000  0.69321000  1.0
  N  N85  1  0.13492000  0.66034000  0.92904000  1.0
  N  N86  1  0.76127000  0.88868000  0.99842000  1.0
  O  O87  1  0.61231000  0.30692000  0.48676000  1.0
  O  O88  1  0.38456000  0.30415000  0.51021000  1.0
  O  O89  1  0.38171000  0.45170000  0.40949000  1.0
  O  O90  1  0.60286000  0.51868000  0.40898000  1.0
  O  O91  1  0.37889000  0.66586000  0.48707000  1.0
  O  O92  1  0.60510000  0.67837000  0.51269000  1.0
  O  O93  1  0.61836000  0.47733000  0.59054000  1.0
  O  O94  1  0.39052000  0.51976000  0.59395000  1.0
  O  O95  1  0.37307000  0.30836000  0.00496000  1.0
  O  O96  1  0.60574000  0.31427000  0.99223000  1.0
  O  O97  1  0.62184000  0.48744000  0.09329000  1.0
  O  O98  1  0.39018000  0.51907000  0.08822000  1.0
  O  O99  1  0.62023000  0.68223000  0.01047000  1.0
  O  O100  1  0.39314000  0.67785000  0.98528000  1.0
  O  O101  1  0.38974000  0.47186000  0.90559000  1.0
  O  O102  1  0.62067000  0.51353000  0.90951000  1.0
  O  O103  1  0.17393000  0.40800000  0.34164000  1.0
  O  O104  1  0.09444000  0.52092000  0.25633000  1.0
  O  O105  1  0.19058000  0.63198000  0.34843000  1.0
