# generated using pymatgen
data_Al3H22C45O14
_symmetry_space_group_name_H-M   'P 1'
_cell_length_a   12.17570000
_cell_length_b   12.20200000
_cell_length_c   26.94370000
_cell_angle_alpha   82.01990000
_cell_angle_beta   82.48310000
_cell_angle_gamma   65.28740000
_symmetry_Int_Tables_number   1
_chemical_formula_structural   Al3H22C45O14
_chemical_formula_sum   'Al6 H44 C90 O28'
_cell_volume   3589.34497821
_cell_formula_units_Z   2
loop_
 _symmetry_equiv_pos_site_id
 _symmetry_equiv_pos_as_xyz
  1  'x, y, z'
loop_
 _atom_site_type_symbol
 _atom_site_label
 _atom_site_symmetry_multiplicity
 _atom_site_fract_x
 _atom_site_fract_y
 _atom_site_fract_z
 _atom_site_occupancy
  Al  Al0  1  0.40991000  0.39279000  0.51323000  1.0
  Al  Al1  1  0.66015000  0.42506000  0.49414000  1.0
  Al  Al2  1  0.42790000  0.65048000  0.49840000  1.0
  Al  Al3  1  0.92071000  0.94686000  0.97734000  1.0
  Al  Al4  1  0.91583000  0.68383000  0.99680000  1.0
  Al  Al5  1  0.67727000  0.90164000  0.99335000  1.0
  H  H6  1  0.50623000  0.34421000  0.19707000  1.0
  H  H7  1  0.37218000  0.81022000  0.20958000  1.0
  H  H8  1  0.37011000  0.72819000  0.16041000  1.0
  H  H9  1  0.25750000  0.87661000  0.16617000  1.0
  H  H10  1  0.94967000  0.11416000  0.22024000  1.0
  H  H11  1  0.92604000  0.01750000  0.18295000  1.0
  H  H12  1  0.88308000  0.17285000  0.16174000  1.0
  H  H13  1  0.37010000  0.78278000  0.77405000  1.0
  H  H14  1  0.42961000  0.67969000  0.82741000  1.0
  H  H15  1  0.43006000  0.82626000  0.82079000  1.0
  H  H16  1  0.51066000  0.96297000  0.78343000  1.0
  H  H17  1  0.70491000  0.33802000  0.24452000  1.0
  H  H18  1  0.39626000  0.17811000  0.75484000  1.0
  H  H19  1  0.36743000  0.24231000  0.66350000  1.0
  H  H20  1  0.45137000  0.08888000  0.60180000  1.0
  H  H21  1  0.56342000  0.87156000  0.63052000  1.0
  H  H22  1  0.85718000  0.35333000  0.70825000  1.0
  H  H23  1  0.97453000  0.13709000  0.73547000  1.0
  H  H24  1  0.99719000  0.06853000  0.82705000  1.0
  H  H25  1  0.90258000  0.21621000  0.89024000  1.0
  H  H26  1  0.78302000  0.43433000  0.86304000  1.0
  H  H27  1  0.83158000  0.83458000  0.72138000  1.0
  H  H28  1  0.56663000  0.53339000  0.73674000  1.0
  H  H29  1  0.75428000  0.86964000  0.78164000  1.0
  H  H30  1  0.89242000  0.73783000  0.77596000  1.0
  H  H31  1  0.21188000  0.97911000  0.23920000  1.0
  H  H32  1  0.13934000  0.16987000  0.27959000  1.0
  H  H33  1  0.97781000  0.21191000  0.35072000  1.0
  H  H34  1  0.89329000  0.05927000  0.38161000  1.0
  H  H35  1  0.96812000  0.86686000  0.34209000  1.0
  H  H36  1  0.47384000  0.52231000  0.22693000  1.0
  H  H37  1  0.44924000  0.59731000  0.28189000  1.0
  H  H38  1  0.43203000  0.45912000  0.28625000  1.0
  H  H39  1  0.87785000  0.57167000  0.70167000  1.0
  H  H40  1  0.26993000  0.37587000  0.24152000  1.0
  H  H41  1  0.15352000  0.44493000  0.19921000  1.0
  H  H42  1  0.30150000  0.43620000  0.17985000  1.0
  H  H43  1  0.04498000  0.58003000  0.29661000  1.0
  H  H44  1  0.95127000  0.80579000  0.23691000  1.0
  H  H45  1  0.59354000  0.99547000  0.24356000  1.0
  H  H46  1  0.79269000  0.98870000  0.29059000  1.0
  H  H47  1  0.44405000  0.21716000  0.28507000  1.0
  H  H48  1  0.27393000  0.31305000  0.55427000  1.0
  H  H49  1  0.04422000  0.04414000  0.98904000  1.0
  C  C50  1  0.61247000  0.28653000  0.43391000  1.0
  C  C51  1  0.14626000  0.69636000  0.19805000  1.0
  C  C52  1  0.09856000  0.62547000  0.27451000  1.0
  C  C53  1  0.61255000  0.62300000  0.41806000  1.0
  C  C54  1  0.18473000  0.66759000  0.29778000  1.0
  C  C55  1  0.19908000  0.57033000  0.23141000  1.0
  C  C56  1  0.28593000  0.61421000  0.25355000  1.0
  C  C57  1  0.12146000  0.71183000  0.14716000  1.0
  C  C58  1  0.20885000  0.65142000  0.34862000  1.0
  C  C59  1  0.72865000  0.06717000  0.26935000  1.0
  C  C60  1  0.61810000  0.07177000  0.24423000  1.0
  C  C61  1  0.66056000  0.66638000  0.26886000  1.0
  C  C62  1  0.67426000  0.09812000  0.10128000  1.0
  C  C63  1  0.63279000  0.24049000  0.38581000  1.0
  C  C64  1  0.76411000  0.13893000  0.22173000  1.0
  C  C65  1  0.28336000  0.60616000  0.44001000  1.0
  C  C66  1  0.65255000  0.14296000  0.19545000  1.0
  C  C67  1  0.68001000  0.26189000  0.24378000  1.0
  C  C68  1  0.64527000  0.19084000  0.29271000  1.0
  C  C69  1  0.56967000  0.26608000  0.21863000  1.0
  C  C70  1  0.53498000  0.19453000  0.26623000  1.0
  C  C71  1  0.65945000  0.11966000  0.14510000  1.0
  C  C72  1  0.64948000  0.65883000  0.31918000  1.0
  C  C73  1  0.64048000  0.21610000  0.34275000  1.0
  C  C74  1  0.61320000  0.77312000  0.72755000  1.0
  C  C75  1  0.56458000  0.70109000  0.77198000  1.0
  C  C76  1  0.71064000  0.67253000  0.89106000  1.0
  C  C77  1  0.62795000  0.27595000  0.57538000  1.0
  C  C78  1  0.64745000  0.63561000  0.60221000  1.0
  C  C79  1  0.73896000  0.72228000  0.75189000  1.0
  C  C80  1  0.68886000  0.65160000  0.79746000  1.0
  C  C81  1  0.78808000  0.60897000  0.72195000  1.0
  C  C82  1  0.66506000  0.65767000  0.69633000  1.0
  C  C83  1  0.63784000  0.65019000  0.36530000  1.0
  C  C84  1  0.74089000  0.53693000  0.76595000  1.0
  C  C85  1  0.61583000  0.58787000  0.74170000  1.0
  C  C86  1  0.70097000  0.65914000  0.84793000  1.0
  C  C87  1  0.65467000  0.64909000  0.64561000  1.0
  C  C88  1  0.10746000  0.70319000  0.86479000  1.0
  C  C89  1  0.62352000  0.61041000  0.55571000  1.0
  C  C90  1  0.13715000  0.68512000  0.82038000  1.0
  C  C91  1  0.16619000  0.66726000  0.77158000  1.0
  C  C92  1  0.18920000  0.65310000  0.72634000  1.0
  C  C93  1  0.21587000  0.63785000  0.67725000  1.0
  C  C94  1  0.13329000  0.79471000  0.26435000  1.0
  C  C95  1  0.24217000  0.62387000  0.63235000  1.0
  C  C96  1  0.68549000  0.09896000  0.86104000  1.0
  C  C97  1  0.68174000  0.12484000  0.81550000  1.0
  C  C98  1  0.68011000  0.15063000  0.76572000  1.0
  C  C99  1  0.68011000  0.17096000  0.71964000  1.0
  C  C100  1  0.67447000  0.19713000  0.67000000  1.0
  C  C101  1  0.29146000  0.59931000  0.58159000  1.0
  C  C102  1  0.66370000  0.22399000  0.62480000  1.0
  C  C103  1  0.04931000  0.74240000  0.05577000  1.0
  C  C104  1  0.71985000  0.71516000  0.07359000  1.0
  C  C105  1  0.23422000  0.73912000  0.22074000  1.0
  C  C106  1  0.70875000  0.05180000  0.05300000  1.0
  C  C107  1  0.05307000  0.73613000  0.91422000  1.0
  C  C108  1  0.73385000  0.70135000  0.93683000  1.0
  C  C109  1  0.71045000  0.04924000  0.91172000  1.0
  C  C110  1  0.69316000  0.68710000  0.12613000  1.0
  C  C111  1  0.68068000  0.67840000  0.17223000  1.0
  C  C112  1  0.66922000  0.67103000  0.22254000  1.0
  C  C113  1  0.31231000  0.79209000  0.18779000  1.0
  C  C114  1  0.88744000  0.10930000  0.19542000  1.0
  C  C115  1  0.44219000  0.75005000  0.80001000  1.0
  C  C116  1  0.09768000  0.72262000  0.10362000  1.0
  C  C117  1  0.54515000  0.90123000  0.70899000  1.0
  C  C118  1  0.49696000  0.98953000  0.74358000  1.0
  C  C119  1  0.43254000  0.11111000  0.72743000  1.0
  C  C120  1  0.41592000  0.14702000  0.67643000  1.0
  C  C121  1  0.46368000  0.06052000  0.64166000  1.0
  C  C122  1  0.52747000  0.93853000  0.65786000  1.0
  C  C123  1  0.81141000  0.40880000  0.78389000  1.0
  C  C124  1  0.86686000  0.32384000  0.74823000  1.0
  C  C125  1  0.93318000  0.20213000  0.76358000  1.0
  C  C126  1  0.94593000  0.16366000  0.81468000  1.0
  C  C127  1  0.23319000  0.63740000  0.39218000  1.0
  C  C128  1  0.89186000  0.24730000  0.85047000  1.0
  C  C129  1  0.82461000  0.36915000  0.83506000  1.0
  C  C130  1  0.80793000  0.79504000  0.75822000  1.0
  C  C131  1  0.09373000  0.91019000  0.28701000  1.0
  C  C132  1  0.14230000  0.99598000  0.27044000  1.0
  C  C133  1  0.10092000  0.10389000  0.29324000  1.0
  C  C134  1  0.01077000  0.12763000  0.33298000  1.0
  C  C135  1  0.96318000  0.04173000  0.35040000  1.0
  C  C136  1  0.00473000  0.93408000  0.32778000  1.0
  C  C137  1  0.41705000  0.54415000  0.26243000  1.0
  C  C138  1  0.04695000  0.74990000  0.24244000  1.0
  C  C139  1  0.23303000  0.45041000  0.21207000  1.0
  O  O140  1  0.30879000  0.49949000  0.46015000  1.0
  O  O141  1  0.64299000  0.81327000  0.05314000  1.0
  O  O142  1  0.63075000  0.02637000  0.03408000  1.0
  O  O143  1  0.51647000  0.29521000  0.46072000  1.0
  O  O144  1  0.80712000  0.04274000  0.92669000  1.0
  O  O145  1  0.01877000  0.84559000  0.92195000  1.0
  O  O146  1  0.04029000  0.65133000  0.94549000  1.0
  O  O147  1  0.83678000  0.63519000  0.95459000  1.0
  O  O148  1  0.65270000  0.79501000  0.95651000  1.0
  O  O149  1  0.63363000  0.01088000  0.93679000  1.0
  O  O150  1  0.83725000  0.84272000  0.98962000  1.0
  O  O151  1  0.69689000  0.51053000  0.53806000  1.0
  O  O152  1  0.69365000  0.31956000  0.44512000  1.0
  O  O153  1  0.69174000  0.52789000  0.43926000  1.0
  O  O154  1  0.51041000  0.69230000  0.43802000  1.0
  O  O155  1  0.30307000  0.68894000  0.45788000  1.0
  O  O156  1  0.30684000  0.49899000  0.56759000  1.0
  O  O157  1  0.51950000  0.30134000  0.56779000  1.0
  O  O158  1  0.70767000  0.29689000  0.54367000  1.0
  O  O159  1  0.52719000  0.68645000  0.53541000  1.0
  O  O160  1  0.31988000  0.68192000  0.55562000  1.0
  O  O161  1  0.50003000  0.49095000  0.50173000  1.0
  O  O162  1  0.81411000  0.03499000  0.03346000  1.0
  O  O163  1  0.03134000  0.84151000  0.02924000  1.0
  O  O164  1  0.02348000  0.65664000  0.04444000  1.0
  O  O165  1  0.82033000  0.64394000  0.05313000  1.0
  O  O166  1  0.33124000  0.29920000  0.52494000  1.0
  O  O167  1  0.99584000  0.04371000  0.96341000  1.0
