# generated using pymatgen
data_ZnH23C23NO7
_symmetry_space_group_name_H-M   'P 1'
_cell_length_a   10.81390000
_cell_length_b   13.91330000
_cell_length_c   15.28050000
_cell_angle_alpha   90.03070000
_cell_angle_beta   90.07110000
_cell_angle_gamma   90.79620000
_symmetry_Int_Tables_number   1
_chemical_formula_structural   ZnH23C23NO7
_chemical_formula_sum   'Zn2 H46 C46 N2 O14'
_cell_volume   2298.83462055
_cell_formula_units_Z   2
loop_
 _symmetry_equiv_pos_site_id
 _symmetry_equiv_pos_as_xyz
  1  'x, y, z'
loop_
 _atom_site_type_symbol
 _atom_site_label
 _atom_site_symmetry_multiplicity
 _atom_site_fract_x
 _atom_site_fract_y
 _atom_site_fract_z
 _atom_site_occupancy
  Zn  Zn0  1  0.50562000  0.40151000  0.49420000  1.0
  Zn  Zn1  1  0.50196000  0.59989000  0.49599000  1.0
  H  H2  1  0.40247000  0.34919000  0.93257000  1.0
  H  H3  1  0.37440000  0.63706000  0.05980000  1.0
  H  H4  1  0.53960000  0.35733000  0.05050000  1.0
  H  H5  1  0.50408000  0.64946000  0.93845000  1.0
  H  H6  1  0.42001000  0.35054000  0.76939000  1.0
  H  H7  1  0.39909000  0.63838000  0.22257000  1.0
  H  H8  1  0.55779000  0.35840000  0.21364000  1.0
  H  H9  1  0.51798000  0.64965000  0.77516000  1.0
  H  H10  1  0.69774000  0.93453000  0.53194000  1.0
  H  H11  1  0.30978000  0.06813000  0.53115000  1.0
  H  H12  1  0.30957000  0.92934000  0.46164000  1.0
  H  H13  1  0.69713000  0.07129000  0.45932000  1.0
  H  H14  1  0.69160000  0.75448000  0.52643000  1.0
  H  H15  1  0.31663000  0.24807000  0.52349000  1.0
  H  H16  1  0.31848000  0.74933000  0.46628000  1.0
  H  H17  1  0.68905000  0.25137000  0.46182000  1.0
  H  H18  1  0.95537000  0.57547000  0.72879000  1.0
  H  H19  1  0.98547000  0.69064000  0.68263000  1.0
  H  H20  1  0.18116000  0.70521000  0.77309000  1.0
  H  H21  1  0.04866000  0.68761000  0.84115000  1.0
  H  H22  1  0.15026000  0.59054000  0.81964000  1.0
  H  H23  1  0.02527000  0.31140000  0.32586000  1.0
  H  H24  1  0.04865000  0.42612000  0.27727000  1.0
  H  H25  1  0.85084000  0.40399000  0.19041000  1.0
  H  H26  1  0.95703000  0.31029000  0.16782000  1.0
  H  H27  1  0.82815000  0.28894000  0.23843000  1.0
  H  H28  1  0.04534000  0.42952000  0.74050000  1.0
  H  H29  1  0.04562000  0.32149000  0.67845000  1.0
  H  H30  1  0.84976000  0.26624000  0.75342000  1.0
  H  H31  1  0.96671000  0.29316000  0.83266000  1.0
  H  H32  1  0.84515000  0.37578000  0.81304000  1.0
  H  H33  1  0.96224000  0.67952000  0.33015000  1.0
  H  H34  1  0.95986000  0.57028000  0.27000000  1.0
  H  H35  1  0.15685000  0.62101000  0.19266000  1.0
  H  H36  1  0.03639000  0.70504000  0.17499000  1.0
  H  H37  1  0.15733000  0.73144000  0.25122000  1.0
  H  H38  1  0.92186000  0.24945000  0.44422000  1.0
  H  H39  1  0.91484000  0.25611000  0.56028000  1.0
  H  H40  1  0.08289000  0.13300000  0.57181000  1.0
  H  H41  1  0.95605000  0.08692000  0.50960000  1.0
  H  H42  1  0.09249000  0.12801000  0.45518000  1.0
  H  H43  1  0.08135000  0.75181000  0.44147000  1.0
  H  H44  1  0.09579000  0.74365000  0.55712000  1.0
  H  H45  1  0.92708000  0.86561000  0.57495000  1.0
  H  H46  1  0.05054000  0.91342000  0.51061000  1.0
  H  H47  1  0.91169000  0.87277000  0.45876000  1.0
  C  C48  1  0.48815000  0.49935000  0.66574000  1.0
  C  C49  1  0.49715000  0.50097000  0.32468000  1.0
  C  C50  1  0.61176000  0.89695000  0.51544000  1.0
  C  C51  1  0.39575000  0.10521000  0.51394000  1.0
  C  C52  1  0.39582000  0.89415000  0.47839000  1.0
  C  C53  1  0.61126000  0.10698000  0.47598000  1.0
  C  C54  1  0.60914000  0.79705000  0.51423000  1.0
  C  C55  1  0.39872000  0.20506000  0.51148000  1.0
  C  C56  1  0.39980000  0.79445000  0.47952000  1.0
  C  C57  1  0.60767000  0.20670000  0.47590000  1.0
  C  C58  1  0.50368000  0.94783000  0.49678000  1.0
  C  C59  1  0.50357000  0.05383000  0.49580000  1.0
  C  C60  1  0.74199000  0.50468000  0.50175000  1.0
  C  C61  1  0.26499000  0.49598000  0.49687000  1.0
  C  C62  1  0.95819000  0.45563000  0.57759000  1.0
  C  C63  1  0.04852000  0.54454000  0.43039000  1.0
  C  C64  1  0.03772000  0.40416000  0.50378000  1.0
  C  C65  1  0.96966000  0.59592000  0.50438000  1.0
  C  C66  1  0.05205000  0.54454000  0.57678000  1.0
  C  C67  1  0.95588000  0.45534000  0.43119000  1.0
  C  C68  1  0.12769000  0.49321000  0.50304000  1.0
  C  C69  1  0.87958000  0.50684000  0.50529000  1.0
  C  C70  1  0.42910000  0.41508000  0.89833000  1.0
  C  C71  1  0.41651000  0.57633000  0.09314000  1.0
  C  C72  1  0.50625000  0.41835000  0.08817000  1.0
  C  C73  1  0.48325000  0.58409000  0.90149000  1.0
  C  C74  1  0.43795000  0.41547000  0.80753000  1.0
  C  C75  1  0.42923000  0.57734000  0.18373000  1.0
  C  C76  1  0.51797000  0.41893000  0.17883000  1.0
  C  C77  1  0.49227000  0.58454000  0.81073000  1.0
  C  C78  1  0.47169000  0.49985000  0.76301000  1.0
  C  C79  1  0.48109000  0.49901000  0.22733000  1.0
  C  C80  1  0.45390000  0.49898000  0.94708000  1.0
  C  C81  1  0.45661000  0.49745000  0.04356000  1.0
  C  C82  1  0.02974000  0.62717000  0.71178000  1.0
  C  C83  1  0.10697000  0.65424000  0.79105000  1.0
  C  C84  1  0.97717000  0.37286000  0.29627000  1.0
  C  C85  1  0.89873000  0.34219000  0.21869000  1.0
  C  C86  1  0.98516000  0.37284000  0.71223000  1.0
  C  C87  1  0.90713000  0.32407000  0.78194000  1.0
  C  C88  1  0.02131000  0.62718000  0.29642000  1.0
  C  C89  1  0.09752000  0.67391000  0.22466000  1.0
  C  C90  1  0.97663000  0.24116000  0.50469000  1.0
  C  C91  1  0.03050000  0.14149000  0.51068000  1.0
  C  C92  1  0.03042000  0.75912000  0.50362000  1.0
  C  C93  1  0.97652000  0.85854000  0.51252000  1.0
  N  N94  1  0.50456000  0.74709000  0.49685000  1.0
  N  N95  1  0.50335000  0.25448000  0.49329000  1.0
  O  O96  1  0.47050000  0.41948000  0.62647000  1.0
  O  O97  1  0.47760000  0.58063000  0.36306000  1.0
  O  O98  1  0.52902000  0.42298000  0.36152000  1.0
  O  O99  1  0.51929000  0.57860000  0.62972000  1.0
  O  O100  1  0.69103000  0.42289000  0.51421000  1.0
  O  O101  1  0.31533000  0.57773000  0.51082000  1.0
  O  O102  1  0.31887000  0.41862000  0.47667000  1.0
  O  O103  1  0.68827000  0.58307000  0.48467000  1.0
  O  O104  1  0.11182000  0.58468000  0.64835000  1.0
  O  O105  1  0.89508000  0.41464000  0.36027000  1.0
  O  O106  1  0.90096000  0.41471000  0.64973000  1.0
  O  O107  1  0.10653000  0.58580000  0.35866000  1.0
  O  O108  1  0.07815000  0.30970000  0.50419000  1.0
  O  O109  1  0.92921000  0.69036000  0.50545000  1.0
