# generated using pymatgen
data_Dy2H18C8S3(NO9)2
_symmetry_space_group_name_H-M   'P 1'
_cell_length_a   6.57724000
_cell_length_b   12.32700000
_cell_length_c   12.95200000
_cell_angle_alpha   76.32380000
_cell_angle_beta   76.00500000
_cell_angle_gamma   74.66440000
_symmetry_Int_Tables_number   1
_chemical_formula_structural   Dy2H18C8S3(NO9)2
_chemical_formula_sum   'Dy4 H36 C16 S6 N4 O36'
_cell_volume   965.82972501
_cell_formula_units_Z   2
loop_
 _symmetry_equiv_pos_site_id
 _symmetry_equiv_pos_as_xyz
  1  'x, y, z'
loop_
 _atom_site_type_symbol
 _atom_site_label
 _atom_site_symmetry_multiplicity
 _atom_site_fract_x
 _atom_site_fract_y
 _atom_site_fract_z
 _atom_site_occupancy
  Dy  Dy0  1  0.38773000  0.96418000  0.86026000  1.0
  Dy  Dy1  1  0.61226000  0.03582000  0.13975000  1.0
  Dy  Dy2  1  0.72126000  0.55549000  0.63286000  1.0
  Dy  Dy3  1  0.27874000  0.44451000  0.36714000  1.0
  H  H4  1  0.74941000  0.19736000  0.63644000  1.0
  H  H5  1  0.25059000  0.80265000  0.36355000  1.0
  H  H6  1  0.63125000  0.25256000  0.51828000  1.0
  H  H7  1  0.36876000  0.74744000  0.48172000  1.0
  H  H8  1  0.99992000  0.02313000  0.64521000  1.0
  H  H9  1  0.00008000  0.97688000  0.35479000  1.0
  H  H10  1  0.18095000  0.11081000  0.56749000  1.0
  H  H11  1  0.81905000  0.88919000  0.43252000  1.0
  H  H12  1  0.65955000  0.09648000  0.44072000  1.0
  H  H13  1  0.34045000  0.90352000  0.55928000  1.0
  H  H14  1  0.69338000  0.01443000  0.57206000  1.0
  H  H15  1  0.30662000  0.98557000  0.42794000  1.0
  H  H16  1  0.08144000  0.33635000  0.89647000  1.0
  H  H17  1  0.91857000  0.66365000  0.10353000  1.0
  H  H18  1  0.90286000  0.27842000  0.01200000  1.0
  H  H19  1  0.09715000  0.72159000  0.98800000  1.0
  H  H20  1  0.76965000  0.38919000  0.13839000  1.0
  H  H21  1  0.23035000  0.61081000  0.86161000  1.0
  H  H22  1  0.91029000  0.48412000  0.16042000  1.0
  H  H23  1  0.08971000  0.51588000  0.83958000  1.0
  H  H24  1  0.37881000  0.40887000  0.94621000  1.0
  H  H25  1  0.62119000  0.59113000  0.05379000  1.0
  H  H26  1  0.26765000  0.49609000  0.04657000  1.0
  H  H27  1  0.73235000  0.50391000  0.95343000  1.0
  H  H28  1  0.99122000  0.15546000  0.42424000  1.0
  H  H29  1  0.00878000  0.84454000  0.57576000  1.0
  H  H30  1  0.16273000  0.32929000  0.10971000  1.0
  H  H31  1  0.83727000  0.67072000  0.89029000  1.0
  H  H32  1  0.77282000  0.34067000  0.79202000  1.0
  H  H33  1  0.22718000  0.65933000  0.20798000  1.0
  H  H34  1  0.53881000  0.37730000  0.77647000  1.0
  H  H35  1  0.46119000  0.62271000  0.22352000  1.0
  H  H36  1  0.37841000  0.18563000  0.71771000  1.0
  H  H37  1  0.62159000  0.81437000  0.28229000  1.0
  H  H38  1  0.16263000  0.15265000  0.73055000  1.0
  H  H39  1  0.83737000  0.84735000  0.26946000  1.0
  C  C40  1  0.90819000  0.31519000  0.51239000  1.0
  C  C41  1  0.09183000  0.68481000  0.48761000  1.0
  C  C42  1  0.78258000  0.22182000  0.54816000  1.0
  C  C43  1  0.21742000  0.77819000  0.45184000  1.0
  C  C44  1  0.08317000  0.05326000  0.56313000  1.0
  C  C45  1  0.91683000  0.94674000  0.43688000  1.0
  C  C46  1  0.77713000  0.04455000  0.49011000  1.0
  C  C47  1  0.22288000  0.95545000  0.50989000  1.0
  C  C48  1  0.23109000  0.18889000  0.00130000  1.0
  C  C49  1  0.76890000  0.81110000  0.99870000  1.0
  C  C50  1  0.06175000  0.29921000  0.98289000  1.0
  C  C51  1  0.93825000  0.70079000  0.01711000  1.0
  C  C52  1  0.87448000  0.44882000  0.09823000  1.0
  C  C53  1  0.12552000  0.55118000  0.90177000  1.0
  C  C54  1  0.22951000  0.45976000  0.98569000  1.0
  C  C55  1  0.77049000  0.54024000  0.01431000  1.0
  S  S56  1  0.72125000  0.57491000  0.34881000  1.0
  S  S57  1  0.27875000  0.42509000  0.65119000  1.0
  S  S58  1  0.52109000  0.76209000  0.74308000  1.0
  S  S59  1  0.47891000  0.23791000  0.25692000  1.0
  S  S60  1  0.16282000  0.91041000  0.14796000  1.0
  S  S61  1  0.83717000  0.08959000  0.85205000  1.0
  N  N62  1  0.91225000  0.12065000  0.49981000  1.0
  N  N63  1  0.08775000  0.87935000  0.50019000  1.0
  N  N64  1  0.08378000  0.38052000  0.04740000  1.0
  N  N65  1  0.91622000  0.61948000  0.95260000  1.0
  O  O66  1  0.84156000  0.39927000  0.55981000  1.0
  O  O67  1  0.15848000  0.60073000  0.44019000  1.0
  O  O68  1  0.07015000  0.30243000  0.43643000  1.0
  O  O69  1  0.92985000  0.69757000  0.56356000  1.0
  O  O70  1  0.68659000  0.61921000  0.45024000  1.0
  O  O71  1  0.31341000  0.38079000  0.54975000  1.0
  O  O72  1  0.63563000  0.66997000  0.26428000  1.0
  O  O73  1  0.36437000  0.33003000  0.73571000  1.0
  O  O74  1  0.61113000  0.47945000  0.36485000  1.0
  O  O75  1  0.38888000  0.52055000  0.63514000  1.0
  O  O76  1  0.95462000  0.53184000  0.30876000  1.0
  O  O77  1  0.04539000  0.46817000  0.69123000  1.0
  O  O78  1  0.45629000  0.73233000  0.65218000  1.0
  O  O79  1  0.54371000  0.26767000  0.34782000  1.0
  O  O80  1  0.69111000  0.66041000  0.77742000  1.0
  O  O81  1  0.30888000  0.33959000  0.22258000  1.0
  O  O82  1  0.59901000  0.87099000  0.70770000  1.0
  O  O83  1  0.40098000  0.12901000  0.29230000  1.0
  O  O84  1  0.33653000  0.78226000  0.83433000  1.0
  O  O85  1  0.66346000  0.21774000  0.16566000  1.0
  O  O86  1  0.25393000  0.88524000  0.03763000  1.0
  O  O87  1  0.74605000  0.11477000  0.96237000  1.0
  O  O88  1  0.32456000  0.94228000  0.19152000  1.0
  O  O89  1  0.67543000  0.05771000  0.80849000  1.0
  O  O90  1  0.97028000  0.00715000  0.14890000  1.0
  O  O91  1  0.02971000  0.99285000  0.85110000  1.0
  O  O92  1  0.09892000  0.80652000  0.22078000  1.0
  O  O93  1  0.90106000  0.19348000  0.77922000  1.0
  O  O94  1  0.25845000  0.11900000  0.94021000  1.0
  O  O95  1  0.74155000  0.88100000  0.05979000  1.0
  O  O96  1  0.32775000  0.17688000  0.07793000  1.0
  O  O97  1  0.67225000  0.82311000  0.92207000  1.0
  O  O98  1  0.65254000  0.40909000  0.79132000  1.0
  O  O99  1  0.34747000  0.59092000  0.20868000  1.0
  O  O100  1  0.32129000  0.12096000  0.71203000  1.0
  O  O101  1  0.67870000  0.87904000  0.28797000  1.0
