# generated using pymatgen
data_CdH16C24(NO)4
_symmetry_space_group_name_H-M   'P 1'
_cell_length_a   7.97374000
_cell_length_b   10.68990294
_cell_length_c   13.11720000
_cell_angle_alpha   96.19053864
_cell_angle_beta   99.69630000
_cell_angle_gamma   110.64726183
_symmetry_Int_Tables_number   1
_chemical_formula_structural   CdH16C24(NO)4
_chemical_formula_sum   'Cd2 H32 C48 N8 O8'
_cell_volume   1014.23783220
_cell_formula_units_Z   2
loop_
 _symmetry_equiv_pos_site_id
 _symmetry_equiv_pos_as_xyz
  1  'x, y, z'
loop_
 _atom_site_type_symbol
 _atom_site_label
 _atom_site_symmetry_multiplicity
 _atom_site_fract_x
 _atom_site_fract_y
 _atom_site_fract_z
 _atom_site_occupancy
  Cd  Cd0  1  0.98756000  0.77765000  0.23308000  1.0
  Cd  Cd1  1  0.01245000  0.22236000  0.76692000  1.0
  H  H2  1  0.41557000  0.40007000  0.25352000  1.0
  H  H3  1  0.58444000  0.59992000  0.74648000  1.0
  H  H4  1  0.86890000  0.50222000  0.51817000  1.0
  H  H5  1  0.13111000  0.49778000  0.48183000  1.0
  H  H6  1  0.65612000  0.33663000  0.60544000  1.0
  H  H7  1  0.34389000  0.66338000  0.39456000  1.0
  H  H8  1  0.33015000  0.20832000  0.50906000  1.0
  H  H9  1  0.66986000  0.79169000  0.49094000  1.0
  H  H10  1  0.58993000  0.76505000  0.24271000  1.0
  H  H11  1  0.41008000  0.23496000  0.75729000  1.0
  H  H12  1  0.61103000  0.11967000  0.44173000  1.0
  H  H13  1  0.38897000  0.88033000  0.55828000  1.0
  H  H14  1  0.95690000  0.20456000  0.47666000  1.0
  H  H15  1  0.04310000  0.79544000  0.52335000  1.0
  H  H16  1  0.09961000  0.06275000  0.38280000  1.0
  H  H17  1  0.90039000  0.93725000  0.61720000  1.0
  H  H18  1  0.23231000  0.12058000  0.22464000  1.0
  H  H19  1  0.76770000  0.87942000  0.77536000  1.0
  H  H20  1  0.43684000  0.24944000  0.11477000  1.0
  H  H21  1  0.56317000  0.75056000  0.88523000  1.0
  H  H22  1  0.43071000  0.12995000  0.93747000  1.0
  H  H23  1  0.56929000  0.87004000  0.06253000  1.0
  H  H24  1  0.29956000  0.91787000  0.80136000  1.0
  H  H25  1  0.70043000  0.08213000  0.19864000  1.0
  H  H26  1  0.07895000  0.67985000  0.74044000  1.0
  H  H27  1  0.92104000  0.32015000  0.25956000  1.0
  H  H28  1  0.84150000  0.47270000  0.77644000  1.0
  H  H29  1  0.15850000  0.52730000  0.22356000  1.0
  H  H30  1  0.65561000  0.36278000  0.89874000  1.0
  H  H31  1  0.34441000  0.63722000  0.10126000  1.0
  H  H32  1  0.70070000  0.49789000  0.08003000  1.0
  H  H33  1  0.29931000  0.50210000  0.91997000  1.0
  C  C34  1  0.47203000  0.38550000  0.33115000  1.0
  C  C35  1  0.52798000  0.61450000  0.66885000  1.0
  C  C36  1  0.65735000  0.46223000  0.37813000  1.0
  C  C37  1  0.34267000  0.53778000  0.62187000  1.0
  C  C38  1  0.72594000  0.44450000  0.47858000  1.0
  C  C39  1  0.27406000  0.55550000  0.52142000  1.0
  C  C40  1  0.60763000  0.35286000  0.52711000  1.0
  C  C41  1  0.39238000  0.64715000  0.47289000  1.0
  C  C42  1  0.42556000  0.28137000  0.47311000  1.0
  C  C43  1  0.57444000  0.71863000  0.52689000  1.0
  C  C44  1  0.77251000  0.56394000  0.32249000  1.0
  C  C45  1  0.22749000  0.43606000  0.67751000  1.0
  C  C46  1  0.66624000  0.86442000  0.29252000  1.0
  C  C47  1  0.33377000  0.13559000  0.70748000  1.0
  C  C48  1  0.57492000  0.93818000  0.33747000  1.0
  C  C49  1  0.42509000  0.06182000  0.66254000  1.0
  C  C50  1  0.68040000  0.06212000  0.40505000  1.0
  C  C51  1  0.31961000  0.93789000  0.59496000  1.0
  C  C52  1  0.87127000  0.10914000  0.42322000  1.0
  C  C53  1  0.12873000  0.89086000  0.57678000  1.0
  C  C54  1  0.95139000  0.03071000  0.37307000  1.0
  C  C55  1  0.04861000  0.96929000  0.62694000  1.0
  C  C56  1  0.36876000  0.88535000  0.31192000  1.0
  C  C57  1  0.63125000  0.11466000  0.68808000  1.0
  C  C58  1  0.23206000  0.07122000  0.14717000  1.0
  C  C59  1  0.76794000  0.92878000  0.85283000  1.0
  C  C60  1  0.34679000  0.14349000  0.08507000  1.0
  C  C61  1  0.65321000  0.85651000  0.91492000  1.0
  C  C62  1  0.34332000  0.07771000  0.98767000  1.0
  C  C63  1  0.65666000  0.92228000  0.01233000  1.0
  C  C64  1  0.22493000  0.94020000  0.95210000  1.0
  C  C65  1  0.77505000  0.05980000  0.04790000  1.0
  C  C66  1  0.21187000  0.86633000  0.85147000  1.0
  C  C67  1  0.78812000  0.13367000  0.14852000  1.0
  C  C68  1  0.09153000  0.73486000  0.81819000  1.0
  C  C69  1  0.90846000  0.26514000  0.18181000  1.0
  C  C70  1  0.97900000  0.66576000  0.88470000  1.0
  C  C71  1  0.02098000  0.33423000  0.11530000  1.0
  C  C72  1  0.85441000  0.52943000  0.85348000  1.0
  C  C73  1  0.14559000  0.47057000  0.14652000  1.0
  C  C74  1  0.75123000  0.46800000  0.92186000  1.0
  C  C75  1  0.24878000  0.53200000  0.07814000  1.0
  C  C76  1  0.77602000  0.54189000  0.02208000  1.0
  C  C77  1  0.22398000  0.45810000  0.97791000  1.0
  C  C78  1  0.99301000  0.73406000  0.98699000  1.0
  C  C79  1  0.00698000  0.26594000  0.01301000  1.0
  C  C80  1  0.11556000  0.87521000  0.02069000  1.0
  C  C81  1  0.88443000  0.12480000  0.97931000  1.0
  N  N82  1  0.35703000  0.29599000  0.37627000  1.0
  N  N83  1  0.64298000  0.70401000  0.62373000  1.0
  N  N84  1  0.85045000  0.90985000  0.30958000  1.0
  N  N85  1  0.14956000  0.09016000  0.69042000  1.0
  N  N86  1  0.12090000  0.94111000  0.11612000  1.0
  N  N87  1  0.87910000  0.05890000  0.88387000  1.0
  N  N88  1  0.89408000  0.67037000  0.05386000  1.0
  N  N89  1  0.10592000  0.32963000  0.94614000  1.0
  O  O90  1  0.69355000  0.58246000  0.23569000  1.0
  O  O91  1  0.30645000  0.41754000  0.76431000  1.0
  O  O92  1  0.94267000  0.62925000  0.36473000  1.0
  O  O93  1  0.05734000  0.37075000  0.63527000  1.0
  O  O94  1  0.28430000  0.77461000  0.24451000  1.0
  O  O95  1  0.71571000  0.22540000  0.75549000  1.0
  O  O96  1  0.28906000  0.95205000  0.35550000  1.0
  O  O97  1  0.71094000  0.04795000  0.64450000  1.0
