# generated using pymatgen
data_CeH19(C17O4)2
_symmetry_space_group_name_H-M   'P 1'
_cell_length_a   9.12099000
_cell_length_b   11.44360000
_cell_length_c   15.20200000
_cell_angle_alpha   86.48150000
_cell_angle_beta   89.27320000
_cell_angle_gamma   86.11080000
_symmetry_Int_Tables_number   1
_chemical_formula_structural   CeH19(C17O4)2
_chemical_formula_sum   'Ce2 H38 C68 O16'
_cell_volume   1580.04251255
_cell_formula_units_Z   2
loop_
 _symmetry_equiv_pos_site_id
 _symmetry_equiv_pos_as_xyz
  1  'x, y, z'
loop_
 _atom_site_type_symbol
 _atom_site_label
 _atom_site_symmetry_multiplicity
 _atom_site_fract_x
 _atom_site_fract_y
 _atom_site_fract_z
 _atom_site_occupancy
  Ce  Ce0  1  0.78905000  0.03102000  0.02281000  1.0
  Ce  Ce1  1  0.21104000  0.97037000  0.97837000  1.0
  H  H2  1  0.40282000  0.20429000  0.03453000  1.0
  H  H3  1  0.60060000  0.79763000  0.96425000  1.0
  H  H4  1  0.72784000  0.73745000  0.49858000  1.0
  H  H5  1  0.27209000  0.26237000  0.50075000  1.0
  H  H6  1  0.74702000  0.30718000  0.50669000  1.0
  H  H7  1  0.25459000  0.69255000  0.49339000  1.0
  H  H8  1  0.47201000  0.52613000  0.30905000  1.0
  H  H9  1  0.52920000  0.47303000  0.69083000  1.0
  H  H10  1  0.40632000  0.41838000  0.18060000  1.0
  H  H11  1  0.59480000  0.58105000  0.81943000  1.0
  H  H12  1  0.73301000  0.14174000  0.25390000  1.0
  H  H13  1  0.26728000  0.85681000  0.74666000  1.0
  H  H14  1  0.80293000  0.25085000  0.38063000  1.0
  H  H15  1  0.19726000  0.74763000  0.61972000  1.0
  H  H16  1  0.81692000  0.58325000  0.26598000  1.0
  H  H17  1  0.18391000  0.41575000  0.73344000  1.0
  H  H18  1  0.74702000  0.70184000  0.12963000  1.0
  H  H19  1  0.25481000  0.29763000  0.86992000  1.0
  H  H20  1  0.38746000  0.87456000  0.26722000  1.0
  H  H21  1  0.61546000  0.12639000  0.73219000  1.0
  H  H22  1  0.46647000  0.76347000  0.40696000  1.0
  H  H23  1  0.53540000  0.23699000  0.59244000  1.0
  H  H24  1  0.65608000  0.78046000  0.63532000  1.0
  H  H25  1  0.34328000  0.21961000  0.36407000  1.0
  H  H26  1  0.72582000  0.88781000  0.76361000  1.0
  H  H27  1  0.27249000  0.11233000  0.23608000  1.0
  H  H28  1  0.09132000  0.63741000  0.81403000  1.0
  H  H29  1  0.90676000  0.36307000  0.18661000  1.0
  H  H30  1  0.02433000  0.53059000  0.68445000  1.0
  H  H31  1  0.97497000  0.46973000  0.31599000  1.0
  H  H32  1  0.73765000  0.44972000  0.75843000  1.0
  H  H33  1  0.26099000  0.55122000  0.24130000  1.0
  H  H34  1  0.82934000  0.29718000  0.87060000  1.0
  H  H35  1  0.16681000  0.70371000  0.12972000  1.0
  H  H36  1  0.08255000  0.12095000  0.67223000  1.0
  H  H37  1  0.91539000  0.87868000  0.32950000  1.0
  H  H38  1  0.98546000  0.27103000  0.55807000  1.0
  H  H39  1  0.01461000  0.72852000  0.44295000  1.0
  C  C40  1  0.69242000  0.46485000  0.42729000  1.0
  C  C41  1  0.30870000  0.53450000  0.57245000  1.0
  C  C42  1  0.68663000  0.58930000  0.42615000  1.0
  C  C43  1  0.31414000  0.41015000  0.57341000  1.0
  C  C44  1  0.72998000  0.64186000  0.50137000  1.0
  C  C45  1  0.27030000  0.35792000  0.49816000  1.0
  C  C46  1  0.78605000  0.57895000  0.57747000  1.0
  C  C47  1  0.21405000  0.42118000  0.42228000  1.0
  C  C48  1  0.79608000  0.45442000  0.57760000  1.0
  C  C49  1  0.20444000  0.54568000  0.42233000  1.0
  C  C50  1  0.74678000  0.40252000  0.50343000  1.0
  C  C51  1  0.25451000  0.59722000  0.49650000  1.0
  C  C52  1  0.64466000  0.39841000  0.35383000  1.0
  C  C53  1  0.35632000  0.60067000  0.64626000  1.0
  C  C54  1  0.53113000  0.44311000  0.29660000  1.0
  C  C55  1  0.46995000  0.55598000  0.70335000  1.0
  C  C56  1  0.49345000  0.38295000  0.22493000  1.0
  C  C57  1  0.50758000  0.61623000  0.77510000  1.0
  C  C58  1  0.56677000  0.27434000  0.20860000  1.0
  C  C59  1  0.43402000  0.72455000  0.79137000  1.0
  C  C60  1  0.67578000  0.22571000  0.26704000  1.0
  C  C61  1  0.32458000  0.77293000  0.73335000  1.0
  C  C62  1  0.71333000  0.28717000  0.33843000  1.0
  C  C63  1  0.28699000  0.71150000  0.66189000  1.0
  C  C64  1  0.53120000  0.21150000  0.13178000  1.0
  C  C65  1  0.47042000  0.78864000  0.86786000  1.0
  C  C66  1  0.64586000  0.66440000  0.34601000  1.0
  C  C67  1  0.35515000  0.33495000  0.65344000  1.0
  C  C68  1  0.72412000  0.64818000  0.26705000  1.0
  C  C69  1  0.27691000  0.35099000  0.73243000  1.0
  C  C70  1  0.68460000  0.71374000  0.19037000  1.0
  C  C71  1  0.31699000  0.28569000  0.80911000  1.0
  C  C72  1  0.56161000  0.79431000  0.18961000  1.0
  C  C73  1  0.44039000  0.20551000  0.80980000  1.0
  C  C74  1  0.48336000  0.81221000  0.26805000  1.0
  C  C75  1  0.51889000  0.18808000  0.73137000  1.0
  C  C76  1  0.52780000  0.74995000  0.34598000  1.0
  C  C77  1  0.47391000  0.25007000  0.65343000  1.0
  C  C78  1  0.51579000  0.85591000  0.10452000  1.0
  C  C79  1  0.48591000  0.14342000  0.89482000  1.0
  C  C80  1  0.83347000  0.64536000  0.65138000  1.0
  C  C81  1  0.16601000  0.35488000  0.34841000  1.0
  C  C82  1  0.75331000  0.74941000  0.67324000  1.0
  C  C83  1  0.24594000  0.25084000  0.32635000  1.0
  C  C84  1  0.79110000  0.80944000  0.74550000  1.0
  C  C85  1  0.20769000  0.19094000  0.25414000  1.0
  C  C86  1  0.91150000  0.76843000  0.79800000  1.0
  C  C87  1  0.08702000  0.23224000  0.20199000  1.0
  C  C88  1  0.99558000  0.66782000  0.77473000  1.0
  C  C89  1  0.00299000  0.33275000  0.22551000  1.0
  C  C90  1  0.95721000  0.60780000  0.70249000  1.0
  C  C91  1  0.04192000  0.39259000  0.29770000  1.0
  C  C92  1  0.94857000  0.83292000  0.87662000  1.0
  C  C93  1  0.04887000  0.16790000  0.12375000  1.0
  C  C94  1  0.85321000  0.37077000  0.64965000  1.0
  C  C95  1  0.14644000  0.62959000  0.35067000  1.0
  C  C96  1  0.81122000  0.37712000  0.73861000  1.0
  C  C97  1  0.18730000  0.62356000  0.26152000  1.0
  C  C98  1  0.86311000  0.29188000  0.80192000  1.0
  C  C99  1  0.13408000  0.70877000  0.19858000  1.0
  C  C100  1  0.96109000  0.19916000  0.77809000  1.0
  C  C101  1  0.03595000  0.80117000  0.22286000  1.0
  C  C102  1  0.00369000  0.19180000  0.68964000  1.0
  C  C103  1  0.99435000  0.80816000  0.31155000  1.0
  C  C104  1  0.94948000  0.27582000  0.62647000  1.0
  C  C105  1  0.04993000  0.72417000  0.37438000  1.0
  C  C106  1  0.03033000  0.11381000  0.84495000  1.0
  C  C107  1  0.96725000  0.88705000  0.15624000  1.0
  O  O108  1  0.59904000  0.11680000  0.11336000  1.0
  O  O109  1  0.40115000  0.88252000  0.88600000  1.0
  O  O110  1  0.42278000  0.26032000  0.08174000  1.0
  O  O111  1  0.58108000  0.74184000  0.91634000  1.0
  O  O112  1  0.61819000  0.87411000  0.04636000  1.0
  O  O113  1  0.38297000  0.12443000  0.95258000  1.0
  O  O114  1  0.38086000  0.88332000  0.09067000  1.0
  O  O115  1  0.62075000  0.11650000  0.90904000  1.0
  O  O116  1  0.07988000  0.82221000  0.90519000  1.0
  O  O117  1  0.91731000  0.17920000  0.09556000  1.0
  O  O118  1  0.84432000  0.89760000  0.90936000  1.0
  O  O119  1  0.15208000  0.10244000  0.09066000  1.0
  O  O120  1  0.14262000  0.04940000  0.82456000  1.0
  O  O121  1  0.85528000  0.95194000  0.17661000  1.0
  O  O122  1  0.98059000  0.10953000  0.92539000  1.0
  O  O123  1  0.01778000  0.89169000  0.07588000  1.0
