# generated using pymatgen
data_CoH7C9(N2O)2
_symmetry_space_group_name_H-M   'P 1'
_cell_length_a   8.84672000
_cell_length_b   9.94405000
_cell_length_c   15.98760000
_cell_angle_alpha   100.09800000
_cell_angle_beta   89.99900000
_cell_angle_gamma   89.99990000
_symmetry_Int_Tables_number   1
_chemical_formula_structural   CoH7C9(N2O)2
_chemical_formula_sum   'Co4 H28 C36 N16 O8'
_cell_volume   1384.67763792
_cell_formula_units_Z   4
loop_
 _symmetry_equiv_pos_site_id
 _symmetry_equiv_pos_as_xyz
  1  'x, y, z'
loop_
 _atom_site_type_symbol
 _atom_site_label
 _atom_site_symmetry_multiplicity
 _atom_site_fract_x
 _atom_site_fract_y
 _atom_site_fract_z
 _atom_site_occupancy
  Co  Co0  1  0.07026000  0.13471000  0.08886000  1.0
  Co  Co1  1  0.57028000  0.36530000  0.91114000  1.0
  Co  Co2  1  0.92975000  0.86529000  0.91114000  1.0
  Co  Co3  1  0.42973000  0.63471000  0.08886000  1.0
  H  H4  1  0.35789000  0.13186000  0.86142000  1.0
  H  H5  1  0.85791000  0.36815000  0.13859000  1.0
  H  H6  1  0.64208000  0.86815000  0.13858000  1.0
  H  H7  1  0.14211000  0.63185000  0.86142000  1.0
  H  H8  1  0.23219000  0.05053000  0.92276000  1.0
  H  H9  1  0.73220000  0.44950000  0.07724000  1.0
  H  H10  1  0.76780000  0.94950000  0.07724000  1.0
  H  H11  1  0.26781000  0.55052000  0.92276000  1.0
  H  H12  1  0.95741000  0.46313000  0.35106000  1.0
  H  H13  1  0.45740000  0.03686000  0.64894000  1.0
  H  H14  1  0.04259000  0.53687000  0.64894000  1.0
  H  H15  1  0.54256000  0.96315000  0.35105000  1.0
  H  H16  1  0.13843000  0.37298000  0.58668000  1.0
  H  H17  1  0.63843000  0.12701000  0.41333000  1.0
  H  H18  1  0.86157000  0.62699000  0.41333000  1.0
  H  H19  1  0.36157000  0.87298000  0.58668000  1.0
  H  H20  1  0.25273000  0.16484000  0.50822000  1.0
  H  H21  1  0.75275000  0.33515000  0.49177000  1.0
  H  H22  1  0.74728000  0.83515000  0.49177000  1.0
  H  H23  1  0.24726000  0.66485000  0.50823000  1.0
  H  H24  1  0.21757000  0.10046000  0.35094000  1.0
  H  H25  1  0.71758000  0.39953000  0.64906000  1.0
  H  H26  1  0.78242000  0.89952000  0.64905000  1.0
  H  H27  1  0.28241000  0.60047000  0.35094000  1.0
  H  H28  1  0.20246000  0.43651000  0.14946000  1.0
  H  H29  1  0.70246000  0.06350000  0.85054000  1.0
  H  H30  1  0.79756000  0.56349000  0.85054000  1.0
  H  H31  1  0.29754000  0.93650000  0.14945000  1.0
  C  C32  1  0.06170000  0.24704000  0.24955000  1.0
  C  C33  1  0.56173000  0.25295000  0.75045000  1.0
  C  C34  1  0.93831000  0.75295000  0.75045000  1.0
  C  C35  1  0.43828000  0.74705000  0.24955000  1.0
  C  C36  1  0.08442000  0.28000000  0.34320000  1.0
  C  C37  1  0.58443000  0.21999000  0.65681000  1.0
  C  C38  1  0.91560000  0.72000000  0.65680000  1.0
  C  C39  1  0.41557000  0.78000000  0.34319000  1.0
  C  C40  1  0.02039000  0.39998000  0.38804000  1.0
  C  C41  1  0.52036000  0.10002000  0.61196000  1.0
  C  C42  1  0.97959000  0.59999000  0.61197000  1.0
  C  C43  1  0.47960000  0.89999000  0.38803000  1.0
  C  C44  1  0.03594000  0.43696000  0.47643000  1.0
  C  C45  1  0.53593000  0.06304000  0.52357000  1.0
  C  C46  1  0.96409000  0.56304000  0.52357000  1.0
  C  C47  1  0.46408000  0.93695000  0.47643000  1.0
  C  C48  1  0.12168000  0.34915000  0.51820000  1.0
  C  C49  1  0.62173000  0.15082000  0.48180000  1.0
  C  C50  1  0.87833000  0.65084000  0.48180000  1.0
  C  C51  1  0.37831000  0.84916000  0.51820000  1.0
  C  C52  1  0.18665000  0.22988000  0.47386000  1.0
  C  C53  1  0.68664000  0.27010000  0.52614000  1.0
  C  C54  1  0.81334000  0.77009000  0.52614000  1.0
  C  C55  1  0.31334000  0.72989000  0.47386000  1.0
  C  C56  1  0.16803000  0.19373000  0.38624000  1.0
  C  C57  1  0.66799000  0.30627000  0.61376000  1.0
  C  C58  1  0.83202000  0.80628000  0.61376000  1.0
  C  C59  1  0.33199000  0.69372000  0.38624000  1.0
  C  C60  1  0.24720000  0.39031000  0.08801000  1.0
  C  C61  1  0.74720000  0.10971000  0.91199000  1.0
  C  C62  1  0.75281000  0.60970000  0.91199000  1.0
  C  C63  1  0.25280000  0.89030000  0.08801000  1.0
  C  C64  1  0.28955000  0.24693000  0.97305000  1.0
  C  C65  1  0.78956000  0.25307000  0.02694000  1.0
  C  C66  1  0.71043000  0.75307000  0.02693000  1.0
  C  C67  1  0.21044000  0.74693000  0.97306000  1.0
  N  N68  1  0.34713000  0.44989000  0.04507000  1.0
  N  N69  1  0.84712000  0.05014000  0.95494000  1.0
  N  N70  1  0.65289000  0.55013000  0.95493000  1.0
  N  N71  1  0.15287000  0.94988000  0.04507000  1.0
  N  N72  1  0.37593000  0.35881000  0.96949000  1.0
  N  N73  1  0.87594000  0.14120000  0.03052000  1.0
  N  N74  1  0.62405000  0.64120000  0.03052000  1.0
  N  N75  1  0.12406000  0.85881000  0.96949000  1.0
  N  N76  1  0.20730000  0.26414000  0.04654000  1.0
  N  N77  1  0.70730000  0.23588000  0.95345000  1.0
  N  N78  1  0.79271000  0.73589000  0.95345000  1.0
  N  N79  1  0.29269000  0.76413000  0.04654000  1.0
  N  N80  1  0.28489000  0.13620000  0.91168000  1.0
  N  N81  1  0.78491000  0.36382000  0.08832000  1.0
  N  N82  1  0.71509000  0.86382000  0.08831000  1.0
  N  N83  1  0.21510000  0.63619000  0.91168000  1.0
  O  O84  1  0.10616000  0.12892000  0.20952000  1.0
  O  O85  1  0.60616000  0.37108000  0.79047000  1.0
  O  O86  1  0.89384000  0.87107000  0.79048000  1.0
  O  O87  1  0.39382000  0.62893000  0.20952000  1.0
  O  O88  1  0.00190000  0.33321000  0.21006000  1.0
  O  O89  1  0.50190000  0.16679000  0.78995000  1.0
  O  O90  1  0.99810000  0.66677000  0.78994000  1.0
  O  O91  1  0.49808000  0.83322000  0.21006000  1.0
