# generated using pymatgen
data_Ga2FeH28(C13N)2
_symmetry_space_group_name_H-M   'P 1'
_cell_length_a   7.51910000
_cell_length_b   8.80895000
_cell_length_c   9.68184000
_cell_angle_alpha   64.22840000
_cell_angle_beta   76.38930000
_cell_angle_gamma   73.60250000
_symmetry_Int_Tables_number   1
_chemical_formula_structural   Ga2FeH28(C13N)2
_chemical_formula_sum   'Ga2 Fe1 H28 C26 N2'
_cell_volume   549.28156159
_cell_formula_units_Z   1
loop_
 _symmetry_equiv_pos_site_id
 _symmetry_equiv_pos_as_xyz
  1  'x, y, z'
loop_
 _atom_site_type_symbol
 _atom_site_label
 _atom_site_symmetry_multiplicity
 _atom_site_fract_x
 _atom_site_fract_y
 _atom_site_fract_z
 _atom_site_occupancy
  Ga  Ga0  1  0.82916000  0.84540000  0.79665000  1.0
  Ga  Ga1  1  0.17084000  0.15460000  0.20335000  1.0
  Fe  Fe2  1  0.00000000  0.00000000  0.00000000  1.0
  H  H3  1  0.61341000  0.02695000  0.04996000  1.0
  H  H4  1  0.38658000  0.97304000  0.95003000  1.0
  H  H5  1  0.25361000  0.72678000  0.93608000  1.0
  H  H6  1  0.74638000  0.27321000  0.06393000  1.0
  H  H7  1  0.96324000  0.65593000  0.16453000  1.0
  H  H8  1  0.03675000  0.34407000  0.83547000  1.0
  H  H9  1  0.92265000  0.85435000  0.32239000  1.0
  H  H10  1  0.07735000  0.14566000  0.67761000  1.0
  H  H11  1  0.82909000  0.16005000  0.32838000  1.0
  H  H12  1  0.17091000  0.83996000  0.67162000  1.0
  H  H13  1  0.89051000  0.35397000  0.29688000  1.0
  H  H14  1  0.10949000  0.64603000  0.70312000  1.0
  H  H15  1  0.95695000  0.16254000  0.45964000  1.0
  H  H16  1  0.04306000  0.83747000  0.54036000  1.0
  H  H17  1  0.36282000  0.29533000  0.93880000  1.0
  H  H18  1  0.63718000  0.70467000  0.06119000  1.0
  H  H19  1  0.37990000  0.38758000  0.06426000  1.0
  H  H20  1  0.62010000  0.61242000  0.93573000  1.0
  H  H21  1  0.17212000  0.45018000  0.97910000  1.0
  H  H22  1  0.82787000  0.54982000  0.02089000  1.0
  H  H23  1  0.19928000  0.37707000  0.30376000  1.0
  H  H24  1  0.80070000  0.62294000  0.69624000  1.0
  H  H25  1  0.18365000  0.56488000  0.43616000  1.0
  H  H26  1  0.81634000  0.43512000  0.56385000  1.0
  H  H27  1  0.35921000  0.45726000  0.66152000  1.0
  H  H28  1  0.64079000  0.54274000  0.33849000  1.0
  H  H29  1  0.56540000  0.16832000  0.74304000  1.0
  H  H30  1  0.43461000  0.83168000  0.25695000  1.0
  C  C31  1  0.83144000  0.04282000  0.84205000  1.0
  C  C32  1  0.16856000  0.95718000  0.15795000  1.0
  C  C33  1  0.27427000  0.91339000  0.03021000  1.0
  C  C34  1  0.72573000  0.08661000  0.96979000  1.0
  C  C35  1  0.79638000  0.21651000  0.97867000  1.0
  C  C36  1  0.20361000  0.78348000  0.02133000  1.0
  C  C37  1  0.94896000  0.25501000  0.85714000  1.0
  C  C38  1  0.05103000  0.74499000  0.14287000  1.0
  C  C39  1  0.96984000  0.14910000  0.77388000  1.0
  C  C40  1  0.03016000  0.85090000  0.22613000  1.0
  C  C41  1  0.93949000  0.21367000  0.33706000  1.0
  C  C42  1  0.06052000  0.78633000  0.66294000  1.0
  C  C43  1  0.28456000  0.34042000  0.02946000  1.0
  C  C44  1  0.71544000  0.65958000  0.97053000  1.0
  C  C45  1  0.38771000  0.16050000  0.44888000  1.0
  C  C46  1  0.61229000  0.83951000  0.55111000  1.0
  C  C47  1  0.27692000  0.33064000  0.40082000  1.0
  C  C48  1  0.72308000  0.66937000  0.59919000  1.0
  C  C49  1  0.26780000  0.43443000  0.47564000  1.0
  C  C50  1  0.73221000  0.56556000  0.52435000  1.0
  C  C51  1  0.36927000  0.37384000  0.60243000  1.0
  C  C52  1  0.63072000  0.62616000  0.39758000  1.0
  C  C53  1  0.48227000  0.21285000  0.64955000  1.0
  C  C54  1  0.51774000  0.78715000  0.35044000  1.0
  C  C55  1  0.50301000  0.89859000  0.42511000  1.0
  C  C56  1  0.49699000  0.10141000  0.57489000  1.0
  N  N57  1  0.39062000  0.05715000  0.37760000  1.0
  N  N58  1  0.60938000  0.94285000  0.62240000  1.0
