# generated using pymatgen
data_ZnH40C38N3O10
_symmetry_space_group_name_H-M   'P 1'
_cell_length_a   18.75670000
_cell_length_b   19.08320000
_cell_length_c   19.48820000
_cell_angle_alpha   90.83370000
_cell_angle_beta   89.91720000
_cell_angle_gamma   89.79930000
_symmetry_Int_Tables_number   1
_chemical_formula_structural   ZnH40C38N3O10
_chemical_formula_sum   'Zn2 H80 C76 N6 O20'
_cell_volume   6974.77551332
_cell_formula_units_Z   2
loop_
 _symmetry_equiv_pos_site_id
 _symmetry_equiv_pos_as_xyz
  1  'x, y, z'
loop_
 _atom_site_type_symbol
 _atom_site_label
 _atom_site_symmetry_multiplicity
 _atom_site_fract_x
 _atom_site_fract_y
 _atom_site_fract_z
 _atom_site_occupancy
  Zn  Zn0  1  0.58234000  0.50303000  0.49873000  1.0
  Zn  Zn1  1  0.41884000  0.50035000  0.49581000  1.0
  H  H2  1  0.59280000  0.28795000  0.54146000  1.0
  H  H3  1  0.63373000  0.48768000  0.28019000  1.0
  H  H4  1  0.41161000  0.53932000  0.28519000  1.0
  H  H5  1  0.62743000  0.50727000  0.71580000  1.0
  H  H6  1  0.39975000  0.45690000  0.83615000  1.0
  H  H7  1  0.63127000  0.48355000  0.15286000  1.0
  H  H8  1  0.40661000  0.53291000  0.15784000  1.0
  H  H9  1  0.62468000  0.50077000  0.84389000  1.0
  H  H10  1  0.60566000  0.41899000  0.93658000  1.0
  H  H11  1  0.41937000  0.55942000  0.05657000  1.0
  H  H12  1  0.60817000  0.43004000  0.06234000  1.0
  H  H13  1  0.36901000  0.71761000  0.54354000  1.0
  H  H14  1  0.41510000  0.54491000  0.93124000  1.0
  H  H15  1  0.76449000  0.67301000  0.58922000  1.0
  H  H16  1  0.71242000  0.60587000  0.62826000  1.0
  H  H17  1  0.60150000  0.67666000  0.61100000  1.0
  H  H18  1  0.66508000  0.72299000  0.66243000  1.0
  H  H19  1  0.65259000  0.74561000  0.57508000  1.0
  H  H20  1  0.24042000  0.40849000  0.32772000  1.0
  H  H21  1  0.29302000  0.36802000  0.39293000  1.0
  H  H22  1  0.40390000  0.38920000  0.32495000  1.0
  H  H23  1  0.34150000  0.33719000  0.27757000  1.0
  H  H24  1  0.58224000  0.72610000  0.46556000  1.0
  H  H25  1  0.35268000  0.42724000  0.25824000  1.0
  H  H26  1  0.76403000  0.32612000  0.41385000  1.0
  H  H27  1  0.71245000  0.39340000  0.37410000  1.0
  H  H28  1  0.60100000  0.32490000  0.39226000  1.0
  H  H29  1  0.66440000  0.27576000  0.34254000  1.0
  H  H30  1  0.65082000  0.25610000  0.43055000  1.0
  H  H31  1  0.23727000  0.59340000  0.66576000  1.0
  H  H32  1  0.28878000  0.63120000  0.59843000  1.0
  H  H33  1  0.40019000  0.61642000  0.66698000  1.0
  H  H34  1  0.33605000  0.66898000  0.71203000  1.0
  H  H35  1  0.37002000  0.27947000  0.49487000  1.0
  H  H36  1  0.35036000  0.58034000  0.73571000  1.0
  H  H37  1  0.76075000  0.68063000  0.44381000  1.0
  H  H38  1  0.82842000  0.64302000  0.38986000  1.0
  H  H39  1  0.91804000  0.72765000  0.44001000  1.0
  H  H40  1  0.84504000  0.77352000  0.40271000  1.0
  H  H41  1  0.85027000  0.76502000  0.49344000  1.0
  H  H42  1  0.23938000  0.55777000  0.32271000  1.0
  H  H43  1  0.16905000  0.60950000  0.35960000  1.0
  H  H44  1  0.08241000  0.55481000  0.27543000  1.0
  H  H45  1  0.15299000  0.59851000  0.23229000  1.0
  H  H46  1  0.59369000  0.15779000  0.56263000  1.0
  H  H47  1  0.15353000  0.50541000  0.23778000  1.0
  H  H48  1  0.76217000  0.32073000  0.55810000  1.0
  H  H49  1  0.83072000  0.35776000  0.61085000  1.0
  H  H50  1  0.91946000  0.27250000  0.55952000  1.0
  H  H51  1  0.84663000  0.22686000  0.59700000  1.0
  H  H52  1  0.85132000  0.23621000  0.50634000  1.0
  H  H53  1  0.23872000  0.43972000  0.67305000  1.0
  H  H54  1  0.16795000  0.38860000  0.63693000  1.0
  H  H55  1  0.08200000  0.44481000  0.72141000  1.0
  H  H56  1  0.15247000  0.40040000  0.76426000  1.0
  H  H57  1  0.36926000  0.84822000  0.56300000  1.0
  H  H58  1  0.15359000  0.49346000  0.75836000  1.0
  H  H59  1  0.99608000  0.43058000  0.32144000  1.0
  H  H60  1  0.92699000  0.49504000  0.32990000  1.0
  H  H61  1  0.83489000  0.40348000  0.30248000  1.0
  H  H62  1  0.89861000  0.40916000  0.23482000  1.0
  H  H63  1  0.90320000  0.33882000  0.29382000  1.0
  H  H64  1  0.00237000  0.68037000  0.56857000  1.0
  H  H65  1  0.07064000  0.67570000  0.50446000  1.0
  H  H66  1  0.16318000  0.70508000  0.59303000  1.0
  H  H67  1  0.09602000  0.77135000  0.59204000  1.0
  H  H68  1  0.58324000  0.85709000  0.48369000  1.0
  H  H69  1  0.09639000  0.70782000  0.65809000  1.0
  H  H70  1  0.99718000  0.56465000  0.67617000  1.0
  H  H71  1  0.92448000  0.50466000  0.66774000  1.0
  H  H72  1  0.83809000  0.60240000  0.69607000  1.0
  H  H73  1  0.90043000  0.59026000  0.76386000  1.0
  H  H74  1  0.91064000  0.66155000  0.70666000  1.0
  H  H75  1  0.00558000  0.31788000  0.43584000  1.0
  H  H76  1  0.07744000  0.32799000  0.49545000  1.0
  H  H77  1  0.16549000  0.29844000  0.40192000  1.0
  H  H78  1  0.10309000  0.22910000  0.41202000  1.0
  H  H79  1  0.36936000  0.14992000  0.51732000  1.0
  H  H80  1  0.09437000  0.28784000  0.34226000  1.0
  H  H81  1  0.40393000  0.46347000  0.70768000  1.0
  C  C82  1  0.52185000  0.50794000  0.36704000  1.0
  C  C83  1  0.45734000  0.51924000  0.96010000  1.0
  C  C84  1  0.51483000  0.49691000  0.06987000  1.0
  C  C85  1  0.51063000  0.48174000  0.92443000  1.0
  C  C86  1  0.73335000  0.56085000  0.50876000  1.0
  C  C87  1  0.26881000  0.48988000  0.43929000  1.0
  C  C88  1  0.73343000  0.44038000  0.49300000  1.0
  C  C89  1  0.26843000  0.50858000  0.55701000  1.0
  C  C90  1  0.80774000  0.56372000  0.49994000  1.0
  C  C91  1  0.19428000  0.49778000  0.43612000  1.0
  C  C92  1  0.80795000  0.43727000  0.50091000  1.0
  C  C93  1  0.51650000  0.49514000  0.62830000  1.0
  C  C94  1  0.19401000  0.50007000  0.55995000  1.0
  C  C95  1  0.84678000  0.50042000  0.50006000  1.0
  C  C96  1  0.15515000  0.49904000  0.49802000  1.0
  C  C97  1  0.96332000  0.45700000  0.45269000  1.0
  C  C98  1  0.03855000  0.54774000  0.54023000  1.0
  C  C99  1  0.96395000  0.54334000  0.54516000  1.0
  C  C100  1  0.03798000  0.45237000  0.45654000  1.0
  C  C101  1  0.07661000  0.49976000  0.49820000  1.0
  C  C102  1  0.92531000  0.50026000  0.49928000  1.0
  C  C103  1  0.48241000  0.36741000  0.50123000  1.0
  C  C104  1  0.51186000  0.47947000  0.84879000  1.0
  C  C105  1  0.47839000  0.63609000  0.50072000  1.0
  C  C106  1  0.54472000  0.25648000  0.53583000  1.0
  C  C107  1  0.41538000  0.74908000  0.53064000  1.0
  C  C108  1  0.53603000  0.75397000  0.48635000  1.0
  C  C109  1  0.41848000  0.25190000  0.50965000  1.0
  C  C110  1  0.54505000  0.18485000  0.54757000  1.0
  C  C111  1  0.41542000  0.82120000  0.54112000  1.0
  C  C112  1  0.53646000  0.82620000  0.49656000  1.0
  C  C113  1  0.41819000  0.18040000  0.52209000  1.0
  C  C114  1  0.48173000  0.14614000  0.54039000  1.0
  C  C115  1  0.51812000  0.50545000  0.14526000  1.0
  C  C116  1  0.47673000  0.86018000  0.52561000  1.0
  C  C117  1  0.48178000  0.29030000  0.51581000  1.0
  C  C118  1  0.47619000  0.71475000  0.50485000  1.0
  C  C119  1  0.47916000  0.93527000  0.54154000  1.0
  C  C120  1  0.48169000  0.07030000  0.54999000  1.0
  C  C121  1  0.45165000  0.47172000  0.73860000  1.0
  C  C122  1  0.58425000  0.49729000  0.25255000  1.0
  C  C123  1  0.45917000  0.52697000  0.25512000  1.0
  C  C124  1  0.57805000  0.49585000  0.74291000  1.0
  C  C125  1  0.44970000  0.46853000  0.80989000  1.0
  C  C126  1  0.51552000  0.48689000  0.70463000  1.0
  C  C127  1  0.58223000  0.49445000  0.18124000  1.0
  C  C128  1  0.45711000  0.52354000  0.18388000  1.0
  C  C129  1  0.57629000  0.49172000  0.81405000  1.0
  C  C130  1  0.71115000  0.64920000  0.59154000  1.0
  C  C131  1  0.65401000  0.70175000  0.61080000  1.0
  C  C132  1  0.29360000  0.40662000  0.35149000  1.0
  C  C133  1  0.35151000  0.38940000  0.30004000  1.0
  C  C134  1  0.71091000  0.35076000  0.41155000  1.0
  C  C135  1  0.65316000  0.29878000  0.39348000  1.0
  C  C136  1  0.29042000  0.59485000  0.64178000  1.0
  C  C137  1  0.52223000  0.51182000  0.29035000  1.0
  C  C138  1  0.34785000  0.61598000  0.69211000  1.0
  C  C139  1  0.81840000  0.67084000  0.43899000  1.0
  C  C140  1  0.86056000  0.73816000  0.44416000  1.0
  C  C141  1  0.18149000  0.56017000  0.33181000  1.0
  C  C142  1  0.14006000  0.55424000  0.26545000  1.0
  C  C143  1  0.81989000  0.33012000  0.56185000  1.0
  C  C144  1  0.86195000  0.26251000  0.55577000  1.0
  C  C145  1  0.18079000  0.43795000  0.66435000  1.0
  C  C146  1  0.13970000  0.44468000  0.73099000  1.0
  C  C147  1  0.93941000  0.43867000  0.33425000  1.0
  C  C148  1  0.56491000  0.45024000  0.96297000  1.0
  C  C149  1  0.89110000  0.39487000  0.28878000  1.0
  C  C150  1  0.05932000  0.66934000  0.55963000  1.0
  C  C151  1  0.10661000  0.71604000  0.60328000  1.0
  C  C152  1  0.94004000  0.56021000  0.66387000  1.0
  C  C153  1  0.89460000  0.60643000  0.71027000  1.0
  C  C154  1  0.06248000  0.33114000  0.44079000  1.0
  C  C155  1  0.10915000  0.28390000  0.39659000  1.0
  C  C156  1  0.45989000  0.52727000  0.03107000  1.0
  C  C157  1  0.56649000  0.45706000  0.03404000  1.0
  N  N158  1  0.41896000  0.03789000  0.56330000  1.0
  N  N159  1  0.54376000  0.96673000  0.54703000  1.0
  N  N160  1  0.41779000  0.96910000  0.55803000  1.0
  N  N161  1  0.54475000  0.03563000  0.55043000  1.0
  N  N162  1  0.69737000  0.50072000  0.50097000  1.0
  N  N163  1  0.30457000  0.49934000  0.49818000  1.0
  O  O164  1  0.58228000  0.49822000  0.39608000  1.0
  O  O165  1  0.30899000  0.47510000  0.38272000  1.0
  O  O166  1  0.69416000  0.38226000  0.47857000  1.0
  O  O167  1  0.30733000  0.52517000  0.61379000  1.0
  O  O168  1  0.84239000  0.62641000  0.49435000  1.0
  O  O169  1  0.15988000  0.50209000  0.37434000  1.0
  O  O170  1  0.84294000  0.37448000  0.50614000  1.0
  O  O171  1  0.15930000  0.49606000  0.62169000  1.0
  O  O172  1  0.92663000  0.41804000  0.40451000  1.0
  O  O173  1  0.07515000  0.59745000  0.57771000  1.0
  O  O174  1  0.92785000  0.58240000  0.59403000  1.0
  O  O175  1  0.45784000  0.48848000  0.59686000  1.0
  O  O176  1  0.07400000  0.40235000  0.41839000  1.0
  O  O177  1  0.57705000  0.50903000  0.60126000  1.0
  O  O178  1  0.46190000  0.51295000  0.39672000  1.0
  O  O179  1  0.54179000  0.39844000  0.50511000  1.0
  O  O180  1  0.41843000  0.60522000  0.50778000  1.0
  O  O181  1  0.53872000  0.60737000  0.49242000  1.0
  O  O182  1  0.42226000  0.39503000  0.48614000  1.0
  O  O183  1  0.69394000  0.61899000  0.52409000  1.0
