# generated using pymatgen
data_PrH6(C2O3)3
_symmetry_space_group_name_H-M   'P 1'
_cell_length_a   8.30189000
_cell_length_b   8.62784000
_cell_length_c   9.10219000
_cell_angle_alpha   94.66670000
_cell_angle_beta   116.43500000
_cell_angle_gamma   111.19600000
_symmetry_Int_Tables_number   1
_chemical_formula_structural   PrH6(C2O3)3
_chemical_formula_sum   'Pr2 H12 C12 O18'
_cell_volume   520.87025816
_cell_formula_units_Z   2
loop_
 _symmetry_equiv_pos_site_id
 _symmetry_equiv_pos_as_xyz
  1  'x, y, z'
loop_
 _atom_site_type_symbol
 _atom_site_label
 _atom_site_symmetry_multiplicity
 _atom_site_fract_x
 _atom_site_fract_y
 _atom_site_fract_z
 _atom_site_occupancy
  Pr  Pr0  1  0.08881000  0.02111000  0.27542000  1.0
  Pr  Pr1  1  0.91119000  0.97889000  0.72458000  1.0
  H  H2  1  0.30629000  0.41601000  0.30870000  1.0
  H  H3  1  0.69371000  0.58399000  0.69130000  1.0
  H  H4  1  0.20523000  0.30920000  0.11535000  1.0
  H  H5  1  0.79477000  0.69080000  0.88465000  1.0
  H  H6  1  0.35429000  0.88847000  0.56104000  1.0
  H  H7  1  0.64571000  0.11153000  0.43896000  1.0
  H  H8  1  0.16228000  0.72136000  0.40008000  1.0
  H  H9  1  0.83772000  0.27864000  0.59992000  1.0
  H  H10  1  0.90276000  0.20653000  0.40652000  1.0
  H  H11  1  0.09723000  0.79347000  0.59348000  1.0
  H  H12  1  0.96791000  0.33007000  0.29841000  1.0
  H  H13  1  0.03209000  0.66993000  0.70159000  1.0
  C  C14  1  0.35592000  0.22303000  0.69146000  1.0
  C  C15  1  0.64408000  0.77697000  0.30854000  1.0
  C  C16  1  0.53895000  0.33019000  0.85303000  1.0
  C  C17  1  0.46105000  0.66981000  0.14696000  1.0
  C  C18  1  0.33957000  0.00666000  0.11598000  1.0
  C  C19  1  0.66043000  0.99334000  0.88402000  1.0
  C  C20  1  0.88982000  0.55841000  0.12038000  1.0
  C  C21  1  0.11018000  0.44159000  0.87962000  1.0
  C  C22  1  0.69920000  0.42441000  0.98221000  1.0
  C  C23  1  0.30081000  0.57559000  0.01779000  1.0
  C  C24  1  0.45627000  0.00297000  0.03786000  1.0
  C  C25  1  0.54374000  0.99702000  0.96215000  1.0
  O  O26  1  0.20858000  0.83965000  0.47243000  1.0
  O  O27  1  0.79142000  0.16035000  0.52757000  1.0
  O  O28  1  0.40802000  0.02107000  0.27459000  1.0
  O  O29  1  0.59198000  0.97893000  0.72541000  1.0
  O  O30  1  0.37441000  0.22098000  0.56016000  1.0
  O  O31  1  0.62558000  0.77902000  0.43984000  1.0
  O  O32  1  0.26915000  0.30513000  0.23652000  1.0
  O  O33  1  0.73085000  0.69487000  0.76348000  1.0
  O  O34  1  0.96945000  0.22616000  0.33742000  1.0
  O  O35  1  0.03055000  0.77384000  0.66258000  1.0
  O  O36  1  0.19411000  0.14080000  0.69058000  1.0
  O  O37  1  0.80589000  0.85920000  0.30943000  1.0
  O  O38  1  0.16400000  0.99376000  0.02013000  1.0
  O  O39  1  0.83600000  0.00624000  0.97987000  1.0
  O  O40  1  0.93210000  0.70950000  0.09745000  1.0
  O  O41  1  0.06790000  0.29050000  0.90255000  1.0
  O  O42  1  0.00057000  0.52405000  0.24918000  1.0
  O  O43  1  0.99943000  0.47595000  0.75081000  1.0
