# generated using pymatgen
data_CuH6C5N5O
_symmetry_space_group_name_H-M   'P 1'
_cell_length_a   6.98436000
_cell_length_b   9.64954000
_cell_length_c   11.27680000
_cell_angle_alpha   89.98760000
_cell_angle_beta   104.06000000
_cell_angle_gamma   89.98480000
_symmetry_Int_Tables_number   1
_chemical_formula_structural   CuH6C5N5O
_chemical_formula_sum   'Cu4 H24 C20 N20 O4'
_cell_volume   737.24111090
_cell_formula_units_Z   4
loop_
 _symmetry_equiv_pos_site_id
 _symmetry_equiv_pos_as_xyz
  1  'x, y, z'
loop_
 _atom_site_type_symbol
 _atom_site_label
 _atom_site_symmetry_multiplicity
 _atom_site_fract_x
 _atom_site_fract_y
 _atom_site_fract_z
 _atom_site_occupancy
  Cu  Cu0  1  0.14975000  0.87700000  0.71764000  1.0
  Cu  Cu1  1  0.64955000  0.62249000  0.21758000  1.0
  Cu  Cu2  1  0.85023000  0.12296000  0.28230000  1.0
  Cu  Cu3  1  0.35045000  0.37752000  0.78242000  1.0
  H  H4  1  0.91192000  0.35457000  0.17681000  1.0
  H  H5  1  0.41157000  0.14538000  0.67727000  1.0
  H  H6  1  0.08810000  0.64545000  0.82318000  1.0
  H  H7  1  0.58843000  0.85462000  0.32273000  1.0
  H  H8  1  0.05534000  0.22706000  0.14739000  1.0
  H  H9  1  0.55484000  0.27264000  0.64746000  1.0
  H  H10  1  0.94466000  0.77296000  0.85260000  1.0
  H  H11  1  0.44515000  0.72737000  0.35254000  1.0
  H  H12  1  0.36541000  0.22031000  0.47111000  1.0
  H  H13  1  0.86555000  0.27974000  0.97124000  1.0
  H  H14  1  0.63463000  0.77971000  0.52889000  1.0
  H  H15  1  0.13445000  0.72027000  0.02876000  1.0
  H  H16  1  0.34218000  0.12914000  0.33248000  1.0
  H  H17  1  0.84247000  0.37079000  0.83264000  1.0
  H  H18  1  0.65780000  0.87087000  0.66751000  1.0
  H  H19  1  0.15752000  0.62921000  0.16735000  1.0
  H  H20  1  0.28003000  0.37647000  0.27932000  1.0
  H  H21  1  0.77981000  0.12359000  0.77952000  1.0
  H  H22  1  0.71998000  0.62354000  0.72069000  1.0
  H  H23  1  0.22019000  0.87641000  0.22048000  1.0
  H  H24  1  0.11055000  0.38776000  0.37428000  1.0
  H  H25  1  0.61075000  0.11238000  0.87467000  1.0
  H  H26  1  0.88945000  0.61224000  0.62572000  1.0
  H  H27  1  0.38925000  0.88762000  0.12534000  1.0
  C  C28  1  0.56424000  0.83677000  0.88669000  1.0
  C  C29  1  0.06422000  0.66365000  0.38722000  1.0
  C  C30  1  0.43573000  0.16323000  0.11329000  1.0
  C  C31  1  0.93577000  0.33633000  0.61278000  1.0
  C  C32  1  0.80943000  0.89781000  0.05465000  1.0
  C  C33  1  0.30995000  0.60221000  0.55459000  1.0
  C  C34  1  0.19056000  0.10219000  0.94533000  1.0
  C  C35  1  0.69006000  0.39775000  0.44541000  1.0
  C  C36  1  0.09838000  0.03319000  0.50227000  1.0
  C  C37  1  0.59864000  0.46684000  0.00248000  1.0
  C  C38  1  0.90165000  0.96681000  0.49774000  1.0
  C  C39  1  0.40136000  0.53316000  0.99753000  1.0
  C  C40  1  0.26021000  0.19126000  0.38574000  1.0
  C  C41  1  0.76028000  0.30886000  0.88590000  1.0
  C  C42  1  0.73979000  0.80874000  0.61426000  1.0
  C  C43  1  0.23972000  0.69115000  0.11410000  1.0
  C  C44  1  0.16919000  0.31890000  0.31405000  1.0
  C  C45  1  0.66919000  0.18121000  0.81436000  1.0
  C  C46  1  0.83081000  0.68110000  0.68594000  1.0
  C  C47  1  0.33081000  0.81879000  0.18565000  1.0
  N  N48  1  0.41210000  0.84091000  0.81351000  1.0
  N  N49  1  0.91132000  0.65998000  0.31479000  1.0
  N  N50  1  0.58786000  0.15911000  0.18649000  1.0
  N  N51  1  0.08867000  0.34002000  0.68522000  1.0
  N  N52  1  0.73888000  0.82288000  0.95766000  1.0
  N  N53  1  0.23947000  0.67709000  0.45749000  1.0
  N  N54  1  0.26109000  0.17713000  0.04234000  1.0
  N  N55  1  0.76055000  0.32287000  0.54250000  1.0
  N  N56  1  0.88915000  0.95909000  0.14336000  1.0
  N  N57  1  0.38954000  0.54083000  0.64330000  1.0
  N  N58  1  0.11084000  0.04091000  0.85663000  1.0
  N  N59  1  0.61049000  0.45914000  0.35670000  1.0
  N  N60  1  0.09599000  0.11085000  0.40741000  1.0
  N  N61  1  0.59629000  0.38930000  0.90743000  1.0
  N  N62  1  0.90402000  0.88914000  0.59260000  1.0
  N  N63  1  0.40372000  0.61071000  0.09258000  1.0
  N  N64  1  0.00168000  0.27301000  0.21504000  1.0
  N  N65  1  0.50132000  0.22694000  0.71531000  1.0
  N  N66  1  0.99833000  0.72701000  0.78495000  1.0
  N  N67  1  0.49868000  0.77306000  0.28470000  1.0
  O  O68  1  0.24256000  0.00924000  0.59495000  1.0
  O  O69  1  0.74313000  0.49097000  0.09516000  1.0
  O  O70  1  0.75743000  0.99071000  0.40510000  1.0
  O  O71  1  0.25687000  0.50905000  0.90486000  1.0
