# generated using pymatgen
data_Ni3H36C57N3O13
_symmetry_space_group_name_H-M   'P 1'
_cell_length_a   25.49217765
_cell_length_b   25.49190000
_cell_length_c   25.49180000
_cell_angle_alpha   109.47100000
_cell_angle_beta   109.47112341
_cell_angle_gamma   109.47144127
_symmetry_Int_Tables_number   1
_chemical_formula_structural   Ni3H36C57N3O13
_chemical_formula_sum   'Ni12 H144 C228 N12 O52'
_cell_volume   12752.29278504
_cell_formula_units_Z   4
loop_
 _symmetry_equiv_pos_site_id
 _symmetry_equiv_pos_as_xyz
  1  'x, y, z'
loop_
 _atom_site_type_symbol
 _atom_site_label
 _atom_site_symmetry_multiplicity
 _atom_site_fract_x
 _atom_site_fract_y
 _atom_site_fract_z
 _atom_site_occupancy
  Ni  Ni0  1  0.63608000  0.55830000  0.63608000  1.0
  Ni  Ni1  1  0.92221000  0.00000000  0.36391000  1.0
  Ni  Ni2  1  0.36391000  0.00000000  0.92221000  1.0
  Ni  Ni3  1  0.07778000  0.44169000  0.07778000  1.0
  Ni  Ni4  1  0.55830000  0.63609000  0.63608000  1.0
  Ni  Ni5  1  0.00000000  0.36391000  0.92221000  1.0
  Ni  Ni6  1  0.00000000  0.92222000  0.36391000  1.0
  Ni  Ni7  1  0.44169000  0.07778000  0.07778000  1.0
  Ni  Ni8  1  0.63609000  0.63610000  0.55831000  1.0
  Ni  Ni9  1  0.36390000  0.92221000  0.99999000  1.0
  Ni  Ni10  1  0.92221000  0.36391000  0.00000000  1.0
  Ni  Ni11  1  0.07779000  0.07779000  0.44170000  1.0
  H  H12  1  0.49923000  0.11692000  0.21592000  1.0
  H  H13  1  0.90100000  0.28332000  0.78407000  1.0
  H  H14  1  0.50075000  0.71668000  0.61767000  1.0
  H  H15  1  0.09900000  0.88308000  0.38232000  1.0
  H  H16  1  0.11692000  0.21592000  0.49924000  1.0
  H  H17  1  0.28330000  0.78406000  0.90099000  1.0
  H  H18  1  0.71668000  0.61768000  0.50076000  1.0
  H  H19  1  0.88308000  0.38233000  0.09902000  1.0
  H  H20  1  0.21592000  0.49924000  0.11693000  1.0
  H  H21  1  0.78406000  0.90099000  0.28330000  1.0
  H  H22  1  0.61768000  0.50074000  0.71669000  1.0
  H  H23  1  0.38231000  0.09900000  0.88307000  1.0
  H  H24  1  0.11693000  0.49925000  0.21593000  1.0
  H  H25  1  0.28331000  0.90099000  0.78407000  1.0
  H  H26  1  0.71669000  0.50075000  0.61769000  1.0
  H  H27  1  0.88307000  0.09900000  0.38231000  1.0
  H  H28  1  0.21593000  0.11692000  0.49924000  1.0
  H  H29  1  0.78408000  0.28332000  0.90100000  1.0
  H  H30  1  0.61768000  0.71668000  0.50075000  1.0
  H  H31  1  0.38232000  0.88309000  0.09900000  1.0
  H  H32  1  0.49923000  0.21592000  0.11692000  1.0
  H  H33  1  0.90101000  0.78408000  0.28332000  1.0
  H  H34  1  0.50075000  0.61768000  0.71668000  1.0
  H  H35  1  0.09902000  0.38232000  0.88309000  1.0
  H  H36  1  0.54451000  0.21437000  0.31855000  1.0
  H  H37  1  0.89584000  0.22597000  0.68146000  1.0
  H  H38  1  0.45548000  0.77403000  0.66985000  1.0
  H  H39  1  0.10419000  0.78564000  0.33015000  1.0
  H  H40  1  0.21437000  0.31855000  0.54451000  1.0
  H  H41  1  0.22596000  0.68145000  0.89583000  1.0
  H  H42  1  0.77403000  0.66984000  0.45548000  1.0
  H  H43  1  0.78562000  0.33014000  0.10418000  1.0
  H  H44  1  0.31856000  0.54452000  0.21437000  1.0
  H  H45  1  0.68144000  0.89582000  0.22596000  1.0
  H  H46  1  0.66986000  0.45548000  0.77404000  1.0
  H  H47  1  0.33014000  0.10418000  0.78563000  1.0
  H  H48  1  0.21437000  0.54453000  0.31857000  1.0
  H  H49  1  0.22596000  0.89582000  0.68145000  1.0
  H  H50  1  0.77404000  0.45548000  0.66987000  1.0
  H  H51  1  0.78562000  0.10417000  0.33013000  1.0
  H  H52  1  0.31855000  0.21437000  0.54451000  1.0
  H  H53  1  0.68145000  0.22596000  0.89582000  1.0
  H  H54  1  0.66985000  0.77403000  0.45547000  1.0
  H  H55  1  0.33015000  0.78564000  0.10419000  1.0
  H  H56  1  0.54451000  0.31855000  0.21437000  1.0
  H  H57  1  0.89582000  0.68144000  0.22596000  1.0
  H  H58  1  0.45548000  0.66986000  0.77404000  1.0
  H  H59  1  0.10419000  0.33015000  0.78564000  1.0
  H  H60  1  0.57139000  0.29186000  0.39575000  1.0
  H  H61  1  0.89612000  0.17564000  0.60425000  1.0
  H  H62  1  0.42860000  0.82437000  0.72047000  1.0
  H  H63  1  0.10391000  0.70813000  0.27954000  1.0
  H  H64  1  0.29186000  0.39575000  0.57139000  1.0
  H  H65  1  0.17565000  0.60425000  0.89613000  1.0
  H  H66  1  0.82437000  0.72047000  0.42860000  1.0
  H  H67  1  0.70812000  0.27952000  0.10389000  1.0
  H  H68  1  0.39577000  0.57140000  0.29188000  1.0
  H  H69  1  0.60423000  0.89611000  0.17563000  1.0
  H  H70  1  0.72048000  0.42861000  0.82437000  1.0
  H  H71  1  0.27952000  0.10388000  0.70812000  1.0
  H  H72  1  0.29187000  0.57140000  0.39577000  1.0
  H  H73  1  0.17563000  0.89610000  0.60423000  1.0
  H  H74  1  0.82437000  0.42861000  0.72049000  1.0
  H  H75  1  0.70812000  0.10388000  0.27952000  1.0
  H  H76  1  0.39576000  0.29187000  0.57139000  1.0
  H  H77  1  0.60424000  0.17564000  0.89610000  1.0
  H  H78  1  0.72048000  0.82436000  0.42860000  1.0
  H  H79  1  0.27953000  0.70813000  0.10390000  1.0
  H  H80  1  0.57140000  0.39577000  0.29187000  1.0
  H  H81  1  0.89612000  0.60425000  0.17565000  1.0
  H  H82  1  0.42859000  0.72047000  0.82435000  1.0
  H  H83  1  0.10390000  0.27953000  0.70813000  1.0
  H  H84  1  0.59698000  0.38692000  0.48983000  1.0
  H  H85  1  0.89709000  0.10715000  0.51017000  1.0
  H  H86  1  0.40301000  0.89285000  0.78992000  1.0
  H  H87  1  0.10292000  0.61308000  0.21007000  1.0
  H  H88  1  0.38691000  0.48983000  0.59698000  1.0
  H  H89  1  0.10715000  0.51016000  0.89708000  1.0
  H  H90  1  0.89285000  0.78993000  0.40301000  1.0
  H  H91  1  0.61307000  0.21007000  0.10291000  1.0
  H  H92  1  0.48984000  0.59698000  0.38693000  1.0
  H  H93  1  0.51015000  0.89708000  0.10714000  1.0
  H  H94  1  0.78994000  0.40302000  0.89287000  1.0
  H  H95  1  0.21007000  0.10292000  0.61308000  1.0
  H  H96  1  0.38692000  0.59698000  0.48984000  1.0
  H  H97  1  0.10715000  0.89708000  0.51016000  1.0
  H  H98  1  0.89286000  0.40302000  0.78994000  1.0
  H  H99  1  0.61308000  0.10292000  0.21007000  1.0
  H  H100  1  0.48983000  0.38692000  0.59698000  1.0
  H  H101  1  0.51016000  0.10715000  0.89707000  1.0
  H  H102  1  0.78994000  0.89285000  0.40301000  1.0
  H  H103  1  0.21006000  0.61307000  0.10292000  1.0
  H  H104  1  0.59698000  0.48983000  0.38691000  1.0
  H  H105  1  0.89708000  0.51016000  0.10715000  1.0
  H  H106  1  0.40300000  0.78993000  0.89284000  1.0
  H  H107  1  0.10292000  0.21006000  0.61307000  1.0
  H  H108  1  0.83589000  0.62954000  0.73255000  1.0
  H  H109  1  0.89700000  0.10335000  0.26745000  1.0
  H  H110  1  0.16410000  0.89666000  0.79363000  1.0
  H  H111  1  0.10302000  0.37048000  0.20636000  1.0
  H  H112  1  0.62953000  0.73255000  0.83589000  1.0
  H  H113  1  0.10335000  0.26746000  0.89700000  1.0
  H  H114  1  0.89666000  0.79364000  0.16411000  1.0
  H  H115  1  0.37047000  0.20635000  0.10301000  1.0
  H  H116  1  0.73255000  0.83590000  0.62954000  1.0
  H  H117  1  0.26744000  0.89698000  0.10333000  1.0
  H  H118  1  0.79364000  0.16411000  0.89666000  1.0
  H  H119  1  0.20635000  0.10301000  0.37046000  1.0
  H  H120  1  0.62952000  0.83589000  0.73254000  1.0
  H  H121  1  0.10334000  0.89698000  0.26745000  1.0
  H  H122  1  0.89666000  0.16411000  0.79365000  1.0
  H  H123  1  0.37045000  0.10301000  0.20635000  1.0
  H  H124  1  0.73254000  0.62953000  0.83588000  1.0
  H  H125  1  0.26745000  0.10335000  0.89699000  1.0
  H  H126  1  0.79365000  0.89665000  0.16411000  1.0
  H  H127  1  0.20636000  0.37047000  0.10302000  1.0
  H  H128  1  0.83588000  0.73254000  0.62953000  1.0
  H  H129  1  0.89699000  0.26746000  0.10335000  1.0
  H  H130  1  0.16411000  0.79365000  0.89665000  1.0
  H  H131  1  0.10302000  0.20635000  0.37047000  1.0
  H  H132  1  0.95361000  0.68177000  0.78561000  1.0
  H  H133  1  0.89616000  0.16800000  0.21439000  1.0
  H  H134  1  0.04638000  0.83200000  0.72814000  1.0
  H  H135  1  0.10387000  0.31825000  0.27186000  1.0
  H  H136  1  0.68176000  0.78561000  0.95361000  1.0
  H  H137  1  0.16801000  0.21440000  0.89617000  1.0
  H  H138  1  0.83200000  0.72814000  0.04638000  1.0
  H  H139  1  0.31825000  0.27185000  0.10386000  1.0
  H  H140  1  0.78561000  0.95361000  0.68177000  1.0
  H  H141  1  0.21438000  0.89614000  0.16799000  1.0
  H  H142  1  0.72815000  0.04639000  0.83200000  1.0
  H  H143  1  0.27184000  0.10384000  0.31823000  1.0
  H  H144  1  0.68176000  0.95362000  0.78561000  1.0
  H  H145  1  0.16799000  0.89614000  0.21438000  1.0
  H  H146  1  0.83200000  0.04639000  0.72816000  1.0
  H  H147  1  0.31823000  0.10385000  0.27185000  1.0
  H  H148  1  0.78561000  0.68175000  0.95360000  1.0
  H  H149  1  0.21438000  0.16800000  0.89615000  1.0
  H  H150  1  0.72815000  0.83199000  0.04638000  1.0
  H  H151  1  0.27186000  0.31825000  0.10387000  1.0
  H  H152  1  0.95360000  0.78561000  0.68175000  1.0
  H  H153  1  0.89616000  0.21440000  0.16801000  1.0
  H  H154  1  0.04639000  0.72816000  0.83200000  1.0
  H  H155  1  0.10386000  0.27185000  0.31824000  1.0
  C  C156  1  0.51036000  0.16305000  0.21839000  1.0
  C  C157  1  0.94466000  0.29198000  0.78161000  1.0
  C  C158  1  0.48963000  0.70802000  0.65267000  1.0
  C  C159  1  0.05535000  0.83696000  0.34732000  1.0
  C  C160  1  0.16305000  0.21839000  0.51037000  1.0
  C  C161  1  0.29197000  0.78161000  0.94466000  1.0
  C  C162  1  0.70803000  0.65268000  0.48964000  1.0
  C  C163  1  0.83696000  0.34732000  0.05536000  1.0
  C  C164  1  0.21840000  0.51037000  0.16306000  1.0
  C  C165  1  0.78160000  0.94465000  0.29196000  1.0
  C  C166  1  0.65268000  0.48963000  0.70803000  1.0
  C  C167  1  0.34731000  0.05534000  0.83694000  1.0
  C  C168  1  0.16306000  0.51038000  0.21841000  1.0
  C  C169  1  0.29197000  0.94465000  0.78160000  1.0
  C  C170  1  0.70803000  0.48963000  0.65269000  1.0
  C  C171  1  0.83695000  0.05534000  0.34731000  1.0
  C  C172  1  0.21839000  0.16304000  0.51036000  1.0
  C  C173  1  0.78161000  0.29198000  0.94466000  1.0
  C  C174  1  0.65268000  0.70803000  0.48963000  1.0
  C  C175  1  0.34732000  0.83696000  0.05535000  1.0
  C  C176  1  0.51036000  0.21839000  0.16304000  1.0
  C  C177  1  0.94466000  0.78161000  0.29197000  1.0
  C  C178  1  0.48963000  0.65268000  0.70802000  1.0
  C  C179  1  0.05536000  0.34733000  0.83697000  1.0
  C  C180  1  0.53584000  0.21838000  0.27565000  1.0
  C  C181  1  0.94275000  0.26020000  0.72436000  1.0
  C  C182  1  0.46415000  0.73980000  0.68254000  1.0
  C  C183  1  0.05727000  0.78162000  0.31746000  1.0
  C  C184  1  0.21839000  0.27565000  0.53585000  1.0
  C  C185  1  0.26019000  0.72434000  0.94274000  1.0
  C  C186  1  0.73980000  0.68254000  0.46415000  1.0
  C  C187  1  0.78161000  0.31746000  0.05726000  1.0
  C  C188  1  0.27566000  0.53585000  0.21839000  1.0
  C  C189  1  0.72435000  0.94274000  0.26020000  1.0
  C  C190  1  0.68254000  0.46414000  0.73980000  1.0
  C  C191  1  0.31745000  0.05726000  0.78160000  1.0
  C  C192  1  0.21839000  0.53585000  0.27566000  1.0
  C  C193  1  0.26019000  0.94273000  0.72434000  1.0
  C  C194  1  0.73980000  0.46414000  0.68254000  1.0
  C  C195  1  0.78161000  0.05726000  0.31746000  1.0
  C  C196  1  0.27565000  0.21839000  0.53584000  1.0
  C  C197  1  0.72435000  0.26020000  0.94274000  1.0
  C  C198  1  0.68254000  0.73980000  0.46415000  1.0
  C  C199  1  0.31746000  0.78162000  0.05727000  1.0
  C  C200  1  0.53584000  0.27565000  0.21838000  1.0
  C  C201  1  0.94274000  0.72434000  0.26019000  1.0
  C  C202  1  0.46415000  0.68254000  0.73980000  1.0
  C  C203  1  0.05727000  0.31747000  0.78162000  1.0
  C  C204  1  0.54768000  0.27695000  0.27695000  1.0
  C  C205  1  0.00001000  0.27073000  0.72305000  1.0
  C  C206  1  0.45232000  0.72928000  0.72927000  1.0
  C  C207  1  0.00001000  0.72305000  0.27073000  1.0
  C  C208  1  0.27695000  0.27695000  0.54768000  1.0
  C  C209  1  0.27073000  0.72305000  0.00001000  1.0
  C  C210  1  0.72927000  0.72926000  0.45231000  1.0
  C  C211  1  0.72305000  0.27073000  0.00001000  1.0
  C  C212  1  0.27696000  0.54768000  0.27696000  1.0
  C  C213  1  0.72304000  0.99999000  0.27072000  1.0
  C  C214  1  0.72927000  0.45231000  0.72927000  1.0
  C  C215  1  0.27072000  0.99999000  0.72304000  1.0
  C  C216  1  0.56834000  0.33537000  0.33537000  1.0
  C  C217  1  0.00001000  0.23298000  0.66463000  1.0
  C  C218  1  0.43165000  0.76703000  0.76702000  1.0
  C  C219  1  0.00001000  0.66463000  0.23298000  1.0
  C  C220  1  0.33537000  0.33537000  0.56834000  1.0
  C  C221  1  0.23298000  0.66463000  0.00002000  1.0
  C  C222  1  0.76703000  0.76702000  0.43165000  1.0
  C  C223  1  0.66462000  0.23297000  0.00000000  1.0
  C  C224  1  0.33538000  0.56835000  0.33538000  1.0
  C  C225  1  0.66462000  0.00000000  0.23297000  1.0
  C  C226  1  0.76704000  0.43166000  0.76704000  1.0
  C  C227  1  0.23297000  0.00000000  0.66462000  1.0
  C  C228  1  0.57697000  0.33482000  0.39268000  1.0
  C  C229  1  0.94215000  0.18429000  0.60732000  1.0
  C  C230  1  0.42302000  0.81572000  0.75784000  1.0
  C  C231  1  0.05788000  0.66518000  0.24216000  1.0
  C  C232  1  0.33482000  0.39268000  0.57697000  1.0
  C  C233  1  0.18430000  0.60732000  0.94215000  1.0
  C  C234  1  0.81572000  0.75785000  0.42302000  1.0
  C  C235  1  0.66517000  0.24215000  0.05786000  1.0
  C  C236  1  0.39269000  0.57697000  0.33483000  1.0
  C  C237  1  0.60730000  0.94213000  0.18428000  1.0
  C  C238  1  0.75786000  0.42303000  0.81573000  1.0
  C  C239  1  0.24215000  0.05786000  0.66517000  1.0
  C  C240  1  0.33483000  0.57698000  0.39270000  1.0
  C  C241  1  0.18428000  0.94212000  0.60730000  1.0
  C  C242  1  0.81572000  0.42302000  0.75786000  1.0
  C  C243  1  0.66517000  0.05787000  0.24215000  1.0
  C  C244  1  0.39269000  0.33482000  0.57697000  1.0
  C  C245  1  0.60731000  0.18429000  0.94213000  1.0
  C  C246  1  0.75785000  0.81570000  0.42302000  1.0
  C  C247  1  0.24216000  0.66518000  0.05788000  1.0
  C  C248  1  0.57697000  0.39268000  0.33482000  1.0
  C  C249  1  0.94215000  0.60732000  0.18430000  1.0
  C  C250  1  0.42301000  0.75785000  0.81570000  1.0
  C  C251  1  0.05787000  0.24215000  0.66517000  1.0
  C  C252  1  0.59149000  0.38814000  0.44607000  1.0
  C  C253  1  0.94206000  0.14541000  0.55392000  1.0
  C  C254  1  0.40850000  0.85458000  0.79663000  1.0
  C  C255  1  0.05794000  0.61186000  0.20336000  1.0
  C  C256  1  0.38813000  0.44608000  0.59149000  1.0
  C  C257  1  0.14542000  0.55392000  0.94206000  1.0
  C  C258  1  0.85459000  0.79664000  0.40851000  1.0
  C  C259  1  0.61186000  0.20336000  0.05794000  1.0
  C  C260  1  0.44608000  0.59149000  0.38814000  1.0
  C  C261  1  0.55392000  0.94206000  0.14541000  1.0
  C  C262  1  0.79665000  0.40851000  0.85460000  1.0
  C  C263  1  0.20336000  0.05794000  0.61186000  1.0
  C  C264  1  0.38814000  0.59149000  0.44608000  1.0
  C  C265  1  0.14542000  0.94206000  0.55392000  1.0
  C  C266  1  0.85460000  0.40852000  0.79666000  1.0
  C  C267  1  0.61186000  0.05794000  0.20335000  1.0
  C  C268  1  0.44607000  0.38813000  0.59148000  1.0
  C  C269  1  0.55392000  0.14542000  0.94205000  1.0
  C  C270  1  0.79664000  0.85457000  0.40850000  1.0
  C  C271  1  0.20336000  0.61187000  0.05795000  1.0
  C  C272  1  0.59149000  0.44608000  0.38813000  1.0
  C  C273  1  0.94206000  0.55393000  0.14542000  1.0
  C  C274  1  0.40850000  0.79665000  0.85458000  1.0
  C  C275  1  0.05795000  0.20336000  0.61186000  1.0
  C  C276  1  0.59812000  0.44414000  0.44414000  1.0
  C  C277  1  0.00001000  0.15398000  0.55586000  1.0
  C  C278  1  0.40187000  0.84602000  0.84601000  1.0
  C  C279  1  0.00000000  0.55586000  0.15398000  1.0
  C  C280  1  0.44414000  0.44414000  0.59812000  1.0
  C  C281  1  0.15399000  0.55587000  0.00001000  1.0
  C  C282  1  0.84602000  0.84601000  0.40187000  1.0
  C  C283  1  0.55585000  0.15398000  0.99999000  1.0
  C  C284  1  0.44415000  0.59812000  0.44415000  1.0
  C  C285  1  0.55585000  0.00000000  0.15398000  1.0
  C  C286  1  0.84603000  0.40188000  0.84604000  1.0
  C  C287  1  0.15398000  0.99999000  0.55585000  1.0
  C  C288  1  0.61156000  0.50110000  0.50109000  1.0
  C  C289  1  0.00000000  0.11046000  0.49890000  1.0
  C  C290  1  0.38843000  0.88953000  0.88952000  1.0
  C  C291  1  0.00001000  0.49891000  0.11048000  1.0
  C  C292  1  0.50109000  0.50109000  0.61156000  1.0
  C  C293  1  0.11048000  0.49891000  0.00002000  1.0
  C  C294  1  0.88954000  0.88953000  0.38844000  1.0
  C  C295  1  0.49890000  0.11047000  0.99999000  1.0
  C  C296  1  0.50110000  0.61156000  0.50110000  1.0
  C  C297  1  0.49890000  0.00000000  0.11046000  1.0
  C  C298  1  0.88955000  0.38845000  0.88955000  1.0
  C  C299  1  0.11047000  0.00000000  0.49890000  1.0
  C  C300  1  0.75654000  0.64802000  0.64802000  1.0
  C  C301  1  0.00000000  0.10852000  0.35197000  1.0
  C  C302  1  0.24345000  0.89148000  0.89147000  1.0
  C  C303  1  0.00001000  0.35199000  0.10854000  1.0
  C  C304  1  0.64801000  0.64802000  0.75654000  1.0
  C  C305  1  0.10854000  0.35199000  0.00002000  1.0
  C  C306  1  0.89148000  0.89147000  0.24345000  1.0
  C  C307  1  0.35197000  0.10852000  0.99999000  1.0
  C  C308  1  0.64802000  0.75655000  0.64802000  1.0
  C  C309  1  0.35197000  0.00000000  0.10852000  1.0
  C  C310  1  0.89149000  0.24347000  0.89150000  1.0
  C  C311  1  0.10851000  0.99999000  0.35197000  1.0
  C  C312  1  0.82814000  0.67787000  0.67786000  1.0
  C  C313  1  0.00001000  0.15028000  0.32213000  1.0
  C  C314  1  0.17185000  0.84973000  0.84971000  1.0
  C  C315  1  0.00001000  0.32214000  0.15029000  1.0
  C  C316  1  0.67786000  0.67786000  0.82814000  1.0
  C  C317  1  0.15028000  0.32213000  0.00001000  1.0
  C  C318  1  0.84972000  0.84971000  0.17184000  1.0
  C  C319  1  0.32213000  0.15028000  0.00000000  1.0
  C  C320  1  0.67786000  0.82814000  0.67786000  1.0
  C  C321  1  0.32212000  0.00000000  0.15027000  1.0
  C  C322  1  0.84973000  0.17186000  0.84974000  1.0
  C  C323  1  0.15027000  0.99999000  0.32212000  1.0
  C  C324  1  0.86232000  0.66362000  0.72150000  1.0
  C  C325  1  0.94213000  0.14083000  0.27850000  1.0
  C  C326  1  0.13767000  0.85918000  0.80129000  1.0
  C  C327  1  0.05789000  0.33639000  0.19871000  1.0
  C  C328  1  0.66362000  0.72151000  0.86233000  1.0
  C  C329  1  0.14082000  0.27849000  0.94212000  1.0
  C  C330  1  0.85918000  0.80129000  0.13767000  1.0
  C  C331  1  0.33638000  0.19870000  0.05788000  1.0
  C  C332  1  0.72150000  0.86232000  0.66362000  1.0
  C  C333  1  0.27848000  0.94211000  0.14080000  1.0
  C  C334  1  0.80130000  0.13768000  0.85919000  1.0
  C  C335  1  0.19870000  0.05788000  0.33638000  1.0
  C  C336  1  0.66361000  0.86232000  0.72150000  1.0
  C  C337  1  0.14082000  0.94211000  0.27849000  1.0
  C  C338  1  0.85918000  0.13768000  0.80130000  1.0
  C  C339  1  0.33637000  0.05788000  0.19870000  1.0
  C  C340  1  0.72150000  0.66362000  0.86232000  1.0
  C  C341  1  0.27849000  0.14082000  0.94212000  1.0
  C  C342  1  0.80129000  0.85917000  0.13766000  1.0
  C  C343  1  0.19871000  0.33638000  0.05789000  1.0
  C  C344  1  0.86232000  0.72150000  0.66361000  1.0
  C  C345  1  0.94212000  0.27850000  0.14083000  1.0
  C  C346  1  0.13767000  0.80130000  0.85917000  1.0
  C  C347  1  0.05790000  0.19871000  0.33639000  1.0
  C  C348  1  0.92894000  0.69355000  0.75129000  1.0
  C  C349  1  0.94227000  0.17766000  0.24871000  1.0
  C  C350  1  0.07105000  0.82235000  0.76460000  1.0
  C  C351  1  0.05776000  0.30647000  0.23541000  1.0
  C  C352  1  0.69355000  0.75129000  0.92895000  1.0
  C  C353  1  0.17766000  0.24871000  0.94227000  1.0
  C  C354  1  0.82235000  0.76460000  0.07105000  1.0
  C  C355  1  0.30646000  0.23540000  0.05775000  1.0
  C  C356  1  0.75129000  0.92894000  0.69355000  1.0
  C  C357  1  0.24870000  0.94225000  0.17764000  1.0
  C  C358  1  0.76461000  0.07106000  0.82236000  1.0
  C  C359  1  0.23539000  0.05774000  0.30644000  1.0
  C  C360  1  0.69354000  0.92894000  0.75129000  1.0
  C  C361  1  0.17765000  0.94225000  0.24870000  1.0
  C  C362  1  0.82235000  0.07106000  0.76461000  1.0
  C  C363  1  0.30645000  0.05775000  0.23540000  1.0
  C  C364  1  0.75129000  0.69354000  0.92894000  1.0
  C  C365  1  0.24871000  0.17766000  0.94226000  1.0
  C  C366  1  0.76461000  0.82234000  0.07105000  1.0
  C  C367  1  0.23540000  0.30646000  0.05775000  1.0
  C  C368  1  0.92894000  0.75129000  0.69354000  1.0
  C  C369  1  0.94227000  0.24872000  0.17767000  1.0
  C  C370  1  0.07105000  0.76460000  0.82234000  1.0
  C  C371  1  0.05775000  0.23540000  0.30645000  1.0
  C  C372  1  0.96436000  0.73909000  0.73909000  1.0
  C  C373  1  0.00002000  0.22528000  0.26092000  1.0
  C  C374  1  0.03563000  0.77473000  0.77472000  1.0
  C  C375  1  0.00001000  0.26091000  0.22528000  1.0
  C  C376  1  0.73909000  0.73908000  0.96436000  1.0
  C  C377  1  0.22528000  0.26092000  0.00002000  1.0
  C  C378  1  0.77473000  0.77472000  0.03563000  1.0
  C  C379  1  0.26091000  0.22527000  0.00001000  1.0
  C  C380  1  0.73909000  0.96436000  0.73909000  1.0
  C  C381  1  0.26090000  0.99999000  0.22526000  1.0
  C  C382  1  0.77473000  0.03564000  0.77473000  1.0
  C  C383  1  0.22527000  0.00000000  0.26091000  1.0
  N  N384  1  0.49626000  0.16254000  0.16254000  1.0
  N  N385  1  1.00000000  0.33372000  0.83745000  1.0
  N  N386  1  0.50373000  0.66628000  0.66628000  1.0
  N  N387  1  0.00000000  0.83745000  0.33372000  1.0
  N  N388  1  0.16255000  0.16255000  0.49627000  1.0
  N  N389  1  0.33372000  0.83745000  1.00000000  1.0
  N  N390  1  0.66628000  0.66628000  0.50374000  1.0
  N  N391  1  0.83746000  0.33373000  0.00001000  1.0
  N  N392  1  0.16255000  0.49627000  0.16255000  1.0
  N  N393  1  0.83745000  0.00000000  0.33372000  1.0
  N  N394  1  0.66627000  0.50372000  0.66627000  1.0
  N  N395  1  0.33372000  0.00000000  0.83745000  1.0
  O  O396  1  0.60628000  0.60629000  0.60628000  1.0
  O  O397  1  0.99999000  0.00000000  0.39371000  1.0
  O  O398  1  0.39371000  0.00000000  0.99999000  1.0
  O  O399  1  0.99999000  0.39371000  0.99999000  1.0
  O  O400  1  0.61677000  0.49490000  0.54969000  1.0
  O  O401  1  0.94521000  0.06708000  0.45030000  1.0
  O  O402  1  0.38322000  0.93292000  0.87812000  1.0
  O  O403  1  0.05481000  0.50511000  0.12190000  1.0
  O  O404  1  0.49490000  0.54970000  0.61677000  1.0
  O  O405  1  0.06709000  0.45031000  0.94522000  1.0
  O  O406  1  0.93293000  0.87813000  0.38323000  1.0
  O  O407  1  0.50509000  0.12187000  0.05478000  1.0
  O  O408  1  0.54970000  0.61678000  0.49491000  1.0
  O  O409  1  0.45030000  0.94521000  0.06707000  1.0
  O  O410  1  0.87814000  0.38323000  0.93294000  1.0
  O  O411  1  0.12187000  0.05478000  0.50509000  1.0
  O  O412  1  0.49491000  0.61678000  0.54970000  1.0
  O  O413  1  0.06708000  0.94520000  0.45030000  1.0
  O  O414  1  0.93293000  0.38323000  0.87814000  1.0
  O  O415  1  0.50509000  0.05479000  0.12186000  1.0
  O  O416  1  0.54969000  0.49490000  0.61677000  1.0
  O  O417  1  0.45030000  0.06708000  0.94520000  1.0
  O  O418  1  0.87812000  0.93290000  0.38321000  1.0
  O  O419  1  0.12189000  0.50511000  0.05482000  1.0
  O  O420  1  0.61677000  0.54969000  0.49490000  1.0
  O  O421  1  0.94522000  0.45031000  0.06709000  1.0
  O  O422  1  0.38322000  0.87813000  0.93291000  1.0
  O  O423  1  0.05479000  0.12186000  0.50509000  1.0
  O  O424  1  0.72944000  0.60931000  0.66392000  1.0
  O  O425  1  0.94539000  0.06552000  0.33607000  1.0
  O  O426  1  0.27055000  0.93449000  0.87986000  1.0
  O  O427  1  0.05463000  0.39070000  0.12016000  1.0
  O  O428  1  0.60931000  0.66393000  0.72945000  1.0
  O  O429  1  0.06553000  0.33608000  0.94540000  1.0
  O  O430  1  0.93447000  0.87985000  0.27054000  1.0
  O  O431  1  0.39068000  0.12013000  0.05460000  1.0
  O  O432  1  0.66392000  0.72945000  0.60931000  1.0
  O  O433  1  0.33606000  0.94538000  0.06551000  1.0
  O  O434  1  0.87988000  0.27057000  0.93450000  1.0
  O  O435  1  0.12013000  0.05461000  0.39068000  1.0
  O  O436  1  0.60931000  0.72945000  0.66393000  1.0
  O  O437  1  0.06551000  0.94538000  0.33606000  1.0
  O  O438  1  0.93449000  0.27056000  0.87988000  1.0
  O  O439  1  0.39068000  0.05462000  0.12013000  1.0
  O  O440  1  0.66392000  0.60931000  0.72944000  1.0
  O  O441  1  0.33607000  0.06552000  0.94538000  1.0
  O  O442  1  0.87986000  0.93447000  0.27054000  1.0
  O  O443  1  0.12015000  0.39070000  0.05463000  1.0
  O  O444  1  0.72945000  0.66393000  0.60932000  1.0
  O  O445  1  0.94540000  0.33609000  0.06554000  1.0
  O  O446  1  0.27054000  0.87986000  0.93446000  1.0
  O  O447  1  0.05461000  0.12013000  0.39068000  1.0
