# generated using pymatgen
data_CdH22C18(NO)6
_symmetry_space_group_name_H-M   'P 1'
_cell_length_a   7.49559000
_cell_length_b   16.29680000
_cell_length_c   18.95410000
_cell_angle_alpha   89.99980000
_cell_angle_beta   79.66700000
_cell_angle_gamma   89.99990000
_symmetry_Int_Tables_number   1
_chemical_formula_structural   CdH22C18(NO)6
_chemical_formula_sum   'Cd4 H88 C72 N24 O24'
_cell_volume   2277.77148061
_cell_formula_units_Z   4
loop_
 _symmetry_equiv_pos_site_id
 _symmetry_equiv_pos_as_xyz
  1  'x, y, z'
loop_
 _atom_site_type_symbol
 _atom_site_label
 _atom_site_symmetry_multiplicity
 _atom_site_fract_x
 _atom_site_fract_y
 _atom_site_fract_z
 _atom_site_occupancy
  Cd  Cd0  1  0.28149000  0.12123000  0.01620000  1.0
  Cd  Cd1  1  0.21851000  0.62123000  0.48380000  1.0
  Cd  Cd2  1  0.71852000  0.87877000  0.98380000  1.0
  Cd  Cd3  1  0.78149000  0.37877000  0.51620000  1.0
  H  H4  1  0.78555000  0.27989000  0.95278000  1.0
  H  H5  1  0.71445000  0.77989000  0.54722000  1.0
  H  H6  1  0.21446000  0.72011000  0.04722000  1.0
  H  H7  1  0.28554000  0.22011000  0.45277000  1.0
  H  H8  1  0.72175000  0.17887000  0.93117000  1.0
  H  H9  1  0.77824000  0.67886000  0.56883000  1.0
  H  H10  1  0.27825000  0.82114000  0.06883000  1.0
  H  H11  1  0.22175000  0.32114000  0.43117000  1.0
  H  H12  1  0.85648000  0.11367000  0.81614000  1.0
  H  H13  1  0.64351000  0.61367000  0.68386000  1.0
  H  H14  1  0.14352000  0.88633000  0.18386000  1.0
  H  H15  1  0.35648000  0.38633000  0.31614000  1.0
  H  H16  1  0.01515000  0.13167000  0.69089000  1.0
  H  H17  1  0.48484000  0.63167000  0.80911000  1.0
  H  H18  1  0.98485000  0.86833000  0.30910000  1.0
  H  H19  1  0.51515000  0.36833000  0.19089000  1.0
  H  H20  1  0.15609000  0.37856000  0.73798000  1.0
  H  H21  1  0.34391000  0.87856000  0.76202000  1.0
  H  H22  1  0.84391000  0.62144000  0.26202000  1.0
  H  H23  1  0.65609000  0.12144000  0.23798000  1.0
  H  H24  1  0.00197000  0.36015000  0.86411000  1.0
  H  H25  1  0.49803000  0.86015000  0.63588000  1.0
  H  H26  1  0.99803000  0.63985000  0.13588000  1.0
  H  H27  1  0.50197000  0.13985000  0.36411000  1.0
  H  H28  1  0.21376000  0.20764000  0.60145000  1.0
  H  H29  1  0.28624000  0.70764000  0.89855000  1.0
  H  H30  1  0.78624000  0.79236000  0.39855000  1.0
  H  H31  1  0.71376000  0.29236000  0.10145000  1.0
  H  H32  1  0.32053000  0.29856000  0.62564000  1.0
  H  H33  1  0.17947000  0.79857000  0.87436000  1.0
  H  H34  1  0.67948000  0.70144000  0.37436000  1.0
  H  H35  1  0.82053000  0.20144000  0.12564000  1.0
  H  H36  1  0.92560000  0.00761000  0.11660000  1.0
  H  H37  1  0.57441000  0.50761000  0.38340000  1.0
  H  H38  1  0.07440000  0.99239000  0.88339000  1.0
  H  H39  1  0.42560000  0.49239000  0.61661000  1.0
  H  H40  1  0.24551000  0.18187000  0.20033000  1.0
  H  H41  1  0.25449000  0.68187000  0.29967000  1.0
  H  H42  1  0.75449000  0.81813000  0.79967000  1.0
  H  H43  1  0.74552000  0.31813000  0.70033000  1.0
  H  H44  1  0.91710000  0.11690000  0.35367000  1.0
  H  H45  1  0.58290000  0.61690000  0.14633000  1.0
  H  H46  1  0.08290000  0.88310000  0.64633000  1.0
  H  H47  1  0.41710000  0.38310000  0.85367000  1.0
  H  H48  1  0.14547000  0.15334000  0.32986000  1.0
  H  H49  1  0.35453000  0.65334000  0.17014000  1.0
  H  H50  1  0.85453000  0.84666000  0.67014000  1.0
  H  H51  1  0.64547000  0.34666000  0.82986000  1.0
  H  H52  1  0.13101000  0.03643000  0.41293000  1.0
  H  H53  1  0.36899000  0.53643000  0.08707000  1.0
  H  H54  1  0.86899000  0.96357000  0.58707000  1.0
  H  H55  1  0.63101000  0.46357000  0.91293000  1.0
  H  H56  1  0.02158000  0.97410000  0.35560000  1.0
  H  H57  1  0.47841000  0.47410000  0.14440000  1.0
  H  H58  1  0.97842000  0.02590000  0.64440000  1.0
  H  H59  1  0.52158000  0.52590000  0.85560000  1.0
  H  H60  1  0.27959000  0.87729000  0.33987000  1.0
  H  H61  1  0.22041000  0.37729000  0.16013000  1.0
  H  H62  1  0.72042000  0.12271000  0.66013000  1.0
  H  H63  1  0.77959000  0.62271000  0.83987000  1.0
  H  H64  1  0.38250000  0.94042000  0.39838000  1.0
  H  H65  1  0.11751000  0.44042000  0.10162000  1.0
  H  H66  1  0.61751000  0.05958000  0.60161000  1.0
  H  H67  1  0.88249000  0.55957000  0.89839000  1.0
  H  H68  1  0.63445000  0.97403000  0.29256000  1.0
  H  H69  1  0.86555000  0.47403000  0.20744000  1.0
  H  H70  1  0.36556000  0.02597000  0.70744000  1.0
  H  H71  1  0.13444000  0.52597000  0.79256000  1.0
  H  H72  1  0.62539000  0.87069000  0.32373000  1.0
  H  H73  1  0.87461000  0.37069000  0.17626000  1.0
  H  H74  1  0.37461000  0.12931000  0.67627000  1.0
  H  H75  1  0.12539000  0.62931000  0.82373000  1.0
  H  H76  1  0.57599000  0.99556000  0.15795000  1.0
  H  H77  1  0.92401000  0.49556000  0.34205000  1.0
  H  H78  1  0.42402000  0.00444000  0.84205000  1.0
  H  H79  1  0.07598000  0.50444000  0.65795000  1.0
  H  H80  1  0.59257000  0.74378000  0.11136000  1.0
  H  H81  1  0.90743000  0.24378000  0.38864000  1.0
  H  H82  1  0.40742000  0.25622000  0.88864000  1.0
  H  H83  1  0.09257000  0.75622000  0.61137000  1.0
  H  H84  1  0.36791000  0.95646000  0.97354000  1.0
  H  H85  1  0.13209000  0.45646000  0.52646000  1.0
  H  H86  1  0.63210000  0.04354000  0.02646000  1.0
  H  H87  1  0.86790000  0.54354000  0.47354000  1.0
  H  H88  1  0.18362000  0.94988000  0.02724000  1.0
  H  H89  1  0.31637000  0.44988000  0.47276000  1.0
  H  H90  1  0.81638000  0.05012000  0.97276000  1.0
  H  H91  1  0.68362000  0.55013000  0.52724000  1.0
  C  C92  1  0.98290000  0.18725000  0.96426000  1.0
  C  C93  1  0.51710000  0.68724000  0.53574000  1.0
  C  C94  1  0.01710000  0.81275000  0.03574000  1.0
  C  C95  1  0.48290000  0.31276000  0.46426000  1.0
  C  C96  1  0.83511000  0.22213000  0.92663000  1.0
  C  C97  1  0.66489000  0.72213000  0.57337000  1.0
  C  C98  1  0.16490000  0.77787000  0.07337000  1.0
  C  C99  1  0.33510000  0.27787000  0.42663000  1.0
  C  C100  1  0.91811000  0.23574000  0.84904000  1.0
  C  C101  1  0.58189000  0.73573000  0.65096000  1.0
  C  C102  1  0.08189000  0.76426000  0.15096000  1.0
  C  C103  1  0.41811000  0.26426000  0.34904000  1.0
  C  C104  1  0.92167000  0.17205000  0.79926000  1.0
  C  C105  1  0.57833000  0.67205000  0.70074000  1.0
  C  C106  1  0.07833000  0.82795000  0.20074000  1.0
  C  C107  1  0.42167000  0.32795000  0.29926000  1.0
  C  C108  1  0.01083000  0.18235000  0.72868000  1.0
  C  C109  1  0.48917000  0.68235000  0.77132000  1.0
  C  C110  1  0.98917000  0.81765000  0.27132000  1.0
  C  C111  1  0.51083000  0.31765000  0.22868000  1.0
  C  C112  1  0.09764000  0.25612000  0.70554000  1.0
  C  C113  1  0.40236000  0.75612000  0.79446000  1.0
  C  C114  1  0.90236000  0.74388000  0.29446000  1.0
  C  C115  1  0.59764000  0.24388000  0.20554000  1.0
  C  C116  1  0.09106000  0.32035000  0.75513000  1.0
  C  C117  1  0.40895000  0.82035000  0.74487000  1.0
  C  C118  1  0.90895000  0.67965000  0.24487000  1.0
  C  C119  1  0.59105000  0.17965000  0.25513000  1.0
  C  C120  1  0.00398000  0.30993000  0.82588000  1.0
  C  C121  1  0.49602000  0.80993000  0.67412000  1.0
  C  C122  1  0.99601000  0.69007000  0.17413000  1.0
  C  C123  1  0.50398000  0.19007000  0.32588000  1.0
  C  C124  1  0.18982000  0.26718000  0.62854000  1.0
  C  C125  1  0.31018000  0.76718000  0.87146000  1.0
  C  C126  1  0.81018000  0.73282000  0.37146000  1.0
  C  C127  1  0.68982000  0.23282000  0.12854000  1.0
  C  C128  1  0.06813000  0.31924000  0.58944000  1.0
  C  C129  1  0.43187000  0.81924000  0.91056000  1.0
  C  C130  1  0.93188000  0.68076000  0.41056000  1.0
  C  C131  1  0.56813000  0.18076000  0.08944000  1.0
  C  C132  1  0.98484000  0.04495000  0.15384000  1.0
  C  C133  1  0.51515000  0.54495000  0.34616000  1.0
  C  C134  1  0.01515000  0.95504000  0.84616000  1.0
  C  C135  1  0.48485000  0.45504000  0.65383000  1.0
  C  C136  1  0.14964000  0.13372000  0.19412000  1.0
  C  C137  1  0.35036000  0.63372000  0.30588000  1.0
  C  C138  1  0.85036000  0.86629000  0.80588000  1.0
  C  C139  1  0.64964000  0.36628000  0.69412000  1.0
  C  C140  1  0.05402000  0.10191000  0.32498000  1.0
  C  C141  1  0.44598000  0.60192000  0.17502000  1.0
  C  C142  1  0.94598000  0.89808000  0.67501000  1.0
  C  C143  1  0.55402000  0.39808000  0.82498000  1.0
  C  C144  1  0.12041000  0.02423000  0.35631000  1.0
  C  C145  1  0.37958000  0.52423000  0.14369000  1.0
  C  C146  1  0.87959000  0.97577000  0.64368000  1.0
  C  C147  1  0.62041000  0.47577000  0.85632000  1.0
  C  C148  1  0.36750000  0.93132000  0.34183000  1.0
  C  C149  1  0.13250000  0.43133000  0.15816000  1.0
  C  C150  1  0.63250000  0.06867000  0.65816000  1.0
  C  C151  1  0.86750000  0.56867000  0.84184000  1.0
  C  C152  1  0.55429000  0.91720000  0.29745000  1.0
  C  C153  1  0.94571000  0.41721000  0.20255000  1.0
  C  C154  1  0.44571000  0.08279000  0.70255000  1.0
  C  C155  1  0.05429000  0.58279000  0.79746000  1.0
  C  C156  1  0.57482000  0.92895000  0.16267000  1.0
  C  C157  1  0.92518000  0.42895000  0.33732000  1.0
  C  C158  1  0.42519000  0.07105000  0.83732000  1.0
  C  C159  1  0.07481000  0.57105000  0.66268000  1.0
  C  C160  1  0.57892000  0.80059000  0.14140000  1.0
  C  C161  1  0.92109000  0.30060000  0.35860000  1.0
  C  C162  1  0.42109000  0.19940000  0.85860000  1.0
  C  C163  1  0.07892000  0.69940000  0.64141000  1.0
  N  N164  1  0.11143000  0.10453000  0.13276000  1.0
  N  N165  1  0.38857000  0.60452000  0.36724000  1.0
  N  N166  1  0.88857000  0.89547000  0.86724000  1.0
  N  N167  1  0.61143000  0.39547000  0.63276000  1.0
  N  N168  1  0.04930000  0.09343000  0.24915000  1.0
  N  N169  1  0.45069000  0.59344000  0.25085000  1.0
  N  N170  1  0.95070000  0.90656000  0.75084000  1.0
  N  N171  1  0.54930000  0.40657000  0.74916000  1.0
  N  N172  1  0.94263000  0.03620000  0.22462000  1.0
  N  N173  1  0.55737000  0.53620000  0.27538000  1.0
  N  N174  1  0.05737000  0.96379000  0.77538000  1.0
  N  N175  1  0.44263000  0.46379000  0.72462000  1.0
  N  N176  1  0.59058000  0.87533000  0.10846000  1.0
  N  N177  1  0.90942000  0.37533000  0.39154000  1.0
  N  N178  1  0.40942000  0.12467000  0.89153000  1.0
  N  N179  1  0.09057000  0.62467000  0.60847000  1.0
  N  N180  1  0.55499000  0.88692000  0.22496000  1.0
  N  N181  1  0.94500000  0.38692000  0.27504000  1.0
  N  N182  1  0.44501000  0.11308000  0.77504000  1.0
  N  N183  1  0.05500000  0.61308000  0.72496000  1.0
  N  N184  1  0.55610000  0.80441000  0.21231000  1.0
  N  N185  1  0.94390000  0.30441000  0.28769000  1.0
  N  N186  1  0.44389000  0.19559000  0.78769000  1.0
  N  N187  1  0.05610000  0.69559000  0.71231000  1.0
  O  O188  1  0.09357000  0.23590000  0.98551000  1.0
  O  O189  1  0.40643000  0.73590000  0.51449000  1.0
  O  O190  1  0.90644000  0.76410000  0.01449000  1.0
  O  O191  1  0.59356000  0.26410000  0.48551000  1.0
  O  O192  1  0.99538000  0.10880000  0.96936000  1.0
  O  O193  1  0.50462000  0.60880000  0.53064000  1.0
  O  O194  1  0.00462000  0.89120000  0.03063000  1.0
  O  O195  1  0.49537000  0.39120000  0.46936000  1.0
  O  O196  1  0.06470000  0.39628000  0.59953000  1.0
  O  O197  1  0.43531000  0.89628000  0.90047000  1.0
  O  O198  1  0.93531000  0.60373000  0.40048000  1.0
  O  O199  1  0.56469000  0.10373000  0.09953000  1.0
  O  O200  1  0.97076000  0.28169000  0.55092000  1.0
  O  O201  1  0.52923000  0.78169000  0.94908000  1.0
  O  O202  1  0.02924000  0.71832000  0.44908000  1.0
  O  O203  1  0.47077000  0.21831000  0.05092000  1.0
  O  O204  1  0.29168000  0.00289000  0.31548000  1.0
  O  O205  1  0.20833000  0.50289000  0.18452000  1.0
  O  O206  1  0.70833000  0.99711000  0.68452000  1.0
  O  O207  1  0.79167000  0.49711000  0.81548000  1.0
  O  O208  1  0.30188000  0.98082000  0.01894000  1.0
  O  O209  1  0.19811000  0.48081000  0.48106000  1.0
  O  O210  1  0.69812000  0.01919000  0.98106000  1.0
  O  O211  1  0.80188000  0.51919000  0.51894000  1.0
