# generated using pymatgen
data_FeHg2H20C30(S3N5)2
_symmetry_space_group_name_H-M   'P 1'
_cell_length_a   8.53037000
_cell_length_b   8.81805000
_cell_length_c   13.31230000
_cell_angle_alpha   75.23710000
_cell_angle_beta   72.38460000
_cell_angle_gamma   89.00570000
_symmetry_Int_Tables_number   1
_chemical_formula_structural   FeHg2H20C30(S3N5)2
_chemical_formula_sum   'Fe1 Hg2 H20 C30 S6 N10'
_cell_volume   920.96402703
_cell_formula_units_Z   1
loop_
 _symmetry_equiv_pos_site_id
 _symmetry_equiv_pos_as_xyz
  1  'x, y, z'
loop_
 _atom_site_type_symbol
 _atom_site_label
 _atom_site_symmetry_multiplicity
 _atom_site_fract_x
 _atom_site_fract_y
 _atom_site_fract_z
 _atom_site_occupancy
  Fe  Fe0  1  0.50000000  0.00000000  0.50000000  1.0
  Hg  Hg1  1  0.97547000  0.57554000  0.61545000  1.0
  Hg  Hg2  1  0.02453000  0.42446000  0.38455000  1.0
  H  H3  1  0.60302000  0.80157000  0.34702000  1.0
  H  H4  1  0.39698000  0.19842000  0.65298000  1.0
  H  H5  1  0.60059000  0.81035000  0.16185000  1.0
  H  H6  1  0.39941000  0.18965000  0.83815000  1.0
  H  H7  1  0.43537000  0.28192000  0.13566000  1.0
  H  H8  1  0.56463000  0.71809000  0.86434000  1.0
  H  H9  1  0.44177000  0.25268000  0.32414000  1.0
  H  H10  1  0.55823000  0.74732000  0.67586000  1.0
  H  H11  1  0.45582000  0.17314000  0.98718000  1.0
  H  H12  1  0.54418000  0.82686000  0.01282000  1.0
  H  H13  1  0.14468000  0.53939000  0.81085000  1.0
  H  H14  1  0.85532000  0.46061000  0.18915000  1.0
  H  H15  1  0.17005000  0.66770000  0.95310000  1.0
  H  H16  1  0.82995000  0.33230000  0.04689000  1.0
  H  H17  1  0.88578000  0.03883000  0.82607000  1.0
  H  H18  1  0.11422000  0.96117000  0.17393000  1.0
  H  H19  1  0.87260000  0.89510000  0.69209000  1.0
  H  H20  1  0.12741000  0.10491000  0.30791000  1.0
  H  H21  1  0.12144000  0.88048000  0.03407000  1.0
  H  H22  1  0.87856000  0.11951000  0.96593000  1.0
  C  C23  1  0.84301000  0.87253000  0.46228000  1.0
  C  C24  1  0.15699000  0.12747000  0.53772000  1.0
  C  C25  1  0.35318000  0.66401000  0.55446000  1.0
  C  C26  1  0.64682000  0.33599000  0.44554000  1.0
  C  C27  1  0.69410000  0.42617000  0.83215000  1.0
  C  C28  1  0.30590000  0.57384000  0.16786000  1.0
  C  C29  1  0.56519000  0.90547000  0.29796000  1.0
  C  C30  1  0.43481000  0.09453000  0.70204000  1.0
  C  C31  1  0.56264000  0.91177000  0.19373000  1.0
  C  C32  1  0.43735000  0.08823000  0.80627000  1.0
  C  C33  1  0.50932000  0.04561000  0.13197000  1.0
  C  C34  1  0.49068000  0.95439000  0.86803000  1.0
  C  C35  1  0.47077000  0.17198000  0.18027000  1.0
  C  C36  1  0.52923000  0.82802000  0.81973000  1.0
  C  C37  1  0.47511000  0.15698000  0.28547000  1.0
  C  C38  1  0.52489000  0.84302000  0.71453000  1.0
  C  C39  1  0.49009000  0.05825000  0.02593000  1.0
  C  C40  1  0.50991000  0.94175000  0.97407000  1.0
  C  C41  1  0.08768000  0.64936000  0.81856000  1.0
  C  C42  1  0.91232000  0.35064000  0.18144000  1.0
  C  C43  1  0.10159000  0.72134000  0.89716000  1.0
  C  C44  1  0.89841000  0.27865000  0.10283000  1.0
  C  C45  1  0.02693000  0.86371000  0.90406000  1.0
  C  C46  1  0.97307000  0.13629000  0.09594000  1.0
  C  C47  1  0.94342000  0.92734000  0.82799000  1.0
  C  C48  1  0.05658000  0.07266000  0.17201000  1.0
  C  C49  1  0.93568000  0.84752000  0.75219000  1.0
  C  C50  1  0.06432000  0.15249000  0.24781000  1.0
  C  C51  1  0.03990000  0.93677000  0.98809000  1.0
  C  C52  1  0.96010000  0.06323000  0.01191000  1.0
  S  S53  1  0.02768000  0.80525000  0.43864000  1.0
  S  S54  1  0.97232000  0.19475000  0.56136000  1.0
  S  S55  1  0.27177000  0.48497000  0.58062000  1.0
  S  S56  1  0.72823000  0.51503000  0.41938000  1.0
  S  S57  1  0.69031000  0.44969000  0.70485000  1.0
  S  S58  1  0.30969000  0.55031000  0.29516000  1.0
  N  N59  1  0.71216000  0.92361000  0.47582000  1.0
  N  N60  1  0.28784000  0.07638000  0.52418000  1.0
  N  N61  1  0.40889000  0.79300000  0.53513000  1.0
  N  N62  1  0.59111000  0.20700000  0.46487000  1.0
  N  N63  1  0.69349000  0.40911000  0.92307000  1.0
  N  N64  1  0.30651000  0.59091000  0.07694000  1.0
  N  N65  1  0.51767000  0.02422000  0.34594000  1.0
  N  N66  1  0.48233000  0.97578000  0.65406000  1.0
  N  N67  1  0.00565000  0.71062000  0.74741000  1.0
  N  N68  1  0.99435000  0.28938000  0.25258000  1.0
