# generated using pymatgen
data_CsH6PdC3NCl2O3
_symmetry_space_group_name_H-M   'P 1'
_cell_length_a   4.53681000
_cell_length_b   11.55510000
_cell_length_c   17.02770000
_cell_angle_alpha   89.99970000
_cell_angle_beta   90.00000000
_cell_angle_gamma   90.00000000
_symmetry_Int_Tables_number   1
_chemical_formula_structural   CsH6PdC3NCl2O3
_chemical_formula_sum   'Cs4 H24 Pd4 C12 N4 Cl8 O12'
_cell_volume   892.64811014
_cell_formula_units_Z   4
loop_
 _symmetry_equiv_pos_site_id
 _symmetry_equiv_pos_as_xyz
  1  'x, y, z'
loop_
 _atom_site_type_symbol
 _atom_site_label
 _atom_site_symmetry_multiplicity
 _atom_site_fract_x
 _atom_site_fract_y
 _atom_site_fract_z
 _atom_site_occupancy
  Cs  Cs0  1  0.65819000  0.38578000  0.10494000  1.0
  Cs  Cs1  1  0.65819000  0.61422000  0.89506000  1.0
  Cs  Cs2  1  0.34181000  0.11422000  0.60494000  1.0
  Cs  Cs3  1  0.34181000  0.88578000  0.39506000  1.0
  H  H4  1  0.57213000  0.61760000  0.24011000  1.0
  H  H5  1  0.57213000  0.38240000  0.75989000  1.0
  H  H6  1  0.42787000  0.88240000  0.74011000  1.0
  H  H7  1  0.42787000  0.11760000  0.25989000  1.0
  H  H8  1  0.15324000  0.42389000  0.45221000  1.0
  H  H9  1  0.15324000  0.57610000  0.54779000  1.0
  H  H10  1  0.84675000  0.07611000  0.95221000  1.0
  H  H11  1  0.84675000  0.92389000  0.04779000  1.0
  H  H12  1  0.43385000  0.50338000  0.41692000  1.0
  H  H13  1  0.43385000  0.49662000  0.58308000  1.0
  H  H14  1  0.56614000  0.99662000  0.91692000  1.0
  H  H15  1  0.56614000  0.00338000  0.08308000  1.0
  H  H16  1  0.91882000  0.42855000  0.34021000  1.0
  H  H17  1  0.91882000  0.57145000  0.65979000  1.0
  H  H18  1  0.08119000  0.07144000  0.84021000  1.0
  H  H19  1  0.08119000  0.92855000  0.15979000  1.0
  H  H20  1  0.09041000  0.54077000  0.23093000  1.0
  H  H21  1  0.09041000  0.45923000  0.76907000  1.0
  H  H22  1  0.90958000  0.95922000  0.73093000  1.0
  H  H23  1  0.90958000  0.04077000  0.26907000  1.0
  H  H24  1  0.16075000  0.61669000  0.31965000  1.0
  H  H25  1  0.16075000  0.38331000  0.68035000  1.0
  H  H26  1  0.83925000  0.88331000  0.81965000  1.0
  H  H27  1  0.83925000  0.11669000  0.18035000  1.0
  Pd  Pd28  1  0.57482000  0.28857000  0.42064000  1.0
  Pd  Pd29  1  0.57482000  0.71143000  0.57936000  1.0
  Pd  Pd30  1  0.42519000  0.21143000  0.92064000  1.0
  Pd  Pd31  1  0.42518000  0.78857000  0.07936000  1.0
  C  C32  1  0.23551000  0.32434000  0.28208000  1.0
  C  C33  1  0.23552000  0.67566000  0.71792000  1.0
  C  C34  1  0.76449000  0.17566000  0.78208000  1.0
  C  C35  1  0.76449000  0.82434000  0.21792000  1.0
  C  C36  1  0.15904000  0.43136000  0.33046000  1.0
  C  C37  1  0.15904000  0.56865000  0.66954000  1.0
  C  C38  1  0.84097000  0.06865000  0.83046000  1.0
  C  C39  1  0.84097000  0.93135000  0.16954000  1.0
  C  C40  1  0.22612000  0.54071000  0.28453000  1.0
  C  C41  1  0.22612000  0.45929000  0.71547000  1.0
  C  C42  1  0.77388000  0.95929000  0.78453000  1.0
  C  C43  1  0.77388000  0.04071000  0.21547000  1.0
  N  N44  1  0.30903000  0.42972000  0.40829000  1.0
  N  N45  1  0.30903000  0.57028000  0.59171000  1.0
  N  N46  1  0.69097000  0.07028000  0.90829000  1.0
  N  N47  1  0.69097000  0.92972000  0.09171000  1.0
  Cl  Cl48  1  0.84571000  0.11911000  0.42981000  1.0
  Cl  Cl49  1  0.84571000  0.88089000  0.57019000  1.0
  Cl  Cl50  1  0.15430000  0.38089000  0.92981000  1.0
  Cl  Cl51  1  0.15429000  0.61911000  0.07019000  1.0
  Cl  Cl52  1  0.76334000  0.35276000  0.53871000  1.0
  Cl  Cl53  1  0.76333000  0.64724000  0.46129000  1.0
  Cl  Cl54  1  0.23666000  0.14724000  0.03871000  1.0
  Cl  Cl55  1  0.23666000  0.85276000  0.96129000  1.0
  O  O56  1  0.40831000  0.24659000  0.31396000  1.0
  O  O57  1  0.40831000  0.75341000  0.68604000  1.0
  O  O58  1  0.59171000  0.25341000  0.81396000  1.0
  O  O59  1  0.59170000  0.74659000  0.18604000  1.0
  O  O60  1  0.13646000  0.31252000  0.21464000  1.0
  O  O61  1  0.13646000  0.68749000  0.78536000  1.0
  O  O62  1  0.86355000  0.18748000  0.71464000  1.0
  O  O63  1  0.86356000  0.81251000  0.28536000  1.0
  O  O64  1  0.53251000  0.54207000  0.26596000  1.0
  O  O65  1  0.53250000  0.45793000  0.73404000  1.0
  O  O66  1  0.46749000  0.95793000  0.76596000  1.0
  O  O67  1  0.46749000  0.04207000  0.23404000  1.0
