# generated using pymatgen
data_CoH52C40(NO2)2
_symmetry_space_group_name_H-M   'P 1'
_cell_length_a   8.29567000
_cell_length_b   11.22200000
_cell_length_c   11.75310000
_cell_angle_alpha   104.01100000
_cell_angle_beta   95.32900000
_cell_angle_gamma   97.39160000
_symmetry_Int_Tables_number   1
_chemical_formula_structural   CoH52C40(NO2)2
_chemical_formula_sum   'Co1 H52 C40 N2 O4'
_cell_volume   1043.98777869
_cell_formula_units_Z   1
loop_
 _symmetry_equiv_pos_site_id
 _symmetry_equiv_pos_as_xyz
  1  'x, y, z'
loop_
 _atom_site_type_symbol
 _atom_site_label
 _atom_site_symmetry_multiplicity
 _atom_site_fract_x
 _atom_site_fract_y
 _atom_site_fract_z
 _atom_site_occupancy
  Co  Co0  1  0.50000000  0.50000000  0.00000000  1.0
  H  H1  1  0.51847000  0.22222000  0.49449000  1.0
  H  H2  1  0.48153000  0.77778000  0.50551000  1.0
  H  H3  1  0.18942000  0.46084000  0.65574000  1.0
  H  H4  1  0.81058000  0.53916000  0.34425000  1.0
  H  H5  1  0.84570000  0.55648000  0.00551000  1.0
  H  H6  1  0.15430000  0.44352000  0.99448000  1.0
  H  H7  1  0.63371000  0.92355000  0.93203000  1.0
  H  H8  1  0.36629000  0.07646000  0.06798000  1.0
  H  H9  1  0.04497000  0.73178000  0.97791000  1.0
  H  H10  1  0.95503000  0.26822000  0.02208000  1.0
  H  H11  1  0.45182000  0.73676000  0.95805000  1.0
  H  H12  1  0.54818000  0.26325000  0.04195000  1.0
  H  H13  1  0.70128000  0.20261000  0.86299000  1.0
  H  H14  1  0.29872000  0.79739000  0.13702000  1.0
  H  H15  1  0.61722000  0.07477000  0.74019000  1.0
  H  H16  1  0.38278000  0.92524000  0.25981000  1.0
  H  H17  1  0.83349000  0.11057000  0.78134000  1.0
  H  H18  1  0.16651000  0.88943000  0.21866000  1.0
  H  H19  1  0.89045000  0.40712000  0.68317000  1.0
  H  H20  1  0.10955000  0.59288000  0.31683000  1.0
  H  H21  1  0.87014000  0.39532000  0.82913000  1.0
  H  H22  1  0.12986000  0.60469000  0.17087000  1.0
  H  H23  1  0.99792000  0.30392000  0.74246000  1.0
  H  H24  1  0.00208000  0.69608000  0.25754000  1.0
  H  H25  1  0.41316000  0.45420000  0.38845000  1.0
  H  H26  1  0.58684000  0.54579000  0.61155000  1.0
  H  H27  1  0.46561000  0.30304000  0.34343000  1.0
  H  H28  1  0.53439000  0.69696000  0.65657000  1.0
  H  H29  1  0.29473000  0.34267000  0.26593000  1.0
  H  H30  1  0.70527000  0.65732000  0.73407000  1.0
  H  H31  1  0.28313000  0.11651000  0.38196000  1.0
  H  H32  1  0.71686000  0.88349000  0.61804000  1.0
  H  H33  1  0.10197000  0.13901000  0.44837000  1.0
  H  H34  1  0.89803000  0.86098000  0.55163000  1.0
  H  H35  1  0.11224000  0.15290000  0.30146000  1.0
  H  H36  1  0.88776000  0.84710000  0.69854000  1.0
  H  H37  1  0.01263000  0.35509000  0.49337000  1.0
  H  H38  1  0.98736000  0.64491000  0.50663000  1.0
  H  H39  1  0.14168000  0.48324000  0.46843000  1.0
  H  H40  1  0.85832000  0.51676000  0.53157000  1.0
  H  H41  1  0.03714000  0.36328000  0.34666000  1.0
  H  H42  1  0.96286000  0.63671000  0.65333000  1.0
  H  H43  1  0.07645000  0.92138000  0.89916000  1.0
  H  H44  1  0.92356000  0.07863000  0.10084000  1.0
  H  H45  1  0.90745000  0.99959000  0.88060000  1.0
  H  H46  1  0.09256000  0.00042000  0.11941000  1.0
  H  H47  1  0.66837000  0.08198000  0.53157000  1.0
  H  H48  1  0.33163000  0.91802000  0.46843000  1.0
  H  H49  1  0.78234000  0.21733000  0.50702000  1.0
  H  H50  1  0.21766000  0.78267000  0.49298000  1.0
  H  H51  1  0.88142000  0.12205000  0.58221000  1.0
  H  H52  1  0.11858000  0.87794000  0.41779000  1.0
  C  C53  1  0.52839000  0.37164000  0.78264000  1.0
  C  C54  1  0.47161000  0.62836000  0.21736000  1.0
  C  C55  1  0.48220000  0.27993000  0.57359000  1.0
  C  C56  1  0.51780000  0.72006000  0.42641000  1.0
  C  C57  1  0.57897000  0.29575000  0.68130000  1.0
  C  C58  1  0.42103000  0.70425000  0.31870000  1.0
  C  C59  1  0.38819000  0.43162000  0.77092000  1.0
  C  C60  1  0.61181000  0.56838000  0.22908000  1.0
  C  C61  1  0.29530000  0.41330000  0.66017000  1.0
  C  C62  1  0.70470000  0.58670000  0.33982000  1.0
  C  C63  1  0.34107000  0.33629000  0.56042000  1.0
  C  C64  1  0.65893000  0.66371000  0.43958000  1.0
  C  C65  1  0.80613000  0.63982000  0.98833000  1.0
  C  C66  1  0.19388000  0.36018000  0.01167000  1.0
  C  C67  1  0.68656000  0.84448000  0.94917000  1.0
  C  C68  1  0.31344000  0.15552000  0.05083000  1.0
  C  C69  1  0.91465000  0.73823000  0.97369000  1.0
  C  C70  1  0.08535000  0.26177000  0.02631000  1.0
  C  C71  1  0.24708000  0.31188000  0.43669000  1.0
  C  C72  1  0.75292000  0.68811000  0.56331000  1.0
  C  C73  1  0.85568000  0.84358000  0.95328000  1.0
  C  C74  1  0.14432000  0.15642000  0.04673000  1.0
  C  C75  1  0.58432000  0.74235000  0.96328000  1.0
  C  C76  1  0.41568000  0.25765000  0.03672000  1.0
  C  C77  1  0.73486000  0.23762000  0.69082000  1.0
  C  C78  1  0.26514000  0.76238000  0.30918000  1.0
  C  C79  1  0.72036000  0.15120000  0.77450000  1.0
  C  C80  1  0.27964000  0.84881000  0.22550000  1.0
  C  C81  1  0.88255000  0.34221000  0.73977000  1.0
  C  C82  1  0.11745000  0.65779000  0.26023000  1.0
  C  C83  1  0.36236000  0.35529000  0.35402000  1.0
  C  C84  1  0.63764000  0.64470000  0.64598000  1.0
  C  C85  1  0.18279000  0.17171000  0.38951000  1.0
  C  C86  1  0.81721000  0.82829000  0.61049000  1.0
  C  C87  1  0.10121000  0.38250000  0.43693000  1.0
  C  C88  1  0.89878000  0.61750000  0.56307000  1.0
  C  C89  1  0.96986000  0.95284000  0.93973000  1.0
  C  C90  1  0.03014000  0.04716000  0.06028000  1.0
  C  C91  1  0.76740000  0.16047000  0.57059000  1.0
  C  C92  1  0.23260000  0.83953000  0.42942000  1.0
  N  N93  1  0.64391000  0.64197000  0.98238000  1.0
  N  N94  1  0.35609000  0.35803000  0.01762000  1.0
  O  O95  1  0.60606000  0.39411000  0.89229000  1.0
  O  O96  1  0.39394000  0.60589000  0.10771000  1.0
  O  O97  1  0.35317000  0.50587000  0.86969000  1.0
  O  O98  1  0.64683000  0.49413000  0.13031000  1.0
