# generated using pymatgen
data_CuH8C12BrN3O2
_symmetry_space_group_name_H-M   'P 1'
_cell_length_a   3.84839000
_cell_length_b   8.57876000
_cell_length_c   17.59480000
_cell_angle_alpha   89.99980000
_cell_angle_beta   90.92060000
_cell_angle_gamma   89.99950000
_symmetry_Int_Tables_number   1
_chemical_formula_structural   CuH8C12BrN3O2
_chemical_formula_sum   'Cu2 H16 C24 Br2 N6 O4'
_cell_volume   580.80703491
_cell_formula_units_Z   2
loop_
 _symmetry_equiv_pos_site_id
 _symmetry_equiv_pos_as_xyz
  1  'x, y, z'
loop_
 _atom_site_type_symbol
 _atom_site_label
 _atom_site_symmetry_multiplicity
 _atom_site_fract_x
 _atom_site_fract_y
 _atom_site_fract_z
 _atom_site_occupancy
  Cu  Cu0  1  0.69723000  0.16827000  0.76207000  1.0
  Cu  Cu1  1  0.69718000  0.83173000  0.26208000  1.0
  H  H2  1  0.97277000  0.27074000  0.91983000  1.0
  H  H3  1  0.97272000  0.72925000  0.41984000  1.0
  H  H4  1  0.94440000  0.52143000  0.99563000  1.0
  H  H5  1  0.94432000  0.47853000  0.49564000  1.0
  H  H6  1  0.65449000  0.75273000  0.93584000  1.0
  H  H7  1  0.65441000  0.24726000  0.43583000  1.0
  H  H8  1  0.39043000  0.72518000  0.80464000  1.0
  H  H9  1  0.39036000  0.27483000  0.30464000  1.0
  H  H10  1  0.26152000  0.06605000  0.49960000  1.0
  H  H11  1  0.26149000  0.93395000  0.99960000  1.0
  H  H12  1  0.45925000  0.78816000  0.48846000  1.0
  H  H13  1  0.45926000  0.21184000  0.98847000  1.0
  H  H14  1  0.79162000  0.66759000  0.59966000  1.0
  H  H15  1  0.79158000  0.33241000  0.09967000  1.0
  H  H16  1  0.90676000  0.82966000  0.71415000  1.0
  H  H17  1  0.90672000  0.17034000  0.21416000  1.0
  C  C18  1  0.84319000  0.37477000  0.89796000  1.0
  C  C19  1  0.84315000  0.62522000  0.39797000  1.0
  C  C20  1  0.82683000  0.51310000  0.93908000  1.0
  C  C21  1  0.82677000  0.48689000  0.43908000  1.0
  C  C22  1  0.66636000  0.64228000  0.90553000  1.0
  C  C23  1  0.66630000  0.35771000  0.40553000  1.0
  C  C24  1  0.52200000  0.62808000  0.83276000  1.0
  C  C25  1  0.52194000  0.37193000  0.33277000  1.0
  C  C26  1  0.54272000  0.48512000  0.79568000  1.0
  C  C27  1  0.54265000  0.51489000  0.29569000  1.0
  C  C28  1  0.38282000  0.45975000  0.71818000  1.0
  C  C29  1  0.38277000  0.54027000  0.21819000  1.0
  C  C30  1  0.35943000  0.25588000  0.62192000  1.0
  C  C31  1  0.35940000  0.74413000  0.12193000  1.0
  C  C32  1  0.47967000  0.09067000  0.61192000  1.0
  C  C33  1  0.47964000  0.90933000  0.11192000  1.0
  C  C34  1  0.40691000  0.00881000  0.54535000  1.0
  C  C35  1  0.40691000  0.99120000  0.04535000  1.0
  C  C36  1  0.51617000  0.85445000  0.53994000  1.0
  C  C37  1  0.51616000  0.14556000  0.03995000  1.0
  C  C38  1  0.69737000  0.78715000  0.60071000  1.0
  C  C39  1  0.69731000  0.21286000  0.10072000  1.0
  C  C40  1  0.76278000  0.87668000  0.66558000  1.0
  C  C41  1  0.76275000  0.12332000  0.16559000  1.0
  Br  Br42  1  0.12906000  0.02262000  0.83466000  1.0
  Br  Br43  1  0.12896000  0.97735000  0.33466000  1.0
  N  N44  1  0.70420000  0.36098000  0.82783000  1.0
  N  N45  1  0.70415000  0.63902000  0.32784000  1.0
  N  N46  1  0.45107000  0.31220000  0.69223000  1.0
  N  N47  1  0.45104000  0.68780000  0.19223000  1.0
  N  N48  1  0.65540000  0.02501000  0.67104000  1.0
  N  N49  1  0.65538000  0.97499000  0.17104000  1.0
  O  O50  1  0.21115000  0.56318000  0.68622000  1.0
  O  O51  1  0.21109000  0.43684000  0.18623000  1.0
  O  O52  1  0.19801000  0.32369000  0.57037000  1.0
  O  O53  1  0.19798000  0.67631000  0.07037000  1.0
