# generated using pymatgen
data_CoH15C19(NO2)2
_symmetry_space_group_name_H-M   'P 1'
_cell_length_a   15.33890000
_cell_length_b   17.80430000
_cell_length_c   20.64650000
_cell_angle_alpha   103.58600000
_cell_angle_beta   90.00000000
_cell_angle_gamma   90.00000000
_symmetry_Int_Tables_number   1
_chemical_formula_structural   CoH15C19(NO2)2
_chemical_formula_sum   'Co8 H120 C152 N16 O32'
_cell_volume   5480.75083281
_cell_formula_units_Z   8
loop_
 _symmetry_equiv_pos_site_id
 _symmetry_equiv_pos_as_xyz
  1  'x, y, z'
loop_
 _atom_site_type_symbol
 _atom_site_label
 _atom_site_symmetry_multiplicity
 _atom_site_fract_x
 _atom_site_fract_y
 _atom_site_fract_z
 _atom_site_occupancy
  Co  Co0  1  0.42052000  0.30227000  0.04810000  1.0
  Co  Co1  1  0.42052000  0.19773000  0.95190000  1.0
  Co  Co2  1  0.57946000  0.69774000  0.95190000  1.0
  Co  Co3  1  0.57946000  0.80228000  0.04811000  1.0
  Co  Co4  1  0.30961000  0.69458000  0.45804000  1.0
  Co  Co5  1  0.30961000  0.80543000  0.54197000  1.0
  Co  Co6  1  0.69041000  0.30543000  0.54197000  1.0
  Co  Co7  1  0.69041000  0.19457000  0.45803000  1.0
  H  H8  1  0.47032000  0.26008000  0.17250000  1.0
  H  H9  1  0.47032000  0.23991000  0.82750000  1.0
  H  H10  1  0.52964000  0.73995000  0.82750000  1.0
  H  H11  1  0.52964000  0.76005000  0.17250000  1.0
  H  H12  1  0.23461000  0.53313000  0.44947000  1.0
  H  H13  1  0.23461000  0.96687000  0.55053000  1.0
  H  H14  1  0.76541000  0.46692000  0.55054000  1.0
  H  H15  1  0.76541000  0.03308000  0.44946000  1.0
  H  H16  1  0.34092000  0.18277000  0.17856000  1.0
  H  H17  1  0.34092000  0.31723000  0.82143000  1.0
  H  H18  1  0.65908000  0.81723000  0.82146000  1.0
  H  H19  1  0.65908000  0.68277000  0.17854000  1.0
  H  H20  1  0.31038000  0.11008000  0.26468000  1.0
  H  H21  1  0.31038000  0.38992000  0.73532000  1.0
  H  H22  1  0.68961000  0.88989000  0.73533000  1.0
  H  H23  1  0.68961000  0.61011000  0.26467000  1.0
  H  H24  1  0.42282000  0.90611000  0.13627000  1.0
  H  H25  1  0.42282000  0.59389000  0.86373000  1.0
  H  H26  1  0.57717000  0.09388000  0.86371000  1.0
  H  H27  1  0.57717000  0.40612000  0.13629000  1.0
  H  H28  1  0.44890000  0.97773000  0.04995000  1.0
  H  H29  1  0.44890000  0.52226000  0.95005000  1.0
  H  H30  1  0.55109000  0.02228000  0.95004000  1.0
  H  H31  1  0.55109000  0.47772000  0.04996000  1.0
  H  H32  1  0.36984000  0.05721000  0.34130000  1.0
  H  H33  1  0.36985000  0.44279000  0.65869000  1.0
  H  H34  1  0.63015000  0.94277000  0.65868000  1.0
  H  H35  1  0.63015000  0.55723000  0.34132000  1.0
  H  H36  1  0.34474000  0.98350000  0.42828000  1.0
  H  H37  1  0.34474000  0.51651000  0.57172000  1.0
  H  H38  1  0.65525000  0.01648000  0.57171000  1.0
  H  H39  1  0.65525000  0.48352000  0.42829000  1.0
  H  H40  1  0.29850000  0.77745000  0.27599000  1.0
  H  H41  1  0.29850000  0.72255000  0.72402000  1.0
  H  H42  1  0.70150000  0.22253000  0.72401000  1.0
  H  H43  1  0.70151000  0.27747000  0.27599000  1.0
  H  H44  1  0.32226000  0.85042000  0.18875000  1.0
  H  H45  1  0.32226000  0.64958000  0.81126000  1.0
  H  H46  1  0.67774000  0.14955000  0.81124000  1.0
  H  H47  1  0.67774000  0.35045000  0.18876000  1.0
  H  H48  1  0.69827000  0.33606000  0.09190000  1.0
  H  H49  1  0.69827000  0.16394000  0.90809000  1.0
  H  H50  1  0.30172000  0.66395000  0.90809000  1.0
  H  H51  1  0.30172000  0.83605000  0.09191000  1.0
  H  H52  1  0.85926000  0.33249000  0.09519000  1.0
  H  H53  1  0.85925000  0.16751000  0.90480000  1.0
  H  H54  1  0.14074000  0.66752000  0.90480000  1.0
  H  H55  1  0.14074000  0.83248000  0.09520000  1.0
  H  H56  1  0.98179000  0.36442000  0.06473000  1.0
  H  H57  1  0.98179000  0.13558000  0.93527000  1.0
  H  H58  1  0.01820000  0.63558000  0.93527000  1.0
  H  H59  1  0.01820000  0.86442000  0.06473000  1.0
  H  H60  1  0.14339000  0.36231000  0.06678000  1.0
  H  H61  1  0.14339000  0.13768000  0.93321000  1.0
  H  H62  1  0.85660000  0.63769000  0.93321000  1.0
  H  H63  1  0.85660000  0.86231000  0.06679000  1.0
  H  H64  1  0.32644000  0.45215000  0.10524000  1.0
  H  H65  1  0.32644000  0.04784000  0.89476000  1.0
  H  H66  1  0.67357000  0.54793000  0.89476000  1.0
  H  H67  1  0.67358000  0.95207000  0.10524000  1.0
  H  H68  1  0.34983000  0.52881000  0.17532000  1.0
  H  H69  1  0.34983000  0.97119000  0.82467000  1.0
  H  H70  1  0.65018000  0.47126000  0.82469000  1.0
  H  H71  1  0.65018000  0.02874000  0.17532000  1.0
  H  H72  1  0.25454000  0.47274000  0.17526000  1.0
  H  H73  1  0.25454000  0.02726000  0.82474000  1.0
  H  H74  1  0.74547000  0.52733000  0.82474000  1.0
  H  H75  1  0.74547000  0.97267000  0.17527000  1.0
  H  H76  1  0.50187000  0.26145000  0.29460000  1.0
  H  H77  1  0.50187000  0.23854000  0.70540000  1.0
  H  H78  1  0.49811000  0.73860000  0.70541000  1.0
  H  H79  1  0.49811000  0.76139000  0.29459000  1.0
  H  H80  1  0.40350000  0.28977000  0.33887000  1.0
  H  H81  1  0.40350000  0.21023000  0.66112000  1.0
  H  H82  1  0.59648000  0.71030000  0.66113000  1.0
  H  H83  1  0.59647000  0.78970000  0.33887000  1.0
  H  H84  1  0.49437000  0.35288000  0.35146000  1.0
  H  H85  1  0.49437000  0.14711000  0.64854000  1.0
  H  H86  1  0.50561000  0.64718000  0.64855000  1.0
  H  H87  1  0.50561000  0.85282000  0.35145000  1.0
  H  H88  1  0.42945000  0.65248000  0.33754000  1.0
  H  H89  1  0.42945000  0.84752000  0.66246000  1.0
  H  H90  1  0.57055000  0.34759000  0.66247000  1.0
  H  H91  1  0.57055000  0.15241000  0.33753000  1.0
  H  H92  1  0.40146000  0.59872000  0.25611000  1.0
  H  H93  1  0.40146000  0.90128000  0.74388000  1.0
  H  H94  1  0.59854000  0.40135000  0.74389000  1.0
  H  H95  1  0.59854000  0.09865000  0.25611000  1.0
  H  H96  1  0.48736000  0.56627000  0.29931000  1.0
  H  H97  1  0.48736000  0.93373000  0.70069000  1.0
  H  H98  1  0.51265000  0.43380000  0.70070000  1.0
  H  H99  1  0.51265000  0.06620000  0.29930000  1.0
  H  H100  1  0.25887000  0.33242000  0.32594000  1.0
  H  H101  1  0.25887000  0.16758000  0.67406000  1.0
  H  H102  1  0.74113000  0.66763000  0.67407000  1.0
  H  H103  1  0.74113000  0.83237000  0.32593000  1.0
  H  H104  1  0.16768000  0.38482000  0.36587000  1.0
  H  H105  1  0.16768000  0.11518000  0.63413000  1.0
  H  H106  1  0.83233000  0.61524000  0.63414000  1.0
  H  H107  1  0.83233000  0.88475000  0.36586000  1.0
  H  H108  1  0.25534000  0.36237000  0.41434000  1.0
  H  H109  1  0.25534000  0.13763000  0.58566000  1.0
  H  H110  1  0.74467000  0.63768000  0.58567000  1.0
  H  H111  1  0.74467000  0.86231000  0.41433000  1.0
  H  H112  1  0.58657000  0.86304000  0.56481000  1.0
  H  H113  1  0.58657000  0.63697000  0.43519000  1.0
  H  H114  1  0.41344000  0.13695000  0.43521000  1.0
  H  H115  1  0.41345000  0.36305000  0.56479000  1.0
  H  H116  1  0.74877000  0.86483000  0.56437000  1.0
  H  H117  1  0.74878000  0.63517000  0.43563000  1.0
  H  H118  1  0.25124000  0.13516000  0.43565000  1.0
  H  H119  1  0.25124000  0.36484000  0.56435000  1.0
  H  H120  1  0.87060000  0.83324000  0.59478000  1.0
  H  H121  1  0.87060000  0.66677000  0.40523000  1.0
  H  H122  1  0.12941000  0.16676000  0.40523000  1.0
  H  H123  1  0.12941000  0.33325000  0.59478000  1.0
  H  H124  1  0.03233000  0.83501000  0.59281000  1.0
  H  H125  1  0.03233000  0.66499000  0.40719000  1.0
  H  H126  1  0.96769000  0.16499000  0.40719000  1.0
  H  H127  1  0.96768000  0.33502000  0.59281000  1.0
  C  C128  1  0.41498000  0.13378000  0.06052000  1.0
  C  C129  1  0.41498000  0.36622000  0.93948000  1.0
  C  C130  1  0.58501000  0.86624000  0.93950000  1.0
  C  C131  1  0.58501000  0.63377000  0.06050000  1.0
  C  C132  1  0.39710000  0.08537000  0.10890000  1.0
  C  C133  1  0.39711000  0.41462000  0.89110000  1.0
  C  C134  1  0.60289000  0.91463000  0.89111000  1.0
  C  C135  1  0.60289000  0.58537000  0.10889000  1.0
  C  C136  1  0.35882000  0.12201000  0.17008000  1.0
  C  C137  1  0.35882000  0.37799000  0.82992000  1.0
  C  C138  1  0.64118000  0.87799000  0.82994000  1.0
  C  C139  1  0.64118000  0.62201000  0.17006000  1.0
  C  C140  1  0.34221000  0.08114000  0.21825000  1.0
  C  C141  1  0.34221000  0.41886000  0.78175000  1.0
  C  C142  1  0.65779000  0.91884000  0.78176000  1.0
  C  C143  1  0.65779000  0.58116000  0.21824000  1.0
  C  C144  1  0.36442000  0.00246000  0.20703000  1.0
  C  C145  1  0.36442000  0.49754000  0.79297000  1.0
  C  C146  1  0.63557000  0.99752000  0.79296000  1.0
  C  C147  1  0.63557000  0.50248000  0.20704000  1.0
  C  C148  1  0.40270000  0.96633000  0.14573000  1.0
  C  C149  1  0.40270000  0.53367000  0.85427000  1.0
  C  C150  1  0.59729000  0.03366000  0.85426000  1.0
  C  C151  1  0.59729000  0.46634000  0.14574000  1.0
  C  C152  1  0.41815000  0.00682000  0.09673000  1.0
  C  C153  1  0.41816000  0.49318000  0.90327000  1.0
  C  C154  1  0.58184000  0.99319000  0.90327000  1.0
  C  C155  1  0.58184000  0.50682000  0.09673000  1.0
  C  C156  1  0.34798000  0.95927000  0.25859000  1.0
  C  C157  1  0.34798000  0.54073000  0.74141000  1.0
  C  C158  1  0.65202000  0.04071000  0.74140000  1.0
  C  C159  1  0.65202000  0.45929000  0.25860000  1.0
  C  C160  1  0.35261000  0.99614000  0.32674000  1.0
  C  C161  1  0.35261000  0.50386000  0.67326000  1.0
  C  C162  1  0.64739000  0.00384000  0.67325000  1.0
  C  C163  1  0.64739000  0.49616000  0.32675000  1.0
  C  C164  1  0.33872000  0.95531000  0.37553000  1.0
  C  C165  1  0.33872000  0.54470000  0.62447000  1.0
  C  C166  1  0.66128000  0.04468000  0.62445000  1.0
  C  C167  1  0.66128000  0.45532000  0.37555000  1.0
  C  C168  1  0.31977000  0.87607000  0.35726000  1.0
  C  C169  1  0.31977000  0.62394000  0.64274000  1.0
  C  C170  1  0.68023000  0.12392000  0.64273000  1.0
  C  C171  1  0.68023000  0.37608000  0.35727000  1.0
  C  C172  1  0.31382000  0.83893000  0.28957000  1.0
  C  C173  1  0.31382000  0.66108000  0.71043000  1.0
  C  C174  1  0.68618000  0.16105000  0.71042000  1.0
  C  C175  1  0.68618000  0.33895000  0.28958000  1.0
  C  C176  1  0.32769000  0.88002000  0.24109000  1.0
  C  C177  1  0.32769000  0.61998000  0.75891000  1.0
  C  C178  1  0.67231000  0.11996000  0.75890000  1.0
  C  C179  1  0.67231000  0.38004000  0.24110000  1.0
  C  C180  1  0.31101000  0.83061000  0.40876000  1.0
  C  C181  1  0.31101000  0.66939000  0.59125000  1.0
  C  C182  1  0.68899000  0.16938000  0.59124000  1.0
  C  C183  1  0.68899000  0.33062000  0.40876000  1.0
  C  C184  1  0.59070000  0.25000000  0.00000000  1.0
  C  C185  1  0.40929000  0.75000000  0.00000000  1.0
  C  C186  1  0.68779000  0.25000000  0.00000000  1.0
  C  C187  1  0.31220000  0.75000000  0.00000000  1.0
  C  C188  1  0.73435000  0.29790000  0.05203000  1.0
  C  C189  1  0.73435000  0.20209000  0.94797000  1.0
  C  C190  1  0.26564000  0.70210000  0.94797000  1.0
  C  C191  1  0.26564000  0.79790000  0.05203000  1.0
  C  C192  1  0.82494000  0.29684000  0.05269000  1.0
  C  C193  1  0.82494000  0.20315000  0.94730000  1.0
  C  C194  1  0.17506000  0.70316000  0.94730000  1.0
  C  C195  1  0.17505000  0.79684000  0.05270000  1.0
  C  C196  1  0.87250000  0.25000000  0.00000000  1.0
  C  C197  1  0.12749000  0.75000000  0.00000000  1.0
  C  C198  1  0.96898000  0.25000000  0.00000000  1.0
  C  C199  1  0.03101000  0.75000000  0.00000000  1.0
  C  C200  1  0.01643000  0.31351000  0.03694000  1.0
  C  C201  1  0.01643000  0.18649000  0.96305000  1.0
  C  C202  1  0.98356000  0.68649000  0.96305000  1.0
  C  C203  1  0.98357000  0.81351000  0.03695000  1.0
  C  C204  1  0.10710000  0.31321000  0.03769000  1.0
  C  C205  1  0.10710000  0.18678000  0.96231000  1.0
  C  C206  1  0.89289000  0.68679000  0.96231000  1.0
  C  C207  1  0.89289000  0.81322000  0.03769000  1.0
  C  C208  1  0.15340000  0.25000000  0.00000000  1.0
  C  C209  1  0.84659000  0.75000000  0.00000000  1.0
  C  C210  1  0.25054000  0.25000000  0.00000000  1.0
  C  C211  1  0.74945000  0.75000000  0.00000000  1.0
  C  C212  1  0.32327000  0.47003000  0.15971000  1.0
  C  C213  1  0.32328000  0.02996000  0.84029000  1.0
  C  C214  1  0.67673000  0.53004000  0.84029000  1.0
  C  C215  1  0.67673000  0.96997000  0.15972000  1.0
  C  C216  1  0.37204000  0.41464000  0.19015000  1.0
  C  C217  1  0.37204000  0.08536000  0.80985000  1.0
  C  C218  1  0.62796000  0.58542000  0.80985000  1.0
  C  C219  1  0.62796000  0.91458000  0.19016000  1.0
  C  C220  1  0.37918000  0.41216000  0.25842000  1.0
  C  C221  1  0.37918000  0.08784000  0.74158000  1.0
  C  C222  1  0.62082000  0.58790000  0.74157000  1.0
  C  C223  1  0.62082000  0.91210000  0.25843000  1.0
  C  C224  1  0.42847000  0.34581000  0.25863000  1.0
  C  C225  1  0.42847000  0.15419000  0.74137000  1.0
  C  C226  1  0.57152000  0.65425000  0.74137000  1.0
  C  C227  1  0.57152000  0.84575000  0.25863000  1.0
  C  C228  1  0.45835000  0.31063000  0.31359000  1.0
  C  C229  1  0.45835000  0.18937000  0.68641000  1.0
  C  C230  1  0.54163000  0.68943000  0.68641000  1.0
  C  C231  1  0.54163000  0.81057000  0.31359000  1.0
  C  C232  1  0.42302000  0.59416000  0.30581000  1.0
  C  C233  1  0.42302000  0.90584000  0.69419000  1.0
  C  C234  1  0.57699000  0.40591000  0.69420000  1.0
  C  C235  1  0.57699000  0.09409000  0.30580000  1.0
  C  C236  1  0.36104000  0.54784000  0.33618000  1.0
  C  C237  1  0.36104000  0.95216000  0.66382000  1.0
  C  C238  1  0.63897000  0.45222000  0.66383000  1.0
  C  C239  1  0.63897000  0.04778000  0.33617000  1.0
  C  C240  1  0.34303000  0.46723000  0.31600000  1.0
  C  C241  1  0.34303000  0.03277000  0.68399000  1.0
  C  C242  1  0.65698000  0.53283000  0.68399000  1.0
  C  C243  1  0.65698000  0.96717000  0.31601000  1.0
  C  C244  1  0.28353000  0.45230000  0.36291000  1.0
  C  C245  1  0.28353000  0.04770000  0.63709000  1.0
  C  C246  1  0.71649000  0.54775000  0.63709000  1.0
  C  C247  1  0.71649000  0.95225000  0.36291000  1.0
  C  C248  1  0.23904000  0.37944000  0.36788000  1.0
  C  C249  1  0.23904000  0.12055000  0.63211000  1.0
  C  C250  1  0.76097000  0.62061000  0.63212000  1.0
  C  C251  1  0.76097000  0.87939000  0.36788000  1.0
  C  C252  1  0.48030000  0.75000000  0.50000000  1.0
  C  C253  1  0.51972000  0.25000000  0.50000000  1.0
  C  C254  1  0.57742000  0.75000000  0.50000000  1.0
  C  C255  1  0.42260000  0.25000000  0.50000000  1.0
  C  C256  1  0.62355000  0.81372000  0.53683000  1.0
  C  C257  1  0.62356000  0.68628000  0.46317000  1.0
  C  C258  1  0.37646000  0.18627000  0.46318000  1.0
  C  C259  1  0.37646000  0.31373000  0.53682000  1.0
  C  C260  1  0.71420000  0.81387000  0.53655000  1.0
  C  C261  1  0.71420000  0.68613000  0.46345000  1.0
  C  C262  1  0.28582000  0.18612000  0.46346000  1.0
  C  C263  1  0.28582000  0.31388000  0.53654000  1.0
  C  C264  1  0.76159000  0.75000000  0.50000000  1.0
  C  C265  1  0.23842000  0.25000000  0.50000000  1.0
  C  C266  1  0.85794000  0.75000000  0.50000000  1.0
  C  C267  1  0.14207000  0.25000000  0.50000000  1.0
  C  C268  1  0.90522000  0.79728000  0.55259000  1.0
  C  C269  1  0.90522000  0.70273000  0.44742000  1.0
  C  C270  1  0.09479000  0.20272000  0.44742000  1.0
  C  C271  1  0.09479000  0.29728000  0.55259000  1.0
  C  C272  1  0.99585000  0.79803000  0.55229000  1.0
  C  C273  1  0.99586000  0.70198000  0.44772000  1.0
  C  C274  1  0.00416000  0.20197000  0.44772000  1.0
  C  C275  1  0.00416000  0.29803000  0.55229000  1.0
  C  C276  1  0.04196000  0.75000000  0.50000000  1.0
  C  C277  1  0.95805000  0.25000000  0.50000000  1.0
  C  C278  1  0.13914000  0.75000000  0.50000000  1.0
  C  C279  1  0.86087000  0.25000000  0.50000000  1.0
  N  N280  1  0.41467000  0.35436000  0.15198000  1.0
  N  N281  1  0.41467000  0.14563000  0.84802000  1.0
  N  N282  1  0.58531000  0.64568000  0.84802000  1.0
  N  N283  1  0.58531000  0.85432000  0.15199000  1.0
  N  N284  1  0.44911000  0.31460000  0.19425000  1.0
  N  N285  1  0.44911000  0.18540000  0.80575000  1.0
  N  N286  1  0.55086000  0.68545000  0.80575000  1.0
  N  N287  1  0.55086000  0.81455000  0.19425000  1.0
  N  N288  1  0.31526000  0.57965000  0.39118000  1.0
  N  N289  1  0.31526000  0.92035000  0.60882000  1.0
  N  N290  1  0.68475000  0.42040000  0.60883000  1.0
  N  N291  1  0.68476000  0.07960000  0.39117000  1.0
  N  N292  1  0.26904000  0.52129000  0.40626000  1.0
  N  N293  1  0.26904000  0.97871000  0.59374000  1.0
  N  N294  1  0.73098000  0.47875000  0.59374000  1.0
  N  N295  1  0.73098000  0.02125000  0.40626000  1.0
  O  O296  1  0.42775000  0.20542000  0.08731000  1.0
  O  O297  1  0.42774000  0.29457000  0.91268000  1.0
  O  O298  1  0.57221000  0.79459000  0.91271000  1.0
  O  O299  1  0.57221000  0.70541000  0.08729000  1.0
  O  O300  1  0.41516000  0.10581000  0.99783000  1.0
  O  O301  1  0.41516000  0.39419000  0.00217000  1.0
  O  O302  1  0.58485000  0.89420000  0.00219000  1.0
  O  O303  1  0.58485000  0.60580000  0.99781000  1.0
  O  O304  1  0.30468000  0.86702000  0.46970000  1.0
  O  O305  1  0.30468000  0.63298000  0.53031000  1.0
  O  O306  1  0.69533000  0.13297000  0.53030000  1.0
  O  O307  1  0.69532000  0.36703000  0.46970000  1.0
  O  O308  1  0.31279000  0.75690000  0.38932000  1.0
  O  O309  1  0.31279000  0.74311000  0.61068000  1.0
  O  O310  1  0.68722000  0.24309000  0.61068000  1.0
  O  O311  1  0.68722000  0.25691000  0.38932000  1.0
  O  O312  1  0.55125000  0.30067000  0.04452000  1.0
  O  O313  1  0.55125000  0.19933000  0.95548000  1.0
  O  O314  1  0.44874000  0.69933000  0.95549000  1.0
  O  O315  1  0.44874000  0.80068000  0.04452000  1.0
  O  O316  1  0.28990000  0.29909000  0.04575000  1.0
  O  O317  1  0.28990000  0.20091000  0.95425000  1.0
  O  O318  1  0.71009000  0.70092000  0.95424000  1.0
  O  O319  1  0.71009000  0.79908000  0.04576000  1.0
  O  O320  1  0.44139000  0.69352000  0.46140000  1.0
  O  O321  1  0.44139000  0.80648000  0.53860000  1.0
  O  O322  1  0.55862000  0.30648000  0.53861000  1.0
  O  O323  1  0.55862000  0.19352000  0.46139000  1.0
  O  O324  1  0.17810000  0.69579000  0.45861000  1.0
  O  O325  1  0.17809000  0.80421000  0.54140000  1.0
  O  O326  1  0.82192000  0.30421000  0.54140000  1.0
  O  O327  1  0.82192000  0.19579000  0.45860000  1.0
