# generated using pymatgen
data_ZnH9C11N3O2
_symmetry_space_group_name_H-M   'P 1'
_cell_length_a   9.44821000
_cell_length_b   9.60103000
_cell_length_c   14.40670000
_cell_angle_alpha   96.81180000
_cell_angle_beta   89.99930000
_cell_angle_gamma   89.99950000
_symmetry_Int_Tables_number   1
_chemical_formula_structural   ZnH9C11N3O2
_chemical_formula_sum   'Zn4 H36 C44 N12 O8'
_cell_volume   1297.64340885
_cell_formula_units_Z   4
loop_
 _symmetry_equiv_pos_site_id
 _symmetry_equiv_pos_as_xyz
  1  'x, y, z'
loop_
 _atom_site_type_symbol
 _atom_site_label
 _atom_site_symmetry_multiplicity
 _atom_site_fract_x
 _atom_site_fract_y
 _atom_site_fract_z
 _atom_site_occupancy
  Zn  Zn0  1  0.94565000  0.60306000  0.40218000  1.0
  Zn  Zn1  1  0.44565000  0.89694000  0.59782000  1.0
  Zn  Zn2  1  0.05435000  0.39695000  0.59782000  1.0
  Zn  Zn3  1  0.55436000  0.10306000  0.40218000  1.0
  H  H4  1  0.31204000  0.61416000  0.66526000  1.0
  H  H5  1  0.81206000  0.88584000  0.33475000  1.0
  H  H6  1  0.68797000  0.38583000  0.33473000  1.0
  H  H7  1  0.18795000  0.11417000  0.66526000  1.0
  H  H8  1  0.19031000  0.82683000  0.43808000  1.0
  H  H9  1  0.69031000  0.67317000  0.56193000  1.0
  H  H10  1  0.80969000  0.17317000  0.56192000  1.0
  H  H11  1  0.30969000  0.32682000  0.43807000  1.0
  H  H12  1  0.00996000  0.60491000  0.09989000  1.0
  H  H13  1  0.50994000  0.89508000  0.90012000  1.0
  H  H14  1  0.99003000  0.39509000  0.90011000  1.0
  H  H15  1  0.49005000  0.10492000  0.09988000  1.0
  H  H16  1  0.12344000  0.90429000  0.15495000  1.0
  H  H17  1  0.62344000  0.59572000  0.84505000  1.0
  H  H18  1  0.87655000  0.09572000  0.84505000  1.0
  H  H19  1  0.37656000  0.40428000  0.15496000  1.0
  H  H20  1  0.22829000  0.01600000  0.03026000  1.0
  H  H21  1  0.72829000  0.48399000  0.96974000  1.0
  H  H22  1  0.77170000  0.98401000  0.96974000  1.0
  H  H23  1  0.27171000  0.51601000  0.03026000  1.0
  H  H24  1  0.25476000  0.04123000  0.86168000  1.0
  H  H25  1  0.75475000  0.45877000  0.13832000  1.0
  H  H26  1  0.74524000  0.95877000  0.13832000  1.0
  H  H27  1  0.24525000  0.54124000  0.86168000  1.0
  H  H28  1  0.13708000  0.87140000  0.74207000  1.0
  H  H29  1  0.63707000  0.62859000  0.25793000  1.0
  H  H30  1  0.86293000  0.12859000  0.25793000  1.0
  H  H31  1  0.36293000  0.37141000  0.74207000  1.0
  H  H32  1  0.99638000  0.67238000  0.79230000  1.0
  H  H33  1  0.49638000  0.82762000  0.20770000  1.0
  H  H34  1  0.00362000  0.32762000  0.20770000  1.0
  H  H35  1  0.50362000  0.17238000  0.79230000  1.0
  H  H36  1  0.97044000  0.64795000  0.95950000  1.0
  H  H37  1  0.47044000  0.85205000  0.04051000  1.0
  H  H38  1  0.02956000  0.35205000  0.04050000  1.0
  H  H39  1  0.52956000  0.14795000  0.95950000  1.0
  C  C40  1  0.25523000  0.64465000  0.60538000  1.0
  C  C41  1  0.75524000  0.85535000  0.39462000  1.0
  C  C42  1  0.74478000  0.35534000  0.39461000  1.0
  C  C43  1  0.24476000  0.14465000  0.60538000  1.0
  C  C44  1  0.19603000  0.75436000  0.49047000  1.0
  C  C45  1  0.69602000  0.74564000  0.50953000  1.0
  C  C46  1  0.80398000  0.24564000  0.50952000  1.0
  C  C47  1  0.30397000  0.25435000  0.49047000  1.0
  C  C48  1  0.02676000  0.69683000  0.24492000  1.0
  C  C49  1  0.52675000  0.80316000  0.75509000  1.0
  C  C50  1  0.97324000  0.30317000  0.75508000  1.0
  C  C51  1  0.47325000  0.19684000  0.24491000  1.0
  C  C52  1  0.04291000  0.69996000  0.14350000  1.0
  C  C53  1  0.54289000  0.80004000  0.85651000  1.0
  C  C54  1  0.95709000  0.30004000  0.85650000  1.0
  C  C55  1  0.45711000  0.19996000  0.14350000  1.0
  C  C56  1  0.09055000  0.81372000  0.10639000  1.0
  C  C57  1  0.59054000  0.68628000  0.89361000  1.0
  C  C58  1  0.90944000  0.18628000  0.89361000  1.0
  C  C59  1  0.40946000  0.31372000  0.10639000  1.0
  C  C60  1  0.10200000  0.82720000  0.00696000  1.0
  C  C61  1  0.60200000  0.67280000  0.99305000  1.0
  C  C62  1  0.89799000  0.17280000  0.99304000  1.0
  C  C63  1  0.39800000  0.32720000  0.00696000  1.0
  C  C64  1  0.17961000  0.93946000  0.97772000  1.0
  C  C65  1  0.67961000  0.56053000  0.02229000  1.0
  C  C66  1  0.82038000  0.06054000  0.02228000  1.0
  C  C67  1  0.32039000  0.43947000  0.97771000  1.0
  C  C68  1  0.19314000  0.95466000  0.88309000  1.0
  C  C69  1  0.69313000  0.54533000  0.11691000  1.0
  C  C70  1  0.80686000  0.04533000  0.11690000  1.0
  C  C71  1  0.30686000  0.45467000  0.88310000  1.0
  C  C72  1  0.12747000  0.85895000  0.81607000  1.0
  C  C73  1  0.62747000  0.64104000  0.18393000  1.0
  C  C74  1  0.87254000  0.14104000  0.18393000  1.0
  C  C75  1  0.37254000  0.35896000  0.81607000  1.0
  C  C76  1  0.04774000  0.74821000  0.84383000  1.0
  C  C77  1  0.54773000  0.75180000  0.15618000  1.0
  C  C78  1  0.95227000  0.25179000  0.15617000  1.0
  C  C79  1  0.45227000  0.24821000  0.84382000  1.0
  C  C80  1  0.03532000  0.73268000  0.93831000  1.0
  C  C81  1  0.53532000  0.76733000  0.06169000  1.0
  C  C82  1  0.96468000  0.26732000  0.06169000  1.0
  C  C83  1  0.46468000  0.23268000  0.93831000  1.0
  N  N84  1  0.10723000  0.64682000  0.49067000  1.0
  N  N85  1  0.60723000  0.85318000  0.50933000  1.0
  N  N86  1  0.89277000  0.35318000  0.50933000  1.0
  N  N87  1  0.39277000  0.14682000  0.49067000  1.0
  N  N88  1  0.14467000  0.57670000  0.56464000  1.0
  N  N89  1  0.64467000  0.92330000  0.43536000  1.0
  N  N90  1  0.85534000  0.42330000  0.43536000  1.0
  N  N91  1  0.35533000  0.07670000  0.56464000  1.0
  N  N92  1  0.29028000  0.75669000  0.56129000  1.0
  N  N93  1  0.79029000  0.74331000  0.43871000  1.0
  N  N94  1  0.70972000  0.24330000  0.43870000  1.0
  N  N95  1  0.20971000  0.25669000  0.56129000  1.0
  O  O96  1  0.98186000  0.57641000  0.26873000  1.0
  O  O97  1  0.48185000  0.92358000  0.73127000  1.0
  O  O98  1  0.01815000  0.42359000  0.73127000  1.0
  O  O99  1  0.51816000  0.07642000  0.26873000  1.0
  O  O100  1  0.04987000  0.80139000  0.30438000  1.0
  O  O101  1  0.54986000  0.69860000  0.69563000  1.0
  O  O102  1  0.95014000  0.19860000  0.69562000  1.0
  O  O103  1  0.45013000  0.30140000  0.30438000  1.0
