# generated using pymatgen
data_VCuPH14C16N3O6F
_symmetry_space_group_name_H-M   'P 1'
_cell_length_a   8.54538000
_cell_length_b   11.33243621
_cell_length_c   11.33240000
_cell_angle_alpha   60.08631654
_cell_angle_beta   70.53200000
_cell_angle_gamma   70.53227712
_symmetry_Int_Tables_number   1
_chemical_formula_structural   VCuPH14C16N3O6F
_chemical_formula_sum   'V2 Cu2 P2 H28 C32 N6 O12 F2'
_cell_volume   877.90183147
_cell_formula_units_Z   2
loop_
 _symmetry_equiv_pos_site_id
 _symmetry_equiv_pos_as_xyz
  1  'x, y, z'
loop_
 _atom_site_type_symbol
 _atom_site_label
 _atom_site_symmetry_multiplicity
 _atom_site_fract_x
 _atom_site_fract_y
 _atom_site_fract_z
 _atom_site_occupancy
  V  V0  1  0.48523000  0.12961000  0.34968000  1.0
  V  V1  1  0.51478000  0.65032000  0.87039000  1.0
  Cu  Cu2  1  0.87452000  0.97701000  0.75425000  1.0
  Cu  Cu3  1  0.12547000  0.24576000  0.02299000  1.0
  P  P4  1  0.28422000  0.93708000  0.66346000  1.0
  P  P5  1  0.71578000  0.33654000  0.06291000  1.0
  H  H6  1  0.73046000  0.97502000  0.56462000  1.0
  H  H7  1  0.26953000  0.43539000  0.02498000  1.0
  H  H8  1  0.75843000  0.81698000  0.67558000  1.0
  H  H9  1  0.24157000  0.32442000  0.18302000  1.0
  H  H10  1  0.06454000  0.14609000  0.45907000  1.0
  H  H11  1  0.93545000  0.54094000  0.85391000  1.0
  H  H12  1  0.96270000  0.34830000  0.24812000  1.0
  H  H13  1  0.03730000  0.75188000  0.65170000  1.0
  H  H14  1  0.65490000  0.46249000  0.27088000  1.0
  H  H15  1  0.34510000  0.72911000  0.53751000  1.0
  H  H16  1  0.46626000  0.38751000  0.50742000  1.0
  H  H17  1  0.53373000  0.49258000  0.61249000  1.0
  H  H18  1  0.58723000  0.82790000  0.25316000  1.0
  H  H19  1  0.41276000  0.74684000  0.17209000  1.0
  H  H20  1  0.81859000  0.62848000  0.35287000  1.0
  H  H21  1  0.18141000  0.64713000  0.37152000  1.0
  H  H22  1  0.07439000  0.56137000  0.18858000  1.0
  H  H23  1  0.92562000  0.81142000  0.43863000  1.0
  H  H24  1  0.09148000  0.70568000  0.93258000  1.0
  H  H25  1  0.90851000  0.06742000  0.29433000  1.0
  H  H26  1  0.29389000  0.96155000  0.85587000  1.0
  H  H27  1  0.70612000  0.14414000  0.03844000  1.0
  H  H28  1  0.40798000  0.07264000  0.69674000  1.0
  H  H29  1  0.59203000  0.30327000  0.92735000  1.0
  H  H30  1  0.24152000  0.29085000  0.52668000  1.0
  H  H31  1  0.75851000  0.47332000  0.70913000  1.0
  H  H32  1  0.00002000  0.49033000  0.50966000  1.0
  H  H33  1  0.00000000  0.05318000  0.94682000  1.0
  C  C34  1  0.93403000  0.20472000  0.46544000  1.0
  C  C35  1  0.06597000  0.53456000  0.79529000  1.0
  C  C36  1  0.87612000  0.31684000  0.34868000  1.0
  C  C37  1  0.12388000  0.65133000  0.68315000  1.0
  C  C38  1  0.70589000  0.38217000  0.36220000  1.0
  C  C39  1  0.29411000  0.63780000  0.61782000  1.0
  C  C40  1  0.60071000  0.34099000  0.49355000  1.0
  C  C41  1  0.39928000  0.50645000  0.65901000  1.0
  C  C42  1  0.66943000  0.23561000  0.60791000  1.0
  C  C43  1  0.33057000  0.39209000  0.76440000  1.0
  C  C44  1  0.57623000  0.18362000  0.75269000  1.0
  C  C45  1  0.42376000  0.24731000  0.81638000  1.0
  C  C46  1  0.58590000  0.98085000  0.96929000  1.0
  C  C47  1  0.41409000  0.03071000  0.01916000  1.0
  C  C48  1  0.70967000  0.86043000  0.04229000  1.0
  C  C49  1  0.29032000  0.95772000  0.13957000  1.0
  C  C50  1  0.69504000  0.79151000  0.18642000  1.0
  C  C51  1  0.30496000  0.81359000  0.20848000  1.0
  C  C52  1  0.82725000  0.68336000  0.24064000  1.0
  C  C53  1  0.17275000  0.75936000  0.31664000  1.0
  C  C54  1  0.96983000  0.64712000  0.15102000  1.0
  C  C55  1  0.03018000  0.84897000  0.35289000  1.0
  C  C56  1  0.97954000  0.72466000  0.00780000  1.0
  C  C57  1  0.02046000  0.99220000  0.27535000  1.0
  C  C58  1  0.28655000  0.03814000  0.74786000  1.0
  C  C59  1  0.71346000  0.25214000  0.96185000  1.0
  C  C60  1  0.13967000  0.15874000  0.73893000  1.0
  C  C61  1  0.86034000  0.26106000  0.84126000  1.0
  C  C62  1  0.13791000  0.28320000  0.61617000  1.0
  C  C63  1  0.86211000  0.38382000  0.71680000  1.0
  C  C64  1  0.00001000  0.39417000  0.60582000  1.0
  C  C65  1  0.00001000  0.14955000  0.85045000  1.0
  N  N66  1  0.83252000  0.16490000  0.59130000  1.0
  N  N67  1  0.16747000  0.40870000  0.83511000  1.0
  N  N68  1  0.65213000  0.05682000  0.83578000  1.0
  N  N69  1  0.34786000  0.16423000  0.94318000  1.0
  N  N70  1  0.85327000  0.82907000  0.95560000  1.0
  N  N71  1  0.14672000  0.04440000  0.17094000  1.0
  O  O72  1  0.79873000  0.90457000  0.63702000  1.0
  O  O73  1  0.20126000  0.36298000  0.09544000  1.0
  O  O74  1  0.11021000  0.89707000  0.71654000  1.0
  O  O75  1  0.88978000  0.28346000  0.10293000  1.0
  O  O76  1  0.31501000  0.02338000  0.50452000  1.0
  O  O77  1  0.68500000  0.49548000  0.97662000  1.0
  O  O78  1  0.61933000  0.08657000  0.44790000  1.0
  O  O79  1  0.38067000  0.55210000  0.91343000  1.0
  O  O80  1  0.42520000  0.80680000  0.70542000  1.0
  O  O81  1  0.57480000  0.29457000  0.19319000  1.0
  O  O82  1  0.54718000  0.03226000  0.26750000  1.0
  O  O83  1  0.45283000  0.73250000  0.96773000  1.0
  F  F84  1  0.28424000  0.27303000  0.33053000  1.0
  F  F85  1  0.71577000  0.66948000  0.72696000  1.0
