# generated using pymatgen
data_ZnH13C19N3O5
_symmetry_space_group_name_H-M   'P 1'
_cell_length_a   8.36914000
_cell_length_b   10.06910000
_cell_length_c   11.68720000
_cell_angle_alpha   113.48100000
_cell_angle_beta   101.76300000
_cell_angle_gamma   98.37580000
_symmetry_Int_Tables_number   1
_chemical_formula_structural   ZnH13C19N3O5
_chemical_formula_sum   'Zn2 H26 C38 N6 O10'
_cell_volume   855.65258673
_cell_formula_units_Z   2
loop_
 _symmetry_equiv_pos_site_id
 _symmetry_equiv_pos_as_xyz
  1  'x, y, z'
loop_
 _atom_site_type_symbol
 _atom_site_label
 _atom_site_symmetry_multiplicity
 _atom_site_fract_x
 _atom_site_fract_y
 _atom_site_fract_z
 _atom_site_occupancy
  Zn  Zn0  1  0.38617000  0.65273000  0.55966000  1.0
  Zn  Zn1  1  0.61383000  0.34727000  0.44034000  1.0
  H  H2  1  0.90603000  0.17583000  0.18337000  1.0
  H  H3  1  0.09397000  0.82417000  0.81663000  1.0
  H  H4  1  0.40869000  0.70326000  0.32834000  1.0
  H  H5  1  0.59131000  0.29674000  0.67166000  1.0
  H  H6  1  0.28239000  0.58613000  0.08594000  1.0
  H  H7  1  0.71761000  0.41387000  0.91405000  1.0
  H  H8  1  0.05670000  0.34653000  0.97717000  1.0
  H  H9  1  0.94330000  0.65347000  0.02283000  1.0
  H  H10  1  0.09928000  0.36425000  0.35766000  1.0
  H  H11  1  0.90073000  0.63575000  0.64234000  1.0
  H  H12  1  0.38145000  0.60594000  0.81167000  1.0
  H  H13  1  0.61855000  0.39406000  0.18833000  1.0
  H  H14  1  0.53078000  0.74055000  0.05324000  1.0
  H  H15  1  0.46922000  0.25945000  0.94676000  1.0
  H  H16  1  0.74458000  0.98280000  0.14017000  1.0
  H  H17  1  0.25542000  0.01719000  0.85983000  1.0
  H  H18  1  0.64685000  0.93621000  0.74719000  1.0
  H  H19  1  0.35315000  0.06379000  0.25281000  1.0
  H  H20  1  0.06248000  0.39840000  0.66682000  1.0
  H  H21  1  0.93752000  0.60160000  0.33318000  1.0
  H  H22  1  0.90793000  0.23705000  0.74723000  1.0
  H  H23  1  0.09207000  0.76295000  0.25277000  1.0
  H  H24  1  0.97955000  0.00011000  0.72420000  1.0
  H  H25  1  0.02045000  0.99989000  0.27580000  1.0
  H  H26  1  0.35043000  0.07615000  0.53582000  1.0
  H  H27  1  0.64958000  0.92385000  0.46418000  1.0
  C  C28  1  0.31213000  0.59783000  0.27696000  1.0
  C  C29  1  0.68787000  0.40217000  0.72304000  1.0
  C  C30  1  0.24116000  0.53193000  0.14279000  1.0
  C  C31  1  0.75884000  0.46807000  0.85721000  1.0
  C  C32  1  0.11392000  0.39959000  0.08180000  1.0
  C  C33  1  0.88608000  0.60041000  0.91820000  1.0
  C  C34  1  0.05878000  0.33654000  0.15921000  1.0
  C  C35  1  0.94122000  0.66346000  0.84079000  1.0
  C  C36  1  0.13901000  0.40928000  0.29436000  1.0
  C  C37  1  0.86099000  0.59071000  0.70564000  1.0
  C  C38  1  0.82982000  0.12650000  0.98597000  1.0
  C  C39  1  0.17018000  0.87350000  0.01403000  1.0
  C  C40  1  0.47727000  0.71164000  0.85500000  1.0
  C  C41  1  0.52273000  0.28837000  0.14500000  1.0
  C  C42  1  0.55988000  0.78695000  0.98794000  1.0
  C  C43  1  0.44012000  0.21305000  0.01206000  1.0
  C  C44  1  0.67958000  0.92253000  0.03644000  1.0
  C  C45  1  0.32042000  0.07747000  0.96356000  1.0
  C  C46  1  0.71136000  0.98008000  0.95018000  1.0
  C  C47  1  0.28864000  0.01992000  0.04982000  1.0
  C  C48  1  0.62403000  0.89582000  0.81755000  1.0
  C  C49  1  0.37598000  0.10418000  0.18245000  1.0
  C  C50  1  0.21663000  0.24837000  0.59806000  1.0
  C  C51  1  0.78337000  0.75163000  0.40194000  1.0
  C  C52  1  0.09292000  0.29421000  0.65881000  1.0
  C  C53  1  0.90709000  0.70579000  0.34119000  1.0
  C  C54  1  0.00751000  0.20491000  0.70363000  1.0
  C  C55  1  0.99249000  0.79508000  0.29637000  1.0
  C  C56  1  0.04765000  0.07111000  0.69064000  1.0
  C  C57  1  0.95235000  0.92889000  0.30936000  1.0
  C  C58  1  0.17307000  0.02495000  0.63236000  1.0
  C  C59  1  0.82693000  0.97505000  0.36764000  1.0
  C  C60  1  0.25613000  0.11348000  0.58456000  1.0
  C  C61  1  0.74388000  0.88652000  0.41544000  1.0
  C  C62  1  0.21434000  0.88066000  0.62057000  1.0
  C  C63  1  0.78566000  0.11934000  0.37943000  1.0
  C  C64  1  0.30367000  0.34450000  0.54762000  1.0
  C  C65  1  0.69633000  0.65550000  0.45238000  1.0
  N  N66  1  0.26266000  0.53546000  0.35093000  1.0
  N  N67  1  0.73734000  0.46454000  0.64907000  1.0
  N  N68  1  0.93221000  0.20431000  0.11177000  1.0
  N  N69  1  0.06779000  0.79569000  0.88823000  1.0
  N  N70  1  0.51065000  0.76457000  0.77083000  1.0
  N  N71  1  0.48935000  0.23543000  0.22917000  1.0
  O  O72  1  0.28631000  0.47812000  0.58814000  1.0
  O  O73  1  0.71369000  0.52188000  0.41186000  1.0
  O  O74  1  0.38646000  0.28746000  0.46889000  1.0
  O  O75  1  0.61354000  0.71254000  0.53111000  1.0
  O  O76  1  0.32512000  0.84077000  0.56152000  1.0
  O  O77  1  0.67489000  0.15923000  0.43848000  1.0
  O  O78  1  0.14213000  0.80671000  0.66994000  1.0
  O  O79  1  0.85787000  0.19329000  0.33006000  1.0
  O  O80  1  0.83241000  0.17102000  0.90129000  1.0
  O  O81  1  0.16759000  0.82898000  0.09871000  1.0
