# generated using pymatgen
data_AlH11C19INO5
_symmetry_space_group_name_H-M   'P 1'
_cell_length_a   6.68020000
_cell_length_b   25.38200000
_cell_length_c   28.77220000
_cell_angle_alpha   90.44990000
_cell_angle_beta   90.01490000
_cell_angle_gamma   89.01940000
_symmetry_Int_Tables_number   1
_chemical_formula_structural   AlH11C19INO5
_chemical_formula_sum   'Al4 H44 C76 I4 N4 O20'
_cell_volume   4877.65831971
_cell_formula_units_Z   4
loop_
 _symmetry_equiv_pos_site_id
 _symmetry_equiv_pos_as_xyz
  1  'x, y, z'
loop_
 _atom_site_type_symbol
 _atom_site_label
 _atom_site_symmetry_multiplicity
 _atom_site_fract_x
 _atom_site_fract_y
 _atom_site_fract_z
 _atom_site_occupancy
  Al  Al0  1  0.79812000  0.74871000  0.74823000  1.0
  Al  Al1  1  0.20188000  0.25129000  0.25177000  1.0
  Al  Al2  1  0.29770000  0.74595000  0.74830000  1.0
  Al  Al3  1  0.70230000  0.25405000  0.25170000  1.0
  H  H4  1  0.72041000  0.64965000  0.64129000  1.0
  H  H5  1  0.27957000  0.35035000  0.35871000  1.0
  H  H6  1  0.70225000  0.58434000  0.57539000  1.0
  H  H7  1  0.29775000  0.41565000  0.42461000  1.0
  H  H8  1  0.34436000  0.56950000  0.57535000  1.0
  H  H9  1  0.65564000  0.43050000  0.42466000  1.0
  H  H10  1  0.36118000  0.63499000  0.64128000  1.0
  H  H11  1  0.63881000  0.36501000  0.35873000  1.0
  H  H12  1  0.72138000  0.64421000  0.84997000  1.0
  H  H13  1  0.27863000  0.35581000  0.15004000  1.0
  H  H14  1  0.70300000  0.57983000  0.91458000  1.0
  H  H15  1  0.29701000  0.42020000  0.08544000  1.0
  H  H16  1  0.34626000  0.57980000  0.92576000  1.0
  H  H17  1  0.65376000  0.42019000  0.07423000  1.0
  H  H18  1  0.36205000  0.64269000  0.85981000  1.0
  H  H19  1  0.63797000  0.35729000  0.14018000  1.0
  H  H20  1  0.28543000  0.49483000  0.94488000  1.0
  H  H21  1  0.71456000  0.50517000  0.05512000  1.0
  H  H22  1  0.26428000  0.43089000  0.00830000  1.0
  H  H23  1  0.73572000  0.56912000  0.99170000  1.0
  H  H24  1  0.74636000  0.17519000  0.38029000  1.0
  H  H25  1  0.25364000  0.82480000  0.61971000  1.0
  H  H26  1  0.74417000  0.11008000  0.44476000  1.0
  H  H27  1  0.25584000  0.88991000  0.55524000  1.0
  H  H28  1  0.19086000  0.11383000  0.32989000  1.0
  H  H29  1  0.80913000  0.88617000  0.67011000  1.0
  H  H30  1  0.17976000  0.04836000  0.48561000  1.0
  H  H31  1  0.82023000  0.95164000  0.51439000  1.0
  H  H32  1  0.20774000  0.98726000  0.55155000  1.0
  H  H33  1  0.79226000  0.01274000  0.44846000  1.0
  H  H34  1  0.74382000  0.17562000  0.12194000  1.0
  H  H35  1  0.25618000  0.82438000  0.87805000  1.0
  H  H36  1  0.74152000  0.11065000  0.05636000  1.0
  H  H37  1  0.25848000  0.88934000  0.94364000  1.0
  H  H38  1  0.18968000  0.11370000  0.17160000  1.0
  H  H39  1  0.81032000  0.88630000  0.82840000  1.0
  H  H40  1  0.17842000  0.04780000  0.01493000  1.0
  H  H41  1  0.82158000  0.95219000  0.98507000  1.0
  H  H42  1  0.20814000  0.98643000  0.94828000  1.0
  H  H43  1  0.79187000  0.01356000  0.05172000  1.0
  H  H44  1  0.55805000  0.67761000  0.75024000  1.0
  H  H45  1  0.44194000  0.32240000  0.24976000  1.0
  H  H46  1  0.05112000  0.81713000  0.74758000  1.0
  H  H47  1  0.94887000  0.18287000  0.25242000  1.0
  C  C48  1  0.54082000  0.81112000  0.68606000  1.0
  C  C49  1  0.45919000  0.18888000  0.31394000  1.0
  C  C50  1  0.54235000  0.81130000  0.81125000  1.0
  C  C51  1  0.45766000  0.18870000  0.18874000  1.0
  C  C52  1  0.04944000  0.68422000  0.81111000  1.0
  C  C53  1  0.95056000  0.31578000  0.18889000  1.0
  C  C54  1  0.04800000  0.68379000  0.68492000  1.0
  C  C55  1  0.95199000  0.31621000  0.31508000  1.0
  C  C56  1  0.85563000  0.63167000  0.62651000  1.0
  C  C57  1  0.14436000  0.36833000  0.37349000  1.0
  C  C58  1  0.84560000  0.59563000  0.59009000  1.0
  C  C59  1  0.15440000  0.40437000  0.40991000  1.0
  C  C60  1  0.02218000  0.57290000  0.57162000  1.0
  C  C61  1  0.97781000  0.42709000  0.42838000  1.0
  C  C62  1  0.20880000  0.58732000  0.59005000  1.0
  C  C63  1  0.79120000  0.41267000  0.40995000  1.0
  C  C64  1  0.21799000  0.62350000  0.62652000  1.0
  C  C65  1  0.78200000  0.37650000  0.37348000  1.0
  C  C66  1  0.04159000  0.64572000  0.64514000  1.0
  C  C67  1  0.95840000  0.35428000  0.35487000  1.0
  C  C68  1  0.98936000  0.46581000  0.46654000  1.0
  C  C69  1  0.01064000  0.53418000  0.53346000  1.0
  C  C70  1  0.85714000  0.62963000  0.86689000  1.0
  C  C71  1  0.14288000  0.37039000  0.13312000  1.0
  C  C72  1  0.84795000  0.59414000  0.90327000  1.0
  C  C73  1  0.15206000  0.40588000  0.09674000  1.0
  C  C74  1  0.02343000  0.57507000  0.92493000  1.0
  C  C75  1  0.97658000  0.42494000  0.07507000  1.0
  C  C76  1  0.20875000  0.59315000  0.90873000  1.0
  C  C77  1  0.79126000  0.40685000  0.09126000  1.0
  C  C78  1  0.21861000  0.62852000  0.87215000  1.0
  C  C79  1  0.78141000  0.37148000  0.12785000  1.0
  C  C80  1  0.04265000  0.64697000  0.85078000  1.0
  C  C81  1  0.95737000  0.35304000  0.14922000  1.0
  C  C82  1  0.16138000  0.49789000  0.96944000  1.0
  C  C83  1  0.83862000  0.50211000  0.03056000  1.0
  C  C84  1  0.14937000  0.46173000  0.00534000  1.0
  C  C85  1  0.85063000  0.53827000  0.99466000  1.0
  C  C86  1  0.98783000  0.46302000  0.03673000  1.0
  C  C87  1  0.01219000  0.53698000  0.96327000  1.0
  C  C88  1  0.62507000  0.14726000  0.38349000  1.0
  C  C89  1  0.37493000  0.85273000  0.61651000  1.0
  C  C90  1  0.62472000  0.11032000  0.41890000  1.0
  C  C91  1  0.37527000  0.88968000  0.58110000  1.0
  C  C92  1  0.47325000  0.07259000  0.42294000  1.0
  C  C93  1  0.52674000  0.92741000  0.57706000  1.0
  C  C94  1  0.32097000  0.07362000  0.38895000  1.0
  C  C95  1  0.67902000  0.92638000  0.61105000  1.0
  C  C96  1  0.31239000  0.11257000  0.35510000  1.0
  C  C97  1  0.68760000  0.88743000  0.64490000  1.0
  C  C98  1  0.46537000  0.14935000  0.35199000  1.0
  C  C99  1  0.53463000  0.85065000  0.64800000  1.0
  C  C100  1  0.32007000  0.02683000  0.49135000  1.0
  C  C101  1  0.67992000  0.97317000  0.50865000  1.0
  C  C102  1  0.33603000  0.99245000  0.52868000  1.0
  C  C103  1  0.66396000  0.00755000  0.47132000  1.0
  C  C104  1  0.51596000  0.96514000  0.53812000  1.0
  C  C105  1  0.48402000  0.03485000  0.46188000  1.0
  C  C106  1  0.62298000  0.14756000  0.11834000  1.0
  C  C107  1  0.37702000  0.85244000  0.88166000  1.0
  C  C108  1  0.62255000  0.11074000  0.08233000  1.0
  C  C109  1  0.37745000  0.88926000  0.91767000  1.0
  C  C110  1  0.47164000  0.07283000  0.07782000  1.0
  C  C111  1  0.52837000  0.92716000  0.92217000  1.0
  C  C112  1  0.31958000  0.07369000  0.11186000  1.0
  C  C113  1  0.68042000  0.92630000  0.88814000  1.0
  C  C114  1  0.31095000  0.11256000  0.14631000  1.0
  C  C115  1  0.68906000  0.88744000  0.85369000  1.0
  C  C116  1  0.46373000  0.14939000  0.14996000  1.0
  C  C117  1  0.53628000  0.85061000  0.85004000  1.0
  C  C118  1  0.31932000  0.02651000  0.00892000  1.0
  C  C119  1  0.68068000  0.97348000  0.99108000  1.0
  C  C120  1  0.33620000  0.99199000  0.97124000  1.0
  C  C121  1  0.66380000  0.00801000  0.02876000  1.0
  C  C122  1  0.51688000  0.96499000  0.96153000  1.0
  C  C123  1  0.48312000  0.03500000  0.03847000  1.0
  I  I124  1  0.11150000  0.01254000  0.38179000  1.0
  I  I125  1  0.88849000  0.98746000  0.61821000  1.0
  I  I126  1  0.11115000  0.01240000  0.11828000  1.0
  I  I127  1  0.88884000  0.98760000  0.88172000  1.0
  N  N128  1  0.18406000  0.51276000  0.51700000  1.0
  N  N129  1  0.81594000  0.48724000  0.48300000  1.0
  N  N130  1  0.17321000  0.47804000  0.48298000  1.0
  N  N131  1  0.82678000  0.52196000  0.51702000  1.0
  O  O132  1  0.37470000  0.79496000  0.79643000  1.0
  O  O133  1  0.62530000  0.20504000  0.20356000  1.0
  O  O134  1  0.71261000  0.79854000  0.70219000  1.0
  O  O135  1  0.28740000  0.20146000  0.29780000  1.0
  O  O136  1  0.87937000  0.70053000  0.70008000  1.0
  O  O137  1  0.12062000  0.29947000  0.29992000  1.0
  O  O138  1  0.71452000  0.79805000  0.79558000  1.0
  O  O139  1  0.28549000  0.20195000  0.20441000  1.0
  O  O140  1  0.88114000  0.69963000  0.79481000  1.0
  O  O141  1  0.11886000  0.30037000  0.20519000  1.0
  O  O142  1  0.37350000  0.79384000  0.69995000  1.0
  O  O143  1  0.62650000  0.20615000  0.30004000  1.0
  O  O144  1  0.55126000  0.71561000  0.74806000  1.0
  O  O145  1  0.44874000  0.28439000  0.25194000  1.0
  O  O146  1  0.22083000  0.69744000  0.79602000  1.0
  O  O147  1  0.77918000  0.30256000  0.20398000  1.0
  O  O148  1  0.21898000  0.69610000  0.70096000  1.0
  O  O149  1  0.78101000  0.30390000  0.29904000  1.0
  O  O150  1  0.04816000  0.77906000  0.74840000  1.0
  O  O151  1  0.95184000  0.22094000  0.25160000  1.0
