# generated using pymatgen
data_NaBH12C9N6O
_symmetry_space_group_name_H-M   'P 1'
_cell_length_a   7.02965000
_cell_length_b   8.31314000
_cell_length_c   20.42680000
_cell_angle_alpha   89.99990000
_cell_angle_beta   90.00020000
_cell_angle_gamma   89.99950000
_symmetry_Int_Tables_number   1
_chemical_formula_structural   NaBH12C9N6O
_chemical_formula_sum   'Na4 B4 H48 C36 N24 O4'
_cell_volume   1193.71082866
_cell_formula_units_Z   4
loop_
 _symmetry_equiv_pos_site_id
 _symmetry_equiv_pos_as_xyz
  1  'x, y, z'
loop_
 _atom_site_type_symbol
 _atom_site_label
 _atom_site_symmetry_multiplicity
 _atom_site_fract_x
 _atom_site_fract_y
 _atom_site_fract_z
 _atom_site_occupancy
  Na  Na0  1  0.08311000  0.74933000  0.99723000  1.0
  Na  Na1  1  0.58311000  0.75066000  0.00277000  1.0
  Na  Na2  1  0.91689000  0.24934000  0.50277000  1.0
  Na  Na3  1  0.41689000  0.25067000  0.49723000  1.0
  B  B4  1  0.31906000  0.02105000  0.11584000  1.0
  B  B5  1  0.81907000  0.47894000  0.88416000  1.0
  B  B6  1  0.68093000  0.52106000  0.38416000  1.0
  B  B7  1  0.18094000  0.97894000  0.61584000  1.0
  H  H8  1  0.46200000  0.08863000  0.13481000  1.0
  H  H9  1  0.96200000  0.41136000  0.86519000  1.0
  H  H10  1  0.53800000  0.58864000  0.36518000  1.0
  H  H11  1  0.03800000  0.91137000  0.63482000  1.0
  H  H12  1  0.60378000  0.84965000  0.18430000  1.0
  H  H13  1  0.10378000  0.65034000  0.81570000  1.0
  H  H14  1  0.39622000  0.34965000  0.31570000  1.0
  H  H15  1  0.89622000  0.15035000  0.68430000  1.0
  H  H16  1  0.54575000  0.52203000  0.19459000  1.0
  H  H17  1  0.04575000  0.97797000  0.80542000  1.0
  H  H18  1  0.45425000  0.02203000  0.30542000  1.0
  H  H19  1  0.95424000  0.47797000  0.69458000  1.0
  H  H20  1  0.21966000  0.47250000  0.12184000  1.0
  H  H21  1  0.71966000  0.02750000  0.87816000  1.0
  H  H22  1  0.78034000  0.97250000  0.37816000  1.0
  H  H23  1  0.28033000  0.52750000  0.62184000  1.0
  H  H24  1  0.35734000  0.99439000  0.89075000  1.0
  H  H25  1  0.85733000  0.50561000  0.10925000  1.0
  H  H26  1  0.64267000  0.49439000  0.60925000  1.0
  H  H27  1  0.14267000  0.00561000  0.39075000  1.0
  H  H28  1  0.12222000  0.25514000  0.91486000  1.0
  H  H29  1  0.62221000  0.24487000  0.08514000  1.0
  H  H30  1  0.87778000  0.75514000  0.58514000  1.0
  H  H31  1  0.37779000  0.74487000  0.41486000  1.0
  H  H32  1  0.09321000  0.25982000  0.04899000  1.0
  H  H33  1  0.59321000  0.24018000  0.95101000  1.0
  H  H34  1  0.90678000  0.75982000  0.45100000  1.0
  H  H35  1  0.40679000  0.74018000  0.54900000  1.0
  H  H36  1  0.30504000  0.24754000  0.21929000  1.0
  H  H37  1  0.80504000  0.25246000  0.78071000  1.0
  H  H38  1  0.69496000  0.74754000  0.28071000  1.0
  H  H39  1  0.19497000  0.75246000  0.71929000  1.0
  H  H40  1  0.94897000  0.30247000  0.27232000  1.0
  H  H41  1  0.44897000  0.19754000  0.72768000  1.0
  H  H42  1  0.05102000  0.80247000  0.22768000  1.0
  H  H43  1  0.55103000  0.69753000  0.77232000  1.0
  H  H44  1  0.71553000  0.10779000  0.19786000  1.0
  H  H45  1  0.21553000  0.39221000  0.80214000  1.0
  H  H46  1  0.28447000  0.60779000  0.30213000  1.0
  H  H47  1  0.78447000  0.89221000  0.69786000  1.0
  H  H48  1  0.81321000  0.01886000  0.01380000  1.0
  H  H49  1  0.31321000  0.48113000  0.98620000  1.0
  H  H50  1  0.18679000  0.51887000  0.48620000  1.0
  H  H51  1  0.68679000  0.98114000  0.51380000  1.0
  H  H52  1  0.88563000  0.95594000  0.08151000  1.0
  H  H53  1  0.38563000  0.54405000  0.91849000  1.0
  H  H54  1  0.11437000  0.45595000  0.41849000  1.0
  H  H55  1  0.61437000  0.04405000  0.58151000  1.0
  C  C56  1  0.49125000  0.77468000  0.16472000  1.0
  C  C57  1  0.99125000  0.72531000  0.83528000  1.0
  C  C58  1  0.50875000  0.27469000  0.33528000  1.0
  C  C59  1  0.00875000  0.22532000  0.66472000  1.0
  C  C60  1  0.45970000  0.61010000  0.16893000  1.0
  C  C61  1  0.95970000  0.88989000  0.83108000  1.0
  C  C62  1  0.54030000  0.11011000  0.33107000  1.0
  C  C63  1  0.04030000  0.38989000  0.66892000  1.0
  C  C64  1  0.29407000  0.58459000  0.13147000  1.0
  C  C65  1  0.79407000  0.91540000  0.86853000  1.0
  C  C66  1  0.70594000  0.08460000  0.36853000  1.0
  C  C67  1  0.20593000  0.41540000  0.63147000  1.0
  C  C68  1  0.30909000  0.04320000  0.93728000  1.0
  C  C69  1  0.80909000  0.45681000  0.06272000  1.0
  C  C70  1  0.69091000  0.54320000  0.56272000  1.0
  C  C71  1  0.19091000  0.95680000  0.43728000  1.0
  C  C72  1  0.19018000  0.17568000  0.94977000  1.0
  C  C73  1  0.69018000  0.32433000  0.05023000  1.0
  C  C74  1  0.80982000  0.67568000  0.55023000  1.0
  C  C75  1  0.30983000  0.82432000  0.44977000  1.0
  C  C76  1  0.17537000  0.18088000  0.01761000  1.0
  C  C77  1  0.67537000  0.31912000  0.98239000  1.0
  C  C78  1  0.82463000  0.68088000  0.48239000  1.0
  C  C79  1  0.32463000  0.81912000  0.51761000  1.0
  C  C80  1  0.16763000  0.19751000  0.20649000  1.0
  C  C81  1  0.66763000  0.30249000  0.79351000  1.0
  C  C82  1  0.83237000  0.69751000  0.29351000  1.0
  C  C83  1  0.33237000  0.80249000  0.70649000  1.0
  C  C84  1  0.98730000  0.22390000  0.23211000  1.0
  C  C85  1  0.48730000  0.27610000  0.76788000  1.0
  C  C86  1  0.01269000  0.72390000  0.26788000  1.0
  C  C87  1  0.51270000  0.77609000  0.73212000  1.0
  C  C88  1  0.86855000  0.12373000  0.19461000  1.0
  C  C89  1  0.36856000  0.37627000  0.80539000  1.0
  C  C90  1  0.13144000  0.62373000  0.30539000  1.0
  C  C91  1  0.63145000  0.87627000  0.69461000  1.0
  N  N92  1  0.35139000  0.83978000  0.12692000  1.0
  N  N93  1  0.85140000  0.66021000  0.87308000  1.0
  N  N94  1  0.64861000  0.33979000  0.37308000  1.0
  N  N95  1  0.14861000  0.16021000  0.62692000  1.0
  N  N96  1  0.22875000  0.72315000  0.10610000  1.0
  N  N97  1  0.72876000  0.77685000  0.89390000  1.0
  N  N98  1  0.77125000  0.22315000  0.39390000  1.0
  N  N99  1  0.27124000  0.27685000  0.60610000  1.0
  N  N100  1  0.27902000  0.05754000  0.04271000  1.0
  N  N101  1  0.77903000  0.44246000  0.95729000  1.0
  N  N102  1  0.72097000  0.55754000  0.45729000  1.0
  N  N103  1  0.22098000  0.94246000  0.54271000  1.0
  N  N104  1  0.36287000  0.97197000  0.99366000  1.0
  N  N105  1  0.86287000  0.52802000  0.00634000  1.0
  N  N106  1  0.63713000  0.47198000  0.50634000  1.0
  N  N107  1  0.13713000  0.02802000  0.49366000  1.0
  N  N108  1  0.15339000  0.08828000  0.15715000  1.0
  N  N109  1  0.65339000  0.41172000  0.84285000  1.0
  N  N110  1  0.84661000  0.58828000  0.34284000  1.0
  N  N111  1  0.34661000  0.91172000  0.65715000  1.0
  N  N112  1  0.96870000  0.04213000  0.14954000  1.0
  N  N113  1  0.46871000  0.45788000  0.85046000  1.0
  N  N114  1  0.03130000  0.54212000  0.35046000  1.0
  N  N115  1  0.53130000  0.95788000  0.64954000  1.0
  O  O116  1  0.83592000  0.91836000  0.03711000  1.0
  O  O117  1  0.33592000  0.58164000  0.96289000  1.0
  O  O118  1  0.16408000  0.41836000  0.46289000  1.0
  O  O119  1  0.66408000  0.08164000  0.53711000  1.0
