# generated using pymatgen
data_CdAs2H18C16(NO5)2
_symmetry_space_group_name_H-M   'P 1'
_cell_length_a   4.73963000
_cell_length_b   9.73377000
_cell_length_c   22.63230000
_cell_angle_alpha   89.99980000
_cell_angle_beta   92.11480000
_cell_angle_gamma   90.00000000
_symmetry_Int_Tables_number   1
_chemical_formula_structural   CdAs2H18C16(NO5)2
_chemical_formula_sum   'Cd2 As4 H36 C32 N4 O20'
_cell_volume   1043.41796550
_cell_formula_units_Z   2
loop_
 _symmetry_equiv_pos_site_id
 _symmetry_equiv_pos_as_xyz
  1  'x, y, z'
loop_
 _atom_site_type_symbol
 _atom_site_label
 _atom_site_symmetry_multiplicity
 _atom_site_fract_x
 _atom_site_fract_y
 _atom_site_fract_z
 _atom_site_occupancy
  Cd  Cd0  1  0.00000000  0.00000000  0.50000000  1.0
  Cd  Cd1  1  0.00000000  0.50000000  0.00000000  1.0
  As  As2  1  0.54035000  0.14267000  0.59658000  1.0
  As  As3  1  0.45966000  0.64267000  0.90342000  1.0
  As  As4  1  0.45965000  0.85733000  0.40342000  1.0
  As  As5  1  0.54035000  0.35733000  0.09658000  1.0
  H  H6  1  0.80844000  0.94742000  0.87206000  1.0
  H  H7  1  0.19156000  0.44742000  0.62794000  1.0
  H  H8  1  0.19156000  0.05258000  0.12794000  1.0
  H  H9  1  0.80844000  0.55258000  0.37206000  1.0
  H  H10  1  0.10380000  0.24416000  0.57843000  1.0
  H  H11  1  0.89620000  0.74417000  0.92157000  1.0
  H  H12  1  0.89620000  0.75584000  0.42157000  1.0
  H  H13  1  0.10381000  0.25584000  0.07843000  1.0
  H  H14  1  0.66730000  0.36406000  0.90998000  1.0
  H  H15  1  0.33270000  0.86406000  0.59002000  1.0
  H  H16  1  0.33269000  0.63594000  0.09002000  1.0
  H  H17  1  0.66729000  0.13594000  0.40998000  1.0
  H  H18  1  0.94843000  0.28033000  0.68257000  1.0
  H  H19  1  0.05157000  0.78033000  0.81743000  1.0
  H  H20  1  0.05157000  0.71967000  0.31743000  1.0
  H  H21  1  0.94843000  0.21967000  0.18257000  1.0
  H  H22  1  0.10144000  0.23593000  0.78493000  1.0
  H  H23  1  0.89857000  0.73593000  0.71507000  1.0
  H  H24  1  0.89857000  0.76407000  0.21507000  1.0
  H  H25  1  0.10143000  0.26407000  0.28493000  1.0
  H  H26  1  0.53133000  0.88838000  0.78960000  1.0
  H  H27  1  0.46868000  0.38837000  0.71040000  1.0
  H  H28  1  0.46867000  0.11162000  0.21040000  1.0
  H  H29  1  0.53132000  0.61162000  0.28960000  1.0
  H  H30  1  0.37220000  0.93541000  0.68720000  1.0
  H  H31  1  0.62780000  0.43542000  0.81280000  1.0
  H  H32  1  0.62781000  0.06459000  0.31280000  1.0
  H  H33  1  0.37220000  0.56459000  0.18720000  1.0
  H  H34  1  0.30225000  0.13063000  0.86515000  1.0
  H  H35  1  0.69775000  0.63063000  0.63485000  1.0
  H  H36  1  0.69775000  0.86937000  0.13485000  1.0
  H  H37  1  0.30224000  0.36937000  0.36515000  1.0
  H  H38  1  0.17786000  0.04402000  0.92678000  1.0
  H  H39  1  0.82214000  0.54402000  0.57322000  1.0
  H  H40  1  0.82214000  0.95598000  0.07322000  1.0
  H  H41  1  0.17785000  0.45598000  0.42679000  1.0
  C  C42  1  0.65283000  0.11024000  0.67744000  1.0
  C  C43  1  0.34718000  0.61023000  0.82256000  1.0
  C  C44  1  0.34717000  0.88976000  0.32256000  1.0
  C  C45  1  0.65283000  0.38976000  0.17744000  1.0
  C  C46  1  0.85655000  0.19415000  0.70580000  1.0
  C  C47  1  0.14345000  0.69415000  0.79420000  1.0
  C  C48  1  0.14346000  0.80585000  0.29420000  1.0
  C  C49  1  0.85655000  0.30586000  0.20580000  1.0
  C  C50  1  0.94327000  0.16886000  0.76408000  1.0
  C  C51  1  0.05673000  0.66886000  0.73592000  1.0
  C  C52  1  0.05673000  0.83114000  0.23592000  1.0
  C  C53  1  0.94327000  0.33114000  0.26408000  1.0
  C  C54  1  0.83068000  0.05676000  0.79523000  1.0
  C  C55  1  0.16933000  0.55676000  0.70477000  1.0
  C  C56  1  0.16933000  0.94324000  0.20477000  1.0
  C  C57  1  0.83067000  0.44324000  0.29523000  1.0
  C  C58  1  0.62211000  0.97443000  0.76605000  1.0
  C  C59  1  0.37789000  0.47443000  0.73395000  1.0
  C  C60  1  0.37788000  0.02557000  0.23395000  1.0
  C  C61  1  0.62211000  0.52557000  0.26605000  1.0
  C  C62  1  0.53356000  0.00070000  0.70818000  1.0
  C  C63  1  0.46645000  0.50069000  0.79182000  1.0
  C  C64  1  0.46645000  0.99930000  0.29182000  1.0
  C  C65  1  0.53355000  0.49930000  0.20818000  1.0
  C  C66  1  0.10805000  0.10458000  0.88794000  1.0
  C  C67  1  0.89195000  0.60458000  0.61206000  1.0
  C  C68  1  0.89195000  0.89542000  0.11206000  1.0
  C  C69  1  0.10804000  0.39542000  0.38795000  1.0
  C  C70  1  0.99046000  0.23933000  0.91102000  1.0
  C  C71  1  0.00954000  0.73933000  0.58898000  1.0
  C  C72  1  0.00953000  0.76067000  0.08898000  1.0
  C  C73  1  0.99046000  0.26067000  0.41102000  1.0
  N  N74  1  0.91779000  0.02337000  0.85163000  1.0
  N  N75  1  0.08221000  0.52337000  0.64837000  1.0
  N  N76  1  0.08221000  0.97663000  0.14837000  1.0
  N  N77  1  0.91779000  0.47663000  0.35163000  1.0
  O  O78  1  0.81992000  0.18559000  0.55498000  1.0
  O  O79  1  0.18009000  0.68559000  0.94502000  1.0
  O  O80  1  0.18008000  0.81441000  0.44502000  1.0
  O  O81  1  0.81992000  0.31441000  0.05498000  1.0
  O  O82  1  0.30031000  0.28224000  0.59162000  1.0
  O  O83  1  0.69970000  0.78224000  0.90838000  1.0
  O  O84  1  0.69969000  0.71776000  0.40838000  1.0
  O  O85  1  0.30031000  0.21776000  0.09162000  1.0
  O  O86  1  0.36328000  0.00320000  0.56817000  1.0
  O  O87  1  0.63672000  0.50320000  0.93183000  1.0
  O  O88  1  0.63671000  0.99680000  0.43183000  1.0
  O  O89  1  0.36328000  0.49680000  0.06817000  1.0
  O  O90  1  0.72818000  0.26639000  0.89463000  1.0
  O  O91  1  0.27182000  0.76640000  0.60537000  1.0
  O  O92  1  0.27181000  0.73360000  0.10537000  1.0
  O  O93  1  0.72818000  0.23361000  0.39463000  1.0
  O  O94  1  0.14611000  0.31415000  0.94261000  1.0
  O  O95  1  0.85389000  0.81414000  0.55739000  1.0
  O  O96  1  0.85388000  0.68586000  0.05739000  1.0
  O  O97  1  0.14611000  0.18586000  0.44261000  1.0
