# generated using pymatgen
data_CdP2H28C34(NO2)2
_symmetry_space_group_name_H-M   'P 1'
_cell_length_a   11.02580000
_cell_length_b   12.75720000
_cell_length_c   23.80610000
_cell_angle_alpha   90.00000000
_cell_angle_beta   90.00000000
_cell_angle_gamma   89.99990000
_symmetry_Int_Tables_number   1
_chemical_formula_structural   CdP2H28C34(NO2)2
_chemical_formula_sum   'Cd4 P8 H112 C136 N8 O16'
_cell_volume   3348.52640693
_cell_formula_units_Z   4
loop_
 _symmetry_equiv_pos_site_id
 _symmetry_equiv_pos_as_xyz
  1  'x, y, z'
loop_
 _atom_site_type_symbol
 _atom_site_label
 _atom_site_symmetry_multiplicity
 _atom_site_fract_x
 _atom_site_fract_y
 _atom_site_fract_z
 _atom_site_occupancy
  Cd  Cd0  1  0.50663000  0.99405000  0.73632000  1.0
  Cd  Cd1  1  0.00663000  0.00595000  0.26368000  1.0
  Cd  Cd2  1  0.50663000  0.00595000  0.23632000  1.0
  Cd  Cd3  1  0.00663000  0.99405000  0.76368000  1.0
  P  P4  1  0.74834000  0.17344000  0.74450000  1.0
  P  P5  1  0.24834000  0.82656000  0.25550000  1.0
  P  P6  1  0.74834000  0.82656000  0.24450000  1.0
  P  P7  1  0.24834000  0.17344000  0.75550000  1.0
  P  P8  1  0.26444000  0.81485000  0.74559000  1.0
  P  P9  1  0.76444000  0.18515000  0.25441000  1.0
  P  P10  1  0.26444000  0.18514000  0.24559000  1.0
  P  P11  1  0.76444000  0.81485000  0.75441000  1.0
  H  H12  1  0.59057000  0.35887000  0.75609000  1.0
  H  H13  1  0.09057000  0.64113000  0.24391000  1.0
  H  H14  1  0.59057000  0.64113000  0.25609000  1.0
  H  H15  1  0.09057000  0.35887000  0.74391000  1.0
  H  H16  1  0.61246000  0.52387000  0.81131000  1.0
  H  H17  1  0.11246000  0.47613000  0.18869000  1.0
  H  H18  1  0.61246000  0.47613000  0.31131000  1.0
  H  H19  1  0.11246000  0.52387000  0.68869000  1.0
  H  H20  1  0.79527000  0.55357000  0.86930000  1.0
  H  H21  1  0.29527000  0.44643000  0.13070000  1.0
  H  H22  1  0.79527000  0.44643000  0.36930000  1.0
  H  H23  1  0.29527000  0.55357000  0.63070000  1.0
  H  H24  1  0.95976000  0.41823000  0.87193000  1.0
  H  H25  1  0.45976000  0.58177000  0.12807000  1.0
  H  H26  1  0.95976000  0.58177000  0.37193000  1.0
  H  H27  1  0.45976000  0.41823000  0.62807000  1.0
  H  H28  1  0.93916000  0.25486000  0.81558000  1.0
  H  H29  1  0.43916000  0.74514000  0.18442000  1.0
  H  H30  1  0.93916000  0.74513000  0.31558000  1.0
  H  H31  1  0.43916000  0.25486000  0.68442000  1.0
  H  H32  1  0.98887000  0.22544000  0.70151000  1.0
  H  H33  1  0.48887000  0.77456000  0.29849000  1.0
  H  H34  1  0.98887000  0.77456000  0.20151000  1.0
  H  H35  1  0.48887000  0.22544000  0.79849000  1.0
  H  H36  1  0.06259000  0.27975000  0.60767000  1.0
  H  H37  1  0.56259000  0.72025000  0.39233000  1.0
  H  H38  1  0.06259000  0.72025000  0.10767000  1.0
  H  H39  1  0.56259000  0.27975000  0.89233000  1.0
  H  H40  1  0.92064000  0.28315000  0.52638000  1.0
  H  H41  1  0.42064000  0.71685000  0.47362000  1.0
  H  H42  1  0.92064000  0.71685000  0.02638000  1.0
  H  H43  1  0.42064000  0.28315000  0.97362000  1.0
  H  H44  1  0.70313000  0.23390000  0.54008000  1.0
  H  H45  1  0.20313000  0.76609000  0.45992000  1.0
  H  H46  1  0.70313000  0.76610000  0.04008000  1.0
  H  H47  1  0.20313000  0.23391000  0.95992000  1.0
  H  H48  1  0.62808000  0.18822000  0.63578000  1.0
  H  H49  1  0.12808000  0.81178000  0.36422000  1.0
  H  H50  1  0.62808000  0.81177000  0.13578000  1.0
  H  H51  1  0.12808000  0.18823000  0.86422000  1.0
  H  H52  1  0.07563000  0.73423000  0.81820000  1.0
  H  H53  1  0.57563000  0.26577000  0.18180000  1.0
  H  H54  1  0.07563000  0.26577000  0.31820000  1.0
  H  H55  1  0.57563000  0.73423000  0.68180000  1.0
  H  H56  1  0.05660000  0.57138000  0.87511000  1.0
  H  H57  1  0.55659000  0.42862000  0.12489000  1.0
  H  H58  1  0.05660000  0.42862000  0.37511000  1.0
  H  H59  1  0.55660000  0.57138000  0.62489000  1.0
  H  H60  1  0.22105000  0.43595000  0.87181000  1.0
  H  H61  1  0.72105000  0.56405000  0.12819000  1.0
  H  H62  1  0.22105000  0.56405000  0.37181000  1.0
  H  H63  1  0.72105000  0.43595000  0.62819000  1.0
  H  H64  1  0.40153000  0.46466000  0.81218000  1.0
  H  H65  1  0.90153000  0.53534000  0.18782000  1.0
  H  H66  1  0.40153000  0.53534000  0.31218000  1.0
  H  H67  1  0.90153000  0.46466000  0.68782000  1.0
  H  H68  1  0.42192000  0.62924000  0.75647000  1.0
  H  H69  1  0.92192000  0.37076000  0.24353000  1.0
  H  H70  1  0.42192000  0.37076000  0.25647000  1.0
  H  H71  1  0.92192000  0.62924000  0.74353000  1.0
  H  H72  1  0.02391000  0.76276000  0.70095000  1.0
  H  H73  1  0.52391000  0.23724000  0.29905000  1.0
  H  H74  1  0.02390000  0.23724000  0.20095000  1.0
  H  H75  1  0.52391000  0.76276000  0.79905000  1.0
  H  H76  1  0.95396000  0.70656000  0.60681000  1.0
  H  H77  1  0.45396000  0.29344000  0.39319000  1.0
  H  H78  1  0.95395000  0.29344000  0.10681000  1.0
  H  H79  1  0.45396000  0.70656000  0.89319000  1.0
  H  H80  1  0.09962000  0.70006000  0.52682000  1.0
  H  H81  1  0.59962000  0.29994000  0.47318000  1.0
  H  H82  1  0.09962000  0.29995000  0.02682000  1.0
  H  H83  1  0.59962000  0.70005000  0.97318000  1.0
  H  H84  1  0.31639000  0.74971000  0.54225000  1.0
  H  H85  1  0.81639000  0.25029000  0.45775000  1.0
  H  H86  1  0.31639000  0.25030000  0.04225000  1.0
  H  H87  1  0.81639000  0.74970000  0.95775000  1.0
  H  H88  1  0.38720000  0.79864000  0.63805000  1.0
  H  H89  1  0.88720000  0.20136000  0.36195000  1.0
  H  H90  1  0.38720000  0.20136000  0.13805000  1.0
  H  H91  1  0.88720000  0.79864000  0.86195000  1.0
  H  H92  1  0.63462000  0.87817000  0.62902000  1.0
  H  H93  1  0.13462000  0.12183000  0.37098000  1.0
  H  H94  1  0.63462000  0.12183000  0.12902000  1.0
  H  H95  1  0.13462000  0.87817000  0.87098000  1.0
  H  H96  1  0.63654000  0.87335000  0.52355000  1.0
  H  H97  1  0.13654000  0.12665000  0.47645000  1.0
  H  H98  1  0.63654000  0.12665000  0.02355000  1.0
  H  H99  1  0.13654000  0.87335000  0.97645000  1.0
  H  H100  1  0.37781000  0.11300000  0.63151000  1.0
  H  H101  1  0.87781000  0.88700000  0.36849000  1.0
  H  H102  1  0.37781000  0.88700000  0.13151000  1.0
  H  H103  1  0.87781000  0.11300000  0.86849000  1.0
  H  H104  1  0.31409000  0.02836000  0.44444000  1.0
  H  H105  1  0.81410000  0.97164000  0.55556000  1.0
  H  H106  1  0.31409000  0.97164000  0.94444000  1.0
  H  H107  1  0.81409000  0.02836000  0.05556000  1.0
  H  H108  1  0.32309000  0.03372000  0.33958000  1.0
  H  H109  1  0.82309000  0.96628000  0.66042000  1.0
  H  H110  1  0.32309000  0.96628000  0.83958000  1.0
  H  H111  1  0.82309000  0.03372000  0.16042000  1.0
  H  H112  1  0.69293000  0.97836000  0.33934000  1.0
  H  H113  1  0.19293000  0.02164000  0.66067000  1.0
  H  H114  1  0.69293000  0.02164000  0.83934000  1.0
  H  H115  1  0.19293000  0.97836000  0.16066000  1.0
  H  H116  1  0.70151000  0.97857000  0.44428000  1.0
  H  H117  1  0.20152000  0.02143000  0.55572000  1.0
  H  H118  1  0.70151000  0.02143000  0.94428000  1.0
  H  H119  1  0.20151000  0.97857000  0.05572000  1.0
  H  H120  1  0.37718000  0.12690000  0.52630000  1.0
  H  H121  1  0.87718000  0.87310000  0.47370000  1.0
  H  H122  1  0.37718000  0.87310000  0.02630000  1.0
  H  H123  1  0.87718000  0.12690000  0.97370000  1.0
  C  C124  1  0.76218000  0.29516000  0.78359000  1.0
  C  C125  1  0.26218000  0.70484000  0.21641000  1.0
  C  C126  1  0.76218000  0.70484000  0.28359000  1.0
  C  C127  1  0.26218000  0.29516000  0.71641000  1.0
  C  C128  1  0.67093000  0.37175000  0.78192000  1.0
  C  C129  1  0.17093000  0.62825000  0.21808000  1.0
  C  C130  1  0.67093000  0.62825000  0.28192000  1.0
  C  C131  1  0.17093000  0.37175000  0.71808000  1.0
  C  C132  1  0.68291000  0.46400000  0.81289000  1.0
  C  C133  1  0.18291000  0.53600000  0.18711000  1.0
  C  C134  1  0.68291000  0.53600000  0.31289000  1.0
  C  C135  1  0.18291000  0.46401000  0.68711000  1.0
  C  C136  1  0.78629000  0.48078000  0.84564000  1.0
  C  C137  1  0.28629000  0.51922000  0.15436000  1.0
  C  C138  1  0.78629000  0.51922000  0.34564000  1.0
  C  C139  1  0.28629000  0.48078000  0.65436000  1.0
  C  C140  1  0.87823000  0.40535000  0.84693000  1.0
  C  C141  1  0.37823000  0.59465000  0.15307000  1.0
  C  C142  1  0.87823000  0.59465000  0.34693000  1.0
  C  C143  1  0.37823000  0.40535000  0.65307000  1.0
  C  C144  1  0.86673000  0.31319000  0.81580000  1.0
  C  C145  1  0.36673000  0.68681000  0.18420000  1.0
  C  C146  1  0.86673000  0.68681000  0.31581000  1.0
  C  C147  1  0.36673000  0.31319000  0.68420000  1.0
  C  C148  1  0.80299000  0.20596000  0.67467000  1.0
  C  C149  1  0.30299000  0.79404000  0.32533000  1.0
  C  C150  1  0.80299000  0.79404000  0.17467000  1.0
  C  C151  1  0.30299000  0.20595000  0.82533000  1.0
  C  C152  1  0.92549000  0.23105000  0.66647000  1.0
  C  C153  1  0.42549000  0.76895000  0.33353000  1.0
  C  C154  1  0.92549000  0.76895000  0.16647000  1.0
  C  C155  1  0.42549000  0.23105000  0.83353000  1.0
  C  C156  1  0.96728000  0.25942000  0.61336000  1.0
  C  C157  1  0.46728000  0.74058000  0.38664000  1.0
  C  C158  1  0.96728000  0.74058000  0.11336000  1.0
  C  C159  1  0.46728000  0.25942000  0.88664000  1.0
  C  C160  1  0.88729000  0.26106000  0.56786000  1.0
  C  C161  1  0.38729000  0.73894000  0.43214000  1.0
  C  C162  1  0.88729000  0.73894000  0.06786000  1.0
  C  C163  1  0.38729000  0.26106000  0.93214000  1.0
  C  C164  1  0.76541000  0.23450000  0.57559000  1.0
  C  C165  1  0.26541000  0.76550000  0.42441000  1.0
  C  C166  1  0.76541000  0.76550000  0.07559000  1.0
  C  C167  1  0.26541000  0.23450000  0.92441000  1.0
  C  C168  1  0.72302000  0.20818000  0.62899000  1.0
  C  C169  1  0.22302000  0.79182000  0.37101000  1.0
  C  C170  1  0.72302000  0.79182000  0.12899000  1.0
  C  C171  1  0.22302000  0.20818000  0.87101000  1.0
  C  C172  1  0.25144000  0.69347000  0.78508000  1.0
  C  C173  1  0.75144000  0.30653000  0.21492000  1.0
  C  C174  1  0.25144000  0.30653000  0.28508000  1.0
  C  C175  1  0.75144000  0.69347000  0.71492000  1.0
  C  C176  1  0.14797000  0.67581000  0.81807000  1.0
  C  C177  1  0.64796000  0.32419000  0.18193000  1.0
  C  C178  1  0.14797000  0.32419000  0.31807000  1.0
  C  C179  1  0.64796000  0.67581000  0.68193000  1.0
  C  C180  1  0.13738000  0.58395000  0.84955000  1.0
  C  C181  1  0.63738000  0.41605000  0.15045000  1.0
  C  C182  1  0.13738000  0.41605000  0.34955000  1.0
  C  C183  1  0.63738000  0.58395000  0.65045000  1.0
  C  C184  1  0.22916000  0.50842000  0.84782000  1.0
  C  C185  1  0.72916000  0.49158000  0.15218000  1.0
  C  C186  1  0.22916000  0.49158000  0.34782000  1.0
  C  C187  1  0.72916000  0.50842000  0.65218000  1.0
  C  C188  1  0.33138000  0.52474000  0.81422000  1.0
  C  C189  1  0.83138000  0.47526000  0.18578000  1.0
  C  C190  1  0.33138000  0.47526000  0.31422000  1.0
  C  C191  1  0.83138000  0.52474000  0.68578000  1.0
  C  C192  1  0.34246000  0.61670000  0.78293000  1.0
  C  C193  1  0.84246000  0.38330000  0.21707000  1.0
  C  C194  1  0.34246000  0.38330000  0.28293000  1.0
  C  C195  1  0.84246000  0.61670000  0.71707000  1.0
  C  C196  1  0.21093000  0.78153000  0.67564000  1.0
  C  C197  1  0.71093000  0.21847000  0.32436000  1.0
  C  C198  1  0.21093000  0.21847000  0.17564000  1.0
  C  C199  1  0.71093000  0.78153000  0.82436000  1.0
  C  C200  1  0.08873000  0.75640000  0.66651000  1.0
  C  C201  1  0.58873000  0.24360000  0.33349000  1.0
  C  C202  1  0.08873000  0.24360000  0.16651000  1.0
  C  C203  1  0.58873000  0.75640000  0.83349000  1.0
  C  C204  1  0.04906000  0.72691000  0.61319000  1.0
  C  C205  1  0.54906000  0.27309000  0.38681000  1.0
  C  C206  1  0.04906000  0.27309000  0.11319000  1.0
  C  C207  1  0.54906000  0.72691000  0.88681000  1.0
  C  C208  1  0.13088000  0.72373000  0.56841000  1.0
  C  C209  1  0.63088000  0.27627000  0.43159000  1.0
  C  C210  1  0.13087000  0.27627000  0.06841000  1.0
  C  C211  1  0.63088000  0.72373000  0.93159000  1.0
  C  C212  1  0.25240000  0.75052000  0.57709000  1.0
  C  C213  1  0.75241000  0.24948000  0.42291000  1.0
  C  C214  1  0.25240000  0.24948000  0.07709000  1.0
  C  C215  1  0.75240000  0.75052000  0.92291000  1.0
  C  C216  1  0.29257000  0.77838000  0.63061000  1.0
  C  C217  1  0.79257000  0.22162000  0.36939000  1.0
  C  C218  1  0.29257000  0.22162000  0.13061000  1.0
  C  C219  1  0.79257000  0.77838000  0.86939000  1.0
  C  C220  1  0.57775000  0.93069000  0.60415000  1.0
  C  C221  1  0.07775000  0.06931000  0.39585000  1.0
  C  C222  1  0.57775000  0.06931000  0.10415000  1.0
  C  C223  1  0.07775000  0.93069000  0.89585000  1.0
  C  C224  1  0.58000000  0.93006000  0.54565000  1.0
  C  C225  1  0.08000000  0.06995000  0.45435000  1.0
  C  C226  1  0.58000000  0.06994000  0.04565000  1.0
  C  C227  1  0.08000000  0.93006000  0.95435000  1.0
  C  C228  1  0.50726000  0.00075000  0.51554000  1.0
  C  C229  1  0.00727000  0.99926000  0.48446000  1.0
  C  C230  1  0.50726000  0.99925000  0.01554000  1.0
  C  C231  1  0.00726000  0.00075000  0.98446000  1.0
  C  C232  1  0.43498000  0.06274000  0.60553000  1.0
  C  C233  1  0.93498000  0.93726000  0.39447000  1.0
  C  C234  1  0.43498000  0.93726000  0.10553000  1.0
  C  C235  1  0.93498000  0.06274000  0.89447000  1.0
  C  C236  1  0.50778000  0.00327000  0.45356000  1.0
  C  C237  1  0.00778000  0.99673000  0.54644000  1.0
  C  C238  1  0.50778000  0.99673000  0.95356000  1.0
  C  C239  1  0.00778000  0.00327000  0.04644000  1.0
  C  C240  1  0.40077000  0.01974000  0.42309000  1.0
  C  C241  1  0.90077000  0.98027000  0.57691000  1.0
  C  C242  1  0.40077000  0.98026000  0.92309000  1.0
  C  C243  1  0.90077000  0.01974000  0.07691000  1.0
  C  C244  1  0.40465000  0.02087000  0.36471000  1.0
  C  C245  1  0.90465000  0.97913000  0.63529000  1.0
  C  C246  1  0.40465000  0.97914000  0.86471000  1.0
  C  C247  1  0.90465000  0.02087000  0.13529000  1.0
  C  C248  1  0.61132000  0.99029000  0.36459000  1.0
  C  C249  1  0.11132000  0.00971000  0.63542000  1.0
  C  C250  1  0.61132000  0.00971000  0.86459000  1.0
  C  C251  1  0.11132000  0.99029000  0.13541000  1.0
  C  C252  1  0.61497000  0.98866000  0.42298000  1.0
  C  C253  1  0.11498000  0.01134000  0.57702000  1.0
  C  C254  1  0.61497000  0.01134000  0.92298000  1.0
  C  C255  1  0.11497000  0.98866000  0.07702000  1.0
  C  C256  1  0.43380000  0.06856000  0.54712000  1.0
  C  C257  1  0.93381000  0.93144000  0.45288000  1.0
  C  C258  1  0.43380000  0.93144000  0.04712000  1.0
  C  C259  1  0.93380000  0.06856000  0.95288000  1.0
  N  N260  1  0.50614000  0.99547000  0.63386000  1.0
  N  N261  1  0.00614000  0.00453000  0.36614000  1.0
  N  N262  1  0.50614000  0.00453000  0.13386000  1.0
  N  N263  1  0.00614000  0.99547000  0.86613000  1.0
  N  N264  1  0.50800000  0.00611000  0.33597000  1.0
  N  N265  1  0.00800000  0.99389000  0.66403000  1.0
  N  N266  1  0.50800000  0.99389000  0.83597000  1.0
  N  N267  1  0.00800000  0.00611000  0.16403000  1.0
  O  O268  1  0.61389000  0.14763000  0.73927000  1.0
  O  O269  1  0.11389000  0.85237000  0.26073000  1.0
  O  O270  1  0.61389000  0.85237000  0.23927000  1.0
  O  O271  1  0.11389000  0.14763000  0.76073000  1.0
  O  O272  1  0.83163000  0.09411000  0.77257000  1.0
  O  O273  1  0.33163000  0.90589000  0.22743000  1.0
  O  O274  1  0.83163000  0.90589000  0.27257000  1.0
  O  O275  1  0.33163000  0.09411000  0.72743000  1.0
  O  O276  1  0.39877000  0.84112000  0.74034000  1.0
  O  O277  1  0.89877000  0.15888000  0.25966000  1.0
  O  O278  1  0.39877000  0.15888000  0.24034000  1.0
  O  O279  1  0.89877000  0.84112000  0.75966000  1.0
  O  O280  1  0.18082000  0.89405000  0.77352000  1.0
  O  O281  1  0.68082000  0.10595000  0.22648000  1.0
  O  O282  1  0.18082000  0.10595000  0.27352000  1.0
  O  O283  1  0.68082000  0.89405000  0.72648000  1.0
