# generated using pymatgen
data_ZnH16C20(N4O3)2
_symmetry_space_group_name_H-M   'P 1'
_cell_length_a   5.13516000
_cell_length_b   12.82210000
_cell_length_c   15.84190000
_cell_angle_alpha   97.87950000
_cell_angle_beta   90.02000000
_cell_angle_gamma   101.49700000
_symmetry_Int_Tables_number   1
_chemical_formula_structural   ZnH16C20(N4O3)2
_chemical_formula_sum   'Zn2 H32 C40 N16 O12'
_cell_volume   1012.09513755
_cell_formula_units_Z   2
loop_
 _symmetry_equiv_pos_site_id
 _symmetry_equiv_pos_as_xyz
  1  'x, y, z'
loop_
 _atom_site_type_symbol
 _atom_site_label
 _atom_site_symmetry_multiplicity
 _atom_site_fract_x
 _atom_site_fract_y
 _atom_site_fract_z
 _atom_site_occupancy
  Zn  Zn0  1  0.66037000  0.00010000  0.25013000  1.0
  Zn  Zn1  1  0.33963000  0.99990000  0.74986000  1.0
  H  H2  1  0.08274000  0.19855000  0.18540000  1.0
  H  H3  1  0.88586000  0.80159000  0.31474000  1.0
  H  H4  1  0.91722000  0.80145000  0.81460000  1.0
  H  H5  1  0.11416000  0.19842000  0.68527000  1.0
  H  H6  1  0.97489000  0.10468000  0.42980000  1.0
  H  H7  1  0.86913000  0.89537000  0.07031000  1.0
  H  H8  1  0.02513000  0.89531000  0.57020000  1.0
  H  H9  1  0.13084000  0.10462000  0.92968000  1.0
  H  H10  1  0.64788000  0.25009000  0.43148000  1.0
  H  H11  1  0.39741000  0.74981000  0.06823000  1.0
  H  H12  1  0.35213000  0.74991000  0.56851000  1.0
  H  H13  1  0.60260000  0.25019000  0.93177000  1.0
  H  H14  1  0.39151000  0.22348000  0.50289000  1.0
  H  H15  1  0.16694000  0.77646000  0.99700000  1.0
  H  H16  1  0.60851000  0.77652000  0.49710000  1.0
  H  H17  1  0.83304000  0.22354000  0.00300000  1.0
  H  H18  1  0.82160000  0.34126000  0.35038000  1.0
  H  H19  1  0.48029000  0.65865000  0.14950000  1.0
  H  H20  1  0.17838000  0.65873000  0.64961000  1.0
  H  H21  1  0.51972000  0.34135000  0.85051000  1.0
  H  H22  1  0.17301000  0.46875000  0.29401000  1.0
  H  H23  1  0.70486000  0.53111000  0.20580000  1.0
  H  H24  1  0.82700000  0.53124000  0.70599000  1.0
  H  H25  1  0.29516000  0.46890000  0.79420000  1.0
  H  H26  1  0.22975000  0.66569000  0.34399000  1.0
  H  H27  1  0.56507000  0.33417000  0.15591000  1.0
  H  H28  1  0.77027000  0.33432000  0.65600000  1.0
  H  H29  1  0.43494000  0.66584000  0.84410000  1.0
  H  H30  1  0.93508000  0.73279000  0.44951000  1.0
  H  H31  1  0.20310000  0.26714000  0.05055000  1.0
  H  H32  1  0.06491000  0.26721000  0.55048000  1.0
  H  H33  1  0.79691000  0.73287000  0.94946000  1.0
  C  C34  1  0.11199000  0.19411000  0.25234000  1.0
  C  C35  1  0.91901000  0.80604000  0.24778000  1.0
  C  C36  1  0.88799000  0.80590000  0.74766000  1.0
  C  C37  1  0.08101000  0.19397000  0.75222000  1.0
  C  C38  1  0.04912000  0.14508000  0.37619000  1.0
  C  C39  1  0.90368000  0.85497000  0.12390000  1.0
  C  C40  1  0.95088000  0.85492000  0.62381000  1.0
  C  C41  1  0.09630000  0.14503000  0.87609000  1.0
  C  C42  1  0.45484000  0.26849000  0.45003000  1.0
  C  C43  1  0.18590000  0.73150000  0.04986000  1.0
  C  C44  1  0.54517000  0.73151000  0.54997000  1.0
  C  C45  1  0.81410000  0.26850000  0.95015000  1.0
  C  C46  1  0.47532000  0.38776000  0.47436000  1.0
  C  C47  1  0.08736000  0.61225000  0.02558000  1.0
  C  C48  1  0.52465000  0.61225000  0.52564000  1.0
  C  C49  1  0.91263000  0.38775000  0.97443000  1.0
  C  C50  1  0.67130000  0.46070000  0.43793000  1.0
  C  C51  1  0.21060000  0.53927000  0.06204000  1.0
  C  C52  1  0.32867000  0.53930000  0.56207000  1.0
  C  C53  1  0.78938000  0.46073000  0.93797000  1.0
  C  C54  1  0.84643000  0.42625000  0.37468000  1.0
  C  C55  1  0.42029000  0.57367000  0.12523000  1.0
  C  C56  1  0.15357000  0.57375000  0.62532000  1.0
  C  C57  1  0.57972000  0.42633000  0.87477000  1.0
  C  C58  1  0.04124000  0.49774000  0.34159000  1.0
  C  C59  1  0.54396000  0.50214000  0.15829000  1.0
  C  C60  1  0.95876000  0.50226000  0.65840000  1.0
  C  C61  1  0.45604000  0.49787000  0.84173000  1.0
  C  C62  1  0.07284000  0.60942000  0.36990000  1.0
  C  C63  1  0.46414000  0.39046000  0.13002000  1.0
  C  C64  1  0.92717000  0.39058000  0.63010000  1.0
  C  C65  1  0.53588000  0.60955000  0.86998000  1.0
  C  C66  1  0.90505000  0.64655000  0.42901000  1.0
  C  C67  1  0.25900000  0.35337000  0.07102000  1.0
  C  C68  1  0.09494000  0.35345000  0.57099000  1.0
  C  C69  1  0.74099000  0.64663000  0.92900000  1.0
  C  C70  1  0.30157000  0.42498000  0.53512000  1.0
  C  C71  1  0.87635000  0.57504000  0.96487000  1.0
  C  C72  1  0.69844000  0.57502000  0.46488000  1.0
  C  C73  1  0.12366000  0.42496000  0.03514000  1.0
  N  N74  1  0.94358000  0.12547000  0.29659000  1.0
  N  N75  1  0.81849000  0.87465000  0.20358000  1.0
  N  N76  1  0.05642000  0.87453000  0.70341000  1.0
  N  N77  1  0.18151000  0.12534000  0.79642000  1.0
  N  N78  1  0.26756000  0.22247000  0.37844000  1.0
  N  N79  1  0.04513000  0.77758000  0.12156000  1.0
  N  N80  1  0.73244000  0.77753000  0.62155000  1.0
  N  N81  1  0.95487000  0.22242000  0.87844000  1.0
  N  N82  1  0.31153000  0.25444000  0.30019000  1.0
  N  N83  1  0.05794000  0.74563000  0.19980000  1.0
  N  N84  1  0.68846000  0.74556000  0.69981000  1.0
  N  N85  1  0.94208000  0.25438000  0.80020000  1.0
  N  N86  1  0.47128000  0.07326000  0.10403000  1.0
  N  N87  1  0.39893000  0.92657000  0.39618000  1.0
  N  N88  1  0.52870000  0.92672000  0.89597000  1.0
  N  N89  1  0.60107000  0.07344000  0.60382000  1.0
  O  O90  1  0.39238000  0.00820000  0.16027000  1.0
  O  O91  1  0.38492000  0.99191000  0.34014000  1.0
  O  O92  1  0.60760000  0.99179000  0.83973000  1.0
  O  O93  1  0.61506000  0.00810000  0.65986000  1.0
  O  O94  1  0.70603000  0.12504000  0.10931000  1.0
  O  O95  1  0.58214000  0.87481000  0.39082000  1.0
  O  O96  1  0.29396000  0.87494000  0.89068000  1.0
  O  O97  1  0.41787000  0.12520000  0.60918000  1.0
  O  O98  1  0.30579000  0.08007000  0.04875000  1.0
  O  O99  1  0.22653000  0.91951000  0.45137000  1.0
  O  O100  1  0.69420000  0.91992000  0.95125000  1.0
  O  O101  1  0.77348000  0.08050000  0.54863000  1.0
