# generated using pymatgen
data_Zn2H36C49(NO4)2
_symmetry_space_group_name_H-M   'P 1'
_cell_length_a   16.48310000
_cell_length_b   17.91830000
_cell_length_c   33.31370000
_cell_angle_alpha   90.25260000
_cell_angle_beta   89.95810000
_cell_angle_gamma   89.87440000
_symmetry_Int_Tables_number   1
_chemical_formula_structural   Zn2H36C49(NO4)2
_chemical_formula_sum   'Zn4 H72 C98 N4 O16'
_cell_volume   9839.05037472
_cell_formula_units_Z   2
loop_
 _symmetry_equiv_pos_site_id
 _symmetry_equiv_pos_as_xyz
  1  'x, y, z'
loop_
 _atom_site_type_symbol
 _atom_site_label
 _atom_site_symmetry_multiplicity
 _atom_site_fract_x
 _atom_site_fract_y
 _atom_site_fract_z
 _atom_site_occupancy
  Zn  Zn0  1  0.58621000  0.50131000  0.49858000  1.0
  Zn  Zn1  1  0.41864000  0.50146000  0.50183000  1.0
  Zn  Zn2  1  0.41422000  0.50486000  0.96467000  1.0
  Zn  Zn3  1  0.58174000  0.50451000  0.96152000  1.0
  H  H4  1  0.28808000  0.57206000  0.55192000  1.0
  H  H5  1  0.13508000  0.57333000  0.55318000  1.0
  H  H6  1  0.29225000  0.42541000  0.45594000  1.0
  H  H7  1  0.71274000  0.59321000  0.53586000  1.0
  H  H8  1  0.71713000  0.41132000  0.45931000  1.0
  H  H9  1  0.87007000  0.40679000  0.46023000  1.0
  H  H10  1  0.63325000  0.74260000  0.50382000  1.0
  H  H11  1  0.62878000  0.88228000  0.50405000  1.0
  H  H12  1  0.37360000  0.73631000  0.50005000  1.0
  H  H13  1  0.63549000  0.26071000  0.49524000  1.0
  H  H14  1  0.37616000  0.26556000  0.50343000  1.0
  H  H15  1  0.37364000  0.12581000  0.50436000  1.0
  H  H16  1  0.63160000  0.48460000  0.70506000  1.0
  H  H17  1  0.36914000  0.48509000  0.75804000  1.0
  H  H18  1  0.62090000  0.51006000  0.83653000  1.0
  H  H19  1  0.62901000  0.51046000  0.76271000  1.0
  H  H20  1  0.37942000  0.51052000  0.62696000  1.0
  H  H21  1  0.37173000  0.51138000  0.70078000  1.0
  H  H22  1  0.37792000  0.51015000  0.09017000  1.0
  H  H23  1  0.37592000  0.50616000  0.16530000  1.0
  H  H24  1  0.63762000  0.50079000  0.09165000  1.0
  H  H25  1  0.36229000  0.49704000  0.37189000  1.0
  H  H26  1  0.62203000  0.50445000  0.37295000  1.0
  H  H27  1  0.62341000  0.50252000  0.29777000  1.0
  H  H28  1  0.71164000  0.57452000  0.91124000  1.0
  H  H29  1  0.86463000  0.57559000  0.90966000  1.0
  H  H30  1  0.70879000  0.42871000  0.00688000  1.0
  H  H31  1  0.28729000  0.59609000  0.92736000  1.0
  H  H32  1  0.28357000  0.41571000  0.00407000  1.0
  H  H33  1  0.13070000  0.41088000  0.00287000  1.0
  H  H34  1  0.36664000  0.74567000  0.95725000  1.0
  H  H35  1  0.37035000  0.88530000  0.95617000  1.0
  H  H36  1  0.62621000  0.73972000  0.96259000  1.0
  H  H37  1  0.36494000  0.26519000  0.96799000  1.0
  H  H38  1  0.62413000  0.26771000  0.95863000  1.0
  H  H39  1  0.62572000  0.12796000  0.95648000  1.0
  H  H40  1  0.13767000  0.34318000  0.45277000  1.0
  H  H41  1  0.06458000  0.41371000  0.44268000  1.0
  H  H42  1  0.15726000  0.41000000  0.41501000  1.0
  H  H43  1  0.87416000  0.59184000  0.58194000  1.0
  H  H44  1  0.93875000  0.61943000  0.54206000  1.0
  H  H45  1  0.84306000  0.66447000  0.54943000  1.0
  H  H46  1  0.30866000  0.87327000  0.52840000  1.0
  H  H47  1  0.34960000  0.94628000  0.49868000  1.0
  H  H48  1  0.30663000  0.86588000  0.47539000  1.0
  H  H49  1  0.69167000  0.11764000  0.52561000  1.0
  H  H50  1  0.64925000  0.05059000  0.49236000  1.0
  H  H51  1  0.69778000  0.13178000  0.47311000  1.0
  H  H52  1  0.69880000  0.54629000  0.16510000  1.0
  H  H53  1  0.65168000  0.49710000  0.20508000  1.0
  H  H54  1  0.69591000  0.44749000  0.16416000  1.0
  H  H55  1  0.30104000  0.54516000  0.29860000  1.0
  H  H56  1  0.34735000  0.49505000  0.25844000  1.0
  H  H57  1  0.30281000  0.44634000  0.29930000  1.0
  H  H58  1  0.86302000  0.34644000  0.00984000  1.0
  H  H59  1  0.93650000  0.41662000  0.01969000  1.0
  H  H60  1  0.84415000  0.41405000  0.04762000  1.0
  H  H61  1  0.12573000  0.59330000  0.88102000  1.0
  H  H62  1  0.06135000  0.62221000  0.92090000  1.0
  H  H63  1  0.15702000  0.66666667  0.91328000  1.0
  H  H64  1  0.68878000  0.87927000  0.93243000  1.0
  H  H65  1  0.64932000  0.94925000  0.96499000  1.0
  H  H66  1  0.69398000  0.86672000  0.98506000  1.0
  H  H67  1  0.30888000  0.12059000  0.93587000  1.0
  H  H68  1  0.34992000  0.05546000  0.97035000  1.0
  H  H69  1  0.30092000  0.13813000  0.98811000  1.0
  H  H70  1  0.71057000  0.48549000  0.65175000  1.0
  H  H71  1  0.67063000  0.43711000  0.60901000  1.0
  H  H72  1  0.67637000  0.53472000  0.60834000  1.0
  H  H73  1  0.28988000  0.48655000  0.81120000  1.0
  H  H74  1  0.32954000  0.43841000  0.85391000  1.0
  H  H75  1  0.32375000  0.53607000  0.85477000  1.0
  C  C76  1  0.50501000  0.64777000  0.50165000  1.0
  C  C77  1  0.50517000  0.50028000  0.57898000  1.0
  C  C78  1  0.50786000  0.35478000  0.49868000  1.0
  C  C79  1  0.49175000  0.50129000  0.42168000  1.0
  C  C80  1  0.49526000  0.65099000  0.96078000  1.0
  C  C81  1  0.49488000  0.50136000  0.88432000  1.0
  C  C82  1  0.49305000  0.35812000  0.96472000  1.0
  C  C83  1  0.50851000  0.50632000  0.04162000  1.0
  C  C84  1  0.25205000  0.53941000  0.53080000  1.0
  C  C85  1  0.16805000  0.53951000  0.53137000  1.0
  C  C86  1  0.12528000  0.49544000  0.50333000  1.0
  C  C87  1  0.16969000  0.45178000  0.47533000  1.0
  C  C88  1  0.25418000  0.45639000  0.47710000  1.0
  C  C89  1  0.03943000  0.49618000  0.50319000  1.0
  C  C90  1  0.96542000  0.49818000  0.50281000  1.0
  C  C91  1  0.87966000  0.50038000  0.50157000  1.0
  C  C92  1  0.83516000  0.55431000  0.52376000  1.0
  C  C93  1  0.75081000  0.55251000  0.52017000  1.0
  C  C94  1  0.75308000  0.45087000  0.47672000  1.0
  C  C95  1  0.83706000  0.44849000  0.47764000  1.0
  C  C96  1  0.50326000  0.73140000  0.50213000  1.0
  C  C97  1  0.57562000  0.77244000  0.50330000  1.0
  C  C98  1  0.57299000  0.84974000  0.50339000  1.0
  C  C99  1  0.49797000  0.88828000  0.50256000  1.0
  C  C100  1  0.42445000  0.84720000  0.50157000  1.0
  C  C101  1  0.42904000  0.76940000  0.50121000  1.0
  C  C102  1  0.49815000  0.96724000  0.50235000  1.0
  C  C103  1  0.50082000  0.03540000  0.50179000  1.0
  C  C104  1  0.50393000  0.11428000  0.50089000  1.0
  C  C105  1  0.57929000  0.15229000  0.49834000  1.0
  C  C106  1  0.57846000  0.23017000  0.49732000  1.0
  C  C107  1  0.50620000  0.27116000  0.49918000  1.0
  C  C108  1  0.43206000  0.23316000  0.50184000  1.0
  C  C109  1  0.43094000  0.15586000  0.50247000  1.0
  C  C110  1  0.50843000  0.49912000  0.62399000  1.0
  C  C111  1  0.49188000  0.49953000  0.83930000  1.0
  C  C112  1  0.58102000  0.49236000  0.64643000  1.0
  C  C113  1  0.57519000  0.49119000  0.68836000  1.0
  C  C114  1  0.41941000  0.49295000  0.81675000  1.0
  C  C115  1  0.42545000  0.49156000  0.77483000  1.0
  C  C116  1  0.56591000  0.50498000  0.81865000  1.0
  C  C117  1  0.57004000  0.50452000  0.77708000  1.0
  C  C118  1  0.43452000  0.50518000  0.64474000  1.0
  C  C119  1  0.43061000  0.50496000  0.68631000  1.0
  C  C120  1  0.50158000  0.49763000  0.70941000  1.0
  C  C121  1  0.49915000  0.49760000  0.75387000  1.0
  C  C122  1  0.50805000  0.50520000  0.08660000  1.0
  C  C123  1  0.43396000  0.50709000  0.10735000  1.0
  C  C124  1  0.43312000  0.50505000  0.14888000  1.0
  C  C125  1  0.50632000  0.50176000  0.17094000  1.0
  C  C126  1  0.58165000  0.50045000  0.15024000  1.0
  C  C127  1  0.58058000  0.50192000  0.10832000  1.0
  C  C128  1  0.50246000  0.50023000  0.21335000  1.0
  C  C129  1  0.49651000  0.49943000  0.24992000  1.0
  C  C130  1  0.49295000  0.49934000  0.29234000  1.0
  C  C131  1  0.41777000  0.49778000  0.31317000  1.0
  C  C132  1  0.41917000  0.49817000  0.35510000  1.0
  C  C133  1  0.49189000  0.50056000  0.37670000  1.0
  C  C134  1  0.56583000  0.50230000  0.35584000  1.0
  C  C135  1  0.56633000  0.50136000  0.31429000  1.0
  C  C136  1  0.74795000  0.54200000  0.93221000  1.0
  C  C137  1  0.83196000  0.54201000  0.93147000  1.0
  C  C138  1  0.87515000  0.49821000  0.95938000  1.0
  C  C139  1  0.83107000  0.45485000  0.98735000  1.0
  C  C140  1  0.74656000  0.45950000  0.98572000  1.0
  C  C141  1  0.96099000  0.49903000  0.95946000  1.0
  C  C142  1  0.03499000  0.50117000  0.95996000  1.0
  C  C143  1  0.12073000  0.50357000  0.96141000  1.0
  C  C144  1  0.16503000  0.55717000  0.93927000  1.0
  C  C145  1  0.24937000  0.55562000  0.94302000  1.0
  C  C146  1  0.24749000  0.45485000  0.98656000  1.0
  C  C147  1  0.16354000  0.45228000  0.98547000  1.0
  C  C148  1  0.49661000  0.73462000  0.95973000  1.0
  C  C149  1  0.42409000  0.77559000  0.95786000  1.0
  C  C150  1  0.42632000  0.85288000  0.95729000  1.0
  C  C151  1  0.50109000  0.89150000  0.95833000  1.0
  C  C152  1  0.57479000  0.85047000  0.95998000  1.0
  C  C153  1  0.57061000  0.77269000  0.96084000  1.0
  C  C154  1  0.50061000  0.97048000  0.95830000  1.0
  C  C155  1  0.49809000  0.03866000  0.95900000  1.0
  C  C156  1  0.49544000  0.11758000  0.96043000  1.0
  C  C157  1  0.42038000  0.15628000  0.96365000  1.0
  C  C158  1  0.42174000  0.23413000  0.96537000  1.0
  C  C159  1  0.49422000  0.27448000  0.96355000  1.0
  C  C160  1  0.56805000  0.23582000  0.96020000  1.0
  C  C161  1  0.56865000  0.15851000  0.95888000  1.0
  C  C162  1  0.12981000  0.40230000  0.44477000  1.0
  C  C163  1  0.87516000  0.61076000  0.55053000  1.0
  C  C164  1  0.34318000  0.88556000  0.50092000  1.0
  C  C165  1  0.65854000  0.11055000  0.49716000  1.0
  C  C166  1  0.66104000  0.49768000  0.17249000  1.0
  C  C167  1  0.33821000  0.49597000  0.29105000  1.0
  C  C168  1  0.87122000  0.40564000  0.01779000  1.0
  C  C169  1  0.12490000  0.61306000  0.91237000  1.0
  C  C170  1  0.65587000  0.88882000  0.96077000  1.0
  C  C171  1  0.34095000  0.11516000  0.96471000  1.0
  C  C172  1  0.66433000  0.48699000  0.62803000  1.0
  C  C173  1  0.33595000  0.48809000  0.83501000  1.0
  N  N174  1  0.29413000  0.49866000  0.50385000  1.0
  N  N175  1  0.71092000  0.50227000  0.49770000  1.0
  N  N176  1  0.70621000  0.50158000  0.95917000  1.0
  N  N177  1  0.28947000  0.50590000  0.96560000  1.0
  O  O178  1  0.57378000  0.61602000  0.50600000  1.0
  O  O179  1  0.43738000  0.61454000  0.49686000  1.0
  O  O180  1  0.43592000  0.51159000  0.56292000  1.0
  O  O181  1  0.57097000  0.48968000  0.55959000  1.0
  O  O182  1  0.44055000  0.38828000  0.50468000  1.0
  O  O183  1  0.57601000  0.38623000  0.49253000  1.0
  O  O184  1  0.56018000  0.51101000  0.43878000  1.0
  O  O185  1  0.42412000  0.49230000  0.43954000  1.0
  O  O186  1  0.42667000  0.61910000  0.95647000  1.0
  O  O187  1  0.56295000  0.61790000  0.96601000  1.0
  O  O188  1  0.56397000  0.51320000  0.90044000  1.0
  O  O189  1  0.42913000  0.49080000  0.90365000  1.0
  O  O190  1  0.56043000  0.39115000  0.95876000  1.0
  O  O191  1  0.42510000  0.39007000  0.97130000  1.0
  O  O192  1  0.44025000  0.51668000  0.02446000  1.0
  O  O193  1  0.57619000  0.49673000  0.02380000  1.0
