# generated using pymatgen
data_CuH22C12S2(NO)6
_symmetry_space_group_name_H-M   'P 1'
_cell_length_a   6.58000000
_cell_length_b   6.77405000
_cell_length_c   12.25780000
_cell_angle_alpha   105.75900000
_cell_angle_beta   92.82560000
_cell_angle_gamma   112.32100000
_symmetry_Int_Tables_number   1
_chemical_formula_structural   CuH22C12S2(NO)6
_chemical_formula_sum   'Cu1 H22 C12 S2 N6 O6'
_cell_volume   479.24893333
_cell_formula_units_Z   1
loop_
 _symmetry_equiv_pos_site_id
 _symmetry_equiv_pos_as_xyz
  1  'x, y, z'
loop_
 _atom_site_type_symbol
 _atom_site_label
 _atom_site_symmetry_multiplicity
 _atom_site_fract_x
 _atom_site_fract_y
 _atom_site_fract_z
 _atom_site_occupancy
  Cu  Cu0  1  0.00001000  0.50001000  0.50000000  1.0
  H  H1  1  0.87434000  0.57180000  0.03154000  1.0
  H  H2  1  0.12565000  0.42819000  0.96846000  1.0
  H  H3  1  0.94804000  0.33146000  0.14134000  1.0
  H  H4  1  0.05195000  0.66853000  0.85866000  1.0
  H  H5  1  0.62334000  0.05853000  0.19578000  1.0
  H  H6  1  0.37664000  0.94146000  0.80422000  1.0
  H  H7  1  0.20678000  0.83839000  0.14875000  1.0
  H  H8  1  0.79322000  0.16160000  0.85125000  1.0
  H  H9  1  0.03306000  0.94911000  0.09140000  1.0
  H  H10  1  0.96693000  0.05089000  0.90860000  1.0
  H  H11  1  0.23197000  0.85811000  0.44168000  1.0
  H  H12  1  0.76804000  0.14190000  0.55832000  1.0
  H  H13  1  0.38774000  0.83203000  0.54287000  1.0
  H  H14  1  0.61226000  0.16798000  0.45713000  1.0
  H  H15  1  0.19089000  0.92217000  0.57665000  1.0
  H  H16  1  0.80912000  0.07784000  0.42336000  1.0
  H  H17  1  0.28921000  0.34130000  0.52228000  1.0
  H  H18  1  0.71079000  0.65870000  0.47772000  1.0
  H  H19  1  0.17205000  0.34456000  0.63873000  1.0
  H  H20  1  0.82797000  0.65545000  0.36127000  1.0
  H  H21  1  0.37008000  0.57866000  0.62913000  1.0
  H  H22  1  0.62994000  0.42135000  0.37087000  1.0
  C  C23  1  0.52292000  0.42958000  0.03173000  1.0
  C  C24  1  0.47707000  0.57042000  0.96827000  1.0
  C  C25  1  0.74106000  0.45097000  0.05848000  1.0
  C  C26  1  0.25894000  0.54903000  0.94152000  1.0
  C  C27  1  0.78011000  0.31819000  0.11841000  1.0
  C  C28  1  0.21988000  0.68180000  0.88159000  1.0
  C  C29  1  0.59960000  0.16706000  0.14974000  1.0
  C  C30  1  0.40040000  0.83294000  0.85026000  1.0
  C  C31  1  0.38591000  0.15441000  0.11908000  1.0
  C  C32  1  0.61408000  0.84559000  0.88092000  1.0
  C  C33  1  0.18661000  0.99226000  0.14962000  1.0
  C  C34  1  0.81339000  0.00773000  0.85038000  1.0
  S  S35  1  0.14036000  0.10193000  0.29326000  1.0
  S  S36  1  0.85965000  0.89806000  0.70674000  1.0
  N  N37  1  0.34754000  0.28273000  0.06137000  1.0
  N  N38  1  0.65245000  0.71726000  0.93862000  1.0
  N  N39  1  0.22936000  0.81083000  0.51449000  1.0
  N  N40  1  0.77065000  0.18918000  0.48551000  1.0
  N  N41  1  0.23357000  0.43560000  0.58401000  1.0
  N  N42  1  0.76645000  0.56441000  0.41599000  1.0
  O  O43  1  0.12527000  0.31617000  0.30368000  1.0
  O  O44  1  0.87472000  0.68382000  0.69632000  1.0
  O  O45  1  0.33632000  0.13098000  0.37204000  1.0
  O  O46  1  0.66370000  0.86902000  0.62795000  1.0
  O  O47  1  0.93328000  0.92599000  0.30537000  1.0
  O  O48  1  0.06673000  0.07400000  0.69464000  1.0
