# generated using pymatgen
data_ZnCoH15C15SNO10
_symmetry_space_group_name_H-M   'P 1'
_cell_length_a   11.75780000
_cell_length_b   18.77500000
_cell_length_c   18.77490000
_cell_angle_alpha   90.00000000
_cell_angle_beta   90.00000000
_cell_angle_gamma   89.99990000
_symmetry_Int_Tables_number   1
_chemical_formula_structural   ZnCoH15C15SNO10
_chemical_formula_sum   'Zn8 Co8 H120 C120 S8 N8 O80'
_cell_volume   4144.60977335
_cell_formula_units_Z   8
loop_
 _symmetry_equiv_pos_site_id
 _symmetry_equiv_pos_as_xyz
  1  'x, y, z'
loop_
 _atom_site_type_symbol
 _atom_site_label
 _atom_site_symmetry_multiplicity
 _atom_site_fract_x
 _atom_site_fract_y
 _atom_site_fract_z
 _atom_site_occupancy
  Zn  Zn0  1  0.35598000  0.71256000  0.21706000  1.0
  Zn  Zn1  1  0.85597000  0.78293000  0.71256000  1.0
  Zn  Zn2  1  0.35597000  0.28744000  0.78294000  1.0
  Zn  Zn3  1  0.85597000  0.21707000  0.28744000  1.0
  Zn  Zn4  1  0.35598000  0.78744000  0.71706000  1.0
  Zn  Zn5  1  0.85598000  0.71707000  0.21256000  1.0
  Zn  Zn6  1  0.35598000  0.21256000  0.28293000  1.0
  Zn  Zn7  1  0.85598000  0.28293000  0.78744000  1.0
  Co  Co8  1  0.18332000  0.84505000  0.17743000  1.0
  Co  Co9  1  0.68332000  0.82258000  0.84506000  1.0
  Co  Co10  1  0.18331000  0.15495000  0.82257000  1.0
  Co  Co11  1  0.68332000  0.17742000  0.15494000  1.0
  Co  Co12  1  0.18331000  0.65495000  0.67743000  1.0
  Co  Co13  1  0.68333000  0.67741000  0.34506000  1.0
  Co  Co14  1  0.18331000  0.34505000  0.32257000  1.0
  Co  Co15  1  0.68332000  0.32258000  0.65495000  1.0
  H  H16  1  0.90066000  0.72506000  0.49143000  1.0
  H  H17  1  0.40066000  0.50856000  0.72506000  1.0
  H  H18  1  0.90066000  0.27494000  0.50856000  1.0
  H  H19  1  0.40066000  0.49144000  0.27494000  1.0
  H  H20  1  0.90066000  0.77493000  0.99143000  1.0
  H  H21  1  0.40066000  0.99144000  0.22506000  1.0
  H  H22  1  0.90066000  0.22506000  0.00857000  1.0
  H  H23  1  0.40065000  0.00857000  0.77494000  1.0
  H  H24  1  0.30326000  0.77774000  0.44050000  1.0
  H  H25  1  0.80326000  0.55950000  0.77774000  1.0
  H  H26  1  0.30326000  0.22226000  0.55950000  1.0
  H  H27  1  0.80325000  0.44050000  0.22225000  1.0
  H  H28  1  0.30326000  0.72226000  0.94050000  1.0
  H  H29  1  0.80326000  0.94051000  0.27774000  1.0
  H  H30  1  0.30326000  0.27774000  0.05950000  1.0
  H  H31  1  0.80325000  0.05950000  0.72226000  1.0
  H  H32  1  0.36354000  0.87733000  0.05956000  1.0
  H  H33  1  0.86354000  0.94044000  0.87733000  1.0
  H  H34  1  0.36354000  0.12267000  0.94044000  1.0
  H  H35  1  0.86353000  0.05956000  0.12267000  1.0
  H  H36  1  0.36354000  0.62267000  0.55956000  1.0
  H  H37  1  0.86353000  0.55956000  0.37733000  1.0
  H  H38  1  0.36354000  0.37733000  0.44044000  1.0
  H  H39  1  0.86354000  0.44044000  0.62267000  1.0
  H  H40  1  0.10992000  0.93130000  0.96582000  1.0
  H  H41  1  0.60992000  0.03419000  0.93131000  1.0
  H  H42  1  0.10992000  0.06870000  0.03419000  1.0
  H  H43  1  0.60991000  0.96581000  0.06870000  1.0
  H  H44  1  0.10992000  0.56869000  0.46581000  1.0
  H  H45  1  0.60992000  0.46581000  0.43131000  1.0
  H  H46  1  0.10992000  0.43130000  0.53418000  1.0
  H  H47  1  0.60992000  0.53419000  0.56870000  1.0
  H  H48  1  0.16881000  0.89186000  0.88691000  1.0
  H  H49  1  0.66881000  0.11309000  0.89186000  1.0
  H  H50  1  0.16881000  0.10814000  0.11309000  1.0
  H  H51  1  0.66881000  0.88691000  0.10814000  1.0
  H  H52  1  0.16881000  0.60814000  0.38691000  1.0
  H  H53  1  0.66881000  0.38691000  0.39186000  1.0
  H  H54  1  0.16881000  0.39186000  0.61309000  1.0
  H  H55  1  0.66881000  0.61309000  0.60814000  1.0
  H  H56  1  0.19169000  0.98420000  0.90483000  1.0
  H  H57  1  0.69169000  0.09517000  0.98420000  1.0
  H  H58  1  0.19169000  0.01580000  0.09517000  1.0
  H  H59  1  0.69169000  0.90483000  0.01580000  1.0
  H  H60  1  0.19169000  0.51580000  0.40482000  1.0
  H  H61  1  0.69169000  0.40482000  0.48420000  1.0
  H  H62  1  0.19169000  0.48420000  0.59517000  1.0
  H  H63  1  0.69169000  0.59517000  0.51580000  1.0
  H  H64  1  0.38485000  0.87812000  0.88315000  1.0
  H  H65  1  0.88485000  0.11685000  0.87812000  1.0
  H  H66  1  0.38485000  0.12188000  0.11685000  1.0
  H  H67  1  0.88485000  0.88315000  0.12188000  1.0
  H  H68  1  0.38485000  0.62187000  0.38315000  1.0
  H  H69  1  0.88485000  0.38315000  0.37812000  1.0
  H  H70  1  0.38485000  0.37813000  0.61685000  1.0
  H  H71  1  0.88486000  0.61685000  0.62187000  1.0
  H  H72  1  0.46098000  0.89322000  0.96329000  1.0
  H  H73  1  0.96098000  0.03671000  0.89322000  1.0
  H  H74  1  0.46098000  0.10678000  0.03671000  1.0
  H  H75  1  0.96097000  0.96329000  0.10677000  1.0
  H  H76  1  0.46098000  0.60677000  0.46328000  1.0
  H  H77  1  0.96098000  0.46329000  0.39322000  1.0
  H  H78  1  0.46098000  0.39323000  0.53671000  1.0
  H  H79  1  0.96098000  0.53671000  0.60677000  1.0
  H  H80  1  0.41178000  0.96744000  0.91168000  1.0
  H  H81  1  0.91179000  0.08832000  0.96744000  1.0
  H  H82  1  0.41179000  0.03256000  0.08832000  1.0
  H  H83  1  0.91179000  0.91168000  0.03256000  1.0
  H  H84  1  0.41179000  0.53256000  0.41167000  1.0
  H  H85  1  0.91179000  0.41167000  0.46744000  1.0
  H  H86  1  0.41179000  0.46744000  0.58832000  1.0
  H  H87  1  0.91179000  0.58832000  0.53256000  1.0
  H  H88  1  0.04980000  0.07390000  0.27086000  1.0
  H  H89  1  0.54980000  0.72914000  0.07389000  1.0
  H  H90  1  0.04980000  0.92611000  0.72914000  1.0
  H  H91  1  0.54980000  0.27086000  0.92611000  1.0
  H  H92  1  0.04980000  0.42610000  0.77086000  1.0
  H  H93  1  0.54981000  0.77086000  0.57389000  1.0
  H  H94  1  0.04980000  0.57390000  0.22914000  1.0
  H  H95  1  0.54981000  0.22914000  0.42611000  1.0
  H  H96  1  0.19830000  0.08242000  0.24536000  1.0
  H  H97  1  0.69830000  0.75465000  0.08242000  1.0
  H  H98  1  0.19830000  0.91758000  0.75464000  1.0
  H  H99  1  0.69830000  0.24535000  0.91758000  1.0
  H  H100  1  0.19829000  0.41758000  0.74536000  1.0
  H  H101  1  0.69830000  0.74535000  0.58242000  1.0
  H  H102  1  0.19829000  0.58243000  0.25465000  1.0
  H  H103  1  0.69830000  0.25465000  0.41758000  1.0
  H  H104  1  0.15950000  0.08170000  0.33738000  1.0
  H  H105  1  0.65950000  0.66263000  0.08170000  1.0
  H  H106  1  0.15950000  0.91830000  0.66263000  1.0
  H  H107  1  0.65950000  0.33737000  0.91830000  1.0
  H  H108  1  0.15950000  0.41830000  0.83737000  1.0
  H  H109  1  0.65951000  0.83737000  0.58170000  1.0
  H  H110  1  0.15950000  0.58170000  0.16263000  1.0
  H  H111  1  0.65951000  0.16263000  0.41830000  1.0
  H  H112  1  0.96682000  0.97397000  0.33317000  1.0
  H  H113  1  0.46682000  0.66684000  0.97397000  1.0
  H  H114  1  0.96683000  0.02603000  0.66683000  1.0
  H  H115  1  0.46682000  0.33316000  0.02603000  1.0
  H  H116  1  0.96682000  0.52603000  0.83317000  1.0
  H  H117  1  0.46683000  0.83317000  0.47397000  1.0
  H  H118  1  0.96682000  0.47397000  0.16683000  1.0
  H  H119  1  0.46683000  0.16683000  0.52603000  1.0
  H  H120  1  0.07225000  0.95789000  0.40137000  1.0
  H  H121  1  0.57225000  0.59864000  0.95789000  1.0
  H  H122  1  0.07225000  0.04211000  0.59864000  1.0
  H  H123  1  0.57225000  0.40136000  0.04211000  1.0
  H  H124  1  0.07225000  0.54211000  0.90136000  1.0
  H  H125  1  0.57226000  0.90136000  0.45789000  1.0
  H  H126  1  0.07225000  0.45789000  0.09864000  1.0
  H  H127  1  0.57225000  0.09864000  0.54211000  1.0
  H  H128  1  0.03306000  0.88636000  0.34292000  1.0
  H  H129  1  0.53306000  0.65708000  0.88636000  1.0
  H  H130  1  0.03306000  0.11364000  0.65708000  1.0
  H  H131  1  0.53305000  0.34292000  0.11364000  1.0
  H  H132  1  0.03306000  0.61364000  0.84292000  1.0
  H  H133  1  0.53306000  0.84292000  0.38635000  1.0
  H  H134  1  0.03306000  0.38636000  0.15708000  1.0
  H  H135  1  0.53306000  0.15708000  0.61364000  1.0
  C  C136  1  0.19074000  0.75603000  0.32053000  1.0
  C  C137  1  0.69072000  0.67947000  0.75604000  1.0
  C  C138  1  0.19073000  0.24397000  0.67947000  1.0
  C  C139  1  0.69072000  0.32053000  0.24396000  1.0
  C  C140  1  0.19074000  0.74397000  0.82053000  1.0
  C  C141  1  0.69072000  0.82053000  0.25604000  1.0
  C  C142  1  0.19073000  0.25603000  0.17947000  1.0
  C  C143  1  0.69072000  0.17947000  0.74396000  1.0
  C  C144  1  0.14030000  0.75208000  0.39446000  1.0
  C  C145  1  0.64030000  0.60554000  0.75209000  1.0
  C  C146  1  0.14030000  0.24791000  0.60554000  1.0
  C  C147  1  0.64029000  0.39446000  0.24791000  1.0
  C  C148  1  0.14030000  0.74791000  0.89446000  1.0
  C  C149  1  0.64030000  0.89446000  0.25209000  1.0
  C  C150  1  0.14029000  0.25208000  0.10554000  1.0
  C  C151  1  0.64029000  0.10554000  0.74791000  1.0
  C  C152  1  0.02612000  0.73553000  0.41018000  1.0
  C  C153  1  0.52611000  0.58982000  0.73554000  1.0
  C  C154  1  0.02612000  0.26446000  0.58982000  1.0
  C  C155  1  0.52611000  0.41018000  0.26446000  1.0
  C  C156  1  0.02611000  0.76446000  0.91018000  1.0
  C  C157  1  0.52611000  0.91018000  0.23554000  1.0
  C  C158  1  0.02611000  0.23553000  0.08982000  1.0
  C  C159  1  0.52611000  0.08982000  0.76446000  1.0
  C  C160  1  0.98981000  0.73654000  0.48103000  1.0
  C  C161  1  0.48981000  0.51897000  0.73655000  1.0
  C  C162  1  0.98981000  0.26346000  0.51897000  1.0
  C  C163  1  0.48980000  0.48103000  0.26346000  1.0
  C  C164  1  0.98980000  0.76346000  0.98103000  1.0
  C  C165  1  0.48980000  0.98103000  0.23654000  1.0
  C  C166  1  0.98980000  0.23654000  0.01897000  1.0
  C  C167  1  0.48980000  0.01897000  0.76346000  1.0
  C  C168  1  0.06340000  0.75036000  0.53755000  1.0
  C  C169  1  0.56340000  0.46246000  0.75037000  1.0
  C  C170  1  0.06340000  0.24963000  0.46245000  1.0
  C  C171  1  0.56340000  0.53754000  0.24963000  1.0
  C  C172  1  0.06340000  0.74963000  0.03754000  1.0
  C  C173  1  0.56340000  0.03755000  0.25036000  1.0
  C  C174  1  0.06339000  0.25036000  0.96246000  1.0
  C  C175  1  0.56339000  0.96246000  0.74964000  1.0
  C  C176  1  0.17832000  0.76475000  0.52230000  1.0
  C  C177  1  0.67832000  0.47771000  0.76476000  1.0
  C  C178  1  0.17832000  0.23525000  0.47771000  1.0
  C  C179  1  0.67832000  0.52230000  0.23524000  1.0
  C  C180  1  0.17832000  0.73525000  0.02229000  1.0
  C  C181  1  0.67832000  0.02230000  0.26475000  1.0
  C  C182  1  0.17831000  0.26475000  0.97771000  1.0
  C  C183  1  0.67831000  0.97771000  0.73525000  1.0
  C  C184  1  0.21402000  0.76619000  0.45108000  1.0
  C  C185  1  0.71402000  0.54892000  0.76619000  1.0
  C  C186  1  0.21402000  0.23381000  0.54892000  1.0
  C  C187  1  0.71402000  0.45108000  0.23380000  1.0
  C  C188  1  0.21402000  0.73381000  0.95108000  1.0
  C  C189  1  0.71402000  0.95109000  0.26619000  1.0
  C  C190  1  0.21402000  0.26619000  0.04892000  1.0
  C  C191  1  0.71401000  0.04892000  0.73381000  1.0
  C  C192  1  0.94008000  0.71487000  0.35521000  1.0
  C  C193  1  0.44008000  0.64479000  0.71487000  1.0
  C  C194  1  0.94008000  0.28513000  0.64479000  1.0
  C  C195  1  0.44008000  0.35521000  0.28513000  1.0
  C  C196  1  0.94008000  0.78513000  0.85521000  1.0
  C  C197  1  0.44007000  0.85521000  0.21486000  1.0
  C  C198  1  0.94008000  0.21487000  0.14479000  1.0
  C  C199  1  0.44007000  0.14479000  0.78514000  1.0
  C  C200  1  0.00776000  0.74748000  0.60956000  1.0
  C  C201  1  0.50777000  0.39044000  0.74749000  1.0
  C  C202  1  0.00776000  0.25252000  0.39044000  1.0
  C  C203  1  0.50776000  0.60956000  0.25252000  1.0
  C  C204  1  0.00776000  0.75252000  0.10956000  1.0
  C  C205  1  0.50777000  0.10956000  0.24748000  1.0
  C  C206  1  0.00776000  0.24748000  0.89044000  1.0
  C  C207  1  0.50776000  0.89044000  0.75252000  1.0
  C  C208  1  0.26690000  0.77816000  0.57806000  1.0
  C  C209  1  0.76690000  0.42194000  0.77816000  1.0
  C  C210  1  0.26690000  0.22184000  0.42194000  1.0
  C  C211  1  0.76690000  0.57806000  0.22184000  1.0
  C  C212  1  0.26691000  0.72184000  0.07806000  1.0
  C  C213  1  0.76691000  0.07806000  0.27816000  1.0
  C  C214  1  0.26690000  0.27816000  0.92194000  1.0
  C  C215  1  0.76690000  0.92194000  0.72184000  1.0
  C  C216  1  0.28029000  0.89189000  0.03670000  1.0
  C  C217  1  0.78029000  0.96330000  0.89190000  1.0
  C  C218  1  0.28028000  0.10811000  0.96330000  1.0
  C  C219  1  0.78028000  0.03670000  0.10810000  1.0
  C  C220  1  0.28029000  0.60810000  0.53670000  1.0
  C  C221  1  0.78028000  0.53670000  0.39190000  1.0
  C  C222  1  0.28028000  0.39190000  0.46330000  1.0
  C  C223  1  0.78029000  0.46330000  0.60810000  1.0
  C  C224  1  0.18238000  0.93138000  0.92923000  1.0
  C  C225  1  0.68238000  0.07078000  0.93138000  1.0
  C  C226  1  0.18238000  0.06862000  0.07078000  1.0
  C  C227  1  0.68238000  0.92923000  0.06862000  1.0
  C  C228  1  0.18238000  0.56862000  0.42922000  1.0
  C  C229  1  0.68239000  0.42922000  0.43138000  1.0
  C  C230  1  0.18238000  0.43138000  0.57078000  1.0
  C  C231  1  0.68238000  0.57078000  0.56862000  1.0
  C  C232  1  0.39161000  0.91311000  0.92973000  1.0
  C  C233  1  0.89161000  0.07027000  0.91311000  1.0
  C  C234  1  0.39161000  0.08689000  0.07027000  1.0
  C  C235  1  0.89161000  0.92973000  0.08689000  1.0
  C  C236  1  0.39161000  0.58688000  0.42972000  1.0
  C  C237  1  0.89160000  0.42973000  0.41311000  1.0
  C  C238  1  0.39161000  0.41311000  0.57027000  1.0
  C  C239  1  0.89161000  0.57027000  0.58689000  1.0
  C  C240  1  0.13815000  0.06087000  0.28434000  1.0
  C  C241  1  0.63815000  0.71566000  0.06087000  1.0
  C  C242  1  0.13815000  0.93913000  0.71566000  1.0
  C  C243  1  0.63815000  0.28434000  0.93913000  1.0
  C  C244  1  0.13815000  0.43913000  0.78434000  1.0
  C  C245  1  0.63815000  0.78433000  0.56087000  1.0
  C  C246  1  0.13814000  0.56087000  0.21566000  1.0
  C  C247  1  0.63815000  0.21566000  0.43913000  1.0
  C  C248  1  0.04372000  0.94411000  0.34738000  1.0
  C  C249  1  0.54372000  0.65263000  0.94411000  1.0
  C  C250  1  0.04372000  0.05589000  0.65263000  1.0
  C  C251  1  0.54372000  0.34737000  0.05589000  1.0
  C  C252  1  0.04372000  0.55589000  0.84738000  1.0
  C  C253  1  0.54373000  0.84738000  0.44411000  1.0
  C  C254  1  0.04372000  0.44411000  0.15262000  1.0
  C  C255  1  0.54372000  0.15263000  0.55589000  1.0
  S  S256  1  0.15715000  0.96607000  0.28682000  1.0
  S  S257  1  0.65715000  0.71318000  0.96607000  1.0
  S  S258  1  0.15716000  0.03393000  0.71318000  1.0
  S  S259  1  0.65716000  0.28682000  0.03393000  1.0
  S  S260  1  0.15715000  0.53393000  0.78682000  1.0
  S  S261  1  0.65716000  0.78682000  0.46607000  1.0
  S  S262  1  0.15715000  0.46607000  0.21318000  1.0
  S  S263  1  0.65716000  0.21318000  0.53393000  1.0
  N  N264  1  0.28471000  0.91278000  0.96886000  1.0
  N  N265  1  0.78471000  0.03114000  0.91278000  1.0
  N  N266  1  0.28471000  0.08722000  0.03114000  1.0
  N  N267  1  0.78471000  0.96886000  0.08722000  1.0
  N  N268  1  0.28471000  0.58722000  0.46886000  1.0
  N  N269  1  0.78471000  0.46886000  0.41278000  1.0
  N  N270  1  0.28471000  0.41278000  0.53114000  1.0
  N  N271  1  0.78471000  0.53114000  0.58722000  1.0
  O  O272  1  0.17253000  0.81142000  0.28455000  1.0
  O  O273  1  0.67250000  0.71545000  0.81142000  1.0
  O  O274  1  0.17251000  0.18858000  0.71545000  1.0
  O  O275  1  0.67250000  0.28455000  0.18858000  1.0
  O  O276  1  0.17252000  0.68858000  0.78455000  1.0
  O  O277  1  0.67250000  0.78456000  0.31143000  1.0
  O  O278  1  0.17250000  0.31142000  0.21545000  1.0
  O  O279  1  0.67250000  0.21545000  0.68858000  1.0
  O  O280  1  0.25670000  0.70434000  0.30337000  1.0
  O  O281  1  0.75669000  0.69663000  0.70435000  1.0
  O  O282  1  0.25669000  0.29565000  0.69663000  1.0
  O  O283  1  0.75669000  0.30338000  0.29565000  1.0
  O  O284  1  0.25670000  0.79565000  0.80337000  1.0
  O  O285  1  0.75668000  0.80337000  0.20435000  1.0
  O  O286  1  0.25670000  0.20435000  0.19663000  1.0
  O  O287  1  0.75669000  0.19663000  0.79565000  1.0
  O  O288  1  0.96925000  0.72004000  0.28989000  1.0
  O  O289  1  0.46925000  0.71011000  0.72004000  1.0
  O  O290  1  0.96925000  0.27996000  0.71011000  1.0
  O  O291  1  0.46924000  0.28989000  0.27996000  1.0
  O  O292  1  0.96924000  0.77996000  0.78989000  1.0
  O  O293  1  0.46924000  0.78989000  0.22004000  1.0
  O  O294  1  0.96924000  0.22004000  0.21011000  1.0
  O  O295  1  0.46923000  0.21011000  0.77996000  1.0
  O  O296  1  0.84487000  0.69273000  0.37823000  1.0
  O  O297  1  0.34488000  0.62176000  0.69271000  1.0
  O  O298  1  0.84487000  0.30728000  0.62176000  1.0
  O  O299  1  0.34487000  0.37824000  0.30728000  1.0
  O  O300  1  0.84487000  0.80729000  0.87823000  1.0
  O  O301  1  0.34487000  0.87824000  0.19271000  1.0
  O  O302  1  0.84487000  0.19272000  0.12177000  1.0
  O  O303  1  0.34486000  0.12176000  0.80729000  1.0
  O  O304  1  0.92718000  0.79288000  0.61812000  1.0
  O  O305  1  0.42720000  0.38187000  0.79288000  1.0
  O  O306  1  0.92718000  0.20713000  0.38188000  1.0
  O  O307  1  0.42719000  0.61813000  0.20712000  1.0
  O  O308  1  0.92719000  0.70712000  0.11813000  1.0
  O  O309  1  0.42720000  0.11813000  0.29288000  1.0
  O  O310  1  0.92719000  0.29288000  0.88187000  1.0
  O  O311  1  0.42719000  0.88187000  0.70712000  1.0
  O  O312  1  0.02982000  0.69992000  0.65517000  1.0
  O  O313  1  0.52984000  0.34483000  0.69993000  1.0
  O  O314  1  0.02982000  0.30008000  0.34483000  1.0
  O  O315  1  0.52983000  0.65517000  0.30007000  1.0
  O  O316  1  0.02983000  0.80007000  0.15516000  1.0
  O  O317  1  0.52983000  0.15518000  0.19993000  1.0
  O  O318  1  0.02983000  0.19993000  0.84483000  1.0
  O  O319  1  0.52983000  0.84483000  0.80007000  1.0
  O  O320  1  0.23966000  0.76092000  0.64389000  1.0
  O  O321  1  0.73967000  0.35612000  0.76092000  1.0
  O  O322  1  0.23967000  0.23908000  0.35611000  1.0
  O  O323  1  0.73969000  0.64388000  0.23909000  1.0
  O  O324  1  0.23967000  0.73908000  0.14388000  1.0
  O  O325  1  0.73968000  0.14388000  0.26092000  1.0
  O  O326  1  0.23967000  0.26092000  0.85612000  1.0
  O  O327  1  0.73967000  0.85612000  0.73908000  1.0
  O  O328  1  0.36081000  0.80371000  0.56201000  1.0
  O  O329  1  0.86080000  0.43799000  0.80371000  1.0
  O  O330  1  0.36080000  0.19629000  0.43799000  1.0
  O  O331  1  0.86080000  0.56201000  0.19628000  1.0
  O  O332  1  0.36081000  0.69630000  0.06200000  1.0
  O  O333  1  0.86080000  0.06200000  0.30372000  1.0
  O  O334  1  0.36080000  0.30371000  0.93799000  1.0
  O  O335  1  0.86080000  0.93799000  0.69629000  1.0
  O  O336  1  0.19039000  0.88830000  0.07282000  1.0
  O  O337  1  0.69039000  0.92719000  0.88831000  1.0
  O  O338  1  0.19039000  0.11169000  0.92718000  1.0
  O  O339  1  0.69039000  0.07281000  0.11169000  1.0
  O  O340  1  0.19040000  0.61169000  0.57281000  1.0
  O  O341  1  0.69039000  0.57281000  0.38832000  1.0
  O  O342  1  0.19040000  0.38831000  0.42719000  1.0
  O  O343  1  0.69039000  0.42719000  0.61170000  1.0
  O  O344  1  0.11705000  0.94064000  0.21257000  1.0
  O  O345  1  0.61705000  0.78743000  0.94064000  1.0
  O  O346  1  0.11705000  0.05936000  0.78743000  1.0
  O  O347  1  0.61705000  0.21257000  0.05937000  1.0
  O  O348  1  0.11705000  0.55936000  0.71257000  1.0
  O  O349  1  0.61706000  0.71257000  0.44064000  1.0
  O  O350  1  0.11705000  0.44064000  0.28743000  1.0
  O  O351  1  0.61706000  0.28743000  0.55936000  1.0
