# generated using pymatgen
data_FePH9C3O4
_symmetry_space_group_name_H-M   'P 1'
_cell_length_a   4.76724000
_cell_length_b   5.73412000
_cell_length_c   11.72620000
_cell_angle_alpha   80.55480000
_cell_angle_beta   89.99940000
_cell_angle_gamma   89.99910000
_symmetry_Int_Tables_number   1
_chemical_formula_structural   FePH9C3O4
_chemical_formula_sum   'Fe2 P2 H18 C6 O8'
_cell_volume   316.20089143
_cell_formula_units_Z   2
loop_
 _symmetry_equiv_pos_site_id
 _symmetry_equiv_pos_as_xyz
  1  'x, y, z'
loop_
 _atom_site_type_symbol
 _atom_site_label
 _atom_site_symmetry_multiplicity
 _atom_site_fract_x
 _atom_site_fract_y
 _atom_site_fract_z
 _atom_site_occupancy
  Fe  Fe0  1  0.24793000  0.74957000  0.02155000  1.0
  Fe  Fe1  1  0.74792000  0.25044000  0.97844000  1.0
  P  P2  1  0.80834000  0.78886000  0.85291000  1.0
  P  P3  1  0.30836000  0.21115000  0.14709000  1.0
  H  H4  1  0.79577000  0.58429000  0.15018000  1.0
  H  H5  1  0.29573000  0.41567000  0.84982000  1.0
  H  H6  1  0.83603000  0.85387000  0.15728000  1.0
  H  H7  1  0.33608000  0.14610000  0.84271000  1.0
  H  H8  1  0.82818000  0.04002000  0.67142000  1.0
  H  H9  1  0.32818000  0.95999000  0.32858000  1.0
  H  H10  1  0.13513000  0.86582000  0.70185000  1.0
  H  H11  1  0.63512000  0.13418000  0.29815000  1.0
  H  H12  1  0.56365000  0.68420000  0.62951000  1.0
  H  H13  1  0.06364000  0.31580000  0.37050000  1.0
  H  H14  1  0.85804000  0.50453000  0.66537000  1.0
  H  H15  1  0.35802000  0.49548000  0.33464000  1.0
  H  H16  1  0.81427000  0.62352000  0.44846000  1.0
  H  H17  1  0.31426000  0.37647000  0.55154000  1.0
  H  H18  1  0.83750000  0.92489000  0.46385000  1.0
  H  H19  1  0.33751000  0.07510000  0.53615000  1.0
  H  H20  1  0.12839000  0.73514000  0.49928000  1.0
  H  H21  1  0.62839000  0.26487000  0.50072000  1.0
  C  C22  1  0.90437000  0.85955000  0.70280000  1.0
  C  C23  1  0.40436000  0.14046000  0.29719000  1.0
  C  C24  1  0.79437000  0.68525000  0.62745000  1.0
  C  C25  1  0.29436000  0.31475000  0.37255000  1.0
  C  C26  1  0.89848000  0.74506000  0.50306000  1.0
  C  C27  1  0.39847000  0.25494000  0.49694000  1.0
  O  O28  1  0.49084000  0.79162000  0.86624000  1.0
  O  O29  1  0.99083000  0.20840000  0.13376000  1.0
  O  O30  1  0.93695000  0.70296000  0.16302000  1.0
  O  O31  1  0.43694000  0.29705000  0.83698000  1.0
  O  O32  1  0.95775000  0.97377000  0.91769000  1.0
  O  O33  1  0.45776000  0.02624000  0.08231000  1.0
  O  O34  1  0.94594000  0.54577000  0.90391000  1.0
  O  O35  1  0.44594000  0.45423000  0.09609000  1.0
