# generated using pymatgen
data_MgH7C7NO7
_symmetry_space_group_name_H-M   'P 1'
_cell_length_a   4.72210000
_cell_length_b   8.66329000
_cell_length_c   20.80730000
_cell_angle_alpha   89.99990000
_cell_angle_beta   89.99990000
_cell_angle_gamma   88.64710000
_symmetry_Int_Tables_number   1
_chemical_formula_structural   MgH7C7NO7
_chemical_formula_sum   'Mg4 H28 C28 N4 O28'
_cell_volume   850.96692198
_cell_formula_units_Z   4
loop_
 _symmetry_equiv_pos_site_id
 _symmetry_equiv_pos_as_xyz
  1  'x, y, z'
loop_
 _atom_site_type_symbol
 _atom_site_label
 _atom_site_symmetry_multiplicity
 _atom_site_fract_x
 _atom_site_fract_y
 _atom_site_fract_z
 _atom_site_occupancy
  Mg  Mg0  1  0.31155000  0.31716000  0.62176000  1.0
  Mg  Mg1  1  0.68845000  0.18284000  0.12176000  1.0
  Mg  Mg2  1  0.68845000  0.68284000  0.37824000  1.0
  Mg  Mg3  1  0.31155000  0.81716000  0.87824000  1.0
  H  H4  1  0.55842000  0.22824000  0.73191000  1.0
  H  H5  1  0.44157000  0.27176000  0.23191000  1.0
  H  H6  1  0.44157000  0.77176000  0.26809000  1.0
  H  H7  1  0.55843000  0.72824000  0.76809000  1.0
  H  H8  1  0.79529000  0.19766000  0.67670000  1.0
  H  H9  1  0.20471000  0.30234000  0.17670000  1.0
  H  H10  1  0.20471000  0.80235000  0.32330000  1.0
  H  H11  1  0.79529000  0.69766000  0.82330000  1.0
  H  H12  1  0.90214000  0.41201000  0.70297000  1.0
  H  H13  1  0.09786000  0.08799000  0.20297000  1.0
  H  H14  1  0.09786000  0.58799000  0.29703000  1.0
  H  H15  1  0.90214000  0.91201000  0.79703000  1.0
  H  H16  1  0.18171000  0.52361000  0.70839000  1.0
  H  H17  1  0.81829000  0.97639000  0.20839000  1.0
  H  H18  1  0.81830000  0.47639000  0.29161000  1.0
  H  H19  1  0.18171000  0.02361000  0.79161000  1.0
  H  H20  1  0.82494000  0.60640000  0.54303000  1.0
  H  H21  1  0.17506000  0.89360000  0.04303000  1.0
  H  H22  1  0.17506000  0.39360000  0.45697000  1.0
  H  H23  1  0.82494000  0.10640000  0.95697000  1.0
  H  H24  1  0.33999000  0.99405000  0.54163000  1.0
  H  H25  1  0.66001000  0.50595000  0.04163000  1.0
  H  H26  1  0.66001000  0.00595000  0.45837000  1.0
  H  H27  1  0.33999000  0.49405000  0.95837000  1.0
  H  H28  1  0.71977000  0.92136000  0.69246000  1.0
  H  H29  1  0.28023000  0.57864000  0.19246000  1.0
  H  H30  1  0.28023000  0.07864000  0.30754000  1.0
  H  H31  1  0.71977000  0.42136000  0.80754000  1.0
  C  C32  1  0.19567000  0.72977000  0.47196000  1.0
  C  C33  1  0.80433000  0.77023000  0.97196000  1.0
  C  C34  1  0.80433000  0.27023000  0.52804000  1.0
  C  C35  1  0.19567000  0.22977000  0.02804000  1.0
  C  C36  1  0.09136000  0.79097000  0.53605000  1.0
  C  C37  1  0.90864000  0.70903000  0.03605000  1.0
  C  C38  1  0.90864000  0.20903000  0.46395000  1.0
  C  C39  1  0.09136000  0.29097000  0.96395000  1.0
  C  C40  1  0.17658000  0.92597000  0.56419000  1.0
  C  C41  1  0.82342000  0.57403000  0.06419000  1.0
  C  C42  1  0.82342000  0.07403000  0.43581000  1.0
  C  C43  1  0.17659000  0.42596000  0.93581000  1.0
  C  C44  1  0.03953000  0.98278000  0.62115000  1.0
  C  C45  1  0.96047000  0.51722000  0.12115000  1.0
  C  C46  1  0.96047000  0.01722000  0.37885000  1.0
  C  C47  1  0.03953000  0.48278000  0.87885000  1.0
  C  C48  1  0.53968000  0.64023000  0.64329000  1.0
  C  C49  1  0.46032000  0.85977000  0.14329000  1.0
  C  C50  1  0.46032000  0.35977000  0.35671000  1.0
  C  C51  1  0.53968000  0.14023000  0.85671000  1.0
  C  C52  1  0.75919000  0.75042000  0.61944000  1.0
  C  C53  1  0.24081000  0.74958000  0.11944000  1.0
  C  C54  1  0.24081000  0.24958000  0.38056000  1.0
  C  C55  1  0.75919000  0.25042000  0.88056000  1.0
  C  C56  1  0.82975000  0.88630000  0.64875000  1.0
  C  C57  1  0.17025000  0.61370000  0.14875000  1.0
  C  C58  1  0.17025000  0.11370000  0.35125000  1.0
  C  C59  1  0.82975000  0.38630000  0.85125000  1.0
  N  N60  1  0.88594000  0.70781000  0.56375000  1.0
  N  N61  1  0.11406000  0.79219000  0.06375000  1.0
  N  N62  1  0.11406000  0.29219000  0.43625000  1.0
  N  N63  1  0.88594000  0.20781000  0.93625000  1.0
  O  O64  1  0.02577000  0.64272000  0.44271000  1.0
  O  O65  1  0.97423000  0.85728000  0.94271000  1.0
  O  O66  1  0.97423000  0.35728000  0.55729000  1.0
  O  O67  1  0.02576000  0.14272000  0.05729000  1.0
  O  O68  1  0.09562000  0.11513000  0.64600000  1.0
  O  O69  1  0.90438000  0.38487000  0.14600000  1.0
  O  O70  1  0.90438000  0.88487000  0.35400000  1.0
  O  O71  1  0.09562000  0.61513000  0.85400000  1.0
  O  O72  1  0.47234000  0.53588000  0.60379000  1.0
  O  O73  1  0.52766000  0.96412000  0.10379000  1.0
  O  O74  1  0.52766000  0.46412000  0.39621000  1.0
  O  O75  1  0.47234000  0.03588000  0.89621000  1.0
  O  O76  1  0.44081000  0.65951000  0.69946000  1.0
  O  O77  1  0.55919000  0.84049000  0.19946000  1.0
  O  O78  1  0.55919000  0.34049000  0.30054000  1.0
  O  O79  1  0.44081000  0.15951000  0.80054000  1.0
  O  O80  1  0.43687000  0.77114000  0.45308000  1.0
  O  O81  1  0.56313000  0.72886000  0.95308000  1.0
  O  O82  1  0.56313000  0.22886000  0.54692000  1.0
  O  O83  1  0.43687000  0.27114000  0.04692000  1.0
  O  O84  1  0.62709000  0.26383000  0.68899000  1.0
  O  O85  1  0.37291000  0.23617000  0.18899000  1.0
  O  O86  1  0.37291000  0.73617000  0.31101000  1.0
  O  O87  1  0.62709000  0.76383000  0.81101000  1.0
  O  O88  1  0.10886000  0.41865000  0.70020000  1.0
  O  O89  1  0.89114000  0.08136000  0.20020000  1.0
  O  O90  1  0.89114000  0.58136000  0.29980000  1.0
  O  O91  1  0.10886000  0.91865000  0.79980000  1.0
