# generated using pymatgen
data_Zn4H23C28NO15
_symmetry_space_group_name_H-M   'P 1'
_cell_length_a   10.82750000
_cell_length_b   11.26033193
_cell_length_c   18.65393859
_cell_angle_alpha   76.73854371
_cell_angle_beta   73.11652058
_cell_angle_gamma   61.26099170
_symmetry_Int_Tables_number   1
_chemical_formula_structural   Zn4H23C28NO15
_chemical_formula_sum   'Zn8 H46 C56 N2 O30'
_cell_volume   1897.25677242
_cell_formula_units_Z   2
loop_
 _symmetry_equiv_pos_site_id
 _symmetry_equiv_pos_as_xyz
  1  'x, y, z'
loop_
 _atom_site_type_symbol
 _atom_site_label
 _atom_site_symmetry_multiplicity
 _atom_site_fract_x
 _atom_site_fract_y
 _atom_site_fract_z
 _atom_site_occupancy
  Zn  Zn0  1  0.70609000  0.40096000  0.76050000  1.0
  Zn  Zn1  1  0.13235000  0.90116000  0.26049000  1.0
  Zn  Zn2  1  0.55246000  0.54871000  0.90921000  1.0
  Zn  Zn3  1  0.98944000  0.04895000  0.40922000  1.0
  Zn  Zn4  1  0.69999000  0.68344000  0.76922000  1.0
  Zn  Zn5  1  0.84738000  0.18358000  0.26912000  1.0
  Zn  Zn6  1  0.41055000  0.67948000  0.76032000  1.0
  Zn  Zn7  1  0.14960000  0.17965000  0.26030000  1.0
  H  H8  1  0.93997000  0.72154000  0.55342000  1.0
  H  H9  1  0.78518000  0.22148000  0.05335000  1.0
  H  H10  1  0.11694000  0.53858000  0.34561000  1.0
  H  H11  1  0.99889000  0.03821000  0.84561000  1.0
  H  H12  1  0.07541000  0.33984000  0.40985000  1.0
  H  H13  1  0.17484000  0.83951000  0.90988000  1.0
  H  H14  1  0.97042000  0.32808000  0.55032000  1.0
  H  H15  1  0.15127000  0.82799000  0.05029000  1.0
  H  H16  1  0.04133000  0.63010000  0.85625000  1.0
  H  H17  1  0.47193000  0.13075000  0.35623000  1.0
  H  H18  1  0.18183000  0.53687000  0.06404000  1.0
  H  H19  1  0.21704000  0.03715000  0.56402000  1.0
  H  H20  1  0.96388000  0.50560000  0.13336000  1.0
  H  H21  1  0.39669000  0.00631000  0.63336000  1.0
  H  H22  1  0.78623000  0.53201000  0.06305000  1.0
  H  H23  1  0.61812000  0.03307000  0.56303000  1.0
  H  H24  1  0.56531000  0.10075000  0.75570000  1.0
  H  H25  1  0.57817000  0.60098000  0.25564000  1.0
  H  H26  1  0.18603000  0.48474000  0.75372000  1.0
  H  H27  1  0.57547000  0.98491000  0.25367000  1.0
  H  H28  1  0.03622000  0.36205000  0.77151000  1.0
  H  H29  1  0.83022000  0.86220000  0.27143000  1.0
  H  H30  1  0.15497000  0.10936000  0.77689000  1.0
  H  H31  1  0.95879000  0.60950000  0.27678000  1.0
  H  H32  1  0.18112000  0.75771000  0.68049000  1.0
  H  H33  1  0.38044000  0.25803000  0.18044000  1.0
  H  H34  1  0.22681000  0.64492000  0.61402000  1.0
  H  H35  1  0.51425000  0.14510000  0.11408000  1.0
  H  H36  1  0.15592000  0.82309000  0.58622000  1.0
  H  H37  1  0.43468000  0.32320000  0.08614000  1.0
  H  H38  1  0.28075000  0.72756000  0.48590000  1.0
  H  H39  1  0.50612000  0.22725000  0.98587000  1.0
  H  H40  1  0.45746000  0.60217000  0.44905000  1.0
  H  H41  1  0.49176000  0.10175000  0.94908000  1.0
  H  H42  1  0.40661000  0.77835000  0.42018000  1.0
  H  H43  1  0.39519000  0.27790000  0.92019000  1.0
  H  H44  1  0.62673000  0.71061000  0.55432000  1.0
  H  H45  1  0.10883000  0.20986000  0.05433000  1.0
  H  H46  1  0.59797000  0.78425000  0.46120000  1.0
  H  H47  1  0.15717000  0.28333000  0.96118000  1.0
  H  H48  1  0.67110000  0.60396000  0.48344000  1.0
  H  H49  1  0.24223000  0.10310000  0.98357000  1.0
  H  H50  1  0.33790000  0.82535000  0.97723000  1.0
  H  H51  1  0.85908000  0.32551000  0.47754000  1.0
  H  H52  1  0.50229000  0.75628000  0.97795000  1.0
  H  H53  1  0.76327000  0.25643000  0.47789000  1.0
  C  C54  1  0.86963000  0.52418000  0.63965000  1.0
  C  C55  1  0.96668000  0.02416000  0.13961000  1.0
  C  C56  1  0.05129000  0.76353000  0.40350000  1.0
  C  C57  1  0.78175000  0.26327000  0.90347000  1.0
  C  C58  1  0.94756000  0.52446000  0.55933000  1.0
  C  C59  1  0.96878000  0.02438000  0.05927000  1.0
  C  C60  1  0.97210000  0.63657000  0.52250000  1.0
  C  C61  1  0.86894000  0.13646000  0.02246000  1.0
  C  C62  1  0.03286000  0.64126000  0.44540000  1.0
  C  C63  1  0.88053000  0.14107000  0.94539000  1.0
  C  C64  1  0.07020000  0.53321000  0.40566000  1.0
  C  C65  1  0.99097000  0.03294000  0.90569000  1.0
  C  C66  1  0.04772000  0.42074000  0.44251000  1.0
  C  C67  1  0.08909000  0.92047000  0.94254000  1.0
  C  C68  1  0.98753000  0.41565000  0.51934000  1.0
  C  C69  1  0.07762000  0.91549000  0.01932000  1.0
  C  C70  1  0.79796000  0.59894000  0.91232000  1.0
  C  C71  1  0.69037000  0.09963000  0.41228000  1.0
  C  C72  1  0.25729000  0.60126000  0.91365000  1.0
  C  C73  1  0.22754000  0.10158000  0.41366000  1.0
  C  C74  1  0.90294000  0.58256000  0.95529000  1.0
  C  C75  1  0.55875000  0.08339000  0.45526000  1.0
  C  C76  1  0.02480000  0.60170000  0.91682000  1.0
  C  C77  1  0.45626000  0.10238000  0.41682000  1.0
  C  C78  1  0.12594000  0.58358000  0.95584000  1.0
  C  C79  1  0.33429000  0.08409000  0.45586000  1.0
  C  C80  1  0.10284000  0.54951000  0.03412000  1.0
  C  C81  1  0.31316000  0.05002000  0.53412000  1.0
  C  C82  1  0.98021000  0.53268000  0.07275000  1.0
  C  C83  1  0.41384000  0.03343000  0.57276000  1.0
  C  C84  1  0.88094000  0.54765000  0.03360000  1.0
  C  C85  1  0.53725000  0.04858000  0.53359000  1.0
  C  C86  1  0.43876000  0.93653000  0.76827000  1.0
  C  C87  1  0.85643000  0.43671000  0.26818000  1.0
  C  C88  1  0.47191000  0.37532000  0.74421000  1.0
  C  C89  1  0.40851000  0.87551000  0.24421000  1.0
  C  C90  1  0.36725000  0.08893000  0.76672000  1.0
  C  C91  1  0.77707000  0.58910000  0.26662000  1.0
  C  C92  1  0.44973000  0.15802000  0.75863000  1.0
  C  C93  1  0.63360000  0.65819000  0.25854000  1.0
  C  C94  1  0.38450000  0.30041000  0.75342000  1.0
  C  C95  1  0.56168000  0.80060000  0.25334000  1.0
  C  C96  1  0.23527000  0.37396000  0.75765000  1.0
  C  C97  1  0.63311000  0.87413000  0.25759000  1.0
  C  C98  1  0.15230000  0.30545000  0.76721000  1.0
  C  C99  1  0.77502000  0.80562000  0.26714000  1.0
  C  C100  1  0.21824000  0.16358000  0.77101000  1.0
  C  C101  1  0.84716000  0.66375000  0.27093000  1.0
  C  C102  1  0.37610000  0.72859000  0.60021000  1.0
  C  C103  1  0.29522000  0.22845000  0.10020000  1.0
  C  C104  1  0.22605000  0.73939000  0.62121000  1.0
  C  C105  1  0.41329000  0.23953000  0.12119000  1.0
  C  C106  1  0.39463000  0.70446000  0.46829000  1.0
  C  C107  1  0.43299000  0.20406000  0.96830000  1.0
  C  C108  1  0.59528000  0.70208000  0.50589000  1.0
  C  C109  1  0.19728000  0.20132000  0.00593000  1.0
  N  N110  1  0.44988000  0.71258000  0.52864000  1.0
  N  N111  1  0.30926000  0.21212000  0.02866000  1.0
  O  O112  1  0.83805000  0.42477000  0.66657000  1.0
  O  O113  1  0.07076000  0.92480000  0.16651000  1.0
  O  O114  1  0.43408000  0.78822000  0.94526000  1.0
  O  O115  1  0.83217000  0.28863000  0.44537000  1.0
  O  O116  1  0.83870000  0.62415000  0.67374000  1.0
  O  O117  1  0.86344000  0.12416000  0.17372000  1.0
  O  O118  1  0.05547000  0.84327000  0.44038000  1.0
  O  O119  1  0.66088000  0.34294000  0.94032000  1.0
  O  O120  1  0.06019000  0.77829000  0.33237000  1.0
  O  O121  1  0.82930000  0.27807000  0.83235000  1.0
  O  O122  1  0.68996000  0.57704000  0.94982000  1.0
  O  O123  1  0.78280000  0.07765000  0.44976000  1.0
  O  O124  1  0.82395000  0.63359000  0.84158000  1.0
  O  O125  1  0.70062000  0.13411000  0.34153000  1.0
  O  O126  1  0.35804000  0.55833000  0.94962000  1.0
  O  O127  1  0.13379000  0.05855000  0.44965000  1.0
  O  O128  1  0.25637000  0.65935000  0.84661000  1.0
  O  O129  1  0.23745000  0.15961000  0.34661000  1.0
  O  O130  1  0.57685000  0.87883000  0.75897000  1.0
  O  O131  1  0.78536000  0.37899000  0.25888000  1.0
  O  O132  1  0.35996000  0.87778000  0.77653000  1.0
  O  O133  1  0.98569000  0.37796000  0.27646000  1.0
  O  O134  1  0.58944000  0.57887000  0.79915000  1.0
  O  O135  1  0.03245000  0.07906000  0.29915000  1.0
  O  O136  1  0.41504000  0.50263000  0.72679000  1.0
  O  O137  1  0.35554000  0.00285000  0.22678000  1.0
  O  O138  1  0.60149000  0.30289000  0.75535000  1.0
  O  O139  1  0.34016000  0.80315000  0.25539000  1.0
  O  O140  1  0.43216000  0.73797000  0.64849000  1.0
  O  O141  1  0.18139000  0.23792000  0.14845000  1.0
