# generated using pymatgen
data_CuMo3H8C6N4O11
_symmetry_space_group_name_H-M   'P 1'
_cell_length_a   8.05858000
_cell_length_b   10.24240000
_cell_length_c   10.71360000
_cell_angle_alpha   64.13950000
_cell_angle_beta   75.33490000
_cell_angle_gamma   70.98550000
_symmetry_Int_Tables_number   1
_chemical_formula_structural   CuMo3H8C6N4O11
_chemical_formula_sum   'Cu2 Mo6 H16 C12 N8 O22'
_cell_volume   745.88180428
_cell_formula_units_Z   2
loop_
 _symmetry_equiv_pos_site_id
 _symmetry_equiv_pos_as_xyz
  1  'x, y, z'
loop_
 _atom_site_type_symbol
 _atom_site_label
 _atom_site_symmetry_multiplicity
 _atom_site_fract_x
 _atom_site_fract_y
 _atom_site_fract_z
 _atom_site_occupancy
  Cu  Cu0  1  0.74312000  0.03689000  0.26135000  1.0
  Cu  Cu1  1  0.25688000  0.96311000  0.73865000  1.0
  Mo  Mo2  1  0.98547000  0.33532000  0.03368000  1.0
  Mo  Mo3  1  0.01452000  0.66468000  0.96632000  1.0
  Mo  Mo4  1  0.60930000  0.61508000  0.85025000  1.0
  Mo  Mo5  1  0.39070000  0.38492000  0.14975000  1.0
  Mo  Mo6  1  0.36960000  0.34806000  0.86225000  1.0
  Mo  Mo7  1  0.63040000  0.65194000  0.13775000  1.0
  H  H8  1  0.07529000  0.65910000  0.65011000  1.0
  H  H9  1  0.92471000  0.34090000  0.34989000  1.0
  H  H10  1  0.85506000  0.91470000  0.73179000  1.0
  H  H11  1  0.14494000  0.08530000  0.26821000  1.0
  H  H12  1  0.06150000  0.70918000  0.23935000  1.0
  H  H13  1  0.93851000  0.29082000  0.76065000  1.0
  H  H14  1  0.22542000  0.53328000  0.47867000  1.0
  H  H15  1  0.77458000  0.46672000  0.52133000  1.0
  H  H16  1  0.49461000  0.24886000  0.45328000  1.0
  H  H17  1  0.50540000  0.75115000  0.54671000  1.0
  H  H18  1  0.60181000  0.14622000  0.71601000  1.0
  H  H19  1  0.39819000  0.85378000  0.28399000  1.0
  H  H20  1  0.79528000  0.90822000  0.08861000  1.0
  H  H21  1  0.20472000  0.09179000  0.91139000  1.0
  H  H22  1  0.68282000  0.07887000  0.02245000  1.0
  H  H23  1  0.31719000  0.92113000  0.97755000  1.0
  C  C24  1  0.92384000  0.82921000  0.48957000  1.0
  C  C25  1  0.07616000  0.17079000  0.51043000  1.0
  C  C26  1  0.80581000  0.94420000  0.53443000  1.0
  C  C27  1  0.19419000  0.05580000  0.46557000  1.0
  C  C28  1  0.03933000  0.72493000  0.33644000  1.0
  C  C29  1  0.96067000  0.27507000  0.66356000  1.0
  C  C30  1  0.12192000  0.63604000  0.45464000  1.0
  C  C31  1  0.87808000  0.36396000  0.54536000  1.0
  C  C32  1  0.59469000  0.15109000  0.50486000  1.0
  C  C33  1  0.40531000  0.84891000  0.49514000  1.0
  C  C34  1  0.64515000  0.10139000  0.63505000  1.0
  C  C35  1  0.35485000  0.89861000  0.36495000  1.0
  N  N36  1  0.91591000  0.84427000  0.35963000  1.0
  N  N37  1  0.08409000  0.15573000  0.64037000  1.0
  N  N38  1  0.69586000  0.05228000  0.44384000  1.0
  N  N39  1  0.30414000  0.94773000  0.55616000  1.0
  N  N40  1  0.04827000  0.70380000  0.54921000  1.0
  N  N41  1  0.95173000  0.29620000  0.45079000  1.0
  N  N42  1  0.77777000  0.97219000  0.65100000  1.0
  N  N43  1  0.22223000  0.02781000  0.34901000  1.0
  O  O44  1  0.80773000  0.38946000  0.94139000  1.0
  O  O45  1  0.19227000  0.61054000  0.05861000  1.0
  O  O46  1  0.46131000  0.46797000  0.91230000  1.0
  O  O47  1  0.53868000  0.53203000  0.08771000  1.0
  O  O48  1  0.43155000  0.77532000  0.81150000  1.0
  O  O49  1  0.56845000  0.22468000  0.18850000  1.0
  O  O50  1  0.17323000  0.25963000  0.90637000  1.0
  O  O51  1  0.82677000  0.74037000  0.09363000  1.0
  O  O52  1  0.70848000  0.61116000  0.69025000  1.0
  O  O53  1  0.29152000  0.38884000  0.30975000  1.0
  O  O54  1  0.25012000  0.31469000  0.09327000  1.0
  O  O55  1  0.74988000  0.68532000  0.90673000  1.0
  O  O56  1  0.53972000  0.18627000  0.89960000  1.0
  O  O57  1  0.46027000  0.81372000  0.10040000  1.0
  O  O58  1  0.96991000  0.16498000  0.17177000  1.0
  O  O59  1  0.03009000  0.83502000  0.82823000  1.0
  O  O60  1  0.90491000  0.46810000  0.12349000  1.0
  O  O61  1  0.09508000  0.53190000  0.87651000  1.0
  O  O62  1  0.39044000  0.43238000  0.68371000  1.0
  O  O63  1  0.60956000  0.56762000  0.31629000  1.0
  O  O64  1  0.77522000  0.01163000  0.08492000  1.0
  O  O65  1  0.22478000  0.98837000  0.91508000  1.0
