# generated using pymatgen
data_Mn3H40C62N4O15
_symmetry_space_group_name_H-M   'P 1'
_cell_length_a   10.94180000
_cell_length_b   10.94190000
_cell_length_c   25.95200000
_cell_angle_alpha   91.88340000
_cell_angle_beta   91.88350000
_cell_angle_gamma   100.18600000
_symmetry_Int_Tables_number   1
_chemical_formula_structural   Mn3H40C62N4O15
_chemical_formula_sum   'Mn6 H80 C124 N8 O30'
_cell_volume   3054.09250064
_cell_formula_units_Z   2
loop_
 _symmetry_equiv_pos_site_id
 _symmetry_equiv_pos_as_xyz
  1  'x, y, z'
loop_
 _atom_site_type_symbol
 _atom_site_label
 _atom_site_symmetry_multiplicity
 _atom_site_fract_x
 _atom_site_fract_y
 _atom_site_fract_z
 _atom_site_occupancy
  Mn  Mn0  1  0.81996000  0.17239000  0.50731000  1.0
  Mn  Mn1  1  0.82761000  0.18005000  0.99269000  1.0
  Mn  Mn2  1  0.18004000  0.82761000  0.49269000  1.0
  Mn  Mn3  1  0.17239000  0.81995000  0.00731000  1.0
  Mn  Mn4  1  0.50000000  0.00000000  0.50000000  1.0
  Mn  Mn5  1  0.00001000  0.50000000  0.00000000  1.0
  H  H6  1  0.96656000  0.92947000  0.40158000  1.0
  H  H7  1  0.07053000  0.03344000  0.09842000  1.0
  H  H8  1  0.03344000  0.07053000  0.59842000  1.0
  H  H9  1  0.92947000  0.96656000  0.90158000  1.0
  H  H10  1  0.02105000  0.77958000  0.33619000  1.0
  H  H11  1  0.22042000  0.97895000  0.16381000  1.0
  H  H12  1  0.97895000  0.22042000  0.66381000  1.0
  H  H13  1  0.77958000  0.02105000  0.83619000  1.0
  H  H14  1  0.63244000  0.63319000  0.30631000  1.0
  H  H15  1  0.36681000  0.36756000  0.19369000  1.0
  H  H16  1  0.36756000  0.36681000  0.69369000  1.0
  H  H17  1  0.63318000  0.63244000  0.80631000  1.0
  H  H18  1  0.57811000  0.78154000  0.37441000  1.0
  H  H19  1  0.21846000  0.42189000  0.12559000  1.0
  H  H20  1  0.42189000  0.21846000  0.62559000  1.0
  H  H21  1  0.78153000  0.57811000  0.87441000  1.0
  H  H22  1  0.22872000  0.70927000  0.62924000  1.0
  H  H23  1  0.29074000  0.77128000  0.87076000  1.0
  H  H24  1  0.77128000  0.29074000  0.37076000  1.0
  H  H25  1  0.70927000  0.22873000  0.12924000  1.0
  H  H26  1  0.24799000  0.61405000  0.71453000  1.0
  H  H27  1  0.38595000  0.75201000  0.78547000  1.0
  H  H28  1  0.75201000  0.38595000  0.28547000  1.0
  H  H29  1  0.61405000  0.24800000  0.21453000  1.0
  H  H30  1  0.63408000  0.61368000  0.69049000  1.0
  H  H31  1  0.38632000  0.36592000  0.80951000  1.0
  H  H32  1  0.36592000  0.38633000  0.30951000  1.0
  H  H33  1  0.61367000  0.63409000  0.19049000  1.0
  H  H34  1  0.61389000  0.70735000  0.60397000  1.0
  H  H35  1  0.29266000  0.38611000  0.89603000  1.0
  H  H36  1  0.38611000  0.29267000  0.39603000  1.0
  H  H37  1  0.70734000  0.61389000  0.10397000  1.0
  H  H38  1  0.67924000  0.32318000  0.58470000  1.0
  H  H39  1  0.67682000  0.32075000  0.91530000  1.0
  H  H40  1  0.32076000  0.67682000  0.41530000  1.0
  H  H41  1  0.32318000  0.67924000  0.08470000  1.0
  H  H42  1  0.71883000  0.52436000  0.63675000  1.0
  H  H43  1  0.47564000  0.28116000  0.86325000  1.0
  H  H44  1  0.28117000  0.47564000  0.36326000  1.0
  H  H45  1  0.52436000  0.71883000  0.13675000  1.0
  H  H46  1  0.93202000  0.65779000  0.63631000  1.0
  H  H47  1  0.34221000  0.06798000  0.86369000  1.0
  H  H48  1  0.06798000  0.34220000  0.36370000  1.0
  H  H49  1  0.65779000  0.93202000  0.13631000  1.0
  H  H50  1  0.09486000  0.58295000  0.58467000  1.0
  H  H51  1  0.41704000  0.90514000  0.91533000  1.0
  H  H52  1  0.90515000  0.41703000  0.41533000  1.0
  H  H53  1  0.58296000  0.09486000  0.08468000  1.0
  H  H54  1  0.22791000  0.49475000  0.55374000  1.0
  H  H55  1  0.50525000  0.77209000  0.94626000  1.0
  H  H56  1  0.77209000  0.50524000  0.44626000  1.0
  H  H57  1  0.49476000  0.22790000  0.05373000  1.0
  H  H58  1  0.37284000  0.38343000  0.50623000  1.0
  H  H59  1  0.61658000  0.62716000  0.99378000  1.0
  H  H60  1  0.62715000  0.61657000  0.49377000  1.0
  H  H61  1  0.38343000  0.37283000  0.00622000  1.0
  H  H62  1  0.28789000  0.18463000  0.45739000  1.0
  H  H63  1  0.81538000  0.71212000  0.04261000  1.0
  H  H64  1  0.71211000  0.81537000  0.54261000  1.0
  H  H65  1  0.18463000  0.28788000  0.95739000  1.0
  H  H66  1  0.05742000  0.10629000  0.45558000  1.0
  H  H67  1  0.89371000  0.94259000  0.04442000  1.0
  H  H68  1  0.94257000  0.89371000  0.54441000  1.0
  H  H69  1  0.10628000  0.05742000  0.95558000  1.0
  H  H70  1  0.87227000  0.83188000  0.24030000  1.0
  H  H71  1  0.16812000  0.12772000  0.25970000  1.0
  H  H72  1  0.12773000  0.16812000  0.75970000  1.0
  H  H73  1  0.83188000  0.87227000  0.74030000  1.0
  H  H74  1  0.95448000  0.87760000  0.15305000  1.0
  H  H75  1  0.12240000  0.04552000  0.34695000  1.0
  H  H76  1  0.04551000  0.12240000  0.84695000  1.0
  H  H77  1  0.87759000  0.95448000  0.65305000  1.0
  H  H78  1  0.02798000  0.50608000  0.13528000  1.0
  H  H79  1  0.49393000  0.97202000  0.36472000  1.0
  H  H80  1  0.97202000  0.49392000  0.86472000  1.0
  H  H81  1  0.50607000  0.02799000  0.63528000  1.0
  H  H82  1  0.94915000  0.45999000  0.22364000  1.0
  H  H83  1  0.54002000  0.05085000  0.27636000  1.0
  H  H84  1  0.05086000  0.54002000  0.77636000  1.0
  H  H85  1  0.45998000  0.94915000  0.72364000  1.0
  C  C86  1  0.73838000  0.95492000  0.43256000  1.0
  C  C87  1  0.04508000  0.26162000  0.06744000  1.0
  C  C88  1  0.26162000  0.04507000  0.56744000  1.0
  C  C89  1  0.95492000  0.73838000  0.93256000  1.0
  C  C90  1  0.76861000  0.86626000  0.39157000  1.0
  C  C91  1  0.13374000  0.23139000  0.10843000  1.0
  C  C92  1  0.23139000  0.13374000  0.60843000  1.0
  C  C93  1  0.86626000  0.76861000  0.89157000  1.0
  C  C94  1  0.89301000  0.86582000  0.38044000  1.0
  C  C95  1  0.13418000  0.10699000  0.11956000  1.0
  C  C96  1  0.10699000  0.13418000  0.61956000  1.0
  C  C97  1  0.86582000  0.89301000  0.88044000  1.0
  C  C98  1  0.92409000  0.78150000  0.34401000  1.0
  C  C99  1  0.21850000  0.07591000  0.15599000  1.0
  C  C100  1  0.07591000  0.21850000  0.65599000  1.0
  C  C101  1  0.78150000  0.92409000  0.84401000  1.0
  C  C102  1  0.70442000  0.69829000  0.32771000  1.0
  C  C103  1  0.30170000  0.29558000  0.17229000  1.0
  C  C104  1  0.29559000  0.30171000  0.67229000  1.0
  C  C105  1  0.69829000  0.70442000  0.82771000  1.0
  C  C106  1  0.67460000  0.78156000  0.36510000  1.0
  C  C107  1  0.21844000  0.32540000  0.13490000  1.0
  C  C108  1  0.32540000  0.21844000  0.63490000  1.0
  C  C109  1  0.78156000  0.67460000  0.86510000  1.0
  C  C110  1  0.40052000  0.76264000  0.55881000  1.0
  C  C111  1  0.23737000  0.59948000  0.94119000  1.0
  C  C112  1  0.59948000  0.23736000  0.44119000  1.0
  C  C113  1  0.76264000  0.40053000  0.05881000  1.0
  C  C114  1  0.41839000  0.71012000  0.61042000  1.0
  C  C115  1  0.28988000  0.58161000  0.88958000  1.0
  C  C116  1  0.58161000  0.28988000  0.38958000  1.0
  C  C117  1  0.71012000  0.41840000  0.11042000  1.0
  C  C118  1  0.31705000  0.68633000  0.64254000  1.0
  C  C119  1  0.31367000  0.68295000  0.85746000  1.0
  C  C120  1  0.68295000  0.31367000  0.35746000  1.0
  C  C121  1  0.68633000  0.31706000  0.14254000  1.0
  C  C122  1  0.32779000  0.63537000  0.69045000  1.0
  C  C123  1  0.36463000  0.67220000  0.80955000  1.0
  C  C124  1  0.67220000  0.36464000  0.30955000  1.0
  C  C125  1  0.63536000  0.32780000  0.19045000  1.0
  C  C126  1  0.44229000  0.60654000  0.70615000  1.0
  C  C127  1  0.39346000  0.55771000  0.79385000  1.0
  C  C128  1  0.55771000  0.39346000  0.29385000  1.0
  C  C129  1  0.60654000  0.44229000  0.20615000  1.0
  C  C130  1  0.54552000  0.63317000  0.67559000  1.0
  C  C131  1  0.36683000  0.45447000  0.82441000  1.0
  C  C132  1  0.45447000  0.36684000  0.32442000  1.0
  C  C133  1  0.63316000  0.54553000  0.17559000  1.0
  C  C134  1  0.53364000  0.68516000  0.62790000  1.0
  C  C135  1  0.31485000  0.46636000  0.87210000  1.0
  C  C136  1  0.46637000  0.31485000  0.37210000  1.0
  C  C137  1  0.68516000  0.53364000  0.12790000  1.0
  C  C138  1  0.77051000  0.38325000  0.58678000  1.0
  C  C139  1  0.61675000  0.22950000  0.91322000  1.0
  C  C140  1  0.22949000  0.61675000  0.41322000  1.0
  C  C141  1  0.38325000  0.77050000  0.08678000  1.0
  C  C142  1  0.79327000  0.49531000  0.61541000  1.0
  C  C143  1  0.50468000  0.20672000  0.88459000  1.0
  C  C144  1  0.20673000  0.50468000  0.38460000  1.0
  C  C145  1  0.49532000  0.79327000  0.11540000  1.0
  C  C146  1  0.91152000  0.56835000  0.61509000  1.0
  C  C147  1  0.43165000  0.08848000  0.88492000  1.0
  C  C148  1  0.08848000  0.43164000  0.38492000  1.0
  C  C149  1  0.56835000  0.91151000  0.11508000  1.0
  C  C150  1  0.00278000  0.52654000  0.58671000  1.0
  C  C151  1  0.47345000  0.99722000  0.91329000  1.0
  C  C152  1  0.99722000  0.47345000  0.41329000  1.0
  C  C153  1  0.52655000  0.00278000  0.08671000  1.0
  C  C154  1  0.97396000  0.41116000  0.55997000  1.0
  C  C155  1  0.58884000  0.02604000  0.94003000  1.0
  C  C156  1  0.02604000  0.58883000  0.44003000  1.0
  C  C157  1  0.41116000  0.97396000  0.05997000  1.0
  C  C158  1  0.06593000  0.35674000  0.53045000  1.0
  C  C159  1  0.64326000  0.93408000  0.96955000  1.0
  C  C160  1  0.93407000  0.64325000  0.46955000  1.0
  C  C161  1  0.35674000  0.06592000  0.03045000  1.0
  C  C162  1  0.19253000  0.40851000  0.53179000  1.0
  C  C163  1  0.59149000  0.80747000  0.96821000  1.0
  C  C164  1  0.80747000  0.59148000  0.46821000  1.0
  C  C165  1  0.40851000  0.19253000  0.03179000  1.0
  C  C166  1  0.27332000  0.34698000  0.50494000  1.0
  C  C167  1  0.65302000  0.72669000  0.99506000  1.0
  C  C168  1  0.72668000  0.65301000  0.49506000  1.0
  C  C169  1  0.34699000  0.27331000  0.00494000  1.0
  C  C170  1  0.22619000  0.23659000  0.47721000  1.0
  C  C171  1  0.76341000  0.77381000  0.02279000  1.0
  C  C172  1  0.77380000  0.76340000  0.52279000  1.0
  C  C173  1  0.23659000  0.22619000  0.97721000  1.0
  C  C174  1  0.09868000  0.19219000  0.47668000  1.0
  C  C175  1  0.80781000  0.90133000  0.02332000  1.0
  C  C176  1  0.90132000  0.80780000  0.52332000  1.0
  C  C177  1  0.19219000  0.09867000  0.97668000  1.0
  C  C178  1  0.82913000  0.69842000  0.31786000  1.0
  C  C179  1  0.30157000  0.17086000  0.18214000  1.0
  C  C180  1  0.17087000  0.30158000  0.68214000  1.0
  C  C181  1  0.69842000  0.82913000  0.81786000  1.0
  C  C182  1  0.90654000  0.64301000  0.23679000  1.0
  C  C183  1  0.35700000  0.09346000  0.26321000  1.0
  C  C184  1  0.09347000  0.35699000  0.76321000  1.0
  C  C185  1  0.64300000  0.90654000  0.73679000  1.0
  C  C186  1  0.90713000  0.76112000  0.21741000  1.0
  C  C187  1  0.23888000  0.09287000  0.28260000  1.0
  C  C188  1  0.09287000  0.23888000  0.78260000  1.0
  C  C189  1  0.76111000  0.90713000  0.71740000  1.0
  C  C190  1  0.95260000  0.78609000  0.16871000  1.0
  C  C191  1  0.21391000  0.04740000  0.33129000  1.0
  C  C192  1  0.04740000  0.21391000  0.83129000  1.0
  C  C193  1  0.78608000  0.95260000  0.66871000  1.0
  C  C194  1  0.99667000  0.69495000  0.13885000  1.0
  C  C195  1  0.30505000  0.00333000  0.36115000  1.0
  C  C196  1  0.00333000  0.30504000  0.86115000  1.0
  C  C197  1  0.69495000  0.99668000  0.63885000  1.0
  C  C198  1  0.99518000  0.57704000  0.15890000  1.0
  C  C199  1  0.42296000  0.00483000  0.34110000  1.0
  C  C200  1  0.00483000  0.42296000  0.84110000  1.0
  C  C201  1  0.57704000  0.99518000  0.65891000  1.0
  C  C202  1  0.95144000  0.55131000  0.20772000  1.0
  C  C203  1  0.44869000  0.04856000  0.29228000  1.0
  C  C204  1  0.04857000  0.44869000  0.79228000  1.0
  C  C205  1  0.55131000  0.95144000  0.70772000  1.0
  C  C206  1  0.04707000  0.72586000  0.08763000  1.0
  C  C207  1  0.27415000  0.95293000  0.41237000  1.0
  C  C208  1  0.95293000  0.27415000  0.91237000  1.0
  C  C209  1  0.72585000  0.04707000  0.58763000  1.0
  N  N210  1  0.85879000  0.34180000  0.56014000  1.0
  N  N211  1  0.65820000  0.14121000  0.93985000  1.0
  N  N212  1  0.14120000  0.65820000  0.43986000  1.0
  N  N213  1  0.34180000  0.85879000  0.06014000  1.0
  N  N214  1  0.02029000  0.25074000  0.50254000  1.0
  N  N215  1  0.74926000  0.97972000  0.99746000  1.0
  N  N216  1  0.97971000  0.74925000  0.49746000  1.0
  N  N217  1  0.25074000  0.02028000  0.00254000  1.0
  O  O218  1  0.82944000  0.03554000  0.45136000  1.0
  O  O219  1  0.96446000  0.17056000  0.04864000  1.0
  O  O220  1  0.17056000  0.96446000  0.54864000  1.0
  O  O221  1  0.03554000  0.82944000  0.95136000  1.0
  O  O222  1  0.28951000  0.73768000  0.53912000  1.0
  O  O223  1  0.26233000  0.71049000  0.96088000  1.0
  O  O224  1  0.71049000  0.26233000  0.46088000  1.0
  O  O225  1  0.73767000  0.28952000  0.03912000  1.0
  O  O226  1  0.62655000  0.94367000  0.44583000  1.0
  O  O227  1  0.05632000  0.37345000  0.05417000  1.0
  O  O228  1  0.37346000  0.05632000  0.55417000  1.0
  O  O229  1  0.94367000  0.62654000  0.94583000  1.0
  O  O230  1  0.49331000  0.82661000  0.53829000  1.0
  O  O231  1  0.17340000  0.50669000  0.96172000  1.0
  O  O232  1  0.50668000  0.17340000  0.46171000  1.0
  O  O233  1  0.82660000  0.49332000  0.03828000  1.0
  O  O234  1  0.45834000  0.54166000  0.75000000  1.0
  O  O235  1  0.54166000  0.45835000  0.25000000  1.0
  O  O236  1  0.85822000  0.60806000  0.28344000  1.0
  O  O237  1  0.39194000  0.14178000  0.21656000  1.0
  O  O238  1  0.14178000  0.39194000  0.71656000  1.0
  O  O239  1  0.60805000  0.85822000  0.78344000  1.0
  O  O240  1  0.08683000  0.64384000  0.05908000  1.0
  O  O241  1  0.35617000  0.91317000  0.44092000  1.0
  O  O242  1  0.91317000  0.35616000  0.94092000  1.0
  O  O243  1  0.64383000  0.08683000  0.55908000  1.0
  O  O244  1  0.05536000  0.83728000  0.07300000  1.0
  O  O245  1  0.16272000  0.94464000  0.42700000  1.0
  O  O246  1  0.94463000  0.16272000  0.92700000  1.0
  O  O247  1  0.83728000  0.05536000  0.57300000  1.0
