# generated using pymatgen
data_AlH21C45(ClO)6
_symmetry_space_group_name_H-M   'P 1'
_cell_length_a   3.95660000
_cell_length_b   23.53770000
_cell_length_c   23.57694027
_cell_angle_alpha   119.92175418
_cell_angle_beta   90.44897490
_cell_angle_gamma   92.30840000
_symmetry_Int_Tables_number   1
_chemical_formula_structural   AlH21C45(ClO)6
_chemical_formula_sum   'Al1 H21 C45 Cl6 O6'
_cell_volume   1900.49884111
_cell_formula_units_Z   1
loop_
 _symmetry_equiv_pos_site_id
 _symmetry_equiv_pos_as_xyz
  1  'x, y, z'
loop_
 _atom_site_type_symbol
 _atom_site_label
 _atom_site_symmetry_multiplicity
 _atom_site_fract_x
 _atom_site_fract_y
 _atom_site_fract_z
 _atom_site_occupancy
  Al  Al0  1  0.99898000  0.99979000  0.50014000  1.0
  H  H1  1  0.55228000  0.99977000  0.32422000  1.0
  H  H2  1  0.55373000  0.05370000  0.25731000  1.0
  H  H3  1  0.19092000  0.17655000  0.15993000  1.0
  H  H4  1  0.44675000  0.06581000  0.80755000  1.0
  H  H5  1  0.74967000  0.12630000  0.89383000  1.0
  H  H6  1  0.75157000  0.18130000  0.01311000  1.0
  H  H7  1  0.49391000  0.21169000  0.10445000  1.0
  H  H8  1  0.52529000  0.17552000  0.67523000  1.0
  H  H9  1  0.52790000  0.24299000  0.79551000  1.0
  H  H10  1  0.20450000  0.33724000  0.01567000  1.0
  H  H11  1  0.35838000  0.69160000  0.25888000  1.0
  H  H12  1  0.70464000  0.61173000  0.23400000  1.0
  H  H13  1  0.72525000  0.49206000  0.16974000  1.0
  H  H14  1  0.46123000  0.39554000  0.10738000  1.0
  H  H15  1  0.50526000  0.82326000  0.50030000  1.0
  H  H16  1  0.50134000  0.70230000  0.44576000  1.0
  H  H17  1  0.16370000  0.47697000  0.31801000  1.0
  H  H18  1  0.42751000  0.23981000  0.43215000  1.0
  H  H19  1  0.77675000  0.26864000  0.37568000  1.0
  H  H20  1  0.77915000  0.33337000  0.32012000  1.0
  H  H21  1  0.46966000  0.39205000  0.28791000  1.0
  C  C22  1  0.50865000  0.05282000  0.45256000  1.0
  C  C23  1  0.47228000  0.89906000  0.44724000  1.0
  C  C24  1  0.51295000  0.04698000  0.60054000  1.0
  C  C25  1  0.52966000  0.05272000  0.34740000  1.0
  C  C26  1  0.52552000  0.08303000  0.30980000  1.0
  C  C27  1  0.32606000  0.16089000  0.23871000  1.0
  C  C28  1  0.32669000  0.19737000  0.20693000  1.0
  C  C29  1  0.49783000  0.05352000  0.71204000  1.0
  C  C30  1  0.47525000  0.09128000  0.77984000  1.0
  C  C31  1  0.62025000  0.17196000  0.92049000  1.0
  C  C32  1  0.62240000  0.20324000  0.98833000  1.0
  C  C33  1  0.50921000  0.08905000  0.41560000  1.0
  C  C34  1  0.48838000  0.15098000  0.33910000  1.0
  C  C35  1  0.48187000  0.18564000  0.30125000  1.0
  C  C36  1  0.48444000  0.26029000  0.23527000  1.0
  C  C37  1  0.48214000  0.29765000  0.20017000  1.0
  C  C38  1  0.48538000  0.26500000  0.13159000  1.0
  C  C39  1  0.51473000  0.15211000  0.70516000  1.0
  C  C40  1  0.50966000  0.18995000  0.77285000  1.0
  C  C41  1  0.33075000  0.25961000  0.92189000  1.0
  C  C42  1  0.33132000  0.29126000  0.99001000  1.0
  C  C43  1  0.41999000  0.78780000  0.34265000  1.0
  C  C44  1  0.39914000  0.71949000  0.31183000  1.0
  C  C45  1  0.57699000  0.58187000  0.25166000  1.0
  C  C46  1  0.58881000  0.51409000  0.21523000  1.0
  C  C47  1  0.51166000  0.08349000  0.67348000  1.0
  C  C48  1  0.48325000  0.16025000  0.81180000  1.0
  C  C49  1  0.47376000  0.19809000  0.88416000  1.0
  C  C50  1  0.47706000  0.26422000  0.02494000  1.0
  C  C51  1  0.47761000  0.29939000  0.09728000  1.0
  C  C52  1  0.46716000  0.36799000  0.13323000  1.0
  C  C53  1  0.47710000  0.79364000  0.44714000  1.0
  C  C54  1  0.46980000  0.72561000  0.41641000  1.0
  C  C55  1  0.27759000  0.57381000  0.33521000  1.0
  C  C56  1  0.28861000  0.50573000  0.29896000  1.0
  C  C57  1  0.48077000  0.15702000  0.44534000  1.0
  C  C58  1  0.46469000  0.18731000  0.40753000  1.0
  C  C59  1  0.64065000  0.24898000  0.32870000  1.0
  C  C60  1  0.64258000  0.28562000  0.29732000  1.0
  C  C61  1  0.45555000  0.82584000  0.41094000  1.0
  C  C62  1  0.42635000  0.68709000  0.34802000  1.0
  C  C63  1  0.42207000  0.61454000  0.31278000  1.0
  C  C64  1  0.44564000  0.47435000  0.23856000  1.0
  C  C65  1  0.46230000  0.40212000  0.20177000  1.0
  C  C66  1  0.47206000  0.36622000  0.23458000  1.0
  Cl  Cl67  1  0.38417000  0.82452000  0.29512000  1.0
  Cl  Cl68  1  0.44547000  0.20440000  0.52930000  1.0
  Cl  Cl69  1  0.48879000  0.96897000  0.67664000  1.0
  Cl  Cl70  1  0.06849000  0.60467000  0.40856000  1.0
  Cl  Cl71  1  0.11127000  0.08453000  0.19717000  1.0
  Cl  Cl72  1  0.13316000  0.30062000  0.88763000  1.0
  O  O73  1  0.74164000  0.00661000  0.57191000  1.0
  O  O74  1  0.75151000  0.06464000  0.49318000  1.0
  O  O75  1  0.71510000  0.92860000  0.43575000  1.0
  O  O76  1  0.28398000  0.06118000  0.57195000  1.0
  O  O77  1  0.24586000  0.92675000  0.48914000  1.0
  O  O78  1  0.26450000  0.01052000  0.43853000  1.0
