# generated using pymatgen
data_Cu4H20WC22(S2N3)2
_symmetry_space_group_name_H-M   'P 1'
_cell_length_a   12.06860000
_cell_length_b   12.08679988
_cell_length_c   12.30700000
_cell_angle_alpha   96.24373858
_cell_angle_beta   111.98160000
_cell_angle_gamma   119.94362636
_symmetry_Int_Tables_number   1
_chemical_formula_structural   Cu4H20WC22(S2N3)2
_chemical_formula_sum   'Cu8 H40 W2 C44 S8 N12'
_cell_volume   1341.35907999
_cell_formula_units_Z   2
loop_
 _symmetry_equiv_pos_site_id
 _symmetry_equiv_pos_as_xyz
  1  'x, y, z'
loop_
 _atom_site_type_symbol
 _atom_site_label
 _atom_site_symmetry_multiplicity
 _atom_site_fract_x
 _atom_site_fract_y
 _atom_site_fract_z
 _atom_site_occupancy
  Cu  Cu0  1  0.23546000  0.48608000  0.74893000  1.0
  Cu  Cu1  1  0.76453000  0.51391000  0.25106000  1.0
  Cu  Cu2  1  0.68466000  0.93617000  0.74904000  1.0
  Cu  Cu3  1  0.31534000  0.06383000  0.25096000  1.0
  Cu  Cu4  1  0.64909000  0.65040000  0.87783000  1.0
  Cu  Cu5  1  0.27197000  0.77256000  0.62130000  1.0
  Cu  Cu6  1  0.35091000  0.34960000  0.12217000  1.0
  Cu  Cu7  1  0.72802000  0.22744000  0.37870000  1.0
  H  H8  1  0.69371000  0.11932000  0.94064000  1.0
  H  H9  1  0.68012000  0.75564000  0.55959000  1.0
  H  H10  1  0.30629000  0.88068000  0.05936000  1.0
  H  H11  1  0.31988000  0.24435000  0.44041000  1.0
  H  H12  1  0.77625000  0.36246000  0.01230000  1.0
  H  H13  1  0.85322000  0.76567000  0.48873000  1.0
  H  H14  1  0.22375000  0.63754000  0.98770000  1.0
  H  H15  1  0.14678000  0.23432000  0.51127000  1.0
  H  H16  1  0.88066000  0.51340000  0.90174000  1.0
  H  H17  1  0.11315000  0.97792000  0.59875000  1.0
  H  H18  1  0.11934000  0.48660000  0.09826000  1.0
  H  H19  1  0.88685000  0.02207000  0.40125000  1.0
  H  H20  1  0.90172000  0.41314000  0.72495000  1.0
  H  H21  1  0.18713000  0.17421000  0.77413000  1.0
  H  H22  1  0.09829000  0.58687000  0.27504000  1.0
  H  H23  1  0.81287000  0.82578000  0.22587000  1.0
  H  H24  1  0.81504000  0.17108000  0.66602000  1.0
  H  H25  1  0.00235000  0.14745000  0.83216000  1.0
  H  H26  1  0.18498000  0.82893000  0.33399000  1.0
  H  H27  1  0.99765000  0.85254000  0.16784000  1.0
  H  H28  1  0.60735000  0.49045000  0.63639000  1.0
  H  H29  1  0.35275000  0.97021000  0.86349000  1.0
  H  H30  1  0.39265000  0.50955000  0.36361000  1.0
  H  H31  1  0.64724000  0.02978000  0.13650000  1.0
  H  H32  1  0.77023000  0.49150000  0.55593000  1.0
  H  H33  1  0.43589000  0.21248000  0.94465000  1.0
  H  H34  1  0.22978000  0.50851000  0.44407000  1.0
  H  H35  1  0.56410000  0.78752000  0.05534000  1.0
  H  H36  1  0.04054000  0.68152000  0.67846000  1.0
  H  H37  1  0.50511000  0.36170000  0.82153000  1.0
  H  H38  1  0.95947000  0.31849000  0.32155000  1.0
  H  H39  1  0.49489000  0.63830000  0.17847000  1.0
  H  H40  1  0.13602000  0.86590000  0.87666000  1.0
  H  H41  1  0.49115000  0.26051000  0.62170000  1.0
  H  H42  1  0.86400000  0.13412000  0.12335000  1.0
  H  H43  1  0.50885000  0.73949000  0.37830000  1.0
  H  H44  1  0.95935000  0.84677000  0.94519000  1.0
  H  H45  1  0.40236000  0.01647000  0.55270000  1.0
  H  H46  1  0.04066000  0.15324000  0.05481000  1.0
  H  H47  1  0.59764000  0.98353000  0.44730000  1.0
  W  W48  1  0.46534000  0.71587000  0.74953000  1.0
  W  W49  1  0.53465000  0.28413000  0.25047000  1.0
  C  C50  1  0.91988000  0.31493000  0.51654000  1.0
  C  C51  1  0.29892000  0.40293000  0.98313000  1.0
  C  C52  1  0.08009000  0.68505000  0.48346000  1.0
  C  C53  1  0.70108000  0.59707000  0.01687000  1.0
  C  C54  1  0.74162000  0.18898000  0.89639000  1.0
  C  C55  1  0.79343000  0.84670000  0.60340000  1.0
  C  C56  1  0.25839000  0.81103000  0.10361000  1.0
  C  C57  1  0.20657000  0.15330000  0.39660000  1.0
  C  C58  1  0.78724000  0.32400000  0.93548000  1.0
  C  C59  1  0.89021000  0.85271000  0.56488000  1.0
  C  C60  1  0.21276000  0.67600000  0.06452000  1.0
  C  C61  1  0.10978000  0.14728000  0.43512000  1.0
  C  C62  1  0.84512000  0.40753000  0.87363000  1.0
  C  C63  1  0.03480000  0.97100000  0.62644000  1.0
  C  C64  1  0.15489000  0.59248000  0.12637000  1.0
  C  C65  1  0.96520000  0.02899000  0.37355000  1.0
  C  C66  1  0.85621000  0.35280000  0.77576000  1.0
  C  C67  1  0.07653000  0.07911000  0.72357000  1.0
  C  C68  1  0.14380000  0.64721000  0.22425000  1.0
  C  C69  1  0.92348000  0.92089000  0.27643000  1.0
  C  C70  1  0.80789000  0.21667000  0.74234000  1.0
  C  C71  1  0.97296000  0.06480000  0.75641000  1.0
  C  C72  1  0.19212000  0.78334000  0.25766000  1.0
  C  C73  1  0.02704000  0.93519000  0.24359000  1.0
  C  C74  1  0.72609000  0.57035000  0.68754000  1.0
  C  C75  1  0.38217000  0.03810000  0.81191000  1.0
  C  C76  1  0.27392000  0.42966000  0.31247000  1.0
  C  C77  1  0.61783000  0.96190000  0.18809000  1.0
  C  C78  1  0.81696000  0.57170000  0.64311000  1.0
  C  C79  1  0.42895000  0.17302000  0.85679000  1.0
  C  C80  1  0.18304000  0.42830000  0.35689000  1.0
  C  C81  1  0.57104000  0.82698000  0.14322000  1.0
  C  C82  1  0.96716000  0.67748000  0.71174000  1.0
  C  C83  1  0.46703000  0.25535000  0.78785000  1.0
  C  C84  1  0.03284000  0.32253000  0.28827000  1.0
  C  C85  1  0.53297000  0.74465000  0.21215000  1.0
  C  C86  1  0.02046000  0.77888000  0.82160000  1.0
  C  C87  1  0.45856000  0.19971000  0.67723000  1.0
  C  C88  1  0.97955000  0.22113000  0.17841000  1.0
  C  C89  1  0.54144000  0.80029000  0.32277000  1.0
  C  C90  1  0.92247000  0.76967000  0.85991000  1.0
  C  C91  1  0.41022000  0.06375000  0.63858000  1.0
  C  C92  1  0.07754000  0.23034000  0.14010000  1.0
  C  C93  1  0.58978000  0.93625000  0.36142000  1.0
  S  S94  1  0.41422000  0.50609000  0.70340000  1.0
  S  S95  1  0.30076000  0.70964000  0.79624000  1.0
  S  S96  1  0.58578000  0.49391000  0.29660000  1.0
  S  S97  1  0.69923000  0.29035000  0.20377000  1.0
  S  S98  1  0.69403000  0.86585000  0.91590000  1.0
  S  S99  1  0.44992000  0.77990000  0.58244000  1.0
  S  S100  1  0.30597000  0.13415000  0.08410000  1.0
  S  S101  1  0.55008000  0.22010000  0.41757000  1.0
  N  N102  1  0.03970000  0.36973000  0.60141000  1.0
  N  N103  1  0.26660000  0.43704000  0.89738000  1.0
  N  N104  1  0.96029000  0.63026000  0.39859000  1.0
  N  N105  1  0.73339000  0.56295000  0.10261000  1.0
  N  N106  1  0.75140000  0.13509000  0.80138000  1.0
  N  N107  1  0.83303000  0.95074000  0.69750000  1.0
  N  N108  1  0.24861000  0.86491000  0.19863000  1.0
  N  N109  1  0.16697000  0.04925000  0.30249000  1.0
  N  N110  1  0.77741000  0.66658000  0.79468000  1.0
  N  N111  1  0.37126000  0.98314000  0.70401000  1.0
  N  N112  1  0.22259000  0.33343000  0.20533000  1.0
  N  N113  1  0.62874000  0.01686000  0.29599000  1.0
