# generated using pymatgen
data_ZnH16C23NO4
_symmetry_space_group_name_H-M   'P 1'
_cell_length_a   13.97410000
_cell_length_b   17.84730000
_cell_length_c   17.84730000
_cell_angle_alpha   104.81400000
_cell_angle_beta   92.08010000
_cell_angle_gamma   92.08010000
_symmetry_Int_Tables_number   1
_chemical_formula_structural   ZnH16C23NO4
_chemical_formula_sum   'Zn6 H96 C138 N6 O24'
_cell_volume   4295.54155704
_cell_formula_units_Z   6
loop_
 _symmetry_equiv_pos_site_id
 _symmetry_equiv_pos_as_xyz
  1  'x, y, z'
loop_
 _atom_site_type_symbol
 _atom_site_label
 _atom_site_symmetry_multiplicity
 _atom_site_fract_x
 _atom_site_fract_y
 _atom_site_fract_z
 _atom_site_occupancy
  Zn  Zn0  1  0.10140000  0.92033000  0.08859000  1.0
  Zn  Zn1  1  0.89860000  0.91140000  0.07967000  1.0
  Zn  Zn2  1  0.41599000  0.45742000  0.28965000  1.0
  Zn  Zn3  1  0.58401000  0.71034000  0.54258000  1.0
  Zn  Zn4  1  0.21162000  0.44651000  0.27713000  1.0
  Zn  Zn5  1  0.78838000  0.72287000  0.55349000  1.0
  H  H6  1  0.84690000  0.89712000  0.31661000  1.0
  H  H7  1  0.15310000  0.68339000  0.10287000  1.0
  H  H8  1  0.14878000  0.95595000  0.33397000  1.0
  H  H9  1  0.85122000  0.66603000  0.04405000  1.0
  H  H10  1  0.24268000  0.96448000  0.44875000  1.0
  H  H11  1  0.75732000  0.55125000  0.03552000  1.0
  H  H12  1  0.20053000  0.90734000  0.51064000  1.0
  H  H13  1  0.79947000  0.48936000  0.09266000  1.0
  H  H14  1  0.18169000  0.00764000  0.53417000  1.0
  H  H15  1  0.81831000  0.46583000  0.99236000  1.0
  H  H16  1  0.85332000  0.89099000  0.45541000  1.0
  H  H17  1  0.14668000  0.54458000  0.10900000  1.0
  H  H18  1  0.85006000  0.89507000  0.69099000  1.0
  H  H19  1  0.14994000  0.30901000  0.10493000  1.0
  H  H20  1  0.24265000  0.94854000  0.75714000  1.0
  H  H21  1  0.75735000  0.24287000  0.05146000  1.0
  H  H22  1  0.18257000  0.99879000  0.69631000  1.0
  H  H23  1  0.81742000  0.30370000  0.00121000  1.0
  H  H24  1  0.19820000  0.89894000  0.66144000  1.0
  H  H25  1  0.80180000  0.33856000  0.10106000  1.0
  H  H26  1  0.14751000  0.92709000  0.85955000  1.0
  H  H27  1  0.85249000  0.14045000  0.07290000  1.0
  H  H28  1  0.84218000  0.88976000  0.82955000  1.0
  H  H29  1  0.15782000  0.17045000  0.11024000  1.0
  H  H30  1  0.25033000  0.81464000  0.11354000  1.0
  H  H31  1  0.74967000  0.88646000  0.18536000  1.0
  H  H32  1  0.25628000  0.02635000  0.05941000  1.0
  H  H33  1  0.74372000  0.94059000  0.97364000  1.0
  H  H34  1  0.43587000  0.02917000  0.05266000  1.0
  H  H35  1  0.56413000  0.94733000  0.97083000  1.0
  H  H36  1  0.42952000  0.80962000  0.11375000  1.0
  H  H37  1  0.57047000  0.88624000  0.19038000  1.0
  H  H38  1  0.46556000  0.22472000  0.28313000  1.0
  H  H39  1  0.53444000  0.71688000  0.77529000  1.0
  H  H40  1  0.15915000  0.19654000  0.25682000  1.0
  H  H41  1  0.84085000  0.74318000  0.80346000  1.0
  H  H42  1  0.16837000  0.05791000  0.26187000  1.0
  H  H43  1  0.83163000  0.73813000  0.94209000  1.0
  H  H44  1  0.51110000  0.06201000  0.34931000  1.0
  H  H45  1  0.48890000  0.65069000  0.93800000  1.0
  H  H46  1  0.56302000  0.12065000  0.29296000  1.0
  H  H47  1  0.43699000  0.70705000  0.87935000  1.0
  H  H48  1  0.51435000  0.02543000  0.24805000  1.0
  H  H49  1  0.48565000  0.75195000  0.97458000  1.0
  H  H50  1  0.52249000  0.88322000  0.31530000  1.0
  H  H51  1  0.47751000  0.68470000  0.11678000  1.0
  H  H52  1  0.53776000  0.83246000  0.38870000  1.0
  H  H53  1  0.46224000  0.61130000  0.16754000  1.0
  H  H54  1  0.46885000  0.91683000  0.40447000  1.0
  H  H55  1  0.53114000  0.59553000  0.08318000  1.0
  H  H56  1  0.17523000  0.82038000  0.24488000  1.0
  H  H57  1  0.82477000  0.75512000  0.17962000  1.0
  H  H58  1  0.16879000  0.68101000  0.24840000  1.0
  H  H59  1  0.83121000  0.75160000  0.31900000  1.0
  H  H60  1  0.45344000  0.71198000  0.35522000  1.0
  H  H61  1  0.54656000  0.64478000  0.28802000  1.0
  H  H62  1  0.47876000  0.45704000  0.05509000  1.0
  H  H63  1  0.52124000  0.94491000  0.54296000  1.0
  H  H64  1  0.17381000  0.41369000  0.02832000  1.0
  H  H65  1  0.82619000  0.97168000  0.58630000  1.0
  H  H66  1  0.17825000  0.42002000  0.89048000  1.0
  H  H67  1  0.82175000  0.10952000  0.57997000  1.0
  H  H68  1  0.57061000  0.48072000  0.95278000  1.0
  H  H69  1  0.42939000  0.04722000  0.51929000  1.0
  H  H70  1  0.50925000  0.51893000  0.88239000  1.0
  H  H71  1  0.49076000  0.11761000  0.48107000  1.0
  H  H72  1  0.52998000  0.41929000  0.86108000  1.0
  H  H73  1  0.47003000  0.13892000  0.58072000  1.0
  H  H74  1  0.18690000  0.39918000  0.64590000  1.0
  H  H75  1  0.81310000  0.35410000  0.60082000  1.0
  H  H76  1  0.53452000  0.49287000  0.70472000  1.0
  H  H77  1  0.46548000  0.29528000  0.50713000  1.0
  H  H78  1  0.46413000  0.56821000  0.75438000  1.0
  H  H79  1  0.53587000  0.24562000  0.43180000  1.0
  H  H80  1  0.52571000  0.57791000  0.67101000  1.0
  H  H81  1  0.47429000  0.32899000  0.42209000  1.0
  H  H82  1  0.45226000  0.53173000  0.54474000  1.0
  H  H83  1  0.54774000  0.45526000  0.46827000  1.0
  H  H84  1  0.17866000  0.40661000  0.50748000  1.0
  H  H85  1  0.82134000  0.49252000  0.59339000  1.0
  H  H86  1  0.55244000  0.34145000  0.22075000  1.0
  H  H87  1  0.44756000  0.77925000  0.65855000  1.0
  H  H88  1  0.58279000  0.56004000  0.37259000  1.0
  H  H89  1  0.41721000  0.62741000  0.43996000  1.0
  H  H90  1  0.76082000  0.55960000  0.37210000  1.0
  H  H91  1  0.23918000  0.62790000  0.44040000  1.0
  H  H92  1  0.73043000  0.33070000  0.21376000  1.0
  H  H93  1  0.26956000  0.78624000  0.66931000  1.0
  H  H94  1  0.88416000  0.56745000  0.28951000  1.0
  H  H95  1  0.11584000  0.71049000  0.43256000  1.0
  H  H96  1  0.87768000  0.32223000  0.27904000  1.0
  H  H97  1  0.12232000  0.72096000  0.67778000  1.0
  H  H98  1  0.05612000  0.32828000  0.27102000  1.0
  H  H99  1  0.94388000  0.72898000  0.67173000  1.0
  H  H100  1  0.06277000  0.56243000  0.28158000  1.0
  H  H101  1  0.93723000  0.71842000  0.43758000  1.0
  C  C102  1  0.99571000  0.92840000  0.23367000  1.0
  C  C103  1  0.00429000  0.76633000  0.07160000  1.0
  C  C104  1  0.99764000  0.92739000  0.31730000  1.0
  C  C105  1  0.00236000  0.68270000  0.07260000  1.0
  C  C106  1  0.91402000  0.90905000  0.35133000  1.0
  C  C107  1  0.08598000  0.64867000  0.09095000  1.0
  C  C108  1  0.08440000  0.94245000  0.36154000  1.0
  C  C109  1  0.91560000  0.63846000  0.05755000  1.0
  C  C110  1  0.09018000  0.93996000  0.43895000  1.0
  C  C111  1  0.90982000  0.56106000  0.06004000  1.0
  C  C112  1  0.18396000  0.95573000  0.48525000  1.0
  C  C113  1  0.81604000  0.51475000  0.04427000  1.0
  C  C114  1  0.91745000  0.90584000  0.42825000  1.0
  C  C115  1  0.08255000  0.57175000  0.09415000  1.0
  C  C116  1  0.00486000  0.92190000  0.47300000  1.0
  C  C117  1  0.99514000  0.52700000  0.07809000  1.0
  C  C118  1  0.00666000  0.92064000  0.55181000  1.0
  C  C119  1  0.99334000  0.44819000  0.07936000  1.0
  C  C120  1  0.00634000  0.92031000  0.62018000  1.0
  C  C121  1  0.99366000  0.37982000  0.07969000  1.0
  C  C122  1  0.00340000  0.91757000  0.69842000  1.0
  C  C123  1  0.99660000  0.30158000  0.08242000  1.0
  C  C124  1  0.91457000  0.90379000  0.72894000  1.0
  C  C125  1  0.08543000  0.27106000  0.09621000  1.0
  C  C126  1  0.08924000  0.92719000  0.74580000  1.0
  C  C127  1  0.91076000  0.25419000  0.07280000  1.0
  C  C128  1  0.18332000  0.94407000  0.71397000  1.0
  C  C129  1  0.81668000  0.28603000  0.05593000  1.0
  C  C130  1  0.08306000  0.92082000  0.82171000  1.0
  C  C131  1  0.91694000  0.17829000  0.07918000  1.0
  C  C132  1  0.91042000  0.89985000  0.80540000  1.0
  C  C133  1  0.08958000  0.19460000  0.10014000  1.0
  C  C134  1  0.99478000  0.90752000  0.85219000  1.0
  C  C135  1  0.00522000  0.14781000  0.09247000  1.0
  C  C136  1  0.99110000  0.90355000  0.93483000  1.0
  C  C137  1  0.00890000  0.06517000  0.09645000  1.0
  C  C138  1  0.29503000  0.86085000  0.10106000  1.0
  C  C139  1  0.70497000  0.89894000  0.13915000  1.0
  C  C140  1  0.29838000  0.97922000  0.06934000  1.0
  C  C141  1  0.70162000  0.93066000  0.02078000  1.0
  C  C142  1  0.39756000  0.98011000  0.06578000  1.0
  C  C143  1  0.60243000  0.93422000  0.01989000  1.0
  C  C144  1  0.39417000  0.85848000  0.10054000  1.0
  C  C145  1  0.60583000  0.89945000  0.14152000  1.0
  C  C146  1  0.44732000  0.91888000  0.08216000  1.0
  C  C147  1  0.55268000  0.91784000  0.08112000  1.0
  C  C148  1  0.30799000  0.30213000  0.26982000  1.0
  C  C149  1  0.69201000  0.73017000  0.69787000  1.0
  C  C150  1  0.31212000  0.21864000  0.27023000  1.0
  C  C151  1  0.68788000  0.72977000  0.78136000  1.0
  C  C152  1  0.40117000  0.18725000  0.27888000  1.0
  C  C153  1  0.59883000  0.72112000  0.81275000  1.0
  C  C154  1  0.22795000  0.17200000  0.26423000  1.0
  C  C155  1  0.77205000  0.73577000  0.82800000  1.0
  C  C156  1  0.23290000  0.09553000  0.26789000  1.0
  C  C157  1  0.76710000  0.73210000  0.90447000  1.0
  C  C158  1  0.40857000  0.11107000  0.28376000  1.0
  C  C159  1  0.59143000  0.71624000  0.88894000  1.0
  C  C160  1  0.50432000  0.07846000  0.29405000  1.0
  C  C161  1  0.49568000  0.70595000  0.92155000  1.0
  C  C162  1  0.32252000  0.06484000  0.27898000  1.0
  C  C163  1  0.67748000  0.72102000  0.93516000  1.0
  C  C164  1  0.32511000  0.98790000  0.28594000  1.0
  C  C165  1  0.67489000  0.71406000  0.01210000  1.0
  C  C166  1  0.32291000  0.92135000  0.29234000  1.0
  C  C167  1  0.67710000  0.70766000  0.07866000  1.0
  C  C168  1  0.31881000  0.84369000  0.29734000  1.0
  C  C169  1  0.68119000  0.70266000  0.15631000  1.0
  C  C170  1  0.39843000  0.81355000  0.32975000  1.0
  C  C171  1  0.60157000  0.67025000  0.18646000  1.0
  C  C172  1  0.48664000  0.86375000  0.36143000  1.0
  C  C173  1  0.51336000  0.63857000  0.13626000  1.0
  C  C174  1  0.23562000  0.79584000  0.26916000  1.0
  C  C175  1  0.76438000  0.73084000  0.20416000  1.0
  C  C176  1  0.23198000  0.71857000  0.27125000  1.0
  C  C177  1  0.76802000  0.72875000  0.28144000  1.0
  C  C178  1  0.39288000  0.73572000  0.33050000  1.0
  C  C179  1  0.60712000  0.66950000  0.26428000  1.0
  C  C180  1  0.31161000  0.68760000  0.30051000  1.0
  C  C181  1  0.68839000  0.69949000  0.31241000  1.0
  C  C182  1  0.31175000  0.60316000  0.29754000  1.0
  C  C183  1  0.68825000  0.70245000  0.39685000  1.0
  C  C184  1  0.32426000  0.43673000  0.13406000  1.0
  C  C185  1  0.67574000  0.86594000  0.56327000  1.0
  C  C186  1  0.32642000  0.43584000  0.05005000  1.0
  C  C187  1  0.67358000  0.94995000  0.56416000  1.0
  C  C188  1  0.41354000  0.44930000  0.01797000  1.0
  C  C189  1  0.58646000  0.98203000  0.55070000  1.0
  C  C190  1  0.24143000  0.42454000  0.00355000  1.0
  C  C191  1  0.75857000  0.99644000  0.57546000  1.0
  C  C192  1  0.24401000  0.42822000  0.92695000  1.0
  C  C193  1  0.75600000  0.07305000  0.57177000  1.0
  C  C194  1  0.41812000  0.45409000  0.94139000  1.0
  C  C195  1  0.58188000  0.05861000  0.54591000  1.0
  C  C196  1  0.51198000  0.46922000  0.90814000  1.0
  C  C197  1  0.48802000  0.09186000  0.53078000  1.0
  C  C198  1  0.33126000  0.44392000  0.89507000  1.0
  C  C199  1  0.66874000  0.10493000  0.55608000  1.0
  C  C200  1  0.33086000  0.44998000  0.81753000  1.0
  C  C201  1  0.66915000  0.18247000  0.55001000  1.0
  C  C202  1  0.32802000  0.45581000  0.75068000  1.0
  C  C203  1  0.67198000  0.24932000  0.54419000  1.0
  C  C204  1  0.32414000  0.46185000  0.67309000  1.0
  C  C205  1  0.67586000  0.32691000  0.53815000  1.0
  C  C206  1  0.24435000  0.42864000  0.62311000  1.0
  C  C207  1  0.75565000  0.37688000  0.57136000  1.0
  C  C208  1  0.39994000  0.50076000  0.64487000  1.0
  C  C209  1  0.60006000  0.35513000  0.49923000  1.0
  C  C210  1  0.48544000  0.53729000  0.69634000  1.0
  C  C211  1  0.51456000  0.30366000  0.46272000  1.0
  C  C212  1  0.39397000  0.50299000  0.56732000  1.0
  C  C213  1  0.60603000  0.43268000  0.49702000  1.0
  C  C214  1  0.23968000  0.43250000  0.54638000  1.0
  C  C215  1  0.76031000  0.45363000  0.56749000  1.0
  C  C216  1  0.31552000  0.46883000  0.51764000  1.0
  C  C217  1  0.68448000  0.48236000  0.53116000  1.0
  C  C218  1  0.31505000  0.46879000  0.43383000  1.0
  C  C219  1  0.68494000  0.56617000  0.53121000  1.0
  C  C220  1  0.60216000  0.38810000  0.25277000  1.0
  C  C221  1  0.39783000  0.74723000  0.61191000  1.0
  C  C222  1  0.61842000  0.51098000  0.33719000  1.0
  C  C223  1  0.38157000  0.66281000  0.48903000  1.0
  C  C224  1  0.71779000  0.51038000  0.33644000  1.0
  C  C225  1  0.28221000  0.66355000  0.48962000  1.0
  C  C226  1  0.70081000  0.38269000  0.24971000  1.0
  C  C227  1  0.29919000  0.75028000  0.61732000  1.0
  C  C228  1  0.76079000  0.44568000  0.29091000  1.0
  C  C229  1  0.23920000  0.70909000  0.55433000  1.0
  C  C230  1  0.86581000  0.44498000  0.28584000  1.0
  C  C231  1  0.13418000  0.71416000  0.55503000  1.0
  C  C232  1  0.91932000  0.51332000  0.28665000  1.0
  C  C233  1  0.08067000  0.71335000  0.48669000  1.0
  C  C234  1  0.91534000  0.37690000  0.27953000  1.0
  C  C235  1  0.08466000  0.72048000  0.62310000  1.0
  C  C236  1  0.01442000  0.37956000  0.27552000  1.0
  C  C237  1  0.98558000  0.72448000  0.62044000  1.0
  C  C238  1  0.01809000  0.51114000  0.28175000  1.0
  C  C239  1  0.98191000  0.71825000  0.48887000  1.0
  N  N240  1  0.24816000  0.92032000  0.08621000  1.0
  N  N241  1  0.75184000  0.91379000  0.07967000  1.0
  N  N242  1  0.56175000  0.45158000  0.29508000  1.0
  N  N243  1  0.43824000  0.70492000  0.54842000  1.0
  N  N244  1  0.06496000  0.44555000  0.27675000  1.0
  N  N245  1  0.93504000  0.72325000  0.55446000  1.0
  O  O246  1  0.07032000  0.89848000  0.97042000  1.0
  O  O247  1  0.92968000  0.02958000  0.10152000  1.0
  O  O248  1  0.90871000  0.90636000  0.96377000  1.0
  O  O249  1  0.09129000  0.03623000  0.09364000  1.0
  O  O250  1  0.91503000  0.91398000  0.19588000  1.0
  O  O251  1  0.08498000  0.80412000  0.08602000  1.0
  O  O252  1  0.07514000  0.94232000  0.20568000  1.0
  O  O253  1  0.92486000  0.79432000  0.05767000  1.0
  O  O254  1  0.38785000  0.34093000  0.27808000  1.0
  O  O255  1  0.61216000  0.72192000  0.65907000  1.0
  O  O256  1  0.22580000  0.32878000  0.26255000  1.0
  O  O257  1  0.77420000  0.73745000  0.67122000  1.0
  O  O258  1  0.39359000  0.57405000  0.29963000  1.0
  O  O259  1  0.60641000  0.70036000  0.42595000  1.0
  O  O260  1  0.23083000  0.56649000  0.29315000  1.0
  O  O261  1  0.76917000  0.70685000  0.43352000  1.0
  O  O262  1  0.40457000  0.44075000  0.17143000  1.0
  O  O263  1  0.59544000  0.82857000  0.55925000  1.0
  O  O264  1  0.24190000  0.43507000  0.16255000  1.0
  O  O265  1  0.75810000  0.83745000  0.56494000  1.0
  O  O266  1  0.39651000  0.47833000  0.40639000  1.0
  O  O267  1  0.60348000  0.59360000  0.52168000  1.0
  O  O268  1  0.23478000  0.45870000  0.39560000  1.0
  O  O269  1  0.76521000  0.60440000  0.54130000  1.0
