# generated using pymatgen
data_AgH2C6Cl3O
_symmetry_space_group_name_H-M   'P 1'
_cell_length_a   5.67871000
_cell_length_b   11.40350000
_cell_length_c   23.75000000
_cell_angle_alpha   90.00000000
_cell_angle_beta   90.00000000
_cell_angle_gamma   90.00000000
_symmetry_Int_Tables_number   1
_chemical_formula_structural   AgH2C6Cl3O
_chemical_formula_sum   'Ag8 H16 C48 Cl24 O8'
_cell_volume   1537.98277527
_cell_formula_units_Z   8
loop_
 _symmetry_equiv_pos_site_id
 _symmetry_equiv_pos_as_xyz
  1  'x, y, z'
loop_
 _atom_site_type_symbol
 _atom_site_label
 _atom_site_symmetry_multiplicity
 _atom_site_fract_x
 _atom_site_fract_y
 _atom_site_fract_z
 _atom_site_occupancy
  Ag  Ag0  1  0.11551000  0.15292000  0.19322000  1.0
  Ag  Ag1  1  0.61551000  0.34708000  0.19322000  1.0
  Ag  Ag2  1  0.61551000  0.15292000  0.30678000  1.0
  Ag  Ag3  1  0.11551000  0.34707000  0.30678000  1.0
  Ag  Ag4  1  0.88449000  0.84708000  0.80678000  1.0
  Ag  Ag5  1  0.38449000  0.65292000  0.80678000  1.0
  Ag  Ag6  1  0.38449000  0.84708000  0.69322000  1.0
  Ag  Ag7  1  0.88450000  0.65293000  0.69322000  1.0
  H  H8  1  0.67897000  0.99482000  0.02811000  1.0
  H  H9  1  0.17897000  0.50518000  0.02811000  1.0
  H  H10  1  0.17897000  0.99482000  0.47189000  1.0
  H  H11  1  0.67897000  0.50518000  0.47189000  1.0
  H  H12  1  0.32103000  0.00518000  0.97189000  1.0
  H  H13  1  0.82103000  0.49482000  0.97189000  1.0
  H  H14  1  0.82103000  0.00518000  0.52811000  1.0
  H  H15  1  0.32103000  0.49482000  0.52811000  1.0
  H  H16  1  0.84901000  0.99078000  0.23278000  1.0
  H  H17  1  0.34901000  0.50922000  0.23278000  1.0
  H  H18  1  0.34901000  0.99078000  0.26722000  1.0
  H  H19  1  0.84901000  0.50922000  0.26722000  1.0
  H  H20  1  0.15099000  0.00922000  0.76722000  1.0
  H  H21  1  0.65099000  0.49078000  0.76722000  1.0
  H  H22  1  0.65099000  0.00922000  0.73278000  1.0
  H  H23  1  0.15099000  0.49078000  0.73278000  1.0
  C  C24  1  0.64346000  0.07540000  0.16756000  1.0
  C  C25  1  0.14346000  0.42461000  0.16756000  1.0
  C  C26  1  0.14346000  0.07540000  0.33244000  1.0
  C  C27  1  0.64346000  0.42461000  0.33244000  1.0
  C  C28  1  0.35654000  0.92460000  0.83244000  1.0
  C  C29  1  0.85654000  0.57539000  0.83244000  1.0
  C  C30  1  0.85654000  0.92460000  0.66756000  1.0
  C  C31  1  0.35654000  0.57539000  0.66756000  1.0
  C  C32  1  0.59308000  0.06825000  0.10899000  1.0
  C  C33  1  0.09308000  0.43175000  0.10899000  1.0
  C  C34  1  0.09307000  0.06825000  0.39101000  1.0
  C  C35  1  0.59308000  0.43175000  0.39101000  1.0
  C  C36  1  0.40693000  0.93175000  0.89101000  1.0
  C  C37  1  0.90692000  0.56825000  0.89101000  1.0
  C  C38  1  0.90693000  0.93175000  0.60899000  1.0
  C  C39  1  0.40693000  0.56825000  0.60899000  1.0
  C  C40  1  0.71941000  0.99624000  0.07287000  1.0
  C  C41  1  0.21941000  0.50376000  0.07287000  1.0
  C  C42  1  0.21941000  0.99624000  0.42713000  1.0
  C  C43  1  0.71941000  0.50376000  0.42713000  1.0
  C  C44  1  0.28059000  0.00376000  0.92713000  1.0
  C  C45  1  0.78059000  0.49624000  0.92713000  1.0
  C  C46  1  0.78059000  0.00376000  0.57287000  1.0
  C  C47  1  0.28059000  0.49624000  0.57287000  1.0
  C  C48  1  0.90407000  0.92665000  0.09302000  1.0
  C  C49  1  0.40407000  0.57334000  0.09302000  1.0
  C  C50  1  0.40407000  0.92665000  0.40698000  1.0
  C  C51  1  0.90407000  0.57335000  0.40698000  1.0
  C  C52  1  0.09593000  0.07335000  0.90698000  1.0
  C  C53  1  0.59593000  0.42666000  0.90698000  1.0
  C  C54  1  0.59593000  0.07335000  0.59302000  1.0
  C  C55  1  0.09593000  0.42665000  0.59302000  1.0
  C  C56  1  0.95657000  0.92844000  0.15057000  1.0
  C  C57  1  0.45657000  0.57156000  0.15057000  1.0
  C  C58  1  0.45657000  0.92844000  0.34943000  1.0
  C  C59  1  0.95657000  0.57156000  0.34943000  1.0
  C  C60  1  0.04343000  0.07156000  0.84943000  1.0
  C  C61  1  0.54343000  0.42844000  0.84943000  1.0
  C  C62  1  0.54343000  0.07156000  0.65057000  1.0
  C  C63  1  0.04343000  0.42844000  0.65057000  1.0
  C  C64  1  0.83024000  0.00246000  0.18734000  1.0
  C  C65  1  0.33024000  0.49754000  0.18734000  1.0
  C  C66  1  0.33024000  0.00246000  0.31266000  1.0
  C  C67  1  0.83024000  0.49754000  0.31266000  1.0
  C  C68  1  0.16976000  0.99754000  0.81266000  1.0
  C  C69  1  0.66976000  0.50246000  0.81266000  1.0
  C  C70  1  0.66976000  0.99754000  0.68734000  1.0
  C  C71  1  0.16976000  0.50246000  0.68734000  1.0
  Cl  Cl72  1  0.36393000  0.15235000  0.08233000  1.0
  Cl  Cl73  1  0.86393000  0.34765000  0.08233000  1.0
  Cl  Cl74  1  0.86393000  0.15235000  0.41767000  1.0
  Cl  Cl75  1  0.36393000  0.34765000  0.41767000  1.0
  Cl  Cl76  1  0.63607000  0.84765000  0.91767000  1.0
  Cl  Cl77  1  0.13607000  0.65235000  0.91767000  1.0
  Cl  Cl78  1  0.13607000  0.84765000  0.58233000  1.0
  Cl  Cl79  1  0.63607000  0.65235000  0.58233000  1.0
  Cl  Cl80  1  0.06406000  0.84256000  0.04653000  1.0
  Cl  Cl81  1  0.56407000  0.65743000  0.04653000  1.0
  Cl  Cl82  1  0.56406000  0.84256000  0.45347000  1.0
  Cl  Cl83  1  0.06407000  0.65743000  0.45347000  1.0
  Cl  Cl84  1  0.93594000  0.15744000  0.95347000  1.0
  Cl  Cl85  1  0.43593000  0.34257000  0.95347000  1.0
  Cl  Cl86  1  0.43594000  0.15744000  0.54653000  1.0
  Cl  Cl87  1  0.93593000  0.34257000  0.54653000  1.0
  Cl  Cl88  1  0.17350000  0.83942000  0.17821000  1.0
  Cl  Cl89  1  0.67351000  0.66057000  0.17822000  1.0
  Cl  Cl90  1  0.67350000  0.83942000  0.32178000  1.0
  Cl  Cl91  1  0.17351000  0.66057000  0.32179000  1.0
  Cl  Cl92  1  0.82650000  0.16058000  0.82179000  1.0
  Cl  Cl93  1  0.32649000  0.33943000  0.82178000  1.0
  Cl  Cl94  1  0.32650000  0.16058000  0.67822000  1.0
  Cl  Cl95  1  0.82649000  0.33943000  0.67821000  1.0
  O  O96  1  0.52385000  0.14368000  0.20237000  1.0
  O  O97  1  0.02385000  0.35632000  0.20237000  1.0
  O  O98  1  0.02385000  0.14368000  0.29763000  1.0
  O  O99  1  0.52385000  0.35632000  0.29763000  1.0
  O  O100  1  0.47615000  0.85632000  0.79763000  1.0
  O  O101  1  0.97615000  0.64368000  0.79763000  1.0
  O  O102  1  0.97615000  0.85632000  0.70237000  1.0
  O  O103  1  0.47615000  0.64368000  0.70237000  1.0
