# generated using pymatgen
data_CdH21C16N7O5
_symmetry_space_group_name_H-M   'P 1'
_cell_length_a   8.85868000
_cell_length_b   9.58432000
_cell_length_c   12.65500000
_cell_angle_alpha   103.52100000
_cell_angle_beta   90.00000000
_cell_angle_gamma   90.00000000
_symmetry_Int_Tables_number   1
_chemical_formula_structural   CdH21C16N7O5
_chemical_formula_sum   'Cd2 H42 C32 N14 O10'
_cell_volume   1044.68591376
_cell_formula_units_Z   2
loop_
 _symmetry_equiv_pos_site_id
 _symmetry_equiv_pos_as_xyz
  1  'x, y, z'
loop_
 _atom_site_type_symbol
 _atom_site_label
 _atom_site_symmetry_multiplicity
 _atom_site_fract_x
 _atom_site_fract_y
 _atom_site_fract_z
 _atom_site_occupancy
  Cd  Cd0  1  0.26178000  0.35154000  0.21421000  1.0
  Cd  Cd1  1  0.76177000  0.64846000  0.78579000  1.0
  H  H2  1  0.01026000  0.94722000  0.43995000  1.0
  H  H3  1  0.51026000  0.05278000  0.56004000  1.0
  H  H4  1  0.47413000  0.51165000  0.62352000  1.0
  H  H5  1  0.97413000  0.48835000  0.37648000  1.0
  H  H6  1  0.86484000  0.41358000  0.19396000  1.0
  H  H7  1  0.36484000  0.58642000  0.80604000  1.0
  H  H8  1  0.96601000  0.05646000  0.85648000  1.0
  H  H9  1  0.46602000  0.94354000  0.14352000  1.0
  H  H10  1  0.93057000  0.75052000  0.33009000  1.0
  H  H11  1  0.43057000  0.24948000  0.66991000  1.0
  H  H12  1  0.87691000  0.70829000  0.19347000  1.0
  H  H13  1  0.37691000  0.29172000  0.80653000  1.0
  H  H14  1  0.95367000  0.95730000  0.23444000  1.0
  H  H15  1  0.45367000  0.04270000  0.76556000  1.0
  H  H16  1  0.09281000  0.85661000  0.14860000  1.0
  H  H17  1  0.59281000  0.14340000  0.85139000  1.0
  H  H18  1  0.26524000  0.86901000  0.30080000  1.0
  H  H19  1  0.76524000  0.13099000  0.69920000  1.0
  H  H20  1  0.22260000  0.02088000  0.66813000  1.0
  H  H21  1  0.72260000  0.97912000  0.33187000  1.0
  H  H22  1  0.03243000  0.01007000  0.61888000  1.0
  H  H23  1  0.53243000  0.98993000  0.38112000  1.0
  H  H24  1  0.12971000  0.17824000  0.65266000  1.0
  H  H25  1  0.62971000  0.82176000  0.34734000  1.0
  H  H26  1  0.34476000  0.69833000  0.36520000  1.0
  H  H27  1  0.84475000  0.30167000  0.63480000  1.0
  H  H28  1  0.47746000  0.75139000  0.57298000  1.0
  H  H29  1  0.97746000  0.24861000  0.42702000  1.0
  H  H30  1  0.36055000  0.31217000  0.47015000  1.0
  H  H31  1  0.86056000  0.68784000  0.52985000  1.0
  H  H32  1  0.62459000  0.47637000  0.30696000  1.0
  H  H33  1  0.12459000  0.52363000  0.69303000  1.0
  H  H34  1  0.80478000  0.25083000  0.00564000  1.0
  H  H35  1  0.30478000  0.74916000  0.99436000  1.0
  H  H36  1  0.49040000  0.21781000  0.00544000  1.0
  H  H37  1  0.99040000  0.78219000  0.99456000  1.0
  H  H38  1  0.15299000  0.46709000  0.99345000  1.0
  H  H39  1  0.65299000  0.53291000  0.00655000  1.0
  H  H40  1  0.97313000  0.30964000  0.82686000  1.0
  H  H41  1  0.47313000  0.69036000  0.17314000  1.0
  H  H42  1  0.13112000  0.03863000  0.02337000  1.0
  H  H43  1  0.63112000  0.96136000  0.97663000  1.0
  C  C44  1  0.08143000  0.60922000  0.22425000  1.0
  C  C45  1  0.58143000  0.39078000  0.77575000  1.0
  C  C46  1  0.97572000  0.73746000  0.24723000  1.0
  C  C47  1  0.47571000  0.26254000  0.75277000  1.0
  C  C48  1  0.04355000  0.87678000  0.23034000  1.0
  C  C49  1  0.54355000  0.12322000  0.76966000  1.0
  C  C50  1  0.16984000  0.94401000  0.30921000  1.0
  C  C51  1  0.66984000  0.05600000  0.69079000  1.0
  C  C52  1  0.22485000  0.07614000  0.27057000  1.0
  C  C53  1  0.72485000  0.92386000  0.72943000  1.0
  C  C54  1  0.20618000  0.04134000  0.50455000  1.0
  C  C55  1  0.70617000  0.95866000  0.49545000  1.0
  C  C56  1  0.14183000  0.06263000  0.61739000  1.0
  C  C57  1  0.64183000  0.93737000  0.38261000  1.0
  C  C58  1  0.36739000  0.62673000  0.41803000  1.0
  C  C59  1  0.86739000  0.37327000  0.58197000  1.0
  C  C60  1  0.43070000  0.65553000  0.52009000  1.0
  C  C61  1  0.93070000  0.34447000  0.47991000  1.0
  C  C62  1  0.37256000  0.42454000  0.46847000  1.0
  C  C63  1  0.87256000  0.57546000  0.53153000  1.0
  C  C64  1  0.62883000  0.40968000  0.22496000  1.0
  C  C65  1  0.12883000  0.59032000  0.77503000  1.0
  C  C66  1  0.72068000  0.28956000  0.06757000  1.0
  C  C67  1  0.22068000  0.71044000  0.93243000  1.0
  C  C68  1  0.56609000  0.27536000  0.06788000  1.0
  C  C69  1  0.06609000  0.72464000  0.93211000  1.0
  C  C70  1  0.12384000  0.35407000  0.97370000  1.0
  C  C71  1  0.62384000  0.64593000  0.02630000  1.0
  C  C72  1  0.03727000  0.27694000  0.88986000  1.0
  C  C73  1  0.53727000  0.72306000  0.11014000  1.0
  C  C74  1  0.11469000  0.13442000  0.99317000  1.0
  C  C75  1  0.61469000  0.86559000  0.00683000  1.0
  N  N76  1  0.11696000  0.97746000  0.42130000  1.0
  N  N77  1  0.61697000  0.02254000  0.57870000  1.0
  N  N78  1  0.33145000  0.48245000  0.38677000  1.0
  N  N79  1  0.83145000  0.51755000  0.61323000  1.0
  N  N80  1  0.43299000  0.52643000  0.55015000  1.0
  N  N81  1  0.93299000  0.47357000  0.44985000  1.0
  N  N82  1  0.51033000  0.35085000  0.16630000  1.0
  N  N83  1  0.01033000  0.64915000  0.83370000  1.0
  N  N84  1  0.75795000  0.37458000  0.16770000  1.0
  N  N85  1  0.25795000  0.62542000  0.83230000  1.0
  N  N86  1  0.17156000  0.26386000  0.03788000  1.0
  N  N87  1  0.67156000  0.73614000  0.96212000  1.0
  N  N88  1  0.03320000  0.13820000  0.90317000  1.0
  N  N89  1  0.53320000  0.86180000  0.09683000  1.0
  O  O90  1  0.02892000  0.49205000  0.24564000  1.0
  O  O91  1  0.52892000  0.50795000  0.75436000  1.0
  O  O92  1  0.21149000  0.61629000  0.18693000  1.0
  O  O93  1  0.71149000  0.38371000  0.81308000  1.0
  O  O94  1  0.33686000  0.06316000  0.20671000  1.0
  O  O95  1  0.83686000  0.93684000  0.79329000  1.0
  O  O96  1  0.14614000  0.18996000  0.29860000  1.0
  O  O97  1  0.64614000  0.81005000  0.70140000  1.0
  O  O98  1  0.33763000  0.08248000  0.48935000  1.0
  O  O99  1  0.83764000  0.91752000  0.51065000  1.0
