# generated using pymatgen
data_Zn3H12C20(N3O4)2
_symmetry_space_group_name_H-M   'P 1'
_cell_length_a   7.81460000
_cell_length_b   8.58192000
_cell_length_c   19.94140000
_cell_angle_alpha   90.00000000
_cell_angle_beta   90.00000000
_cell_angle_gamma   112.53000000
_symmetry_Int_Tables_number   1
_chemical_formula_structural   Zn3H12C20(N3O4)2
_chemical_formula_sum   'Zn6 H24 C40 N12 O16'
_cell_volume   1235.28721168
_cell_formula_units_Z   2
loop_
 _symmetry_equiv_pos_site_id
 _symmetry_equiv_pos_as_xyz
  1  'x, y, z'
loop_
 _atom_site_type_symbol
 _atom_site_label
 _atom_site_symmetry_multiplicity
 _atom_site_fract_x
 _atom_site_fract_y
 _atom_site_fract_z
 _atom_site_occupancy
  Zn  Zn0  1  0.00000000  0.50000000  0.50000000  1.0
  Zn  Zn1  1  0.50000000  0.50000000  0.00000000  1.0
  Zn  Zn2  1  0.53078000  0.22055000  0.47946000  1.0
  Zn  Zn3  1  0.96922000  0.77945000  0.97946000  1.0
  Zn  Zn4  1  0.46922000  0.77945000  0.52054000  1.0
  Zn  Zn5  1  0.03078000  0.22055000  0.02054000  1.0
  H  H6  1  0.01072000  0.66666667  0.31247000  1.0
  H  H7  1  0.48928000  0.33333333  0.81248000  1.0
  H  H8  1  0.98928000  0.33333333  0.68752000  1.0
  H  H9  1  0.51072000  0.66666667  0.18753000  1.0
  H  H10  1  0.06512000  0.73734000  0.19047000  1.0
  H  H11  1  0.43487000  0.26265000  0.69047000  1.0
  H  H12  1  0.93487000  0.26265000  0.80953000  1.0
  H  H13  1  0.56513000  0.73734000  0.30953000  1.0
  H  H14  1  0.57965000  0.30352000  0.14164000  1.0
  H  H15  1  0.92035000  0.69648000  0.64164000  1.0
  H  H16  1  0.42035000  0.69648000  0.85836000  1.0
  H  H17  1  0.07965000  0.30352000  0.35836000  1.0
  H  H18  1  0.52116000  0.23456000  0.26382000  1.0
  H  H19  1  0.97884000  0.76544000  0.76382000  1.0
  H  H20  1  0.47884000  0.76545000  0.73618000  1.0
  H  H21  1  0.02115000  0.23456000  0.23618000  1.0
  H  H22  1  0.12869000  0.22221000  0.57756000  1.0
  H  H23  1  0.37131000  0.77779000  0.07756000  1.0
  H  H24  1  0.87131000  0.77779000  0.42244000  1.0
  H  H25  1  0.62869000  0.22221000  0.92244000  1.0
  H  H26  1  0.86907000  0.88737000  0.59264000  1.0
  H  H27  1  0.63093000  0.11264000  0.09264000  1.0
  H  H28  1  0.13093000  0.11263000  0.40736000  1.0
  H  H29  1  0.36907000  0.88737000  0.90736000  1.0
  C  C30  1  0.73723000  0.40412000  0.36839000  1.0
  C  C31  1  0.76277000  0.59588000  0.86839000  1.0
  C  C32  1  0.26277000  0.59588000  0.63161000  1.0
  C  C33  1  0.23723000  0.40412000  0.13161000  1.0
  C  C34  1  0.76314000  0.44625000  0.29535000  1.0
  C  C35  1  0.73686000  0.55375000  0.79535000  1.0
  C  C36  1  0.23686000  0.55375000  0.70465000  1.0
  C  C37  1  0.26314000  0.44625000  0.20465000  1.0
  C  C38  1  0.91549000  0.58888000  0.27472000  1.0
  C  C39  1  0.58450000  0.41111000  0.77473000  1.0
  C  C40  1  0.08451000  0.41112000  0.72527000  1.0
  C  C41  1  0.41549000  0.58888000  0.22528000  1.0
  C  C42  1  0.94681000  0.62729000  0.20696000  1.0
  C  C43  1  0.55319000  0.37271000  0.70696000  1.0
  C  C44  1  0.05319000  0.37271000  0.79304000  1.0
  C  C45  1  0.44681000  0.62729000  0.29304000  1.0
  C  C46  1  0.82801000  0.52161000  0.15869000  1.0
  C  C47  1  0.67199000  0.47839000  0.65870000  1.0
  C  C48  1  0.17199000  0.47839000  0.84130000  1.0
  C  C49  1  0.32801000  0.52161000  0.34131000  1.0
  C  C50  1  0.67553000  0.37950000  0.17953000  1.0
  C  C51  1  0.82447000  0.62050000  0.67953000  1.0
  C  C52  1  0.32447000  0.62050000  0.82047000  1.0
  C  C53  1  0.17553000  0.37950000  0.32047000  1.0
  C  C54  1  0.64217000  0.34227000  0.24730000  1.0
  C  C55  1  0.85783000  0.65773000  0.74730000  1.0
  C  C56  1  0.35783000  0.65773000  0.75270000  1.0
  C  C57  1  0.14217000  0.34227000  0.25270000  1.0
  C  C58  1  0.85790000  0.56208000  0.08569000  1.0
  C  C59  1  0.64210000  0.43792000  0.58569000  1.0
  C  C60  1  0.14210000  0.43793000  0.91431000  1.0
  C  C61  1  0.35790000  0.56207000  0.41431000  1.0
  C  C62  1  0.98670000  0.16068000  0.56063000  1.0
  C  C63  1  0.51330000  0.83932000  0.06063000  1.0
  C  C64  1  0.01330000  0.83932000  0.43937000  1.0
  C  C65  1  0.48670000  0.16068000  0.93937000  1.0
  C  C66  1  0.86003000  0.99595000  0.56762000  1.0
  C  C67  1  0.63997000  0.00405000  0.06762000  1.0
  C  C68  1  0.13997000  0.00405000  0.43238000  1.0
  C  C69  1  0.36003000  0.99595000  0.93238000  1.0
  N  N70  1  0.90323000  0.24355000  0.52390000  1.0
  N  N71  1  0.59678000  0.75645000  0.02390000  1.0
  N  N72  1  0.09677000  0.75645000  0.47610000  1.0
  N  N73  1  0.40323000  0.24355000  0.97610000  1.0
  N  N74  1  0.73365000  0.13593000  0.50822000  1.0
  N  N75  1  0.76636000  0.86407000  0.00822000  1.0
  N  N76  1  0.26636000  0.86407000  0.49178000  1.0
  N  N77  1  0.23364000  0.13593000  0.99178000  1.0
  N  N78  1  0.70475000  0.98460000  0.53466000  1.0
  N  N79  1  0.79525000  0.01540000  0.03466000  1.0
  N  N80  1  0.29525000  0.01540000  0.46534000  1.0
  N  N81  1  0.20475000  0.98460000  0.96534000  1.0
  O  O82  1  0.87959000  0.46110000  0.40480000  1.0
  O  O83  1  0.62041000  0.53890000  0.90480000  1.0
  O  O84  1  0.12041000  0.53891000  0.59520000  1.0
  O  O85  1  0.37959000  0.46110000  0.09520000  1.0
  O  O86  1  0.57301000  0.31058000  0.38837000  1.0
  O  O87  1  0.92699000  0.68942000  0.88837000  1.0
  O  O88  1  0.42699000  0.68942000  0.61163000  1.0
  O  O89  1  0.07301000  0.31058000  0.11163000  1.0
  O  O90  1  0.00143000  0.69340000  0.06892000  1.0
  O  O91  1  0.49857000  0.30660000  0.56892000  1.0
  O  O92  1  0.99857000  0.30660000  0.93108000  1.0
  O  O93  1  0.50143000  0.69340000  0.43108000  1.0
  O  O94  1  0.74193000  0.47097000  0.04327000  1.0
  O  O95  1  0.75807000  0.52902000  0.54327000  1.0
  O  O96  1  0.25807000  0.52903000  0.95673000  1.0
  O  O97  1  0.24193000  0.47097000  0.45673000  1.0
