# generated using pymatgen
data_Cd3Ag2H50C60(S4N)2
_symmetry_space_group_name_H-M   'P 1'
_cell_length_a   18.17630000
_cell_length_b   18.17660000
_cell_length_c   25.68015194
_cell_angle_alpha   110.72659536
_cell_angle_beta   110.72979232
_cell_angle_gamma   89.99000000
_symmetry_Int_Tables_number   1
_chemical_formula_structural   Cd3Ag2H50C60(S4N)2
_chemical_formula_sum   'Cd12 Ag8 H200 C240 S32 N8'
_cell_volume   7345.18222485
_cell_formula_units_Z   4
loop_
 _symmetry_equiv_pos_site_id
 _symmetry_equiv_pos_as_xyz
  1  'x, y, z'
loop_
 _atom_site_type_symbol
 _atom_site_label
 _atom_site_symmetry_multiplicity
 _atom_site_fract_x
 _atom_site_fract_y
 _atom_site_fract_z
 _atom_site_occupancy
  Cd  Cd0  1  0.42936000  0.39416000  0.13135000  1.0
  Cd  Cd1  1  0.20187000  0.73731000  0.13140000  1.0
  Cd  Cd2  1  0.73728000  0.42951000  0.63138000  1.0
  Cd  Cd3  1  0.39411000  0.20181000  0.63127000  1.0
  Cd  Cd4  1  0.57064000  0.60584000  0.86866000  1.0
  Cd  Cd5  1  0.79814000  0.26269000  0.86860000  1.0
  Cd  Cd6  1  0.26271000  0.57049000  0.36861000  1.0
  Cd  Cd7  1  0.60589000  0.79819000  0.36873000  1.0
  Cd  Cd8  1  0.30407000  0.55418000  0.10844000  1.0
  Cd  Cd9  1  0.55423000  0.30428000  0.60846000  1.0
  Cd  Cd10  1  0.69592000  0.44582000  0.89156000  1.0
  Cd  Cd11  1  0.44577000  0.69571000  0.39154000  1.0
  Ag  Ag12  1  0.40377000  0.78215000  0.24900000  1.0
  Ag  Ag13  1  0.34512000  0.46673000  0.24911000  1.0
  Ag  Ag14  1  0.46660000  0.40377000  0.74886000  1.0
  Ag  Ag15  1  0.78244000  0.34520000  0.74908000  1.0
  Ag  Ag16  1  0.59625000  0.21785000  0.75101000  1.0
  Ag  Ag17  1  0.65491000  0.53327000  0.75090000  1.0
  Ag  Ag18  1  0.53340000  0.59622000  0.25113000  1.0
  Ag  Ag19  1  0.21758000  0.65480000  0.25093000  1.0
  H  H20  1  0.34612000  0.22071000  0.01352000  1.0
  H  H21  1  0.16729000  0.79282000  0.01360000  1.0
  H  H22  1  0.79288000  0.34627000  0.51354000  1.0
  H  H23  1  0.22089000  0.16688000  0.51329000  1.0
  H  H24  1  0.65389000  0.77930000  0.98649000  1.0
  H  H25  1  0.83270000  0.20718000  0.98640000  1.0
  H  H26  1  0.20711000  0.65374000  0.48646000  1.0
  H  H27  1  0.77912000  0.83312000  0.48672000  1.0
  H  H28  1  0.37552000  0.08314000  0.97591000  1.0
  H  H29  1  0.10023000  0.89271000  0.97591000  1.0
  H  H30  1  0.89282000  0.37570000  0.47592000  1.0
  H  H31  1  0.08337000  0.09967000  0.47547000  1.0
  H  H32  1  0.62448000  0.91687000  0.02409000  1.0
  H  H33  1  0.89976000  0.10728000  0.02409000  1.0
  H  H34  1  0.10718000  0.62431000  0.52408000  1.0
  H  H35  1  0.91664000  0.90033000  0.52453000  1.0
  H  H36  1  0.61266000  0.16497000  0.11347000  1.0
  H  H37  1  0.00064000  0.94863000  0.11348000  1.0
  H  H38  1  0.94829000  0.61294000  0.61335000  1.0
  H  H39  1  0.16500000  0.00061000  0.61340000  1.0
  H  H40  1  0.38734000  0.83503000  0.88653000  1.0
  H  H41  1  0.99935000  0.05135000  0.88652000  1.0
  H  H42  1  0.05172000  0.38706000  0.38665000  1.0
  H  H43  1  0.83500000  0.99939000  0.38660000  1.0
  H  H44  1  0.57319000  0.30113000  0.14421000  1.0
  H  H45  1  0.07084000  0.84316000  0.14426000  1.0
  H  H46  1  0.84301000  0.57339000  0.64417000  1.0
  H  H47  1  0.30114000  0.07088000  0.64421000  1.0
  H  H48  1  0.42681000  0.69888000  0.85580000  1.0
  H  H49  1  0.92917000  0.15683000  0.85575000  1.0
  H  H50  1  0.15700000  0.42661000  0.35583000  1.0
  H  H51  1  0.69886000  0.92911000  0.35579000  1.0
  H  H52  1  0.58228000  0.02925000  0.05146000  1.0
  H  H53  1  0.96898000  0.02215000  0.05137000  1.0
  H  H54  1  0.02209000  0.58241000  0.55130000  1.0
  H  H55  1  0.02945000  0.96869000  0.55118000  1.0
  H  H56  1  0.41771000  0.97075000  0.94854000  1.0
  H  H57  1  0.03100000  0.97783000  0.94862000  1.0
  H  H58  1  0.97791000  0.41759000  0.44870000  1.0
  H  H59  1  0.97055000  0.03131000  0.44882000  1.0
  H  H60  1  0.23598000  0.36211000  0.07425000  1.0
  H  H61  1  0.33817000  0.71207000  0.07421000  1.0
  H  H62  1  0.71215000  0.23611000  0.57420000  1.0
  H  H63  1  0.36240000  0.33836000  0.57433000  1.0
  H  H64  1  0.76402000  0.63790000  0.92576000  1.0
  H  H65  1  0.66182000  0.28792000  0.92579000  1.0
  H  H66  1  0.28784000  0.76389000  0.42580000  1.0
  H  H67  1  0.63760000  0.66164000  0.42567000  1.0
  H  H68  1  0.13577000  0.24261000  0.01443000  1.0
  H  H69  1  0.37850000  0.77175000  0.01437000  1.0
  H  H70  1  0.77177000  0.13594000  0.51431000  1.0
  H  H71  1  0.24294000  0.37887000  0.51455000  1.0
  H  H72  1  0.86423000  0.75740000  0.98558000  1.0
  H  H73  1  0.62150000  0.22825000  0.98563000  1.0
  H  H74  1  0.22822000  0.86407000  0.48569000  1.0
  H  H75  1  0.75706000  0.62113000  0.48545000  1.0
  H  H76  1  0.11710000  0.16397000  0.90751000  1.0
  H  H77  1  0.29025000  0.74347000  0.90746000  1.0
  H  H78  1  0.74327000  0.11723000  0.40735000  1.0
  H  H79  1  0.16421000  0.29069000  0.40767000  1.0
  H  H80  1  0.88291000  0.83604000  0.09250000  1.0
  H  H81  1  0.70975000  0.25652000  0.09254000  1.0
  H  H82  1  0.25673000  0.88277000  0.59265000  1.0
  H  H83  1  0.83580000  0.70931000  0.59234000  1.0
  H  H84  1  0.19837000  0.20989000  0.86144000  1.0
  H  H85  1  0.16290000  0.65149000  0.86143000  1.0
  H  H86  1  0.65119000  0.19857000  0.36139000  1.0
  H  H87  1  0.21003000  0.16330000  0.36154000  1.0
  H  H88  1  0.80162000  0.79011000  0.13856000  1.0
  H  H89  1  0.83710000  0.34851000  0.13857000  1.0
  H  H90  1  0.34881000  0.80143000  0.63861000  1.0
  H  H91  1  0.78997000  0.83671000  0.63846000  1.0
  H  H92  1  0.29753000  0.33130000  0.92094000  1.0
  H  H93  1  0.12321000  0.58970000  0.92098000  1.0
  H  H94  1  0.58948000  0.29782000  0.42100000  1.0
  H  H95  1  0.33138000  0.12347000  0.42100000  1.0
  H  H96  1  0.70248000  0.66870000  0.07907000  1.0
  H  H97  1  0.87678000  0.41030000  0.07901000  1.0
  H  H98  1  0.41050000  0.70218000  0.57899000  1.0
  H  H99  1  0.66862000  0.87653000  0.57900000  1.0
  H  H100  1  0.46850000  0.79685000  0.16938000  1.0
  H  H101  1  0.20051000  0.37241000  0.16945000  1.0
  H  H102  1  0.37232000  0.46891000  0.66927000  1.0
  H  H103  1  0.79706000  0.20097000  0.66942000  1.0
  H  H104  1  0.53149000  0.20315000  0.83061000  1.0
  H  H105  1  0.79949000  0.62759000  0.83056000  1.0
  H  H106  1  0.62768000  0.53109000  0.33073000  1.0
  H  H107  1  0.20294000  0.79903000  0.33058000  1.0
  H  H108  1  0.53076000  0.82582000  0.10589000  1.0
  H  H109  1  0.07477000  0.27990000  0.10599000  1.0
  H  H110  1  0.27981000  0.53108000  0.60566000  1.0
  H  H111  1  0.82621000  0.07526000  0.60596000  1.0
  H  H112  1  0.46924000  0.17417000  0.89411000  1.0
  H  H113  1  0.92522000  0.72010000  0.89401000  1.0
  H  H114  1  0.72020000  0.46892000  0.39434000  1.0
  H  H115  1  0.17379000  0.92474000  0.39404000  1.0
  H  H116  1  0.57562000  0.71651000  0.03732000  1.0
  H  H117  1  0.96145000  0.32046000  0.03721000  1.0
  H  H118  1  0.32056000  0.57560000  0.53696000  1.0
  H  H119  1  0.71693000  0.96177000  0.53738000  1.0
  H  H120  1  0.42439000  0.28349000  0.96268000  1.0
  H  H121  1  0.03856000  0.67954000  0.96280000  1.0
  H  H122  1  0.67944000  0.42439000  0.46304000  1.0
  H  H123  1  0.28307000  0.03823000  0.46262000  1.0
  H  H124  1  0.56065000  0.57944000  0.03544000  1.0
  H  H125  1  0.97451000  0.45558000  0.03518000  1.0
  H  H126  1  0.45578000  0.56068000  0.53516000  1.0
  H  H127  1  0.57986000  0.97473000  0.53549000  1.0
  H  H128  1  0.43935000  0.42056000  0.96456000  1.0
  H  H129  1  0.02549000  0.54442000  0.96482000  1.0
  H  H130  1  0.54422000  0.43932000  0.46484000  1.0
  H  H131  1  0.42014000  0.02527000  0.46451000  1.0
  H  H132  1  0.49931000  0.55052000  0.09922000  1.0
  H  H133  1  0.09960000  0.54837000  0.09900000  1.0
  H  H134  1  0.54851000  0.49950000  0.59908000  1.0
  H  H135  1  0.55081000  0.09977000  0.59927000  1.0
  H  H136  1  0.50069000  0.44948000  0.90078000  1.0
  H  H137  1  0.90041000  0.45163000  0.90101000  1.0
  H  H138  1  0.45149000  0.50050000  0.40092000  1.0
  H  H139  1  0.44919000  0.90023000  0.40073000  1.0
  H  H140  1  0.29439000  0.97352000  0.14018000  1.0
  H  H141  1  0.34606000  0.16670000  0.14007000  1.0
  H  H142  1  0.16660000  0.29374000  0.64000000  1.0
  H  H143  1  0.97337333  0.34606000  0.64004000  1.0
  H  H144  1  0.70561000  0.02647000  0.85982000  1.0
  H  H145  1  0.65394000  0.83330000  0.85993000  1.0
  H  H146  1  0.83339000  0.70625000  0.35999000  1.0
  H  H147  1  0.02662667  0.65394000  0.35996000  1.0
  H  H148  1  0.24557000  0.09992000  0.18381000  1.0
  H  H149  1  0.43831000  0.08371000  0.18364000  1.0
  H  H150  1  0.08385000  0.24503000  0.68370000  1.0
  H  H151  1  0.09989000  0.43845000  0.68364000  1.0
  H  H152  1  0.75443000  0.90007000  0.81618000  1.0
  H  H153  1  0.56169000  0.91629000  0.81636000  1.0
  H  H154  1  0.91614000  0.75497000  0.31629000  1.0
  H  H155  1  0.90011000  0.56155000  0.31636000  1.0
  H  H156  1  0.20604000  0.12283000  0.27081000  1.0
  H  H157  1  0.56477000  0.14768000  0.27079000  1.0
  H  H158  1  0.14803000  0.20588000  0.77092000  1.0
  H  H159  1  0.12300000  0.56482000  0.77088000  1.0
  H  H160  1  0.79396000  0.87717000  0.72918000  1.0
  H  H161  1  0.43523000  0.85232000  0.72921000  1.0
  H  H162  1  0.85196000  0.79412000  0.22908000  1.0
  H  H163  1  0.87700000  0.43518000  0.22912000  1.0
  H  H164  1  0.21623000  0.01772000  0.31471000  1.0
  H  H165  1  0.59868000  0.29665000  0.31473000  1.0
  H  H166  1  0.29704000  0.21620000  0.81484000  1.0
  H  H167  1  0.01797000  0.59850000  0.81484000  1.0
  H  H168  1  0.78377000  0.98228000  0.68529000  1.0
  H  H169  1  0.40132000  0.70335000  0.68527000  1.0
  H  H170  1  0.70295000  0.78379000  0.18515000  1.0
  H  H171  1  0.98203000  0.40151000  0.18516000  1.0
  H  H172  1  0.26706000  0.89397000  0.27248000  1.0
  H  H173  1  0.50583000  0.37834000  0.27249000  1.0
  H  H174  1  0.37850000  0.26682000  0.77248000  1.0
  H  H175  1  0.89410000  0.50559000  0.77253000  1.0
  H  H176  1  0.73294000  0.10603000  0.72753000  1.0
  H  H177  1  0.49417000  0.62166000  0.72751000  1.0
  H  H178  1  0.62149000  0.73317000  0.22751000  1.0
  H  H179  1  0.10589000  0.49442000  0.22747000  1.0
  H  H180  1  0.44417000  0.97258000  0.26246000  1.0
  H  H181  1  0.31820000  0.28980000  0.26252000  1.0
  H  H182  1  0.29010000  0.44422000  0.76260000  1.0
  H  H183  1  0.97264000  0.31836000  0.76252000  1.0
  H  H184  1  0.55584000  0.02742000  0.73754000  1.0
  H  H185  1  0.68180000  0.71020000  0.73748000  1.0
  H  H186  1  0.70989000  0.55579000  0.23739000  1.0
  H  H187  1  0.02737000  0.68164000  0.23748000  1.0
  H  H188  1  0.40993000  0.10049000  0.31806000  1.0
  H  H189  1  0.40825000  0.21775000  0.31824000  1.0
  H  H190  1  0.21805000  0.41009000  0.81841000  1.0
  H  H191  1  0.10045000  0.40834000  0.81826000  1.0
  H  H192  1  0.59008000  0.89951000  0.68194000  1.0
  H  H193  1  0.59175000  0.78225000  0.68176000  1.0
  H  H194  1  0.78195000  0.58992000  0.18159000  1.0
  H  H195  1  0.89955000  0.59166000  0.18174000  1.0
  H  H196  1  0.47418000  0.16157000  0.43063000  1.0
  H  H197  1  0.45637000  0.26927000  0.43081000  1.0
  H  H198  1  0.26963000  0.47468000  0.93095000  1.0
  H  H199  1  0.16148000  0.45636000  0.93080000  1.0
  H  H200  1  0.52581000  0.83843000  0.56937000  1.0
  H  H201  1  0.54363000  0.73073000  0.56919000  1.0
  H  H202  1  0.73036000  0.52533000  0.06904000  1.0
  H  H203  1  0.83853000  0.54364000  0.06920000  1.0
  H  H204  1  0.57300000  0.09381000  0.48511000  1.0
  H  H205  1  0.41176000  0.39138000  0.48516000  1.0
  H  H206  1  0.39170000  0.57367000  0.98524000  1.0
  H  H207  1  0.09376000  0.41175000  0.98516000  1.0
  H  H208  1  0.42700000  0.90618000  0.51489000  1.0
  H  H209  1  0.58824000  0.60862000  0.51484000  1.0
  H  H210  1  0.60831000  0.42633000  0.01476000  1.0
  H  H211  1  0.90624000  0.58825000  0.01483000  1.0
  H  H212  1  0.60599000  0.96544000  0.43007000  1.0
  H  H213  1  0.32369000  0.46462000  0.43001000  1.0
  H  H214  1  0.46477000  0.60659000  0.93000000  1.0
  H  H215  1  0.96542000  0.32364000  0.92999000  1.0
  H  H216  1  0.39401000  0.03456000  0.56993000  1.0
  H  H217  1  0.67631000  0.53539000  0.56999000  1.0
  H  H218  1  0.53523000  0.39341000  0.07000000  1.0
  H  H219  1  0.03458000  0.67636000  0.07000000  1.0
  C  C220  1  0.40500000  0.20601000  0.03385000  1.0
  C  C221  1  0.12874000  0.82788000  0.03392000  1.0
  C  C222  1  0.82791000  0.40516000  0.53386000  1.0
  C  C223  1  0.20613000  0.12841000  0.53365000  1.0
  C  C224  1  0.59500000  0.79400000  0.96615000  1.0
  C  C225  1  0.87125000  0.17212000  0.96608000  1.0
  C  C226  1  0.17208000  0.59485000  0.46613000  1.0
  C  C227  1  0.79387000  0.87158000  0.46635000  1.0
  C  C228  1  0.42192000  0.12898000  0.01325000  1.0
  C  C229  1  0.09121000  0.88426000  0.01328000  1.0
  C  C230  1  0.88429000  0.42210000  0.51326000  1.0
  C  C231  1  0.12916000  0.09077000  0.51294000  1.0
  C  C232  1  0.57808000  0.87102000  0.98675000  1.0
  C  C233  1  0.90879000  0.11574000  0.98672000  1.0
  C  C234  1  0.11571000  0.57790000  0.48674000  1.0
  C  C235  1  0.87085000  0.90923000  0.48706000  1.0
  C  C236  1  0.49804000  0.11153000  0.04120000  1.0
  C  C237  1  0.04303000  0.92968000  0.04121000  1.0
  C  C238  1  0.92960000  0.49824000  0.54116000  1.0
  C  C239  1  0.11166000  0.04277000  0.54098000  1.0
  C  C240  1  0.50196000  0.88846000  0.95881000  1.0
  C  C241  1  0.95695000  0.07031000  0.95878000  1.0
  C  C242  1  0.07040000  0.50176000  0.45884000  1.0
  C  C243  1  0.88836000  0.95723000  0.45903000  1.0
  C  C244  1  0.55314000  0.17492000  0.08942000  1.0
  C  C245  1  0.03612000  0.91458000  0.08945000  1.0
  C  C246  1  0.91437000  0.55339000  0.58933000  1.0
  C  C247  1  0.17498000  0.03599000  0.58930000  1.0
  C  C248  1  0.44686000  0.82508000  0.91058000  1.0
  C  C249  1  0.96388000  0.08541000  0.91055000  1.0
  C  C250  1  0.08563000  0.44661000  0.41067000  1.0
  C  C251  1  0.82504000  0.96401000  0.41071000  1.0
  C  C252  1  0.53179000  0.25057000  0.10682000  1.0
  C  C253  1  0.07486000  0.85635000  0.10688000  1.0
  C  C254  1  0.85619000  0.53200000  0.60678000  1.0
  C  C255  1  0.25062000  0.07476000  0.60674000  1.0
  C  C256  1  0.46820000  0.74944000  0.89318000  1.0
  C  C257  1  0.92514000  0.14364000  0.89312000  1.0
  C  C258  1  0.14381000  0.46801000  0.39322000  1.0
  C  C259  1  0.74939000  0.92523000  0.39326000  1.0
  C  C260  1  0.52214000  0.03297000  0.02340000  1.0
  C  C261  1  0.00116000  0.99042000  0.02338000  1.0
  C  C262  1  0.99036000  0.52225000  0.52333000  1.0
  C  C263  1  0.03306000  0.00099000  0.52325000  1.0
  C  C264  1  0.47784000  0.96704000  0.97659000  1.0
  C  C265  1  0.99883000  0.00957000  0.97662000  1.0
  C  C266  1  0.00964000  0.47775000  0.47667000  1.0
  C  C267  1  0.96694000  0.99901000  0.47675000  1.0
  C  C268  1  0.27493000  0.35394000  0.00219000  1.0
  C  C269  1  0.22710000  0.64826000  0.00219000  1.0
  C  C270  1  0.64818000  0.27516000  0.50221000  1.0
  C  C271  1  0.35411000  0.22731000  0.50227000  1.0
  C  C272  1  0.72507000  0.64607000  0.99781000  1.0
  C  C273  1  0.77289000  0.35174000  0.99780000  1.0
  C  C274  1  0.35182000  0.72484000  0.49779000  1.0
  C  C275  1  0.64589000  0.77269000  0.49773000  1.0
  C  C276  1  0.22828000  0.32871000  0.02771000  1.0
  C  C277  1  0.29930000  0.69894000  0.02768000  1.0
  C  C278  1  0.69895000  0.22847000  0.52768000  1.0
  C  C279  1  0.32899000  0.29955000  0.52781000  1.0
  C  C280  1  0.77173000  0.67129000  0.97229000  1.0
  C  C281  1  0.70068000  0.30106000  0.97231000  1.0
  C  C282  1  0.30104000  0.77154000  0.47232000  1.0
  C  C283  1  0.67102000  0.70045000  0.47219000  1.0
  C  C284  1  0.17194000  0.26065000  0.99382000  1.0
  C  C285  1  0.32172000  0.73310000  0.99376000  1.0
  C  C286  1  0.73310000  0.17212000  0.49374000  1.0
  C  C287  1  0.26094000  0.32208000  0.49393000  1.0
  C  C288  1  0.82805000  0.73936000  0.00618000  1.0
  C  C289  1  0.67827000  0.26690000  0.00623000  1.0
  C  C290  1  0.26692000  0.82788000  0.50627000  1.0
  C  C291  1  0.73906000  0.67792000  0.50607000  1.0
  C  C292  1  0.16151000  0.21693000  0.93411000  1.0
  C  C293  1  0.27242000  0.71710000  0.93404000  1.0
  C  C294  1  0.71696000  0.16166000  0.43399000  1.0
  C  C295  1  0.21715000  0.27283000  0.43423000  1.0
  C  C296  1  0.83849000  0.78308000  0.06590000  1.0
  C  C297  1  0.72757000  0.28290000  0.06595000  1.0
  C  C298  1  0.28304000  0.83835000  0.56601000  1.0
  C  C299  1  0.78286000  0.72718000  0.56578000  1.0
  C  C300  1  0.20690000  0.24271000  0.90827000  1.0
  C  C301  1  0.20121000  0.66548000  0.90825000  1.0
  C  C302  1  0.66530000  0.20709000  0.40822000  1.0
  C  C303  1  0.24290000  0.20158000  0.40837000  1.0
  C  C304  1  0.79310000  0.75729000  0.09173000  1.0
  C  C305  1  0.79879000  0.33452000  0.09175000  1.0
  C  C306  1  0.33470000  0.79291000  0.59178000  1.0
  C  C307  1  0.75710000  0.79842000  0.59163000  1.0
  C  C308  1  0.26298000  0.31117000  0.94169000  1.0
  C  C309  1  0.17852000  0.63054000  0.94171000  1.0
  C  C310  1  0.63037000  0.26324000  0.44171000  1.0
  C  C311  1  0.31132000  0.17882000  0.44177000  1.0
  C  C312  1  0.73701000  0.68883000  0.05831000  1.0
  C  C313  1  0.82147000  0.36946000  0.05828000  1.0
  C  C314  1  0.36962000  0.73676000  0.55829000  1.0
  C  C315  1  0.68868000  0.82118000  0.55823000  1.0
  C  C316  1  0.47776000  0.67132000  0.13736000  1.0
  C  C317  1  0.15924000  0.46577000  0.13726000  1.0
  C  C318  1  0.46578000  0.47801000  0.63719000  1.0
  C  C319  1  0.67161000  0.15957000  0.63738000  1.0
  C  C320  1  0.52224000  0.32867000  0.86264000  1.0
  C  C321  1  0.84076000  0.53423000  0.86274000  1.0
  C  C322  1  0.53422000  0.52199000  0.36281000  1.0
  C  C323  1  0.32839000  0.84043000  0.36261000  1.0
  C  C324  1  0.48803000  0.74906000  0.13961000  1.0
  C  C325  1  0.15118000  0.39037000  0.13963000  1.0
  C  C326  1  0.39032000  0.48837000  0.63946000  1.0
  C  C327  1  0.74935000  0.15159000  0.63966000  1.0
  C  C328  1  0.51196000  0.25094000  0.86039000  1.0
  C  C329  1  0.84882000  0.60964000  0.86037000  1.0
  C  C330  1  0.60970000  0.51164000  0.36055000  1.0
  C  C331  1  0.25065000  0.84841000  0.36034000  1.0
  C  C332  1  0.52334000  0.76510000  0.10378000  1.0
  C  C333  1  0.08008000  0.33850000  0.10382000  1.0
  C  C334  1  0.33843000  0.52359000  0.60356000  1.0
  C  C335  1  0.76548000  0.08050000  0.60387000  1.0
  C  C336  1  0.47666000  0.23490000  0.89622000  1.0
  C  C337  1  0.91992000  0.66150000  0.89619000  1.0
  C  C338  1  0.66157000  0.47641000  0.39644000  1.0
  C  C339  1  0.23453000  0.91950000  0.39613000  1.0
  C  C340  1  0.54867000  0.70420000  0.06565000  1.0
  C  C341  1  0.01670000  0.36114000  0.06553000  1.0
  C  C342  1  0.36118000  0.54874000  0.56534000  1.0
  C  C343  1  0.70462000  0.01703000  0.56572000  1.0
  C  C344  1  0.45133000  0.29580000  0.93435000  1.0
  C  C345  1  0.98330000  0.63886000  0.93447000  1.0
  C  C346  1  0.63881000  0.45126000  0.43465000  1.0
  C  C347  1  0.29538000  0.98297000  0.43428000  1.0
  C  C348  1  0.53990000  0.62712000  0.06435000  1.0
  C  C349  1  0.02414000  0.43688000  0.06415000  1.0
  C  C350  1  0.43699000  0.54000000  0.56408000  1.0
  C  C351  1  0.62752000  0.02442000  0.56442000  1.0
  C  C352  1  0.46010000  0.37288000  0.93565000  1.0
  C  C353  1  0.97586000  0.56312000  0.93585000  1.0
  C  C354  1  0.56302000  0.46000000  0.43592000  1.0
  C  C355  1  0.37248000  0.97558000  0.43558000  1.0
  C  C356  1  0.50487000  0.61063000  0.10002000  1.0
  C  C357  1  0.09482000  0.48908000  0.09982000  1.0
  C  C358  1  0.48915000  0.50500000  0.59980000  1.0
  C  C359  1  0.61093000  0.09508000  0.60006000  1.0
  C  C360  1  0.49513000  0.38937000  0.89998000  1.0
  C  C361  1  0.90518000  0.51092000  0.90018000  1.0
  C  C362  1  0.51085000  0.49500000  0.40020000  1.0
  C  C363  1  0.38907000  0.90492000  0.39994000  1.0
  C  C364  1  0.28352000  0.92518000  0.20316000  1.0
  C  C365  1  0.41995000  0.27788000  0.20312000  1.0
  C  C366  1  0.27790000  0.28299000  0.70303000  1.0
  C  C367  1  0.92524000  0.41986000  0.70312000  1.0
  C  C368  1  0.71648000  0.07482000  0.79685000  1.0
  C  C369  1  0.58006000  0.72212000  0.79689000  1.0
  C  C370  1  0.72209000  0.71700000  0.29697000  1.0
  C  C371  1  0.07475000  0.58014000  0.29688000  1.0
  C  C372  1  0.27691000  0.98375000  0.17840000  1.0
  C  C373  1  0.40177000  0.19455000  0.17830000  1.0
  C  C374  1  0.19456000  0.27628000  0.67824000  1.0
  C  C375  1  0.98376000  0.40175000  0.67830000  1.0
  C  C376  1  0.72309000  0.01624000  0.82160000  1.0
  C  C377  1  0.59823000  0.80545000  0.82170000  1.0
  C  C378  1  0.80544000  0.72372000  0.32176000  1.0
  C  C379  1  0.01624000  0.59825000  0.32170000  1.0
  C  C380  1  0.24901000  0.05428000  0.20271000  1.0
  C  C381  1  0.45386000  0.14824000  0.20260000  1.0
  C  C382  1  0.14839000  0.24846000  0.70262000  1.0
  C  C383  1  0.05435000  0.45389000  0.70264000  1.0
  C  C384  1  0.75098000  0.94571000  0.79728000  1.0
  C  C385  1  0.54614000  0.85177000  0.79740000  1.0
  C  C386  1  0.85160000  0.75154000  0.29737000  1.0
  C  C387  1  0.94565000  0.54611000  0.29736000  1.0
  C  C388  1  0.22660000  0.06702000  0.25160000  1.0
  C  C389  1  0.52513000  0.18434000  0.25156000  1.0
  C  C390  1  0.18460000  0.22630000  0.75163000  1.0
  C  C391  1  0.06715000  0.52511000  0.75163000  1.0
  C  C392  1  0.77341000  0.93298000  0.74840000  1.0
  C  C393  1  0.47487000  0.81566000  0.74845000  1.0
  C  C394  1  0.81538000  0.77370000  0.24836000  1.0
  C  C395  1  0.93285000  0.47489000  0.24837000  1.0
  C  C396  1  0.23251000  0.00866000  0.27607000  1.0
  C  C397  1  0.54378000  0.26718000  0.27605000  1.0
  C  C398  1  0.26745000  0.23230000  0.77612000  1.0
  C  C399  1  0.00881000  0.54365000  0.77614000  1.0
  C  C400  1  0.76748000  0.99134000  0.72392000  1.0
  C  C401  1  0.45622000  0.73282000  0.72395000  1.0
  C  C402  1  0.73255000  0.76769000  0.22388000  1.0
  C  C403  1  0.99119000  0.45635000  0.22386000  1.0
  C  C404  1  0.26102000  0.93836000  0.25230000  1.0
  C  C405  1  0.49158000  0.31379000  0.25229000  1.0
  C  C406  1  0.31392000  0.26069000  0.75225000  1.0
  C  C407  1  0.93847000  0.49144000  0.75233000  1.0
  C  C408  1  0.73898000  0.06164000  0.74770000  1.0
  C  C409  1  0.50841000  0.68622000  0.74771000  1.0
  C  C410  1  0.68607000  0.73930000  0.24774000  1.0
  C  C411  1  0.06153000  0.50856000  0.24767000  1.0
  C  C412  1  0.52684000  0.95971000  0.34210000  1.0
  C  C413  1  0.31497000  0.38227000  0.34208000  1.0
  C  C414  1  0.38250000  0.52717000  0.84212000  1.0
  C  C415  1  0.95976000  0.31505000  0.84207000  1.0
  C  C416  1  0.47316000  0.04029000  0.65790000  1.0
  C  C417  1  0.68504000  0.61773000  0.65792000  1.0
  C  C418  1  0.61750000  0.47283000  0.15788000  1.0
  C  C419  1  0.04025000  0.68494000  0.15792000  1.0
  C  C420  1  0.47292000  0.99978000  0.31128000  1.0
  C  C421  1  0.33819000  0.31142000  0.31133000  1.0
  C  C422  1  0.31169000  0.47316000  0.81142000  1.0
  C  C423  1  0.99984000  0.33834000  0.81135000  1.0
  C  C424  1  0.52708000  0.00022000  0.68872000  1.0
  C  C425  1  0.66181000  0.68858000  0.68866000  1.0
  C  C426  1  0.68831000  0.52684000  0.18858000  1.0
  C  C427  1  0.00017000  0.66165000  0.18865000  1.0
  C  C428  1  0.45393000  0.07189000  0.34280000  1.0
  C  C429  1  0.38884000  0.27099000  0.34294000  1.0
  C  C430  1  0.27128000  0.45423000  0.84306000  1.0
  C  C431  1  0.07189000  0.38890000  0.84294000  1.0
  C  C432  1  0.54607000  0.92811000  0.65720000  1.0
  C  C433  1  0.61116000  0.72901000  0.65706000  1.0
  C  C434  1  0.72870000  0.54579000  0.15693000  1.0
  C  C435  1  0.92811000  0.61111000  0.15706000  1.0
  C  C436  1  0.48955000  0.10592000  0.40548000  1.0
  C  C437  1  0.41578000  0.29968000  0.40562000  1.0
  C  C438  1  0.30007000  0.49001000  0.90575000  1.0
  C  C439  1  0.10584000  0.41583000  0.90562000  1.0
  C  C440  1  0.51045000  0.89408000  0.59452000  1.0
  C  C441  1  0.58420000  0.70031000  0.59437000  1.0
  C  C442  1  0.69993000  0.51000000  0.09425000  1.0
  C  C443  1  0.89416000  0.58417000  0.09438000  1.0
  C  C444  1  0.54472000  0.06761000  0.43625000  1.0
  C  C445  1  0.39124000  0.36870000  0.43631000  1.0
  C  C446  1  0.36900000  0.54532000  0.93639000  1.0
  C  C447  1  0.06756000  0.39125000  0.93631000  1.0
  C  C448  1  0.45528000  0.93239000  0.56375000  1.0
  C  C449  1  0.60877000  0.63130000  0.56369000  1.0
  C  C450  1  0.63100000  0.45468000  0.06361000  1.0
  C  C451  1  0.93244000  0.60875000  0.06368000  1.0
  C  C452  1  0.56351000  0.99499000  0.40502000  1.0
  C  C453  1  0.34119000  0.41002000  0.40502000  1.0
  C  C454  1  0.41024000  0.56405000  0.90505000  1.0
  C  C455  1  0.99498000  0.34118000  0.90500000  1.0
  C  C456  1  0.43649000  0.00500000  0.59498000  1.0
  C  C457  1  0.65882000  0.58998000  0.59498000  1.0
  C  C458  1  0.58976000  0.43596000  0.09495000  1.0
  C  C459  1  0.00502000  0.65882000  0.09499000  1.0
  S  S460  1  0.35272000  0.43643000  0.04461000  1.0
  S  S461  1  0.19173000  0.60830000  0.04467000  1.0
  S  S462  1  0.60818000  0.35296000  0.54470000  1.0
  S  S463  1  0.43654000  0.19181000  0.54464000  1.0
  S  S464  1  0.64728000  0.56358000  0.95539000  1.0
  S  S465  1  0.80827000  0.39170000  0.95533000  1.0
  S  S466  1  0.39181000  0.64704000  0.45530000  1.0
  S  S467  1  0.56347000  0.80819000  0.45536000  1.0
  S  S468  1  0.43238000  0.64999000  0.18257000  1.0
  S  S469  1  0.24987000  0.53223000  0.18248000  1.0
  S  S470  1  0.53225000  0.43263000  0.68245000  1.0
  S  S471  1  0.65027000  0.25016000  0.68257000  1.0
  S  S472  1  0.56761000  0.35001000  0.81743000  1.0
  S  S473  1  0.75014000  0.46777000  0.81752000  1.0
  S  S474  1  0.46775000  0.56738000  0.31755000  1.0
  S  S475  1  0.34974000  0.74984000  0.31744000  1.0
  S  S476  1  0.32299000  0.83872000  0.17185000  1.0
  S  S477  1  0.34908000  0.33313000  0.17197000  1.0
  S  S478  1  0.33300000  0.32273000  0.67180000  1.0
  S  S479  1  0.83883000  0.34904000  0.67191000  1.0
  S  S480  1  0.67702000  0.16127000  0.82816000  1.0
  S  S481  1  0.65091000  0.66687000  0.82803000  1.0
  S  S482  1  0.66700000  0.67726000  0.32820000  1.0
  S  S483  1  0.16117000  0.65097000  0.32809000  1.0
  S  S484  1  0.54450000  0.86651000  0.29837000  1.0
  S  S485  1  0.25356000  0.43171000  0.29832000  1.0
  S  S486  1  0.43192000  0.54469000  0.79831000  1.0
  S  S487  1  0.86660000  0.25361000  0.79831000  1.0
  S  S488  1  0.45549000  0.13349000  0.70162000  1.0
  S  S489  1  0.74644000  0.56829000  0.70167000  1.0
  S  S490  1  0.56808000  0.45531000  0.20169000  1.0
  S  S491  1  0.13341000  0.74638000  0.20169000  1.0
  N  N492  1  0.45912000  0.26625000  0.07950000  1.0
  N  N493  1  0.12025000  0.81335000  0.07959000  1.0
  N  N494  1  0.81330000  0.45928000  0.57951000  1.0
  N  N495  1  0.26632000  0.12008000  0.57941000  1.0
  N  N496  1  0.54088000  0.73376000  0.92050000  1.0
  N  N497  1  0.87975000  0.18664000  0.92041000  1.0
  N  N498  1  0.18670000  0.54072000  0.42049000  1.0
  N  N499  1  0.73368000  0.87991000  0.42059000  1.0
