# generated using pymatgen
data_CuH11C13N4ClO
_symmetry_space_group_name_H-M   'P 1'
_cell_length_a   8.50483000
_cell_length_b   11.53700000
_cell_length_c   14.08830000
_cell_angle_alpha   75.46800000
_cell_angle_beta   89.99990000
_cell_angle_gamma   89.99990000
_symmetry_Int_Tables_number   1
_chemical_formula_structural   CuH11C13N4ClO
_chemical_formula_sum   'Cu4 H44 C52 N16 Cl4 O4'
_cell_volume   1338.12261505
_cell_formula_units_Z   4
loop_
 _symmetry_equiv_pos_site_id
 _symmetry_equiv_pos_as_xyz
  1  'x, y, z'
loop_
 _atom_site_type_symbol
 _atom_site_label
 _atom_site_symmetry_multiplicity
 _atom_site_fract_x
 _atom_site_fract_y
 _atom_site_fract_z
 _atom_site_occupancy
  Cu  Cu0  1  0.87900000  0.53077000  0.15082000  1.0
  Cu  Cu1  1  0.37900000  0.96923000  0.34918000  1.0
  Cu  Cu2  1  0.12100000  0.46923000  0.84918000  1.0
  Cu  Cu3  1  0.62100000  0.03077000  0.65082000  1.0
  H  H4  1  0.17920000  0.20214000  0.26083000  1.0
  H  H5  1  0.67919000  0.29786000  0.23917000  1.0
  H  H6  1  0.82080000  0.79786000  0.73917000  1.0
  H  H7  1  0.32080000  0.70214000  0.76083000  1.0
  H  H8  1  0.17929000  0.86129000  0.21360000  1.0
  H  H9  1  0.67928000  0.63871000  0.28640000  1.0
  H  H10  1  0.82071000  0.13871000  0.78640000  1.0
  H  H11  1  0.32072000  0.36129000  0.71360000  1.0
  H  H12  1  0.96646000  0.91507000  0.08960000  1.0
  H  H13  1  0.46645000  0.58493000  0.41040000  1.0
  H  H14  1  0.03354000  0.08493000  0.91040000  1.0
  H  H15  1  0.53354000  0.41507000  0.58960000  1.0
  H  H16  1  0.85810000  0.12682000  0.04830000  1.0
  H  H17  1  0.35809000  0.37318000  0.45170000  1.0
  H  H18  1  0.14191000  0.87318000  0.95170000  1.0
  H  H19  1  0.64191000  0.62682000  0.54830000  1.0
  H  H20  1  0.72343000  0.52027000  0.82303000  1.0
  H  H21  1  0.22343000  0.97973000  0.67698000  1.0
  H  H22  1  0.27657000  0.47973000  0.17698000  1.0
  H  H23  1  0.77657000  0.02027000  0.32303000  1.0
  H  H24  1  0.54296000  0.47445000  0.88483000  1.0
  H  H25  1  0.04296000  0.02555000  0.61517000  1.0
  H  H26  1  0.45704000  0.52554000  0.11517000  1.0
  H  H27  1  0.95704000  0.97445000  0.38483000  1.0
  H  H28  1  0.70811000  0.37490000  0.90256000  1.0
  H  H29  1  0.20811000  0.12511000  0.59744000  1.0
  H  H30  1  0.29189000  0.62510000  0.09744000  1.0
  H  H31  1  0.79189000  0.87489000  0.40256000  1.0
  H  H32  1  0.54675000  0.69283000  0.85453000  1.0
  H  H33  1  0.04675000  0.80717000  0.64547000  1.0
  H  H34  1  0.45325000  0.30717000  0.14547000  1.0
  H  H35  1  0.95325000  0.19283000  0.35453000  1.0
  H  H36  1  0.49433000  0.89422000  0.88167000  1.0
  H  H37  1  0.99434000  0.60579000  0.61833000  1.0
  H  H38  1  0.50567000  0.10578000  0.11833000  1.0
  H  H39  1  0.00566000  0.39421000  0.38167000  1.0
  H  H40  1  0.60563000  0.94225000  0.03479000  1.0
  H  H41  1  0.10563000  0.55775000  0.46521000  1.0
  H  H42  1  0.39438000  0.05775000  0.96521000  1.0
  H  H43  1  0.89438000  0.44225000  0.53479000  1.0
  H  H44  1  0.77538000  0.78970000  0.14588000  1.0
  H  H45  1  0.27538000  0.71030000  0.35412000  1.0
  H  H46  1  0.22462000  0.21030000  0.85411000  1.0
  H  H47  1  0.72462000  0.28970000  0.64589000  1.0
  C  C48  1  0.12896000  0.14045000  0.22166000  1.0
  C  C49  1  0.62896000  0.35955000  0.27834000  1.0
  C  C50  1  0.87104000  0.85955000  0.77834000  1.0
  C  C51  1  0.37104000  0.64045000  0.72166000  1.0
  C  C52  1  0.12862000  0.95096000  0.19519000  1.0
  C  C53  1  0.62861000  0.54904000  0.30481000  1.0
  C  C54  1  0.87138000  0.04904000  0.80481000  1.0
  C  C55  1  0.37139000  0.45096000  0.69519000  1.0
  C  C56  1  0.00969000  0.98196000  0.12547000  1.0
  C  C57  1  0.50968000  0.51804000  0.37453000  1.0
  C  C58  1  0.99031000  0.01804000  0.87453000  1.0
  C  C59  1  0.49031000  0.48196000  0.62547000  1.0
  C  C60  1  0.95001000  0.09785000  0.10298000  1.0
  C  C61  1  0.45001000  0.40215000  0.39702000  1.0
  C  C62  1  0.04999000  0.90215000  0.89702000  1.0
  C  C63  1  0.54999000  0.59785000  0.60298000  1.0
  C  C64  1  0.01040000  0.17975000  0.15221000  1.0
  C  C65  1  0.51039000  0.32025000  0.34779000  1.0
  C  C66  1  0.98960000  0.82025000  0.84779000  1.0
  C  C67  1  0.48960000  0.67975000  0.65221000  1.0
  C  C68  1  0.95378000  0.30488000  0.13238000  1.0
  C  C69  1  0.45378000  0.19513000  0.36762000  1.0
  C  C70  1  0.04622000  0.69513000  0.86762000  1.0
  C  C71  1  0.54622000  0.80487000  0.63238000  1.0
  C  C72  1  0.72693000  0.51538000  0.97510000  1.0
  C  C73  1  0.22693000  0.98463000  0.52490000  1.0
  C  C74  1  0.27307000  0.48462000  0.02490000  1.0
  C  C75  1  0.77307000  0.01537000  0.47510000  1.0
  C  C76  1  0.67144000  0.46808000  0.89201000  1.0
  C  C77  1  0.17144000  0.03192000  0.60799000  1.0
  C  C78  1  0.32856000  0.53192000  0.10799000  1.0
  C  C79  1  0.82856000  0.96808000  0.39201000  1.0
  C  C80  1  0.69075000  0.63617000  0.98389000  1.0
  C  C81  1  0.19075000  0.86383000  0.51612000  1.0
  C  C82  1  0.30924000  0.36383000  0.01611000  1.0
  C  C83  1  0.80924000  0.13617000  0.48389000  1.0
  C  C84  1  0.59519000  0.71699000  0.91834000  1.0
  C  C85  1  0.09519000  0.78301000  0.58166000  1.0
  C  C86  1  0.40481000  0.28301000  0.08166000  1.0
  C  C87  1  0.90481000  0.21699000  0.41834000  1.0
  C  C88  1  0.56447000  0.82932000  0.93453000  1.0
  C  C89  1  0.06447000  0.67068000  0.56547000  1.0
  C  C90  1  0.43553000  0.17068000  0.06547000  1.0
  C  C91  1  0.93553000  0.32932000  0.43453000  1.0
  C  C92  1  0.62785000  0.85708000  0.01731000  1.0
  C  C93  1  0.12785000  0.64293000  0.48269000  1.0
  C  C94  1  0.37215000  0.14292000  0.98268000  1.0
  C  C95  1  0.87215000  0.35707000  0.51731000  1.0
  C  C96  1  0.72302000  0.77273000  0.08002000  1.0
  C  C97  1  0.22302000  0.72728000  0.41998000  1.0
  C  C98  1  0.27698000  0.22727000  0.91999000  1.0
  C  C99  1  0.77698000  0.27272000  0.58001000  1.0
  N  N100  1  0.18719000  0.02907000  0.24248000  1.0
  N  N101  1  0.68718000  0.47093000  0.25752000  1.0
  N  N102  1  0.81281000  0.97093000  0.75752000  1.0
  N  N103  1  0.31282000  0.52907000  0.74248000  1.0
  N  N104  1  0.85658000  0.34014000  0.05574000  1.0
  N  N105  1  0.35658000  0.15987000  0.44426000  1.0
  N  N106  1  0.14342000  0.65987000  0.94426000  1.0
  N  N107  1  0.64342000  0.84013000  0.55574000  1.0
  N  N108  1  0.81298000  0.45443000  0.04770000  1.0
  N  N109  1  0.31298000  0.04557000  0.45230000  1.0
  N  N110  1  0.18702000  0.54557000  0.95230000  1.0
  N  N111  1  0.68702000  0.95443000  0.54770000  1.0
  N  N112  1  0.75570000  0.66662000  0.06295000  1.0
  N  N113  1  0.25570000  0.83339000  0.43705000  1.0
  N  N114  1  0.24430000  0.33333333  0.93705000  1.0
  N  N115  1  0.74430000  0.16662000  0.56295000  1.0
  Cl  Cl116  1  0.01321000  0.63344000  0.24009000  1.0
  Cl  Cl117  1  0.51321000  0.86656000  0.25991000  1.0
  Cl  Cl118  1  0.98678000  0.36656000  0.75990000  1.0
  Cl  Cl119  1  0.48679000  0.13344000  0.74010000  1.0
  O  O120  1  0.00098000  0.37097000  0.18839000  1.0
  O  O121  1  0.50098000  0.12903000  0.31161000  1.0
  O  O122  1  0.99902000  0.62904000  0.81161000  1.0
  O  O123  1  0.49902000  0.87096000  0.68839000  1.0
