# generated using pymatgen
data_SmH15C26(NO5)2
_symmetry_space_group_name_H-M   'P 1'
_cell_length_a   7.67799000
_cell_length_b   10.73110000
_cell_length_c   14.42800000
_cell_angle_alpha   75.35430000
_cell_angle_beta   84.56680000
_cell_angle_gamma   75.88960000
_symmetry_Int_Tables_number   1
_chemical_formula_structural   SmH15C26(NO5)2
_chemical_formula_sum   'Sm2 H30 C52 N4 O20'
_cell_volume   1114.75013479
_cell_formula_units_Z   2
loop_
 _symmetry_equiv_pos_site_id
 _symmetry_equiv_pos_as_xyz
  1  'x, y, z'
loop_
 _atom_site_type_symbol
 _atom_site_label
 _atom_site_symmetry_multiplicity
 _atom_site_fract_x
 _atom_site_fract_y
 _atom_site_fract_z
 _atom_site_occupancy
  Sm  Sm0  1  0.69904000  0.08770000  0.33476000  1.0
  Sm  Sm1  1  0.30096000  0.91230000  0.66524000  1.0
  H  H2  1  0.99680000  0.22521000  0.10853000  1.0
  H  H3  1  0.00320000  0.77479000  0.89147000  1.0
  H  H4  1  0.11868000  0.78407000  0.19606000  1.0
  H  H5  1  0.88132000  0.21593000  0.80394000  1.0
  H  H6  1  0.46167000  0.80428000  0.94016000  1.0
  H  H7  1  0.53833000  0.19572000  0.05984000  1.0
  H  H8  1  0.35680000  0.04655000  0.90183000  1.0
  H  H9  1  0.64320000  0.95344000  0.09817000  1.0
  H  H10  1  0.09045000  0.61280000  0.12715000  1.0
  H  H11  1  0.90955000  0.38720000  0.87285000  1.0
  H  H12  1  0.18326000  0.36889000  0.19366000  1.0
  H  H13  1  0.81674000  0.63111000  0.80634000  1.0
  H  H14  1  0.73802000  0.39986000  0.13487000  1.0
  H  H15  1  0.26197000  0.60014000  0.86513000  1.0
  H  H16  1  0.62680000  0.64177000  0.07477000  1.0
  H  H17  1  0.37320000  0.35823000  0.92523000  1.0
  H  H18  1  0.41761000  0.38646000  0.43712000  1.0
  H  H19  1  0.58238000  0.61354000  0.56288000  1.0
  H  H20  1  0.94413000  0.68544000  0.33269000  1.0
  H  H21  1  0.05587000  0.31456000  0.66731000  1.0
  H  H22  1  0.78743000  0.50507000  0.33894000  1.0
  H  H23  1  0.21257000  0.49493000  0.66106000  1.0
  H  H24  1  0.50720000  0.53618000  0.30836000  1.0
  H  H25  1  0.49280000  0.46382000  0.69164000  1.0
  H  H26  1  0.66708000  0.72214000  0.25614000  1.0
  H  H27  1  0.33292000  0.27786000  0.74386000  1.0
  H  H28  1  0.22431000  0.96266000  0.38918000  1.0
  H  H29  1  0.77569000  0.03734000  0.61082000  1.0
  H  H30  1  0.07572000  0.77513000  0.42697000  1.0
  H  H31  1  0.92428000  0.22487000  0.57303000  1.0
  C  C32  1  0.98309000  0.02551000  0.18646000  1.0
  C  C33  1  0.01691000  0.97449000  0.81354000  1.0
  C  C34  1  0.11762000  0.97865000  0.11215000  1.0
  C  C35  1  0.88238000  0.02135000  0.88785000  1.0
  C  C36  1  0.17524000  0.84058000  0.13189000  1.0
  C  C37  1  0.82476000  0.15942000  0.86811000  1.0
  C  C38  1  0.29894000  0.77714000  0.07235000  1.0
  C  C39  1  0.70106000  0.22286000  0.92765000  1.0
  C  C40  1  0.36776000  0.85116000  0.98942000  1.0
  C  C41  1  0.63224000  0.14884000  0.01058000  1.0
  C  C42  1  0.30877000  0.98798000  0.96798000  1.0
  C  C43  1  0.69123000  0.01201000  0.03201000  1.0
  C  C44  1  0.18568000  0.05526000  0.02749000  1.0
  C  C45  1  0.81432000  0.94474000  0.97251000  1.0
  C  C46  1  0.13913000  0.20395000  0.98918000  1.0
  C  C47  1  0.86087000  0.79605000  0.01082000  1.0
  C  C48  1  0.23116000  0.56021000  0.13214000  1.0
  C  C49  1  0.76884000  0.43979000  0.86786000  1.0
  C  C50  1  0.28393000  0.42668000  0.16786000  1.0
  C  C51  1  0.71607000  0.57332000  0.83215000  1.0
  C  C52  1  0.47041000  0.36101000  0.17406000  1.0
  C  C53  1  0.52959000  0.63899000  0.82594000  1.0
  C  C54  1  0.59434000  0.44294000  0.13415000  1.0
  C  C55  1  0.40566000  0.55706000  0.86585000  1.0
  C  C56  1  0.53489000  0.57611000  0.09870000  1.0
  C  C57  1  0.46511000  0.42389000  0.90130000  1.0
  C  C58  1  0.28998000  0.17503000  0.46772000  1.0
  C  C59  1  0.71002000  0.82497000  0.53228000  1.0
  C  C60  1  0.18705000  0.31332000  0.42268000  1.0
  C  C61  1  0.81294000  0.68669000  0.57732000  1.0
  C  C62  1  0.27784000  0.41384000  0.41642000  1.0
  C  C63  1  0.72216000  0.58617000  0.58358000  1.0
  C  C64  1  0.19107000  0.54640000  0.38398000  1.0
  C  C65  1  0.80892000  0.45360000  0.61602000  1.0
  C  C66  1  0.01158000  0.58171000  0.35843000  1.0
  C  C67  1  0.98842000  0.41830000  0.64157000  1.0
  C  C68  1  0.92446000  0.48144000  0.36204000  1.0
  C  C69  1  0.07554000  0.51857000  0.63795000  1.0
  C  C70  1  0.00858000  0.34725000  0.39221000  1.0
  C  C71  1  0.99142000  0.65275000  0.60779000  1.0
  C  C72  1  0.90289000  0.25019000  0.38290000  1.0
  C  C73  1  0.09711000  0.74981000  0.61710000  1.0
  C  C74  1  0.45412000  0.63257000  0.32431000  1.0
  C  C75  1  0.54587000  0.36743000  0.67569000  1.0
  C  C76  1  0.54042000  0.73401000  0.29743000  1.0
  C  C77  1  0.45958000  0.26599000  0.70257000  1.0
  C  C78  1  0.46160000  0.86008000  0.31851000  1.0
  C  C79  1  0.53840000  0.13992000  0.68149000  1.0
  C  C80  1  0.29263000  0.87001000  0.37070000  1.0
  C  C81  1  0.70737000  0.12999000  0.62930000  1.0
  C  C82  1  0.20945000  0.76681000  0.39285000  1.0
  C  C83  1  0.79055000  0.23320000  0.60715000  1.0
  N  N84  1  0.35535000  0.63555000  0.09897000  1.0
  N  N85  1  0.64465000  0.36445000  0.90103000  1.0
  N  N86  1  0.28855000  0.64817000  0.37069000  1.0
  N  N87  1  0.71144000  0.35183000  0.62931000  1.0
  O  O88  1  0.21886000  0.11117000  0.54172000  1.0
  O  O89  1  0.78114000  0.88883000  0.45829000  1.0
  O  O90  1  0.44566000  0.13757000  0.43273000  1.0
  O  O91  1  0.55433000  0.86243000  0.56727000  1.0
  O  O92  1  0.97679000  0.12843000  0.39113000  1.0
  O  O93  1  0.02321000  0.87157000  0.60887000  1.0
  O  O94  1  0.73606000  0.29605000  0.36272000  1.0
  O  O95  1  0.26394000  0.70395000  0.63728000  1.0
  O  O96  1  0.53654000  0.95764000  0.28995000  1.0
  O  O97  1  0.46347000  0.04236000  0.71005000  1.0
  O  O98  1  0.92777000  0.14929000  0.18579000  1.0
  O  O99  1  0.07223000  0.85071000  0.81421000  1.0
  O  O100  1  0.92341000  0.94040000  0.25049000  1.0
  O  O101  1  0.07659000  0.05960000  0.74951000  1.0
  O  O102  1  0.04616000  0.28125000  0.04298000  1.0
  O  O103  1  0.95384000  0.71875000  0.95702000  1.0
  O  O104  1  0.19072000  0.25281000  0.90680000  1.0
  O  O105  1  0.80929000  0.74719000  0.09320000  1.0
  O  O106  1  0.52043000  0.23732000  0.21231000  1.0
  O  O107  1  0.47956000  0.76268000  0.78769000  1.0
