# generated using pymatgen
data_CuH12C18(N3O2)2
_symmetry_space_group_name_H-M   'P 1'
_cell_length_a   7.83137000
_cell_length_b   10.22930000
_cell_length_c   12.98640000
_cell_angle_alpha   86.06510000
_cell_angle_beta   74.78780000
_cell_angle_gamma   78.23720000
_symmetry_Int_Tables_number   1
_chemical_formula_structural   CuH12C18(N3O2)2
_chemical_formula_sum   'Cu2 H24 C36 N12 O8'
_cell_volume   982.67293042
_cell_formula_units_Z   2
loop_
 _symmetry_equiv_pos_site_id
 _symmetry_equiv_pos_as_xyz
  1  'x, y, z'
loop_
 _atom_site_type_symbol
 _atom_site_label
 _atom_site_symmetry_multiplicity
 _atom_site_fract_x
 _atom_site_fract_y
 _atom_site_fract_z
 _atom_site_occupancy
  Cu  Cu0  1  0.81470000  0.37656000  0.55780000  1.0
  Cu  Cu1  1  0.18530000  0.62343000  0.44220000  1.0
  H  H2  1  0.03247000  0.19769000  0.35490000  1.0
  H  H3  1  0.96753000  0.80231000  0.64510000  1.0
  H  H4  1  0.66400000  0.56424000  0.37389000  1.0
  H  H5  1  0.33600000  0.43576000  0.62611000  1.0
  H  H6  1  0.62615000  0.68165000  0.23615000  1.0
  H  H7  1  0.37385000  0.31835000  0.76385000  1.0
  H  H8  1  0.53672000  0.79265000  0.07739000  1.0
  H  H9  1  0.46328000  0.20735000  0.92260000  1.0
  H  H10  1  0.61768000  0.67423000  0.90648000  1.0
  H  H11  1  0.38233000  0.32578000  0.09352000  1.0
  H  H12  1  0.88781000  0.32715000  0.05110000  1.0
  H  H13  1  0.11218000  0.67285000  0.94890000  1.0
  H  H14  1  0.66756000  0.55692000  0.76733000  1.0
  H  H15  1  0.33243000  0.44307000  0.23267000  1.0
  H  H16  1  0.98177000  0.17153000  0.72478000  1.0
  H  H17  1  0.01823000  0.82847000  0.27522000  1.0
  H  H18  1  0.32558000  0.13500000  0.70878000  1.0
  H  H19  1  0.67441000  0.86500000  0.29122000  1.0
  H  H20  1  0.21807000  0.91865000  0.75768000  1.0
  H  H21  1  0.78193000  0.08135000  0.24232000  1.0
  H  H22  1  0.41778000  0.70699000  0.67921000  1.0
  H  H23  1  0.58222000  0.29301000  0.32079000  1.0
  H  H24  1  0.82540000  0.92425000  0.51301000  1.0
  H  H25  1  0.17459000  0.07576000  0.48699000  1.0
  C  C26  1  0.94978000  0.28751000  0.33190000  1.0
  C  C27  1  0.05022000  0.71249000  0.66810000  1.0
  C  C28  1  0.76239000  0.47449000  0.34485000  1.0
  C  C29  1  0.23761000  0.52551000  0.65515000  1.0
  C  C30  1  0.76505000  0.49905000  0.15178000  1.0
  C  C31  1  0.23494000  0.50095000  0.84822000  1.0
  C  C32  1  0.66565000  0.62957000  0.16055000  1.0
  C  C33  1  0.33435000  0.37043000  0.83945000  1.0
  C  C34  1  0.61354000  0.69066000  0.07147000  1.0
  C  C35  1  0.38646000  0.30935000  0.92853000  1.0
  C  C36  1  0.65814000  0.62379000  0.97530000  1.0
  C  C37  1  0.34187000  0.37621000  0.02470000  1.0
  C  C38  1  0.75513000  0.49236000  0.96944000  1.0
  C  C39  1  0.24487000  0.50764000  0.03056000  1.0
  C  C40  1  0.81049000  0.42869000  0.05695000  1.0
  C  C41  1  0.18950000  0.57131000  0.94305000  1.0
  C  C42  1  0.74861000  0.46184000  0.78188000  1.0
  C  C43  1  0.25138000  0.53815000  0.21813000  1.0
  C  C44  1  0.90846000  0.26487000  0.76259000  1.0
  C  C45  1  0.09154000  0.73513000  0.23741000  1.0
  C  C46  1  0.64423000  0.17379000  0.59040000  1.0
  C  C47  1  0.35577000  0.82621000  0.40960000  1.0
  C  C48  1  0.58367000  0.04242000  0.61183000  1.0
  C  C49  1  0.41633000  0.95758000  0.38817000  1.0
  C  C50  1  0.41121000  0.04062000  0.67864000  1.0
  C  C51  1  0.58879000  0.95938000  0.32136000  1.0
  C  C52  1  0.35112000  0.92053000  0.70469000  1.0
  C  C53  1  0.64887000  0.07947000  0.29531000  1.0
  C  C54  1  0.46158000  0.80211000  0.66146000  1.0
  C  C55  1  0.53842000  0.19789000  0.33854000  1.0
  C  C56  1  0.63078000  0.80312000  0.59098000  1.0
  C  C57  1  0.36922000  0.19689000  0.40902000  1.0
  C  C58  1  0.69288000  0.92356000  0.56716000  1.0
  C  C59  1  0.30711000  0.07644000  0.43284000  1.0
  C  C60  1  0.74486000  0.67544000  0.54066000  1.0
  C  C61  1  0.25513000  0.32456000  0.45934000  1.0
  N  N62  1  0.84330000  0.38216000  0.40307000  1.0
  N  N63  1  0.15670000  0.61783000  0.59693000  1.0
  N  N64  1  0.94027000  0.31629000  0.23246000  1.0
  N  N65  1  0.05973000  0.68371000  0.76754000  1.0
  N  N66  1  0.81984000  0.43557000  0.24176000  1.0
  N  N67  1  0.18016000  0.56443000  0.75824000  1.0
  N  N68  1  0.81697000  0.36501000  0.71095000  1.0
  N  N69  1  0.18302000  0.63498000  0.28905000  1.0
  N  N70  1  0.79803000  0.42137000  0.87290000  1.0
  N  N71  1  0.20197000  0.57863000  0.12710000  1.0
  N  N72  1  0.90005000  0.29477000  0.86170000  1.0
  N  N73  1  0.09995000  0.70523000  0.13830000  1.0
  O  O74  1  0.81508000  0.17261000  0.55912000  1.0
  O  O75  1  0.18492000  0.82739000  0.44089000  1.0
  O  O76  1  0.52742000  0.28024000  0.60678000  1.0
  O  O77  1  0.47258000  0.71977000  0.39322000  1.0
  O  O78  1  0.69427000  0.56762000  0.58473000  1.0
  O  O79  1  0.30574000  0.43238000  0.41527000  1.0
  O  O80  1  0.87744000  0.68106000  0.46277000  1.0
  O  O81  1  0.12256000  0.31894000  0.53723000  1.0
