# generated using pymatgen
data_ZnH19C21NO6
_symmetry_space_group_name_H-M   'P 1'
_cell_length_a   10.75610000
_cell_length_b   13.95490000
_cell_length_c   15.28000000
_cell_angle_alpha   89.80550000
_cell_angle_beta   88.58870000
_cell_angle_gamma   89.14390000
_symmetry_Int_Tables_number   1
_chemical_formula_structural   ZnH19C21NO6
_chemical_formula_sum   'Zn2 H38 C42 N2 O12'
_cell_volume   2292.57039331
_cell_formula_units_Z   2
loop_
 _symmetry_equiv_pos_site_id
 _symmetry_equiv_pos_as_xyz
  1  'x, y, z'
loop_
 _atom_site_type_symbol
 _atom_site_label
 _atom_site_symmetry_multiplicity
 _atom_site_fract_x
 _atom_site_fract_y
 _atom_site_fract_z
 _atom_site_occupancy
  Zn  Zn0  1  0.50265000  0.60251000  0.49946000  1.0
  Zn  Zn1  1  0.50013000  0.40015000  0.50098000  1.0
  H  H2  1  0.12131000  0.43973000  0.37382000  1.0
  H  H3  1  0.42644000  0.35428000  0.05961000  1.0
  H  H4  1  0.53556000  0.64665000  0.22356000  1.0
  H  H5  1  0.58765000  0.35523000  0.77798000  1.0
  H  H6  1  0.46667000  0.64889000  0.77608000  1.0
  H  H7  1  0.41188000  0.35651000  0.22301000  1.0
  H  H8  1  0.68035000  0.24983000  0.45543000  1.0
  H  H9  1  0.61697000  0.75135000  0.60504000  1.0
  H  H10  1  0.31663000  0.25302000  0.54556000  1.0
  H  H11  1  0.38849000  0.75216000  0.39243000  1.0
  H  H12  1  0.84780000  0.14642000  0.47211000  1.0
  H  H13  1  0.88226000  0.54879000  0.63230000  1.0
  H  H14  1  0.79028000  0.15588000  0.36389000  1.0
  H  H15  1  0.87878000  0.99330000  0.32740000  1.0
  H  H16  1  0.99714000  0.06966000  0.36546000  1.0
  H  H17  1  0.93279000  0.98040000  0.43610000  1.0
  H  H18  1  0.77234000  0.85273000  0.65122000  1.0
  H  H19  1  0.63766000  0.84734000  0.72158000  1.0
  H  H20  1  0.68171000  0.01254000  0.77773000  1.0
  H  H21  1  0.80995000  0.93292000  0.79496000  1.0
  H  H22  1  0.81641000  0.01799000  0.70787000  1.0
  H  H23  1  0.14866000  0.15341000  0.52647000  1.0
  H  H24  1  0.94802000  0.59677000  0.37834000  1.0
  H  H25  1  0.20546000  0.15895000  0.63495000  1.0
  H  H26  1  0.11774000  0.99722000  0.66874000  1.0
  H  H27  1  0.99899000  0.07668000  0.63136000  1.0
  H  H28  1  0.06474000  0.98794000  0.55964000  1.0
  H  H29  1  0.23099000  0.85309000  0.34518000  1.0
  H  H30  1  0.36645000  0.84885000  0.27529000  1.0
  H  H31  1  0.31482000  0.01403000  0.21866000  1.0
  H  H32  1  0.19035000  0.93386000  0.20149000  1.0
  H  H33  1  0.17969000  0.01856000  0.28835000  1.0
  H  H34  1  0.05443000  0.39150000  0.62799000  1.0
  H  H35  1  0.06011000  0.65988000  0.53549000  1.0
  H  H36  1  0.94417000  0.32834000  0.47015000  1.0
  H  H37  1  0.55672000  0.64461000  0.06069000  1.0
  H  H38  1  0.57106000  0.35248000  0.94136000  1.0
  H  H39  1  0.44349000  0.64654000  0.93895000  1.0
  C  C40  1  0.46883000  0.50401000  0.33102000  1.0
  C  C41  1  0.43684000  0.79650000  0.43863000  1.0
  C  C42  1  0.49837000  0.05429000  0.49876000  1.0
  C  C43  1  0.49920000  0.94838000  0.49862000  1.0
  C  C44  1  0.74115000  0.49198000  0.47848000  1.0
  C  C45  1  0.26218000  0.50129000  0.52518000  1.0
  C  C46  1  0.97366000  0.55179000  0.43402000  1.0
  C  C47  1  0.02983000  0.43665000  0.57212000  1.0
  C  C48  1  0.03250000  0.58664000  0.52093000  1.0
  C  C49  1  0.97068000  0.40187000  0.48506000  1.0
  C  C50  1  0.06548000  0.46370000  0.43067000  1.0
  C  C51  1  0.53366000  0.50421000  0.66936000  1.0
  C  C52  1  0.93782000  0.52484000  0.57533000  1.0
  C  C53  1  0.12484000  0.49917000  0.51842000  1.0
  C  C54  1  0.87823000  0.48939000  0.48818000  1.0
  C  C55  1  0.52213000  0.58186000  0.09576000  1.0
  C  C56  1  0.54615000  0.41737000  0.90538000  1.0
  C  C57  1  0.47797000  0.58302000  0.90415000  1.0
  C  C58  1  0.45240000  0.41824000  0.09532000  1.0
  C  C59  1  0.51134000  0.58336000  0.18647000  1.0
  C  C60  1  0.55714000  0.41876000  0.81437000  1.0
  C  C61  1  0.48992000  0.58472000  0.81343000  1.0
  C  C62  1  0.60446000  0.10528000  0.47177000  1.0
  C  C63  1  0.44259000  0.41940000  0.18639000  1.0
  C  C64  1  0.47232000  0.50201000  0.23288000  1.0
  C  C65  1  0.52888000  0.50246000  0.76750000  1.0
  C  C66  1  0.49313000  0.49926000  0.04831000  1.0
  C  C67  1  0.50564000  0.49933000  0.95194000  1.0
  C  C68  1  0.81450000  0.10486000  0.41626000  1.0
  C  C69  1  0.91124000  0.03247000  0.38446000  1.0
  C  C70  1  0.69948000  0.89632000  0.68486000  1.0
  C  C71  1  0.75503000  0.96946000  0.74479000  1.0
  C  C72  1  0.18186000  0.10972000  0.58175000  1.0
  C  C73  1  0.56728000  0.89631000  0.56066000  1.0
  C  C74  1  0.08535000  0.03838000  0.61213000  1.0
  C  C75  1  0.30202000  0.89727000  0.31177000  1.0
  C  C76  1  0.24343000  0.97050000  0.25161000  1.0
  C  C77  1  0.39225000  0.10704000  0.52649000  1.0
  C  C78  1  0.43311000  0.89691000  0.43648000  1.0
  C  C79  1  0.60156000  0.20559000  0.47417000  1.0
  C  C80  1  0.56715000  0.79595000  0.55866000  1.0
  C  C81  1  0.39527000  0.20740000  0.52585000  1.0
  N  N82  1  0.49852000  0.25344000  0.50052000  1.0
  N  N83  1  0.50270000  0.74925000  0.49870000  1.0
  O  O84  1  0.48638000  0.58516000  0.36637000  1.0
  O  O85  1  0.62872000  0.94814000  0.62053000  1.0
  O  O86  1  0.29165000  0.05621000  0.55391000  1.0
  O  O87  1  0.36997000  0.94904000  0.37635000  1.0
  O  O88  1  0.55110000  0.42472000  0.62998000  1.0
  O  O89  1  0.51739000  0.58574000  0.63306000  1.0
  O  O90  1  0.45114000  0.42517000  0.37135000  1.0
  O  O91  1  0.69011000  0.57442000  0.48731000  1.0
  O  O92  1  0.31748000  0.42126000  0.53958000  1.0
  O  O93  1  0.31393000  0.58144000  0.51131000  1.0
  O  O94  1  0.68542000  0.41341000  0.46545000  1.0
  O  O95  1  0.70515000  0.05292000  0.44359000  1.0
