# generated using pymatgen
data_CuH12C12(NO2)3
_symmetry_space_group_name_H-M   'P 1'
_cell_length_a   7.03057000
_cell_length_b   9.71262000
_cell_length_c   10.26960000
_cell_angle_alpha   71.83850000
_cell_angle_beta   74.77050000
_cell_angle_gamma   75.77710000
_symmetry_Int_Tables_number   1
_chemical_formula_structural   CuH12C12(NO2)3
_chemical_formula_sum   'Cu2 H24 C24 N6 O12'
_cell_volume   632.57958134
_cell_formula_units_Z   2
loop_
 _symmetry_equiv_pos_site_id
 _symmetry_equiv_pos_as_xyz
  1  'x, y, z'
loop_
 _atom_site_type_symbol
 _atom_site_label
 _atom_site_symmetry_multiplicity
 _atom_site_fract_x
 _atom_site_fract_y
 _atom_site_fract_z
 _atom_site_occupancy
  Cu  Cu0  1  0.40129000  0.57006000  0.85257000  1.0
  Cu  Cu1  1  0.59871000  0.42994000  0.14743000  1.0
  H  H2  1  0.22053000  0.38922000  0.08524000  1.0
  H  H3  1  0.77947000  0.61078000  0.91475000  1.0
  H  H4  1  0.18314000  0.56721000  0.08048000  1.0
  H  H5  1  0.81686000  0.43278000  0.91951000  1.0
  H  H6  1  0.36058000  0.24074000  0.96139000  1.0
  H  H7  1  0.63942000  0.75926000  0.03861000  1.0
  H  H8  1  0.53266000  0.01699000  0.87488000  1.0
  H  H9  1  0.46734000  0.98301000  0.12511000  1.0
  H  H10  1  0.76871000  0.04991000  0.64196000  1.0
  H  H11  1  0.23130000  0.95009000  0.35803000  1.0
  H  H12  1  0.81216000  0.30273000  0.49963000  1.0
  H  H13  1  0.18784000  0.69728000  0.50037000  1.0
  H  H14  1  0.84512000  0.51986000  0.39617000  1.0
  H  H15  1  0.15487000  0.48015000  0.60383000  1.0
  H  H16  1  0.89486000  0.77832000  0.30069000  1.0
  H  H17  1  0.10513000  0.22169000  0.69932000  1.0
  H  H18  1  0.73328000  0.95841000  0.44816000  1.0
  H  H19  1  0.26671000  0.04160000  0.55185000  1.0
  H  H20  1  0.51029000  0.86642000  0.68347000  1.0
  H  H21  1  0.48970000  0.13357000  0.31654000  1.0
  H  H22  1  0.02462000  0.00222000  0.84551000  1.0
  H  H23  1  0.97538000  0.99776000  0.15449000  1.0
  H  H24  1  0.20795000  0.03121000  0.91625000  1.0
  H  H25  1  0.79205000  0.96877000  0.08375000  1.0
  C  C26  1  0.46532000  0.24978000  0.86134000  1.0
  C  C27  1  0.53468000  0.75022000  0.13866000  1.0
  C  C28  1  0.55939000  0.12629000  0.81215000  1.0
  C  C29  1  0.44061000  0.87371000  0.18784000  1.0
  C  C30  1  0.68799000  0.14450000  0.68156000  1.0
  C  C31  1  0.31201000  0.85551000  0.31844000  1.0
  C  C32  1  0.71755000  0.28574000  0.60370000  1.0
  C  C33  1  0.28245000  0.71426000  0.39630000  1.0
  C  C34  1  0.62416000  0.40434000  0.66060000  1.0
  C  C35  1  0.37584000  0.59566000  0.33940000  1.0
  C  C36  1  0.65615000  0.55610000  0.59066000  1.0
  C  C37  1  0.34384000  0.44390000  0.40935000  1.0
  C  C38  1  0.77546000  0.59898000  0.45785000  1.0
  C  C39  1  0.22453000  0.40103000  0.54215000  1.0
  C  C40  1  0.80230000  0.74499000  0.40458000  1.0
  C  C41  1  0.19769000  0.25501000  0.59542000  1.0
  C  C42  1  0.71015000  0.84464000  0.48504000  1.0
  C  C43  1  0.28984000  0.15537000  0.51497000  1.0
  C  C44  1  0.58921000  0.79533000  0.61523000  1.0
  C  C45  1  0.41079000  0.20468000  0.38478000  1.0
  C  C46  1  0.15793000  0.80965000  0.97768000  1.0
  C  C47  1  0.84206000  0.19034000  0.02233000  1.0
  C  C48  1  0.08040000  0.97446000  0.94281000  1.0
  C  C49  1  0.91960000  0.02552000  0.05719000  1.0
  N  N50  1  0.49956000  0.38534000  0.78813000  1.0
  N  N51  1  0.50044000  0.61466000  0.21187000  1.0
  N  N52  1  0.56358000  0.65481000  0.66597000  1.0
  N  N53  1  0.43643000  0.34520000  0.33404000  1.0
  N  N54  1  0.99388000  0.75743000  0.73815000  1.0
  N  N55  1  0.00612000  0.24258000  0.26184000  1.0
  O  O56  1  0.30438000  0.76874000  0.88317000  1.0
  O  O57  1  0.69562000  0.23125000  0.11684000  1.0
  O  O58  1  0.28211000  0.48074000  0.04886000  1.0
  O  O59  1  0.71790000  0.51925000  0.95114000  1.0
  O  O60  1  0.07984000  0.72492000  0.08892000  1.0
  O  O61  1  0.92015000  0.27506000  0.91107000  1.0
  O  O62  1  0.83829000  0.77655000  0.83415000  1.0
  O  O63  1  0.16171000  0.22346000  0.16584000  1.0
  O  O64  1  0.04873000  0.86644000  0.64397000  1.0
  O  O65  1  0.95128000  0.13356000  0.35602000  1.0
  O  O66  1  0.08831000  0.62728000  0.74092000  1.0
  O  O67  1  0.91170000  0.37272000  0.25908000  1.0
