# generated using pymatgen
data_ZnH10C12SN4O5
_symmetry_space_group_name_H-M   'P 1'
_cell_length_a   6.68864000
_cell_length_b   14.86090000
_cell_length_c   16.52190000
_cell_angle_alpha   89.99950000
_cell_angle_beta   97.91080000
_cell_angle_gamma   89.99930000
_symmetry_Int_Tables_number   1
_chemical_formula_structural   ZnH10C12SN4O5
_chemical_formula_sum   'Zn4 H40 C48 S4 N16 O20'
_cell_volume   1626.63526917
_cell_formula_units_Z   4
loop_
 _symmetry_equiv_pos_site_id
 _symmetry_equiv_pos_as_xyz
  1  'x, y, z'
loop_
 _atom_site_type_symbol
 _atom_site_label
 _atom_site_symmetry_multiplicity
 _atom_site_fract_x
 _atom_site_fract_y
 _atom_site_fract_z
 _atom_site_occupancy
  Zn  Zn0  1  0.86924000  0.17753000  0.41171000  1.0
  Zn  Zn1  1  0.36925000  0.32247000  0.91172000  1.0
  Zn  Zn2  1  0.13077000  0.82247000  0.58829000  1.0
  Zn  Zn3  1  0.63075000  0.67754000  0.08828000  1.0
  H  H4  1  0.99443000  0.34242000  0.52925000  1.0
  H  H5  1  0.49447000  0.15758000  0.02925000  1.0
  H  H6  1  0.00556000  0.65758000  0.47075000  1.0
  H  H7  1  0.50555000  0.84242000  0.97074000  1.0
  H  H8  1  0.99281000  0.37367000  0.67943000  1.0
  H  H9  1  0.49283000  0.12633000  0.17944000  1.0
  H  H10  1  0.00721000  0.62633000  0.32057000  1.0
  H  H11  1  0.50719000  0.87367000  0.82056000  1.0
  H  H12  1  0.89240000  0.25094000  0.76842000  1.0
  H  H13  1  0.39239000  0.24905000  0.26843000  1.0
  H  H14  1  0.10761000  0.74906000  0.23158000  1.0
  H  H15  1  0.60760000  0.75094000  0.73157000  1.0
  H  H16  1  0.79471000  0.10000000  0.70416000  1.0
  H  H17  1  0.29472000  0.40000000  0.20416000  1.0
  H  H18  1  0.20527000  0.90000000  0.29584000  1.0
  H  H19  1  0.70528000  0.60000000  0.79584000  1.0
  H  H20  1  0.74092000  0.00023000  0.57664000  1.0
  H  H21  1  0.24092000  0.49977000  0.07664000  1.0
  H  H22  1  0.25908000  0.99977000  0.42336000  1.0
  H  H23  1  0.75908000  0.50024000  0.92336000  1.0
  H  H24  1  0.57505000  0.83010000  0.35580000  1.0
  H  H25  1  0.07505000  0.66990000  0.85580000  1.0
  H  H26  1  0.42494000  0.16990000  0.64420000  1.0
  H  H27  1  0.92495000  0.33010000  0.14420000  1.0
  H  H28  1  0.52266000  0.71246000  0.24734000  1.0
  H  H29  1  0.02266000  0.78754000  0.74734000  1.0
  H  H30  1  0.47734000  0.28754000  0.75265000  1.0
  H  H31  1  0.97734000  0.21246000  0.25265000  1.0
  H  H32  1  0.82167000  0.86217000  0.09000000  1.0
  H  H33  1  0.32168000  0.63784000  0.59001000  1.0
  H  H34  1  0.17833000  0.13784000  0.91000000  1.0
  H  H35  1  0.67831000  0.36216000  0.40999000  1.0
  H  H36  1  0.85123000  0.99502000  0.18583000  1.0
  H  H37  1  0.35122000  0.50498000  0.68583000  1.0
  H  H38  1  0.14877000  0.00498000  0.81417000  1.0
  H  H39  1  0.64875000  0.49502000  0.31417000  1.0
  H  H40  1  0.69377000  0.92396000  0.44251000  1.0
  H  H41  1  0.19377000  0.57604000  0.94251000  1.0
  H  H42  1  0.30624000  0.07604000  0.55749000  1.0
  H  H43  1  0.80624000  0.42396000  0.05749000  1.0
  C  C44  1  0.94473000  0.29207000  0.57016000  1.0
  C  C45  1  0.44474000  0.20793000  0.07016000  1.0
  C  C46  1  0.05528000  0.70793000  0.42984000  1.0
  C  C47  1  0.55527000  0.79207000  0.92984000  1.0
  C  C48  1  0.94516000  0.30850000  0.65342000  1.0
  C  C49  1  0.44517000  0.19150000  0.15343000  1.0
  C  C50  1  0.05485000  0.69150000  0.34658000  1.0
  C  C51  1  0.55483000  0.80850000  0.84657000  1.0
  C  C52  1  0.88913000  0.23949000  0.70287000  1.0
  C  C53  1  0.38912000  0.26050000  0.20287000  1.0
  C  C54  1  0.11087000  0.76051000  0.29714000  1.0
  C  C55  1  0.61086000  0.73949000  0.79713000  1.0
  C  C56  1  0.83596000  0.15612000  0.66734000  1.0
  C  C57  1  0.33595000  0.34387000  0.16734000  1.0
  C  C58  1  0.16404000  0.84388000  0.33266000  1.0
  C  C59  1  0.66404000  0.65612000  0.83266000  1.0
  C  C60  1  0.83577000  0.14471000  0.58338000  1.0
  C  C61  1  0.33577000  0.35529000  0.08338000  1.0
  C  C62  1  0.16423000  0.85529000  0.41662000  1.0
  C  C63  1  0.66422000  0.64471000  0.91661000  1.0
  C  C64  1  0.77980000  0.05919000  0.54210000  1.0
  C  C65  1  0.27980000  0.44081000  0.04211000  1.0
  C  C66  1  0.22020000  0.94080000  0.45790000  1.0
  C  C67  1  0.72021000  0.55920000  0.95790000  1.0
  C  C68  1  0.74897000  0.00123000  0.33481000  1.0
  C  C69  1  0.24897000  0.49877000  0.83481000  1.0
  C  C70  1  0.25103000  0.99878000  0.66519000  1.0
  C  C71  1  0.75103000  0.50122000  0.16518000  1.0
  C  C72  1  0.71239000  0.92366000  0.27764000  1.0
  C  C73  1  0.21239000  0.57634000  0.77764000  1.0
  C  C74  1  0.28760000  0.07634000  0.72236000  1.0
  C  C75  1  0.78760000  0.42366000  0.22236000  1.0
  C  C76  1  0.62204000  0.84290000  0.29627000  1.0
  C  C77  1  0.12205000  0.65710000  0.79627000  1.0
  C  C78  1  0.37795000  0.15710000  0.70374000  1.0
  C  C79  1  0.87795000  0.34290000  0.20373000  1.0
  C  C80  1  0.59695000  0.77583000  0.23711000  1.0
  C  C81  1  0.09695000  0.72417000  0.73711000  1.0
  C  C82  1  0.40305000  0.22417000  0.76289000  1.0
  C  C83  1  0.90305000  0.27583000  0.26289000  1.0
  C  C84  1  0.75826000  0.86075000  0.14737000  1.0
  C  C85  1  0.25826000  0.63925000  0.64737000  1.0
  C  C86  1  0.24174000  0.13925000  0.85263000  1.0
  C  C87  1  0.74173000  0.36075000  0.35263000  1.0
  C  C88  1  0.77877000  0.93286000  0.20111000  1.0
  C  C89  1  0.27877000  0.56714000  0.70111000  1.0
  C  C90  1  0.22123000  0.06714000  0.79890000  1.0
  C  C91  1  0.72122000  0.43286000  0.29889000  1.0
  S  S92  1  0.33575000  0.20174000  0.43947000  1.0
  S  S93  1  0.83576000  0.29827000  0.93946000  1.0
  S  S94  1  0.66425000  0.79826000  0.56054000  1.0
  S  S95  1  0.16425000  0.70173000  0.06053000  1.0
  N  N96  1  0.88939000  0.21274000  0.53608000  1.0
  N  N97  1  0.38940000  0.28726000  0.03608000  1.0
  N  N98  1  0.11060000  0.78726000  0.46392000  1.0
  N  N99  1  0.61060000  0.71274000  0.96392000  1.0
  N  N100  1  0.78644000  0.05811000  0.46444000  1.0
  N  N101  1  0.28644000  0.44189000  0.96444000  1.0
  N  N102  1  0.21356000  0.94189000  0.53556000  1.0
  N  N103  1  0.71356000  0.55811000  0.03556000  1.0
  N  N104  1  0.73899000  0.98623000  0.41617000  1.0
  N  N105  1  0.23899000  0.51377000  0.91617000  1.0
  N  N106  1  0.26101000  0.01377000  0.58384000  1.0
  N  N107  1  0.76100000  0.48623000  0.08383000  1.0
  N  N108  1  0.66558000  0.78419000  0.16489000  1.0
  N  N109  1  0.16558000  0.71582000  0.66490000  1.0
  N  N110  1  0.33442000  0.21581000  0.83511000  1.0
  N  N111  1  0.83442000  0.28418000  0.33510000  1.0
  O  O112  1  0.79305000  0.07616000  0.30820000  1.0
  O  O113  1  0.29305000  0.42383000  0.80820000  1.0
  O  O114  1  0.20694000  0.92384000  0.69181000  1.0
  O  O115  1  0.70694000  0.57617000  0.19180000  1.0
  O  O116  1  0.50537000  0.19116000  0.39090000  1.0
  O  O117  1  0.00538000  0.30884000  0.89090000  1.0
  O  O118  1  0.49463000  0.80885000  0.60911000  1.0
  O  O119  1  0.99462000  0.69116000  0.10910000  1.0
  O  O120  1  0.16051000  0.14572000  0.39707000  1.0
  O  O121  1  0.66051000  0.35429000  0.89706000  1.0
  O  O122  1  0.83949000  0.85428000  0.60294000  1.0
  O  O123  1  0.33950000  0.64571000  0.10293000  1.0
  O  O124  1  0.27440000  0.29589000  0.44564000  1.0
  O  O125  1  0.77442000  0.20411000  0.94564000  1.0
  O  O126  1  0.72560000  0.70411000  0.55437000  1.0
  O  O127  1  0.22560000  0.79589000  0.05437000  1.0
  O  O128  1  0.39497000  0.16112000  0.52295000  1.0
  O  O129  1  0.89497000  0.33888000  0.02295000  1.0
  O  O130  1  0.60503000  0.83888000  0.47705000  1.0
  O  O131  1  0.10504000  0.66112000  0.97704000  1.0
