# generated using pymatgen
data_ZnH26C22(NO2)4
_symmetry_space_group_name_H-M   'P 1'
_cell_length_a   5.26633000
_cell_length_b   7.67725000
_cell_length_c   14.02290000
_cell_angle_alpha   80.85910000
_cell_angle_beta   79.23900000
_cell_angle_gamma   89.98290000
_symmetry_Int_Tables_number   1
_chemical_formula_structural   ZnH26C22(NO2)4
_chemical_formula_sum   'Zn1 H26 C22 N4 O8'
_cell_volume   549.66325914
_cell_formula_units_Z   1
loop_
 _symmetry_equiv_pos_site_id
 _symmetry_equiv_pos_as_xyz
  1  'x, y, z'
loop_
 _atom_site_type_symbol
 _atom_site_label
 _atom_site_symmetry_multiplicity
 _atom_site_fract_x
 _atom_site_fract_y
 _atom_site_fract_z
 _atom_site_occupancy
  Zn  Zn0  1  0.26754000  0.49984000  0.99991000  1.0
  H  H1  1  0.59915000  0.21742000  0.29404000  1.0
  H  H2  1  0.89261000  0.78279000  0.70623000  1.0
  H  H3  1  0.71943000  0.57760000  0.89733000  1.0
  H  H4  1  0.61659000  0.42202000  0.10292000  1.0
  H  H5  1  0.50870000  0.65664000  0.83065000  1.0
  H  H6  1  0.33930000  0.34303000  0.16934000  1.0
  H  H7  1  0.71223000  0.15409000  0.85269000  1.0
  H  H8  1  0.56659000  0.84573000  0.14732000  1.0
  H  H9  1  0.62825000  0.82306000  0.99185000  1.0
  H  H10  1  0.62002000  0.17644000  0.00835000  1.0
  H  H11  1  0.44887000  0.91257000  0.90089000  1.0
  H  H12  1  0.35027000  0.08698000  0.09932000  1.0
  H  H13  1  0.26338000  0.10014000  0.76849000  1.0
  H  H14  1  0.03376000  0.89950000  0.23166000  1.0
  H  H15  1  0.53539000  0.42368000  0.58664000  1.0
  H  H16  1  0.12334000  0.57650000  0.41382000  1.0
  H  H17  1  0.86369000  0.36072000  0.71795000  1.0
  H  H18  1  0.58411000  0.63877000  0.28165000  1.0
  H  H19  1  0.17124000  0.45581000  0.71227000  1.0
  H  H20  1  0.88610000  0.54400000  0.28787000  1.0
  H  H21  1  0.69018000  0.36065000  0.41960000  1.0
  H  H22  1  0.11033000  0.64003000  0.58085000  1.0
  H  H23  1  0.97527000  0.08030000  0.43062000  1.0
  H  H24  1  0.40642000  0.92018000  0.56869000  1.0
  H  H25  1  0.82110000  0.13933000  0.60039000  1.0
  H  H26  1  0.42298000  0.86101000  0.39884000  1.0
  C  C27  1  0.21474000  0.28621000  0.86863000  1.0
  C  C28  1  0.08499000  0.71369000  0.13135000  1.0
  C  C29  1  0.86691000  0.90821000  0.85299000  1.0
  C  C30  1  0.72067000  0.09163000  0.14723000  1.0
  C  C31  1  0.16579000  0.28613000  0.60658000  1.0
  C  C32  1  0.77380000  0.71399000  0.39330000  1.0
  C  C33  1  0.61132000  0.82888000  0.91456000  1.0
  C  C34  1  0.52617000  0.17074000  0.08562000  1.0
  C  C35  1  0.11404000  0.19021000  0.79455000  1.0
  C  C36  1  0.91043000  0.80960000  0.20547000  1.0
  C  C37  1  0.33941000  0.22098000  0.41346000  1.0
  C  C38  1  0.75336000  0.77957000  0.58644000  1.0
  C  C39  1  0.41090000  0.34627000  0.55397000  1.0
  C  C40  1  0.96607000  0.65404000  0.44624000  1.0
  C  C41  1  0.07100000  0.33293000  0.70716000  1.0
  C  C42  1  0.78030000  0.66682000  0.29273000  1.0
  C  C43  1  0.49821000  0.31367000  0.45864000  1.0
  C  C44  1  0.95766000  0.68689000  0.54154000  1.0
  C  C45  1  0.09635000  0.15606000  0.46537000  1.0
  C  C46  1  0.56260000  0.84447000  0.53415000  1.0
  C  C47  1  0.01218000  0.18868000  0.56112000  1.0
  C  C48  1  0.57456000  0.81167000  0.43840000  1.0
  N  N49  1  0.55387000  0.64927000  0.89917000  1.0
  N  N50  1  0.45307000  0.35035000  0.10090000  1.0
  N  N51  1  0.88053000  0.08546000  0.83839000  1.0
  N  N52  1  0.72048000  0.91440000  0.16166000  1.0
  O  O53  1  0.05226000  0.36180000  0.92849000  1.0
  O  O54  1  0.98196000  0.63811000  0.07153000  1.0
  O  O55  1  0.45574000  0.29674000  0.86382000  1.0
  O  O56  1  0.32124000  0.70324000  0.13609000  1.0
  O  O57  1  0.04721000  0.81178000  0.82342000  1.0
  O  O58  1  0.87107000  0.18818000  0.17690000  1.0
  O  O59  1  0.41335000  0.19107000  0.31845000  1.0
  O  O60  1  0.73160000  0.80943000  0.68149000  1.0
