# generated using pymatgen
data_ZnH4(CN5)2
_symmetry_space_group_name_H-M   'P 1'
_cell_length_a   9.17706000
_cell_length_b   9.98159557
_cell_length_c   9.98377213
_cell_angle_alpha   93.08876377
_cell_angle_beta   116.92825170
_cell_angle_gamma   116.91296490
_symmetry_Int_Tables_number   1
_chemical_formula_structural   ZnH4(CN5)2
_chemical_formula_sum   'Zn2 H8 C4 N20'
_cell_volume   687.43923610
_cell_formula_units_Z   2
loop_
 _symmetry_equiv_pos_site_id
 _symmetry_equiv_pos_as_xyz
  1  'x, y, z'
loop_
 _atom_site_type_symbol
 _atom_site_label
 _atom_site_symmetry_multiplicity
 _atom_site_fract_x
 _atom_site_fract_y
 _atom_site_fract_z
 _atom_site_occupancy
  Zn  Zn0  1  0.74065000  0.83735000  0.55871000  1.0
  Zn  Zn1  1  0.24070000  0.55875000  0.83736000  1.0
  H  H2  1  0.84484000  0.12341000  0.41020000  1.0
  H  H3  1  0.34425000  0.41013000  0.12332000  1.0
  H  H4  1  0.03930000  0.32684000  0.50277000  1.0
  H  H5  1  0.53863000  0.50262000  0.32682000  1.0
  H  H6  1  0.65394000  0.88351000  0.96850000  1.0
  H  H7  1  0.15368000  0.96823000  0.88321000  1.0
  H  H8  1  0.79981000  0.95697000  0.89099000  1.0
  H  H9  1  0.29950000  0.89066000  0.95664000  1.0
  C  C10  1  0.99816000  0.20398000  0.65244000  1.0
  C  C11  1  0.49766000  0.65241000  0.20400000  1.0
  C  C12  1  0.53634000  0.75095000  0.74374000  1.0
  C  C13  1  0.03600000  0.74344000  0.75060000  1.0
  N  N14  1  0.96269000  0.21739000  0.51037000  1.0
  N  N15  1  0.46188000  0.51027000  0.21744000  1.0
  N  N16  1  0.12123000  0.32548000  0.79272000  1.0
  N  N17  1  0.62077000  0.79269000  0.32547000  1.0
  N  N18  1  0.12089000  0.25984000  0.90832000  1.0
  N  N19  1  0.62078000  0.90837000  0.25984000  1.0
  N  N20  1  0.00361000  0.10740000  0.84497000  1.0
  N  N21  1  0.50354000  0.84503000  0.10739000  1.0
  N  N22  1  0.92297000  0.06690000  0.68424000  1.0
  N  N23  1  0.42261000  0.68424000  0.06691000  1.0
  N  N24  1  0.68463000  0.86372000  0.88632000  1.0
  N  N25  1  0.18433000  0.88602000  0.86337000  1.0
  N  N26  1  0.53391000  0.73837000  0.60713000  1.0
  N  N27  1  0.03361000  0.60682000  0.73802000  1.0
  N  N28  1  0.36070000  0.60524000  0.49418000  1.0
  N  N29  1  0.86038000  0.49385000  0.60492000  1.0
  N  N30  1  0.26238000  0.54150000  0.55766000  1.0
  N  N31  1  0.76201000  0.55733000  0.54119000  1.0
  N  N32  1  0.36785000  0.62873000  0.71498000  1.0
  N  N33  1  0.86747000  0.71467000  0.62839000  1.0
