# generated using pymatgen
data_ZnH10(C2O)4
_symmetry_space_group_name_H-M   'P 1'
_cell_length_a   6.07351000
_cell_length_b   8.39434000
_cell_length_c   16.19080000
_cell_angle_alpha   102.44100000
_cell_angle_beta   89.99990000
_cell_angle_gamma   89.99980000
_symmetry_Int_Tables_number   1
_chemical_formula_structural   ZnH10(C2O)4
_chemical_formula_sum   'Zn4 H40 C32 O16'
_cell_volume   806.07421838
_cell_formula_units_Z   4
loop_
 _symmetry_equiv_pos_site_id
 _symmetry_equiv_pos_as_xyz
  1  'x, y, z'
loop_
 _atom_site_type_symbol
 _atom_site_label
 _atom_site_symmetry_multiplicity
 _atom_site_fract_x
 _atom_site_fract_y
 _atom_site_fract_z
 _atom_site_occupancy
  Zn  Zn0  1  0.75251000  0.90917000  0.98785000  1.0
  Zn  Zn1  1  0.25255000  0.09084000  0.51214000  1.0
  Zn  Zn2  1  0.24746000  0.09085000  0.01214000  1.0
  Zn  Zn3  1  0.74748000  0.90916000  0.48785000  1.0
  H  H4  1  0.09987000  0.19637000  0.28651000  1.0
  H  H5  1  0.59987000  0.80362000  0.21348000  1.0
  H  H6  1  0.90013000  0.80362000  0.71348000  1.0
  H  H7  1  0.40013000  0.19637000  0.78652000  1.0
  H  H8  1  0.15897000  0.36378000  0.24011000  1.0
  H  H9  1  0.65898000  0.63622000  0.25987000  1.0
  H  H10  1  0.84102000  0.63621000  0.75988000  1.0
  H  H11  1  0.34102000  0.36377000  0.74012000  1.0
  H  H12  1  0.11415000  0.45610000  0.39761000  1.0
  H  H13  1  0.61413000  0.54389000  0.10238000  1.0
  H  H14  1  0.88586000  0.54389000  0.60238000  1.0
  H  H15  1  0.38585000  0.45611000  0.89761000  1.0
  H  H16  1  0.90892000  0.54276000  0.34360000  1.0
  H  H17  1  0.40890000  0.45725000  0.15639000  1.0
  H  H18  1  0.09110000  0.45724000  0.65640000  1.0
  H  H19  1  0.59108000  0.54276000  0.84360000  1.0
  H  H20  1  0.46214000  0.24731000  0.37809000  1.0
  H  H21  1  0.96213000  0.75271000  0.12193000  1.0
  H  H22  1  0.53787000  0.75269000  0.62192000  1.0
  H  H23  1  0.03785000  0.24731000  0.87809000  1.0
  H  H24  1  0.51136000  0.42073000  0.33540000  1.0
  H  H25  1  0.01134000  0.57928000  0.16461000  1.0
  H  H26  1  0.48865000  0.57926000  0.66461000  1.0
  H  H27  1  0.98865000  0.42073000  0.83540000  1.0
  H  H28  1  0.70044000  0.07696000  0.27097000  1.0
  H  H29  1  0.20045000  0.92305000  0.22904000  1.0
  H  H30  1  0.29956000  0.92303000  0.72903000  1.0
  H  H31  1  0.79956000  0.07696000  0.77097000  1.0
  H  H32  1  0.49790000  0.17186000  0.22038000  1.0
  H  H33  1  0.99792000  0.82814000  0.27963000  1.0
  H  H34  1  0.50209000  0.82814000  0.77962000  1.0
  H  H35  1  0.00210000  0.17185000  0.72038000  1.0
  H  H36  1  0.73876000  0.45257000  0.45836000  1.0
  H  H37  1  0.23872000  0.54744000  0.04165000  1.0
  H  H38  1  0.26126000  0.54742000  0.54164000  1.0
  H  H39  1  0.76125000  0.45258000  0.95836000  1.0
  H  H40  1  0.76894000  0.38609000  0.20251000  1.0
  H  H41  1  0.26897000  0.61391000  0.29749000  1.0
  H  H42  1  0.23105000  0.61390000  0.79749000  1.0
  H  H43  1  0.73105000  0.38609000  0.70251000  1.0
  C  C44  1  0.89025000  0.16713000  0.13044000  1.0
  C  C45  1  0.39029000  0.83285000  0.36956000  1.0
  C  C46  1  0.10972000  0.83286000  0.86955000  1.0
  C  C47  1  0.60973000  0.16714000  0.63045000  1.0
  C  C48  1  0.82753000  0.26988000  0.21611000  1.0
  C  C49  1  0.32754000  0.73012000  0.28388000  1.0
  C  C50  1  0.17247000  0.73012000  0.78389000  1.0
  C  C51  1  0.67246000  0.26987000  0.71611000  1.0
  C  C52  1  0.03097000  0.31008000  0.27353000  1.0
  C  C53  1  0.53097000  0.68992000  0.22647000  1.0
  C  C54  1  0.96903000  0.68992000  0.72647000  1.0
  C  C55  1  0.46903000  0.31008000  0.77353000  1.0
  C  C56  1  0.96976000  0.42683000  0.35638000  1.0
  C  C57  1  0.46975000  0.57317000  0.14361000  1.0
  C  C58  1  0.03024000  0.57317000  0.64362000  1.0
  C  C59  1  0.53024000  0.42684000  0.85639000  1.0
  C  C60  1  0.78639000  0.35618000  0.40354000  1.0
  C  C61  1  0.28637000  0.64383000  0.09646000  1.0
  C  C62  1  0.21362000  0.64382000  0.59646000  1.0
  C  C63  1  0.71362000  0.35618000  0.90354000  1.0
  C  C64  1  0.58621000  0.30726000  0.34597000  1.0
  C  C65  1  0.08619000  0.69276000  0.15403000  1.0
  C  C66  1  0.41381000  0.69274000  0.65403000  1.0
  C  C67  1  0.91380000  0.30725000  0.84597000  1.0
  C  C68  1  0.64477000  0.19579000  0.26079000  1.0
  C  C69  1  0.14478000  0.80422000  0.23922000  1.0
  C  C70  1  0.35523000  0.80421000  0.73921000  1.0
  C  C71  1  0.85523000  0.19579000  0.76079000  1.0
  C  C72  1  0.87694000  0.21874000  0.44146000  1.0
  C  C73  1  0.37688000  0.78129000  0.05855000  1.0
  C  C74  1  0.12307000  0.78125000  0.55854000  1.0
  C  C75  1  0.62304000  0.21875000  0.94146000  1.0
  O  O76  1  0.03571000  0.22658000  0.08819000  1.0
  O  O77  1  0.53573000  0.77342000  0.41180000  1.0
  O  O78  1  0.96428000  0.77343000  0.91181000  1.0
  O  O79  1  0.46429000  0.22657000  0.58819000  1.0
  O  O80  1  0.79478000  0.03024000  0.10555000  1.0
  O  O81  1  0.29480000  0.96975000  0.39446000  1.0
  O  O82  1  0.20523000  0.96977000  0.89446000  1.0
  O  O83  1  0.70523000  0.03022000  0.60554000  1.0
  O  O84  1  0.04044000  0.25386000  0.49205000  1.0
  O  O85  1  0.54043000  0.74616000  0.00794000  1.0
  O  O86  1  0.95958000  0.74615000  0.50794000  1.0
  O  O87  1  0.45958000  0.25386000  0.99205000  1.0
  O  O88  1  0.78709000  0.07871000  0.42164000  1.0
  O  O89  1  0.28705000  0.92129000  0.07835000  1.0
  O  O90  1  0.21294000  0.92129000  0.57835000  1.0
  O  O91  1  0.71292000  0.07871000  0.92165000  1.0
