# generated using pymatgen
data_ZnH13C18N5O3
_symmetry_space_group_name_H-M   'P 1'
_cell_length_a   8.64256000
_cell_length_b   13.22470000
_cell_length_c   16.61060000
_cell_angle_alpha   90.00000000
_cell_angle_beta   89.99980000
_cell_angle_gamma   90.00000000
_symmetry_Int_Tables_number   1
_chemical_formula_structural   ZnH13C18N5O3
_chemical_formula_sum   'Zn4 H52 C72 N20 O12'
_cell_volume   1898.51289943
_cell_formula_units_Z   4
loop_
 _symmetry_equiv_pos_site_id
 _symmetry_equiv_pos_as_xyz
  1  'x, y, z'
loop_
 _atom_site_type_symbol
 _atom_site_label
 _atom_site_symmetry_multiplicity
 _atom_site_fract_x
 _atom_site_fract_y
 _atom_site_fract_z
 _atom_site_occupancy
  Zn  Zn0  1  0.86153000  0.88254000  0.75208000  1.0
  Zn  Zn1  1  0.63847000  0.11746000  0.25208000  1.0
  Zn  Zn2  1  0.36153000  0.61746000  0.24792000  1.0
  Zn  Zn3  1  0.13847000  0.38254000  0.74792000  1.0
  H  H4  1  0.20461000  0.16451000  0.89517000  1.0
  H  H5  1  0.29539000  0.83549000  0.39517000  1.0
  H  H6  1  0.70461000  0.33549000  0.10483000  1.0
  H  H7  1  0.79539000  0.66451000  0.60483000  1.0
  H  H8  1  0.42802000  0.40320000  0.84401000  1.0
  H  H9  1  0.07198000  0.59680000  0.34401000  1.0
  H  H10  1  0.92802000  0.09680000  0.15599000  1.0
  H  H11  1  0.57198000  0.90320000  0.65599000  1.0
  H  H12  1  0.65435000  0.52185000  0.85603000  1.0
  H  H13  1  0.84565000  0.47814000  0.35603000  1.0
  H  H14  1  0.15435000  0.97815000  0.14397000  1.0
  H  H15  1  0.34565000  0.02186000  0.64397000  1.0
  H  H16  1  0.78072000  0.87791000  0.05437000  1.0
  H  H17  1  0.71928000  0.12209000  0.55437000  1.0
  H  H18  1  0.28072000  0.62209000  0.94563000  1.0
  H  H19  1  0.21928000  0.37791000  0.44563000  1.0
  H  H20  1  0.46101000  0.69326000  0.65992000  1.0
  H  H21  1  0.03899000  0.30674000  0.15992000  1.0
  H  H22  1  0.96101000  0.80674000  0.34008000  1.0
  H  H23  1  0.53899000  0.19326000  0.84008000  1.0
  H  H24  1  0.09580000  0.89593000  0.03363000  1.0
  H  H25  1  0.40420000  0.10406000  0.53363000  1.0
  H  H26  1  0.59580000  0.60406000  0.96637000  1.0
  H  H27  1  0.90420000  0.39593000  0.46637000  1.0
  H  H28  1  0.00505000  0.61914000  0.94837000  1.0
  H  H29  1  0.49495000  0.38086000  0.44837000  1.0
  H  H30  1  0.50505000  0.88086000  0.05163000  1.0
  H  H31  1  0.99495000  0.11914000  0.55163000  1.0
  H  H32  1  0.05720000  0.08835000  0.78127000  1.0
  H  H33  1  0.44281000  0.91166000  0.28127000  1.0
  H  H34  1  0.55719000  0.41165000  0.21873000  1.0
  H  H35  1  0.94281000  0.58835000  0.71873000  1.0
  H  H36  1  0.24458000  0.56809000  0.65467000  1.0
  H  H37  1  0.25542000  0.43191000  0.15467000  1.0
  H  H38  1  0.74458000  0.93191000  0.34533000  1.0
  H  H39  1  0.75542000  0.06809000  0.84533000  1.0
  H  H40  1  0.22698000  0.06530000  0.02499000  1.0
  H  H41  1  0.27302000  0.93470000  0.52499000  1.0
  H  H42  1  0.72698000  0.43470000  0.97501000  1.0
  H  H43  1  0.77302000  0.56530000  0.47501000  1.0
  H  H44  1  0.74962000  0.78294000  0.18297000  1.0
  H  H45  1  0.75038000  0.21706000  0.68297000  1.0
  H  H46  1  0.24962000  0.71706000  0.81703000  1.0
  H  H47  1  0.25038000  0.28294000  0.31703000  1.0
  H  H48  1  0.99067000  0.52975000  0.07926000  1.0
  H  H49  1  0.50932000  0.47025000  0.57927000  1.0
  H  H50  1  0.49067000  0.97025000  0.92074000  1.0
  H  H51  1  0.00933000  0.02975000  0.42074000  1.0
  H  H52  1  0.86068000  0.61151000  0.19670000  1.0
  H  H53  1  0.63932000  0.38849000  0.69670000  1.0
  H  H54  1  0.36068000  0.88849000  0.80330000  1.0
  H  H55  1  0.13932000  0.11151000  0.30330000  1.0
  C  C56  1  0.57183000  0.61894000  0.76051000  1.0
  C  C57  1  0.92816000  0.38106000  0.26051000  1.0
  C  C58  1  0.07184000  0.88106000  0.23949000  1.0
  C  C59  1  0.42817000  0.11894000  0.73948000  1.0
  C  C60  1  0.68983000  0.69967000  0.77034000  1.0
  C  C61  1  0.81017000  0.30033000  0.27034000  1.0
  C  C62  1  0.18983000  0.80033000  0.22966000  1.0
  C  C63  1  0.31017000  0.19967000  0.72966000  1.0
  C  C64  1  0.14837000  0.09149000  0.90322000  1.0
  C  C65  1  0.35163000  0.90851000  0.40322000  1.0
  C  C66  1  0.64837000  0.40851000  0.09678000  1.0
  C  C67  1  0.85163000  0.59149000  0.59678000  1.0
  C  C68  1  0.89713000  0.75532000  0.99349000  1.0
  C  C69  1  0.60287000  0.24468000  0.49350000  1.0
  C  C70  1  0.39713000  0.74468000  0.00650000  1.0
  C  C71  1  0.10287000  0.25532000  0.50650000  1.0
  C  C72  1  0.43949000  0.46924000  0.80525000  1.0
  C  C73  1  0.06051000  0.53076000  0.30525000  1.0
  C  C74  1  0.93949000  0.03076000  0.19475000  1.0
  C  C75  1  0.56051000  0.96924000  0.69474000  1.0
  C  C76  1  0.56400000  0.53493000  0.81173000  1.0
  C  C77  1  0.93600000  0.46507000  0.31173000  1.0
  C  C78  1  0.06400000  0.96507000  0.18827000  1.0
  C  C79  1  0.43600000  0.03493000  0.68827000  1.0
  C  C80  1  0.82579000  0.80122000  0.05998000  1.0
  C  C81  1  0.67421000  0.19878000  0.55998000  1.0
  C  C82  1  0.32579000  0.69878000  0.94002000  1.0
  C  C83  1  0.17421000  0.30122000  0.44002000  1.0
  C  C84  1  0.45788000  0.62956000  0.70133000  1.0
  C  C85  1  0.04212000  0.37044000  0.20133000  1.0
  C  C86  1  0.95788000  0.87044000  0.29867000  1.0
  C  C87  1  0.54212000  0.12956000  0.79867000  1.0
  C  C88  1  0.08427000  0.94314000  0.98025000  1.0
  C  C89  1  0.41573000  0.05686000  0.48025000  1.0
  C  C90  1  0.58427000  0.55686000  0.01975000  1.0
  C  C91  1  0.91573000  0.44314000  0.51975000  1.0
  C  C92  1  0.95410000  0.65642000  0.00052000  1.0
  C  C93  1  0.54590000  0.34358000  0.50052000  1.0
  C  C94  1  0.45410000  0.84358000  0.99948000  1.0
  C  C95  1  0.04590000  0.15642000  0.49948000  1.0
  C  C96  1  0.06618000  0.04945000  0.83907000  1.0
  C  C97  1  0.43382000  0.95055000  0.33907000  1.0
  C  C98  1  0.56618000  0.45055000  0.16093000  1.0
  C  C99  1  0.93382000  0.54945000  0.66093000  1.0
  C  C100  1  0.33716000  0.56053000  0.69869000  1.0
  C  C101  1  0.16284000  0.43947000  0.19869000  1.0
  C  C102  1  0.83716000  0.93947000  0.30131000  1.0
  C  C103  1  0.66284000  0.06053000  0.80131000  1.0
  C  C104  1  0.91171000  0.81188000  0.91723000  1.0
  C  C105  1  0.58829000  0.18812000  0.41723000  1.0
  C  C106  1  0.41171000  0.68812000  0.08277000  1.0
  C  C107  1  0.08829000  0.31188000  0.58277000  1.0
  C  C108  1  0.15851000  0.03648000  0.97467000  1.0
  C  C109  1  0.34149000  0.96352000  0.47467000  1.0
  C  C110  1  0.65851000  0.46352000  0.02533000  1.0
  C  C111  1  0.84149000  0.53648000  0.52533000  1.0
  C  C112  1  0.80998000  0.74866000  0.13228000  1.0
  C  C113  1  0.69002000  0.25134000  0.63228000  1.0
  C  C114  1  0.30999000  0.75134000  0.86772000  1.0
  C  C115  1  0.19002000  0.24866000  0.36772000  1.0
  C  C116  1  0.99866000  0.90776000  0.91450000  1.0
  C  C117  1  0.50134000  0.09224000  0.41450000  1.0
  C  C118  1  0.49866000  0.59224000  0.08550000  1.0
  C  C119  1  0.00134000  0.40776000  0.58550000  1.0
  C  C120  1  0.94461000  0.60612000  0.07404000  1.0
  C  C121  1  0.55539000  0.39388000  0.57404000  1.0
  C  C122  1  0.44461000  0.89388000  0.92596000  1.0
  C  C123  1  0.05539000  0.10612000  0.42596000  1.0
  C  C124  1  0.87201000  0.65174000  0.13986000  1.0
  C  C125  1  0.62799000  0.34826000  0.63986000  1.0
  C  C126  1  0.37201000  0.84826000  0.86014000  1.0
  C  C127  1  0.12800000  0.15174000  0.36014000  1.0
  N  N128  1  0.32578000  0.48253000  0.75047000  1.0
  N  N129  1  0.17422000  0.51747000  0.25047000  1.0
  N  N130  1  0.82578000  0.01747000  0.24953000  1.0
  N  N131  1  0.67422000  0.98253000  0.74953000  1.0
  N  N132  1  0.75552000  0.70288000  0.84399000  1.0
  N  N133  1  0.74448000  0.29712000  0.34399000  1.0
  N  N134  1  0.25552000  0.79712000  0.15601000  1.0
  N  N135  1  0.24449000  0.20288000  0.65601000  1.0
  N  N136  1  0.99259000  0.96071000  0.84452000  1.0
  N  N137  1  0.50741000  0.03930000  0.34452000  1.0
  N  N138  1  0.49259000  0.53930000  0.15548000  1.0
  N  N139  1  0.00741000  0.46070000  0.65548000  1.0
  N  N140  1  0.84754000  0.78509000  0.84931000  1.0
  N  N141  1  0.65245000  0.21491000  0.34931000  1.0
  N  N142  1  0.34754000  0.71491000  0.15069000  1.0
  N  N143  1  0.15246000  0.28509000  0.65069000  1.0
  N  N144  1  0.09453000  0.87069000  0.63965000  1.0
  N  N145  1  0.40547000  0.12931000  0.13965000  1.0
  N  N146  1  0.59453000  0.62931000  0.36035000  1.0
  N  N147  1  0.90547000  0.37069000  0.86035000  1.0
  O  O148  1  0.71242000  0.76109000  0.71202000  1.0
  O  O149  1  0.78758000  0.23891000  0.21202000  1.0
  O  O150  1  0.21242000  0.73891000  0.28798000  1.0
  O  O151  1  0.28758000  0.26109000  0.78798000  1.0
  O  O152  1  0.97235000  0.92667000  0.64891000  1.0
  O  O153  1  0.52765000  0.07333000  0.14891000  1.0
  O  O154  1  0.47235000  0.57333000  0.35109000  1.0
  O  O155  1  0.02765000  0.42667000  0.85109000  1.0
  O  O156  1  0.11151000  0.80382000  0.69182000  1.0
  O  O157  1  0.38849000  0.19618000  0.19182000  1.0
  O  O158  1  0.61151000  0.69618000  0.30818000  1.0
  O  O159  1  0.88849000  0.30382000  0.80818000  1.0
