# generated using pymatgen
data_Cu2P2H10C4NO9
_symmetry_space_group_name_H-M   'P 1'
_cell_length_a   6.28776000
_cell_length_b   7.94577000
_cell_length_c   10.80810000
_cell_angle_alpha   87.37380000
_cell_angle_beta   88.74000000
_cell_angle_gamma   83.80840000
_symmetry_Int_Tables_number   1
_chemical_formula_structural   Cu2P2H10C4NO9
_chemical_formula_sum   'Cu4 P4 H20 C8 N2 O18'
_cell_volume   536.19182399
_cell_formula_units_Z   2
loop_
 _symmetry_equiv_pos_site_id
 _symmetry_equiv_pos_as_xyz
  1  'x, y, z'
loop_
 _atom_site_type_symbol
 _atom_site_label
 _atom_site_symmetry_multiplicity
 _atom_site_fract_x
 _atom_site_fract_y
 _atom_site_fract_z
 _atom_site_occupancy
  Cu  Cu0  1  0.50194000  0.99735000  0.50057000  1.0
  Cu  Cu1  1  0.98931000  0.14519000  0.18334000  1.0
  Cu  Cu2  1  0.01179000  0.85777000  0.81779000  1.0
  Cu  Cu3  1  0.99770000  0.49741000  0.49582000  1.0
  P  P4  1  0.51372000  0.09532000  0.22884000  1.0
  P  P5  1  0.48835000  0.90749000  0.77312000  1.0
  P  P6  1  0.83422000  0.82418000  0.33601000  1.0
  P  P7  1  0.16747000  0.17676000  0.66259000  1.0
  H  H8  1  0.27077000  0.84176000  0.29888000  1.0
  H  H9  1  0.73204000  0.15865000  0.70421000  1.0
  H  H10  1  0.02310000  0.17024000  0.43162000  1.0
  H  H11  1  0.97684000  0.82484000  0.56869000  1.0
  H  H12  1  0.78557000  0.22885000  0.38811000  1.0
  H  H13  1  0.21348000  0.76694000  0.61343000  1.0
  H  H14  1  0.37482000  0.57064000  0.39304000  1.0
  H  H15  1  0.63485000  0.42088000  0.61490000  1.0
  H  H16  1  0.37983000  0.36615000  0.39812000  1.0
  H  H17  1  0.62376000  0.62647000  0.60209000  1.0
  H  H18  1  0.61845000  0.64139000  0.14290000  1.0
  H  H19  1  0.37661000  0.36073000  0.85960000  1.0
  H  H20  1  0.73267000  0.82091000  0.07425000  1.0
  H  H21  1  0.26422000  0.17930000  0.92636000  1.0
  H  H22  1  0.45560000  0.81828000  0.07257000  1.0
  H  H23  1  0.54093000  0.18449000  0.92944000  1.0
  H  H24  1  0.81626000  0.26515000  0.94029000  1.0
  H  H25  1  0.18346000  0.73721000  0.06075000  1.0
  H  H26  1  0.16512000  0.47799000  0.20428000  1.0
  H  H27  1  0.83793000  0.52386000  0.79644000  1.0
  C  C28  1  0.57928000  0.86350000  0.25238000  1.0
  C  C29  1  0.42109000  0.14011000  0.74857000  1.0
  C  C30  1  0.59720000  0.77985000  0.12845000  1.0
  C  C31  1  0.39959000  0.22215000  0.87313000  1.0
  C  C32  1  0.89701000  0.37165000  0.96681000  1.0
  C  C33  1  0.10330000  0.63057000  0.03397000  1.0
  C  C34  1  0.09376000  0.48791000  0.11282000  1.0
  C  C35  1  0.90755000  0.51402000  0.88807000  1.0
  N  N36  1  0.98988000  0.35988000  0.07786000  1.0
  N  N37  1  0.01095000  0.64240000  0.92284000  1.0
  O  O38  1  0.51553000  0.16972000  0.36063000  1.0
  O  O39  1  0.49179000  0.82835000  0.64299000  1.0
  O  O40  1  0.68737000  0.16110000  0.14335000  1.0
  O  O41  1  0.31360000  0.84249000  0.85815000  1.0
  O  O42  1  0.29782000  0.12361000  0.16702000  1.0
  O  O43  1  0.70322000  0.88265000  0.83660000  1.0
  O  O44  1  0.79599000  0.91060000  0.46178000  1.0
  O  O45  1  0.20854000  0.08587000  0.53899000  1.0
  O  O46  1  0.00670000  0.90567000  0.25555000  1.0
  O  O47  1  0.99540000  0.09639000  0.74430000  1.0
  O  O48  1  0.89034000  0.63280000  0.35148000  1.0
  O  O49  1  0.10622000  0.36754000  0.64278000  1.0
  O  O50  1  0.41523000  0.80064000  0.33333333  1.0
  O  O51  1  0.58825000  0.20456000  0.67067000  1.0
  O  O52  1  0.93532000  0.25520000  0.37829000  1.0
  O  O53  1  0.06390000  0.74103000  0.62353000  1.0
  O  O54  1  0.28657000  0.47535000  0.39988000  1.0
  O  O55  1  0.68780000  0.51819000  0.56779000  1.0
