# generated using pymatgen
data_AgH4C5SN2(OF)3
_symmetry_space_group_name_H-M   'P 1'
_cell_length_a   8.86043000
_cell_length_b   8.86042000
_cell_length_c   12.18630000
_cell_angle_alpha   88.17020000
_cell_angle_beta   88.17010000
_cell_angle_gamma   77.80620000
_symmetry_Int_Tables_number   1
_chemical_formula_structural   AgH4C5SN2(OF)3
_chemical_formula_sum   'Ag4 H16 C20 S4 N8 O12 F12'
_cell_volume   934.33931919
_cell_formula_units_Z   4
loop_
 _symmetry_equiv_pos_site_id
 _symmetry_equiv_pos_as_xyz
  1  'x, y, z'
loop_
 _atom_site_type_symbol
 _atom_site_label
 _atom_site_symmetry_multiplicity
 _atom_site_fract_x
 _atom_site_fract_y
 _atom_site_fract_z
 _atom_site_occupancy
  Ag  Ag0  1  0.18595000  0.31682000  0.45841000  1.0
  Ag  Ag1  1  0.68318000  0.81406000  0.04159000  1.0
  Ag  Ag2  1  0.81406000  0.68318000  0.54159000  1.0
  Ag  Ag3  1  0.31682000  0.18594000  0.95841000  1.0
  H  H4  1  0.52109000  0.29682000  0.36671000  1.0
  H  H5  1  0.70318000  0.47891000  0.13328000  1.0
  H  H6  1  0.47891000  0.70319000  0.63329000  1.0
  H  H7  1  0.29681000  0.52109000  0.86672000  1.0
  H  H8  1  0.25203000  0.58581000  0.59414000  1.0
  H  H9  1  0.41419000  0.74797000  0.90586000  1.0
  H  H10  1  0.74797000  0.41420000  0.40586000  1.0
  H  H11  1  0.58580000  0.25202000  0.09414000  1.0
  H  H12  1  0.17305000  0.06551000  0.63377000  1.0
  H  H13  1  0.93450000  0.82695000  0.86623000  1.0
  H  H14  1  0.82696000  0.93450000  0.36622000  1.0
  H  H15  1  0.06550000  0.17304000  0.13378000  1.0
  H  H16  1  0.95246000  0.16478000  0.33563000  1.0
  H  H17  1  0.83522000  0.04754000  0.16437000  1.0
  H  H18  1  0.04755000  0.83523000  0.66437000  1.0
  H  H19  1  0.16478000  0.95246000  0.83563000  1.0
  C  C20  1  0.51138000  0.38822000  0.42600000  1.0
  C  C21  1  0.61178000  0.48862000  0.07399000  1.0
  C  C22  1  0.48862000  0.61178000  0.57400000  1.0
  C  C23  1  0.38821000  0.51138000  0.92600000  1.0
  C  C24  1  0.36294000  0.54751000  0.55160000  1.0
  C  C25  1  0.45248000  0.63707000  0.94840000  1.0
  C  C26  1  0.63707000  0.45249000  0.44841000  1.0
  C  C27  1  0.54751000  0.36294000  0.05159000  1.0
  C  C28  1  0.09540000  0.03636000  0.57408000  1.0
  C  C29  1  0.96365000  0.90460000  0.92592000  1.0
  C  C30  1  0.90460000  0.96364000  0.42592000  1.0
  C  C31  1  0.03636000  0.09540000  0.07408000  1.0
  C  C32  1  0.97333000  0.09030000  0.40898000  1.0
  C  C33  1  0.90970000  0.02667000  0.09103000  1.0
  C  C34  1  0.02667000  0.90970000  0.59102000  1.0
  C  C35  1  0.09030000  0.97333000  0.90898000  1.0
  C  C36  1  0.11793000  0.58450000  0.17031000  1.0
  C  C37  1  0.41550000  0.88207000  0.32969000  1.0
  C  C38  1  0.88207000  0.41550000  0.82969000  1.0
  C  C39  1  0.58450000  0.11793000  0.67031000  1.0
  S  S40  1  0.95442000  0.55068000  0.26231000  1.0
  S  S41  1  0.44933000  0.04558000  0.23769000  1.0
  S  S42  1  0.04558000  0.44932000  0.73769000  1.0
  S  S43  1  0.55067000  0.95442000  0.76231000  1.0
  N  N44  1  0.37402000  0.43558000  0.47797000  1.0
  N  N45  1  0.56442000  0.62598000  0.02203000  1.0
  N  N46  1  0.62598000  0.56442000  0.52203000  1.0
  N  N47  1  0.43557000  0.37402000  0.97797000  1.0
  N  N48  1  0.06866000  0.12654000  0.48283000  1.0
  N  N49  1  0.87346000  0.93134000  0.01717000  1.0
  N  N50  1  0.93134000  0.87346000  0.51716000  1.0
  N  N51  1  0.12654000  0.06866000  0.98284000  1.0
  O  O52  1  0.01442000  0.55829000  0.37253000  1.0
  O  O53  1  0.44171000  0.98558000  0.12747000  1.0
  O  O54  1  0.98558000  0.44171000  0.62747000  1.0
  O  O55  1  0.55829000  0.01442000  0.87253000  1.0
  O  O56  1  0.93252000  0.39750000  0.23418000  1.0
  O  O57  1  0.60251000  0.06747000  0.26582000  1.0
  O  O58  1  0.06748000  0.60250000  0.76582000  1.0
  O  O59  1  0.39749000  0.93253000  0.73418000  1.0
  O  O60  1  0.82804000  0.67854000  0.23370000  1.0
  O  O61  1  0.32148000  0.17197000  0.26629000  1.0
  O  O62  1  0.17196000  0.32146000  0.76629000  1.0
  O  O63  1  0.67852000  0.82803000  0.73371000  1.0
  F  F64  1  0.25471000  0.49623000  0.20154000  1.0
  F  F65  1  0.50378000  0.74529000  0.29846000  1.0
  F  F66  1  0.74529000  0.50377000  0.79846000  1.0
  F  F67  1  0.49622000  0.25471000  0.70154000  1.0
  F  F68  1  0.09444000  0.55178000  0.06491000  1.0
  F  F69  1  0.44821000  0.90556000  0.43509000  1.0
  F  F70  1  0.90556000  0.44822000  0.93509000  1.0
  F  F71  1  0.55179000  0.09444000  0.56491000  1.0
  F  F72  1  0.12984000  0.73473000  0.17196000  1.0
  F  F73  1  0.26527000  0.87016000  0.32803000  1.0
  F  F74  1  0.87016000  0.26527000  0.82804000  1.0
  F  F75  1  0.73472000  0.12984000  0.67197000  1.0
