# generated using pymatgen
data_CdH18C26N2(ClO2)2
_symmetry_space_group_name_H-M   'P 1'
_cell_length_a   10.10280000
_cell_length_b   10.64070000
_cell_length_c   11.84700000
_cell_angle_alpha   88.76080000
_cell_angle_beta   70.07020000
_cell_angle_gamma   83.22470000
_symmetry_Int_Tables_number   1
_chemical_formula_structural   CdH18C26N2(ClO2)2
_chemical_formula_sum   'Cd2 H36 C52 N4 Cl4 O8'
_cell_volume   1188.69326968
_cell_formula_units_Z   2
loop_
 _symmetry_equiv_pos_site_id
 _symmetry_equiv_pos_as_xyz
  1  'x, y, z'
loop_
 _atom_site_type_symbol
 _atom_site_label
 _atom_site_symmetry_multiplicity
 _atom_site_fract_x
 _atom_site_fract_y
 _atom_site_fract_z
 _atom_site_occupancy
  Cd  Cd0  1  0.09736000  0.60755000  0.08158000  1.0
  Cd  Cd1  1  0.90264000  0.39245000  0.91842000  1.0
  H  H2  1  0.77344000  0.70799000  0.21023000  1.0
  H  H3  1  0.22656000  0.29202000  0.78977000  1.0
  H  H4  1  0.58136000  0.85986000  0.18443000  1.0
  H  H5  1  0.41864000  0.14015000  0.81557000  1.0
  H  H6  1  0.89423000  0.00336000  0.87591000  1.0
  H  H7  1  0.10577000  0.99665000  0.12409000  1.0
  H  H8  1  0.07556000  0.84216000  0.91504000  1.0
  H  H9  1  0.92444000  0.15784000  0.08496000  1.0
  H  H10  1  0.65843000  0.09700000  0.93061000  1.0
  H  H11  1  0.34157000  0.90301000  0.06939000  1.0
  H  H12  1  0.45330000  0.02107000  0.17053000  1.0
  H  H13  1  0.54670000  0.97893000  0.82946000  1.0
  H  H14  1  0.23877000  0.16991000  0.26629000  1.0
  H  H15  1  0.76123000  0.83009000  0.73371000  1.0
  H  H16  1  0.10613000  0.38430000  0.26686000  1.0
  H  H17  1  0.89387000  0.61570000  0.73314000  1.0
  H  H18  1  0.40785000  0.47750000  0.95124000  1.0
  H  H19  1  0.59215000  0.52250000  0.04876000  1.0
  H  H20  1  0.55926000  0.27233000  0.94016000  1.0
  H  H21  1  0.44074000  0.72768000  0.05984000  1.0
  H  H22  1  0.40123000  0.72772000  0.69952000  1.0
  H  H23  1  0.59877000  0.27228000  0.30048000  1.0
  H  H24  1  0.51121000  0.74147000  0.47537000  1.0
  H  H25  1  0.48878000  0.25854000  0.52464000  1.0
  H  H26  1  0.24211000  0.47490000  0.43187000  1.0
  H  H27  1  0.75790000  0.52510000  0.56812000  1.0
  H  H28  1  0.13322000  0.46167000  0.65400000  1.0
  H  H29  1  0.86678000  0.53832000  0.34599000  1.0
  H  H30  1  0.97611000  0.72061000  0.51002000  1.0
  H  H31  1  0.02388000  0.27939000  0.48998000  1.0
  H  H32  1  0.00892000  0.83259000  0.68235000  1.0
  H  H33  1  0.99107000  0.16741000  0.31765000  1.0
  H  H34  1  0.32564000  0.03320000  0.43096000  1.0
  H  H35  1  0.67436000  0.96680000  0.56904000  1.0
  H  H36  1  0.29112000  0.91924000  0.26084000  1.0
  H  H37  1  0.70887000  0.08075000  0.73917000  1.0
  C  C38  1  0.79593000  0.77553000  0.13747000  1.0
  C  C39  1  0.20407000  0.22447000  0.86252000  1.0
  C  C40  1  0.68909000  0.86162000  0.12208000  1.0
  C  C41  1  0.31091000  0.13838000  0.87792000  1.0
  C  C42  1  0.72109000  0.94316000  0.02441000  1.0
  C  C43  1  0.27891000  0.05684000  0.97559000  1.0
  C  C44  1  0.86348000  0.93865000  0.95055000  1.0
  C  C45  1  0.13652000  0.06135000  0.04945000  1.0
  C  C46  1  0.96431000  0.85014000  0.97209000  1.0
  C  C47  1  0.03569000  0.14986000  0.02790000  1.0
  C  C48  1  0.61022000  0.01988000  0.98678000  1.0
  C  C49  1  0.38979000  0.98012000  0.01322000  1.0
  C  C50  1  0.46446000  0.06175000  0.08238000  1.0
  C  C51  1  0.53554000  0.93825000  0.91762000  1.0
  C  C52  1  0.40702000  0.19908000  0.09890000  1.0
  C  C53  1  0.59298000  0.80092000  0.90110000  1.0
  C  C54  1  0.28161000  0.23605000  0.19517000  1.0
  C  C55  1  0.71839000  0.76396000  0.80483000  1.0
  C  C56  1  0.20664000  0.35438000  0.19603000  1.0
  C  C57  1  0.79336000  0.64562000  0.80397000  1.0
  C  C58  1  0.37615000  0.40676000  0.02030000  1.0
  C  C59  1  0.62385000  0.59324000  0.97970000  1.0
  C  C60  1  0.45864000  0.29088000  0.01392000  1.0
  C  C61  1  0.54136000  0.70912000  0.98608000  1.0
  C  C62  1  0.19829000  0.58820000  0.82463000  1.0
  C  C63  1  0.80170000  0.41179000  0.17537000  1.0
  C  C64  1  0.26054000  0.59506000  0.69074000  1.0
  C  C65  1  0.73946000  0.40493000  0.30926000  1.0
  C  C66  1  0.36712000  0.67341000  0.63970000  1.0
  C  C67  1  0.63288000  0.32659000  0.36030000  1.0
  C  C68  1  0.42821000  0.68100000  0.51562000  1.0
  C  C69  1  0.57179000  0.31901000  0.48438000  1.0
  C  C70  1  0.38216000  0.60871000  0.44236000  1.0
  C  C71  1  0.61784000  0.39129000  0.55764000  1.0
  C  C72  1  0.27652000  0.52973000  0.49119000  1.0
  C  C73  1  0.72348000  0.47027000  0.50881000  1.0
  C  C74  1  0.21578000  0.52323000  0.61559000  1.0
  C  C75  1  0.78422000  0.47676000  0.38440000  1.0
  C  C76  1  0.11918000  0.74279000  0.27261000  1.0
  C  C77  1  0.88082000  0.25722000  0.72739000  1.0
  C  C78  1  0.13157000  0.81419000  0.37547000  1.0
  C  C79  1  0.86842000  0.18580000  0.62453000  1.0
  C  C80  1  0.05115000  0.79024000  0.49420000  1.0
  C  C81  1  0.94885000  0.20976000  0.50580000  1.0
  C  C82  1  0.06892000  0.85211000  0.58951000  1.0
  C  C83  1  0.93107000  0.14788000  0.41049000  1.0
  C  C84  1  0.16820000  0.93869000  0.56527000  1.0
  C  C85  1  0.83181000  0.06130000  0.43473000  1.0
  C  C86  1  0.24861000  0.96530000  0.44752000  1.0
  C  C87  1  0.75139000  0.03469000  0.55249000  1.0
  C  C88  1  0.22919000  0.90253000  0.35367000  1.0
  C  C89  1  0.77081000  0.09746000  0.64632000  1.0
  N  N90  1  0.93071000  0.76797000  0.06250000  1.0
  N  N91  1  0.06929000  0.23203000  0.93750000  1.0
  N  N92  1  0.25024000  0.43687000  0.10704000  1.0
  N  N93  1  0.74976000  0.56313000  0.89296000  1.0
  Cl  Cl94  1  0.45764000  0.61739000  0.28781000  1.0
  Cl  Cl95  1  0.54236000  0.38262000  0.71219000  1.0
  Cl  Cl96  1  0.19473000  0.01261000  0.68312000  1.0
  Cl  Cl97  1  0.80526000  0.98739000  0.31688000  1.0
  O  O98  1  0.25288000  0.64719000  0.88750000  1.0
  O  O99  1  0.74712000  0.35281000  0.11250000  1.0
  O  O100  1  0.09362000  0.52530000  0.87282000  1.0
  O  O101  1  0.90638000  0.47468000  0.12718000  1.0
  O  O102  1  0.03471000  0.65816000  0.29526000  1.0
  O  O103  1  0.96528000  0.34184000  0.70474000  1.0
  O  O104  1  0.19533000  0.76864000  0.16607000  1.0
  O  O105  1  0.80467000  0.23136000  0.83393000  1.0
