# generated using pymatgen
data_CuH15C26N5O4
_symmetry_space_group_name_H-M   'P 1'
_cell_length_a   8.14182000
_cell_length_b   10.11650000
_cell_length_c   13.37790000
_cell_angle_alpha   92.08200000
_cell_angle_beta   103.60400000
_cell_angle_gamma   101.90800000
_symmetry_Int_Tables_number   1
_chemical_formula_structural   CuH15C26N5O4
_chemical_formula_sum   'Cu2 H30 C52 N10 O8'
_cell_volume   1043.75195631
_cell_formula_units_Z   2
loop_
 _symmetry_equiv_pos_site_id
 _symmetry_equiv_pos_as_xyz
  1  'x, y, z'
loop_
 _atom_site_type_symbol
 _atom_site_label
 _atom_site_symmetry_multiplicity
 _atom_site_fract_x
 _atom_site_fract_y
 _atom_site_fract_z
 _atom_site_occupancy
  Cu  Cu0  1  0.53830000  0.07534000  0.76729000  1.0
  Cu  Cu1  1  0.46170000  0.92466000  0.23271000  1.0
  H  H2  1  0.12175000  0.16303000  0.15565000  1.0
  H  H3  1  0.87826000  0.83696000  0.84434000  1.0
  H  H4  1  0.20391000  0.22086000  0.98749000  1.0
  H  H5  1  0.79609000  0.77913000  0.01250000  1.0
  H  H6  1  0.96618000  0.19300000  0.82660000  1.0
  H  H7  1  0.03380000  0.80699000  0.17339000  1.0
  H  H8  1  0.59020000  0.06576000  0.98405000  1.0
  H  H9  1  0.40979000  0.93424000  0.01595000  1.0
  H  H10  1  0.63936000  0.30642000  0.63172000  1.0
  H  H11  1  0.36065000  0.69358000  0.36827000  1.0
  H  H12  1  0.75962000  0.31857000  0.47224000  1.0
  H  H13  1  0.24038000  0.68143000  0.52775000  1.0
  H  H14  1  0.82937000  0.10976000  0.40010000  1.0
  H  H15  1  0.17064000  0.89024000  0.59990000  1.0
  H  H16  1  0.48862000  0.79654000  0.86188000  1.0
  H  H17  1  0.51137000  0.20347000  0.13812000  1.0
  H  H18  1  0.54772000  0.57101000  0.81807000  1.0
  H  H19  1  0.45227000  0.42900000  0.18194000  1.0
  H  H20  1  0.65982000  0.53666000  0.66378000  1.0
  H  H21  1  0.34018000  0.46335000  0.33623000  1.0
  H  H22  1  0.67433000  0.53870000  0.03886000  1.0
  H  H23  1  0.32567000  0.46130000  0.96114000  1.0
  H  H24  1  0.86151000  0.37278000  0.07762000  1.0
  H  H25  1  0.13847000  0.62722000  0.92238000  1.0
  H  H26  1  0.97919000  0.50665000  0.40075000  1.0
  H  H27  1  0.02081000  0.49334000  0.59925000  1.0
  H  H28  1  0.00333000  0.34803000  0.26086000  1.0
  H  H29  1  0.99666000  0.65196000  0.73913000  1.0
  H  H30  1  0.71817000  0.54057000  0.47924000  1.0
  H  H31  1  0.28183000  0.45943000  0.52077000  1.0
  C  C32  1  0.79415000  0.06977000  0.17910000  1.0
  C  C33  1  0.20584000  0.93022000  0.82089000  1.0
  C  C34  1  0.85073000  0.10763000  0.08215000  1.0
  C  C35  1  0.14927000  0.89237000  0.91784000  1.0
  C  C36  1  0.02476000  0.15429000  0.08296000  1.0
  C  C37  1  0.97524000  0.84570000  0.91703000  1.0
  C  C38  1  0.06933000  0.18682000  0.99109000  1.0
  C  C39  1  0.93067000  0.81318000  0.00890000  1.0
  C  C40  1  0.93696000  0.17110000  0.90066000  1.0
  C  C41  1  0.06303000  0.82889000  0.09933000  1.0
  C  C42  1  0.72761000  0.09747000  0.98849000  1.0
  C  C43  1  0.27239000  0.90253000  0.01150000  1.0
  C  C44  1  0.67472000  0.21977000  0.59808000  1.0
  C  C45  1  0.32528000  0.78023000  0.40192000  1.0
  C  C46  1  0.74158000  0.22493000  0.51028000  1.0
  C  C47  1  0.25842000  0.77507000  0.48972000  1.0
  C  C48  1  0.78163000  0.11068000  0.47025000  1.0
  C  C49  1  0.21837000  0.88933000  0.52975000  1.0
  C  C50  1  0.75358000  0.99080000  0.52009000  1.0
  C  C51  1  0.24643000  0.00920000  0.47991000  1.0
  C  C52  1  0.68489000  0.99295000  0.60785000  1.0
  C  C53  1  0.31511000  0.00705000  0.39214000  1.0
  C  C54  1  0.64575000  0.87269000  0.66015000  1.0
  C  C55  1  0.35425000  0.12732000  0.33985000  1.0
  C  C56  1  0.54128000  0.77987000  0.79595000  1.0
  C  C57  1  0.45872000  0.22015000  0.20405000  1.0
  C  C58  1  0.57327000  0.65344000  0.77014000  1.0
  C  C59  1  0.42672000  0.34657000  0.22986000  1.0
  C  C60  1  0.63622000  0.63528000  0.68422000  1.0
  C  C61  1  0.36378000  0.36473000  0.31579000  1.0
  C  C62  1  0.67384000  0.74601000  0.62602000  1.0
  C  C63  1  0.32616000  0.25400000  0.37399000  1.0
  C  C64  1  0.73414000  0.74582000  0.53456000  1.0
  C  C65  1  0.26586000  0.25417000  0.46544000  1.0
  C  C66  1  0.77554000  0.86238000  0.48347000  1.0
  C  C67  1  0.22446000  0.13762000  0.51653000  1.0
  C  C68  1  0.79650000  0.69664000  0.38571000  1.0
  C  C69  1  0.20351000  0.30336000  0.61430000  1.0
  C  C70  1  0.80974000  0.60971000  0.29910000  1.0
  C  C71  1  0.19027000  0.39029000  0.70091000  1.0
  C  C72  1  0.72025000  0.61745000  0.19577000  1.0
  C  C73  1  0.27976000  0.38255000  0.80424000  1.0
  C  C74  1  0.58809000  0.70426000  0.16178000  1.0
  C  C75  1  0.41192000  0.29575000  0.83823000  1.0
  C  C76  1  0.74462000  0.53252000  0.11794000  1.0
  C  C77  1  0.25537000  0.46748000  0.88206000  1.0
  C  C78  1  0.84832000  0.43864000  0.14005000  1.0
  C  C79  1  0.15168000  0.56136000  0.85995000  1.0
  C  C80  1  0.91175000  0.51279000  0.32073000  1.0
  C  C81  1  0.08825000  0.48721000  0.67928000  1.0
  C  C82  1  0.93007000  0.42650000  0.24240000  1.0
  C  C83  1  0.06992000  0.57349000  0.75760000  1.0
  N  N84  1  0.76889000  0.12754000  0.89938000  1.0
  N  N85  1  0.23111000  0.87245000  0.10062000  1.0
  N  N86  1  0.57644000  0.88569000  0.74160000  1.0
  N  N87  1  0.42356000  0.11433000  0.25840000  1.0
  N  N88  1  0.64612000  0.10646000  0.64513000  1.0
  N  N89  1  0.35388000  0.89354000  0.35487000  1.0
  N  N90  1  0.75190000  0.64125000  0.47181000  1.0
  N  N91  1  0.24811000  0.35875000  0.52819000  1.0
  N  N92  1  0.81739000  0.83022000  0.39348000  1.0
  N  N93  1  0.18262000  0.16978000  0.60653000  1.0
  O  O94  1  0.89860000  0.10506000  0.26500000  1.0
  O  O95  1  0.10140000  0.89491000  0.73499000  1.0
  O  O96  1  0.63477000  0.00329000  0.15854000  1.0
  O  O97  1  0.36521000  0.99672000  0.84145000  1.0
  O  O98  1  0.52198000  0.74475000  0.23383000  1.0
  O  O99  1  0.47803000  0.25525000  0.76618000  1.0
  O  O100  1  0.54961000  0.72530000  0.06889000  1.0
  O  O101  1  0.45040000  0.27470000  0.93112000  1.0
