# generated using pymatgen
data_ZnH15C22(NO2)3
_symmetry_space_group_name_H-M   'P 1'
_cell_length_a   14.05560000
_cell_length_b   15.20850000
_cell_length_c   17.39590000
_cell_angle_alpha   96.71870000
_cell_angle_beta   97.18200000
_cell_angle_gamma   90.73900000
_symmetry_Int_Tables_number   1
_chemical_formula_structural   ZnH15C22(NO2)3
_chemical_formula_sum   'Zn2 H30 C44 N6 O12'
_cell_volume   3662.68413670
_cell_formula_units_Z   2
loop_
 _symmetry_equiv_pos_site_id
 _symmetry_equiv_pos_as_xyz
  1  'x, y, z'
loop_
 _atom_site_type_symbol
 _atom_site_label
 _atom_site_symmetry_multiplicity
 _atom_site_fract_x
 _atom_site_fract_y
 _atom_site_fract_z
 _atom_site_occupancy
  Zn  Zn0  1  0.39233000  0.49880000  0.49201000  1.0
  Zn  Zn1  1  0.60027000  0.50362000  0.50410000  1.0
  H  H2  1  0.62649000  0.41230000  0.26428000  1.0
  H  H3  1  0.36781000  0.53150000  0.74450000  1.0
  H  H4  1  0.89983000  0.44076000  0.37902000  1.0
  H  H5  1  0.08353000  0.64277000  0.54863000  1.0
  H  H6  1  0.72598000  0.44234000  0.39607000  1.0
  H  H7  1  0.25886000  0.62541000  0.54259000  1.0
  H  H8  1  0.95846000  0.58288000  0.61083000  1.0
  H  H9  1  0.04051000  0.37557000  0.43192000  1.0
  H  H10  1  0.66800000  0.48336000  0.74182000  1.0
  H  H11  1  0.33649000  0.49991000  0.24224000  1.0
  H  H12  1  0.38664000  0.51740000  0.88669000  1.0
  H  H13  1  0.62192000  0.39700000  0.11907000  1.0
  H  H14  1  0.35686000  0.04962000  0.49275000  1.0
  H  H15  1  0.63289000  0.94894000  0.48674000  1.0
  H  H16  1  0.35277000  0.21011000  0.47773000  1.0
  H  H17  1  0.63090000  0.78346000  0.46809000  1.0
  H  H18  1  0.64700000  0.24238000  0.58125000  1.0
  H  H19  1  0.37365000  0.77834000  0.57753000  1.0
  H  H20  1  0.70367000  0.57860000  0.63915000  1.0
  H  H21  1  0.82073000  0.61708000  0.67676000  1.0
  H  H22  1  0.18275000  0.30002000  0.40417000  1.0
  H  H23  1  0.29811000  0.34479000  0.43493000  1.0
  H  H24  1  0.57308000  0.57859000  0.08537000  1.0
  H  H25  1  0.36917000  0.32862000  0.00902000  1.0
  H  H26  1  0.32191000  0.51258000  0.03465000  1.0
  H  H27  1  0.26122000  0.52147000  0.11359000  1.0
  H  H28  1  0.76140000  0.46037000  0.85670000  1.0
  H  H29  1  0.72366000  0.48262000  0.94704000  1.0
  H  H30  1  0.66374000  0.01141000  0.63730000  1.0
  H  H31  1  0.37795000  0.02210000  0.64149000  1.0
  C  C32  1  0.50050000  0.33155000  0.51181000  1.0
  C  C33  1  0.49664000  0.67128000  0.50415000  1.0
  C  C34  1  0.41994000  0.09238000  0.51366000  1.0
  C  C35  1  0.57743000  0.91127000  0.50845000  1.0
  C  C36  1  0.41804000  0.18173000  0.50386000  1.0
  C  C37  1  0.57561000  0.81921000  0.49648000  1.0
  C  C38  1  0.50059000  0.23612000  0.52590000  1.0
  C  C39  1  0.50067000  0.77050000  0.51928000  1.0
  C  C40  1  0.58325000  0.20027000  0.56144000  1.0
  C  C41  1  0.43070000  0.81523000  0.55730000  1.0
  C  C42  1  0.58558000  0.11070000  0.57320000  1.0
  C  C43  1  0.43335000  0.90784000  0.57189000  1.0
  C  C44  1  0.50379000  0.05473000  0.54696000  1.0
  C  C45  1  0.50616000  0.95732000  0.54533000  1.0
  C  C46  1  0.87682000  0.47101000  0.43320000  1.0
  C  C47  1  0.11031000  0.58082000  0.52275000  1.0
  C  C48  1  0.78069000  0.47195000  0.44213000  1.0
  C  C49  1  0.20736000  0.57174000  0.51930000  1.0
  C  C50  1  0.80950000  0.54985000  0.56716000  1.0
  C  C51  1  0.18654000  0.42785000  0.45497000  1.0
  C  C52  1  0.90907000  0.55221000  0.56133000  1.0
  C  C53  1  0.08638000  0.43314000  0.45575000  1.0
  C  C54  1  0.48453000  0.47118000  0.34821000  1.0
  C  C55  1  0.50738000  0.51580000  0.64966000  1.0
  C  C56  1  0.94343000  0.51193000  0.49490000  1.0
  C  C57  1  0.04763000  0.50907000  0.49036000  1.0
  C  C58  1  0.48130000  0.45717000  0.26105000  1.0
  C  C59  1  0.51765000  0.50880000  0.73520000  1.0
  C  C60  1  0.56244000  0.42806000  0.22703000  1.0
  C  C61  1  0.43715000  0.51794000  0.77567000  1.0
  C  C62  1  0.55973000  0.42052000  0.14642000  1.0
  C  C63  1  0.44829000  0.50942000  0.85447000  1.0
  C  C64  1  0.47755000  0.44170000  0.09811000  1.0
  C  C65  1  0.53715000  0.49077000  0.89572000  1.0
  C  C66  1  0.39499000  0.46969000  0.13270000  1.0
  C  C67  1  0.61883000  0.48164000  0.85456000  1.0
  C  C68  1  0.39814000  0.47658000  0.21408000  1.0
  C  C69  1  0.60640000  0.49116000  0.77428000  1.0
  C  C70  1  0.47482000  0.43540000  0.01219000  1.0
  C  C71  1  0.53936000  0.48416000  0.97972000  1.0
  C  C72  1  0.60706000  0.54366000  0.03636000  1.0
  C  C73  1  0.40821000  0.36386000  0.96896000  1.0
  C  C74  1  0.67237000  0.07782000  0.61743000  1.0
  C  C75  1  0.36231000  0.95105000  0.61909000  1.0
  N  N76  1  0.74665000  0.50956000  0.50721000  1.0
  N  N77  1  0.24575000  0.49740000  0.48691000  1.0
  N  N78  1  0.77465000  0.58695000  0.63201000  1.0
  N  N79  1  0.22594000  0.35408000  0.42200000  1.0
  N  N80  1  0.31276000  0.49008000  0.08592000  1.0
  N  N81  1  0.70676000  0.45838000  0.88941000  1.0
  O  O82  1  0.42150000  0.36205000  0.48228000  1.0
  O  O83  1  0.57203000  0.63330000  0.48563000  1.0
  O  O84  1  0.57900000  0.37531000  0.53015000  1.0
  O  O85  1  0.41769000  0.63319000  0.51166000  1.0
  O  O86  1  0.40769000  0.49425000  0.37576000  1.0
  O  O87  1  0.58160000  0.54005000  0.62057000  1.0
  O  O88  1  0.56490000  0.45990000  0.38821000  1.0
  O  O89  1  0.42587000  0.49584000  0.61106000  1.0
  O  O90  1  0.69265000  0.55755000  0.03236000  1.0
  O  O91  1  0.39847000  0.33922000  0.89874000  1.0
  O  O92  1  0.74880000  0.11963000  0.63381000  1.0
  O  O93  1  0.29144000  0.91269000  0.63524000  1.0
