# generated using pymatgen
data_Cu2H3C4N2ClO
_symmetry_space_group_name_H-M   'P 1'
_cell_length_a   3.43158000
_cell_length_b   8.65048000
_cell_length_c   9.77412000
_cell_angle_alpha   89.99780000
_cell_angle_beta   99.00270000
_cell_angle_gamma   89.99620000
_symmetry_Int_Tables_number   1
_chemical_formula_structural   Cu2H3C4N2ClO
_chemical_formula_sum   'Cu4 H6 C8 N4 Cl2 O2'
_cell_volume   286.56865458
_cell_formula_units_Z   2
loop_
 _symmetry_equiv_pos_site_id
 _symmetry_equiv_pos_as_xyz
  1  'x, y, z'
loop_
 _atom_site_type_symbol
 _atom_site_label
 _atom_site_symmetry_multiplicity
 _atom_site_fract_x
 _atom_site_fract_y
 _atom_site_fract_z
 _atom_site_occupancy
  Cu  Cu0  1  0.96704000  0.42215000  0.11045000  1.0
  Cu  Cu1  1  0.03280000  0.92213000  0.88951000  1.0
  Cu  Cu2  1  0.03284000  0.57790000  0.88954000  1.0
  Cu  Cu3  1  0.96718000  0.07786000  0.11050000  1.0
  H  H4  1  0.81284000  0.49962000  0.38183000  1.0
  H  H5  1  0.18715000  0.99955000  0.61812000  1.0
  H  H6  1  0.18717000  0.50044000  0.61814000  1.0
  H  H7  1  0.81280000  0.00039000  0.38186000  1.0
  H  H8  1  0.76355000  0.75001000  0.51671000  1.0
  H  H9  1  0.23658000  0.24999000  0.48328000  1.0
  C  C10  1  0.98614000  0.75000000  0.14544000  1.0
  C  C11  1  0.01383000  0.25000000  0.85456000  1.0
  C  C12  1  0.85683000  0.61340000  0.33870000  1.0
  C  C13  1  0.14310000  0.11336000  0.66132000  1.0
  C  C14  1  0.14314000  0.38660000  0.66130000  1.0
  C  C15  1  0.85699000  0.88662000  0.33871000  1.0
  C  C16  1  0.82531000  0.75002000  0.41070000  1.0
  C  C17  1  0.17469000  0.24995000  0.58932000  1.0
  N  N18  1  0.93178000  0.61209000  0.20731000  1.0
  N  N19  1  0.06822000  0.11204000  0.79271000  1.0
  N  N20  1  0.06824000  0.38794000  0.79270000  1.0
  N  N21  1  0.93179000  0.88794000  0.20728000  1.0
  Cl  Cl22  1  0.48576000  0.25002000  0.24950000  1.0
  Cl  Cl23  1  0.51425000  0.74999000  0.75052000  1.0
  O  O24  1  0.09276000  0.75002000  0.02427000  1.0
  O  O25  1  0.90722000  0.24999000  0.97572000  1.0
