# generated using pymatgen
data_AlH6C15(BrO2)3
_symmetry_space_group_name_H-M   'P 1'
_cell_length_a   4.05182000
_cell_length_b   17.24800000
_cell_length_c   17.24800000
_cell_angle_alpha   60.00000000
_cell_angle_beta   89.99990000
_cell_angle_gamma   90.00010000
_symmetry_Int_Tables_number   1
_chemical_formula_structural   AlH6C15(BrO2)3
_chemical_formula_sum   'Al2 H12 C30 Br6 O12'
_cell_volume   1043.89847351
_cell_formula_units_Z   2
loop_
 _symmetry_equiv_pos_site_id
 _symmetry_equiv_pos_as_xyz
  1  'x, y, z'
loop_
 _atom_site_type_symbol
 _atom_site_label
 _atom_site_symmetry_multiplicity
 _atom_site_fract_x
 _atom_site_fract_y
 _atom_site_fract_z
 _atom_site_occupancy
  Al  Al0  1  0.00875000  0.50000000  0.00000000  1.0
  Al  Al1  1  0.99143000  0.16667000  0.66666000  1.0
  H  H2  1  0.72328000  0.46834000  0.41692000  1.0
  H  H3  1  0.28342000  0.46697000  0.41832000  1.0
  H  H4  1  0.27631000  0.55191000  0.24982000  1.0
  H  H5  1  0.71625000  0.55195000  0.24846000  1.0
  H  H6  1  0.72329000  0.11474000  0.96834000  1.0
  H  H7  1  0.28342000  0.11471000  0.96697000  1.0
  H  H8  1  0.27631000  0.19828000  0.05191000  1.0
  H  H9  1  0.71625000  0.19960000  0.05195000  1.0
  H  H10  1  0.72328000  0.91692000  0.61475000  1.0
  H  H11  1  0.28342000  0.91832000  0.61471000  1.0
  H  H12  1  0.27631000  0.74981000  0.69828000  1.0
  H  H13  1  0.71625000  0.74845000  0.69960000  1.0
  C  C14  1  0.50498000  0.63667000  0.93381000  1.0
  C  C15  1  0.50499000  0.42952000  0.13667000  1.0
  C  C16  1  0.50498000  0.43381000  0.92952000  1.0
  C  C17  1  0.49497000  0.23276000  0.52997000  1.0
  C  C18  1  0.49498000  0.23727000  0.73276000  1.0
  C  C19  1  0.49497000  0.02997000  0.73727000  1.0
  C  C20  1  0.50316000  0.27992000  0.42998000  1.0
  C  C21  1  0.49704000  0.37667000  0.23663000  1.0
  C  C22  1  0.50434000  0.37294000  0.37996000  1.0
  C  C23  1  0.50016000  0.28208000  0.28604000  1.0
  C  C24  1  0.49539000  0.41960000  0.28672000  1.0
  C  C25  1  0.50030000  0.23488000  0.38045000  1.0
  C  C26  1  0.50276000  0.45765000  0.38639000  1.0
  C  C27  1  0.49685000  0.51072000  0.28038000  1.0
  C  C28  1  0.50317000  0.29010000  0.77992000  1.0
  C  C29  1  0.49705000  0.38670000  0.87666000  1.0
  C  C30  1  0.50435000  0.24710000  0.87294000  1.0
  C  C31  1  0.50016000  0.43188000  0.78208000  1.0
  C  C32  1  0.49539000  0.29368000  0.91961000  1.0
  C  C33  1  0.50031000  0.38467000  0.73488000  1.0
  C  C34  1  0.50276000  0.15596000  0.95765000  1.0
  C  C35  1  0.49685000  0.20890000  0.01072000  1.0
  C  C36  1  0.50317000  0.92998000  0.79010000  1.0
  C  C37  1  0.49704000  0.73663000  0.88670000  1.0
  C  C38  1  0.50434000  0.87996000  0.74710000  1.0
  C  C39  1  0.50015000  0.78604000  0.93188000  1.0
  C  C40  1  0.49540000  0.78671000  0.79369000  1.0
  C  C41  1  0.50029000  0.88045000  0.88467000  1.0
  C  C42  1  0.50276000  0.88639000  0.65596000  1.0
  C  C43  1  0.49684000  0.78038000  0.70890000  1.0
  Br  Br44  1  0.48507000  0.21837000  0.22291000  1.0
  Br  Br45  1  0.51596000  0.10800000  0.44374000  1.0
  Br  Br46  1  0.48507000  0.55872000  0.71837000  1.0
  Br  Br47  1  0.51597000  0.44826000  0.60800000  1.0
  Br  Br48  1  0.48506000  0.72290000  0.05872000  1.0
  Br  Br49  1  0.51596000  0.94374000  0.94826000  1.0
  O  O50  1  0.27368000  0.41550000  0.98616000  1.0
  O  O51  1  0.27368000  0.59834000  0.91550000  1.0
  O  O52  1  0.27368000  0.48616000  0.09834000  1.0
  O  O53  1  0.74592000  0.48620000  0.91595000  1.0
  O  O54  1  0.74591000  0.41596000  0.09784000  1.0
  O  O55  1  0.74592000  0.59784000  0.98620000  1.0
  O  O56  1  0.25403000  0.06885000  0.75075000  1.0
  O  O57  1  0.25403000  0.18040000  0.56885000  1.0
  O  O58  1  0.25403000  0.25075000  0.68040000  1.0
  O  O59  1  0.72616000  0.06830000  0.68060000  1.0
  O  O60  1  0.72616000  0.18060000  0.75110000  1.0
  O  O61  1  0.72616000  0.25110000  0.56830000  1.0
