# generated using pymatgen
data_CuH11C17(N2O3)2
_symmetry_space_group_name_H-M   'P 1'
_cell_length_a   10.01200000
_cell_length_b   11.52500000
_cell_length_c   16.79470000
_cell_angle_alpha   89.99820000
_cell_angle_beta   89.99980000
_cell_angle_gamma   101.00300000
_symmetry_Int_Tables_number   1
_chemical_formula_structural   CuH11C17(N2O3)2
_chemical_formula_sum   'Cu4 H44 C68 N16 O24'
_cell_volume   1902.28761771
_cell_formula_units_Z   4
loop_
 _symmetry_equiv_pos_site_id
 _symmetry_equiv_pos_as_xyz
  1  'x, y, z'
loop_
 _atom_site_type_symbol
 _atom_site_label
 _atom_site_symmetry_multiplicity
 _atom_site_fract_x
 _atom_site_fract_y
 _atom_site_fract_z
 _atom_site_occupancy
  Cu  Cu0  1  0.17029000  0.22604000  0.78363000  1.0
  Cu  Cu1  1  0.32973000  0.27395000  0.28363000  1.0
  Cu  Cu2  1  0.82972000  0.77396000  0.21636000  1.0
  Cu  Cu3  1  0.67026000  0.72605000  0.71636000  1.0
  H  H4  1  0.24240000  0.09756000  0.92196000  1.0
  H  H5  1  0.25764000  0.40244000  0.42195000  1.0
  H  H6  1  0.75764000  0.90244000  0.07803000  1.0
  H  H7  1  0.74233000  0.59756000  0.57804000  1.0
  H  H8  1  0.21107000  0.02408000  0.68092000  1.0
  H  H9  1  0.28896000  0.47590000  0.18090000  1.0
  H  H10  1  0.78891000  0.97589000  0.31909000  1.0
  H  H11  1  0.71105000  0.52411000  0.81910000  1.0
  H  H12  1  0.25961000  0.82340000  0.69936000  1.0
  H  H13  1  0.24038000  0.67657000  0.19930000  1.0
  H  H14  1  0.74038000  0.17658000  0.30065000  1.0
  H  H15  1  0.75960000  0.32344000  0.80069000  1.0
  H  H16  1  0.31058000  0.75718000  0.83784000  1.0
  H  H17  1  0.18937000  0.74279000  0.33777000  1.0
  H  H18  1  0.68941000  0.24281000  0.16218000  1.0
  H  H19  1  0.81060000  0.25722000  0.66222000  1.0
  H  H20  1  0.46339000  0.80471000  0.22233000  1.0
  H  H21  1  0.03663000  0.69526000  0.72229000  1.0
  H  H22  1  0.53662000  0.19529000  0.77769000  1.0
  H  H23  1  0.96336000  0.30474000  0.27772000  1.0
  H  H24  1  0.48196000  0.89187000  0.36022000  1.0
  H  H25  1  0.01799000  0.60807000  0.86018000  1.0
  H  H26  1  0.51801000  0.10813000  0.63980000  1.0
  H  H27  1  0.98202000  0.39191000  0.13983000  1.0
  H  H28  1  0.41613000  0.08942000  0.38177000  1.0
  H  H29  1  0.08384000  0.41051000  0.88173000  1.0
  H  H30  1  0.58385000  0.91057000  0.61824000  1.0
  H  H31  1  0.91618000  0.58947000  0.11826000  1.0
  H  H32  1  0.32281000  0.11917000  0.14395000  1.0
  H  H33  1  0.17721000  0.38079000  0.64392000  1.0
  H  H34  1  0.67726000  0.88083000  0.85605000  1.0
  H  H35  1  0.82278000  0.61920000  0.35607000  1.0
  H  H36  1  0.89058000  0.79094000  0.47954000  1.0
  H  H37  1  0.60941000  0.70907000  0.97952000  1.0
  H  H38  1  0.10939000  0.20908000  0.52046000  1.0
  H  H39  1  0.39063000  0.29092000  0.02046000  1.0
  H  H40  1  0.90861000  0.21363000  0.86533000  1.0
  H  H41  1  0.59142000  0.28637000  0.36533000  1.0
  H  H42  1  0.09142000  0.78638000  0.13467000  1.0
  H  H43  1  0.40855000  0.71362000  0.63467000  1.0
  H  H44  1  0.91792000  0.12917000  0.79224000  1.0
  H  H45  1  0.58211000  0.37083000  0.29224000  1.0
  H  H46  1  0.08211000  0.87084000  0.20776000  1.0
  H  H47  1  0.41789000  0.62915000  0.70776000  1.0
  C  C48  1  0.24893000  0.03354000  0.87509000  1.0
  C  C49  1  0.25108000  0.46647000  0.37507000  1.0
  C  C50  1  0.75107000  0.96646000  0.12491000  1.0
  C  C51  1  0.74890000  0.53354000  0.62492000  1.0
  C  C52  1  0.23024000  0.99228000  0.73991000  1.0
  C  C53  1  0.26979000  0.50770000  0.23988000  1.0
  C  C54  1  0.76975000  0.00770000  0.26010000  1.0
  C  C55  1  0.73020000  0.49231000  0.76011000  1.0
  C  C56  1  0.25996000  0.88032000  0.75114000  1.0
  C  C57  1  0.24007000  0.61965000  0.25109000  1.0
  C  C58  1  0.74005000  0.11967000  0.24887000  1.0
  C  C59  1  0.75993000  0.38035000  0.74891000  1.0
  C  C60  1  0.28611000  0.84413000  0.82718000  1.0
  C  C61  1  0.21388000  0.65586000  0.32713000  1.0
  C  C62  1  0.71390000  0.15587000  0.17283000  1.0
  C  C63  1  0.78609000  0.34415000  0.67287000  1.0
  C  C64  1  0.28129000  0.92293000  0.89072000  1.0
  C  C65  1  0.21867000  0.57706000  0.39067000  1.0
  C  C66  1  0.71872000  0.07707000  0.10929000  1.0
  C  C67  1  0.78130000  0.42294000  0.60932000  1.0
  C  C68  1  0.30880000  0.88672000  0.97078000  1.0
  C  C69  1  0.19118000  0.61327000  0.47072000  1.0
  C  C70  1  0.69121000  0.11328000  0.02924000  1.0
  C  C71  1  0.80878000  0.38673000  0.52927000  1.0
  C  C72  1  0.35797000  0.90064000  0.09526000  1.0
  C  C73  1  0.14205000  0.59933000  0.59522000  1.0
  C  C74  1  0.64207000  0.09936000  0.90475000  1.0
  C  C75  1  0.85793000  0.40066000  0.40478000  1.0
  C  C76  1  0.38570000  0.95335000  0.17336000  1.0
  C  C77  1  0.11428000  0.54662000  0.67332000  1.0
  C  C78  1  0.61434000  0.04666000  0.82665000  1.0
  C  C79  1  0.88570000  0.45338000  0.32668000  1.0
  C  C80  1  0.43471000  0.88982000  0.23465000  1.0
  C  C81  1  0.06533000  0.61016000  0.73462000  1.0
  C  C82  1  0.56532000  0.11019000  0.76535000  1.0
  C  C83  1  0.93468000  0.38984000  0.26539000  1.0
  C  C84  1  0.44680000  0.93884000  0.31052000  1.0
  C  C85  1  0.05316000  0.56110000  0.81048000  1.0
  C  C86  1  0.55318000  0.06115000  0.68949000  1.0
  C  C87  1  0.94683000  0.43889000  0.18952000  1.0
  C  C88  1  0.41281000  0.04904000  0.32298000  1.0
  C  C89  1  0.08717000  0.45092000  0.82294000  1.0
  C  C90  1  0.58716000  0.95094000  0.67704000  1.0
  C  C91  1  0.91283000  0.54907000  0.17705000  1.0
  C  C92  1  0.35800000  0.06546000  0.18985000  1.0
  C  C93  1  0.14206000  0.43453000  0.68982000  1.0
  C  C94  1  0.64206000  0.93455000  0.81015000  1.0
  C  C95  1  0.85796000  0.56547000  0.31018000  1.0
  C  C96  1  0.93820000  0.93215000  0.56459000  1.0
  C  C97  1  0.56178000  0.56786000  0.06458000  1.0
  C  C98  1  0.06178000  0.06788000  0.43541000  1.0
  C  C99  1  0.43820000  0.43214000  0.93541000  1.0
  C  C100  1  0.99946000  0.05139000  0.57593000  1.0
  C  C101  1  0.50053000  0.44862000  0.07593000  1.0
  C  C102  1  0.00049000  0.94863000  0.42407000  1.0
  C  C103  1  0.49949000  0.55138000  0.92407000  1.0
  C  C104  1  0.93821000  0.88314000  0.48855000  1.0
  C  C105  1  0.56177000  0.61687000  0.98853000  1.0
  C  C106  1  0.06175000  0.11688000  0.51145000  1.0
  C  C107  1  0.43824000  0.38313000  0.01145000  1.0
  C  C108  1  0.87856000  0.85400000  0.63240000  1.0
  C  C109  1  0.62143000  0.64600000  0.13239000  1.0
  C  C110  1  0.12142000  0.14602000  0.36760000  1.0
  C  C111  1  0.37858000  0.35400000  0.86760000  1.0
  C  C112  1  0.99799000  0.11143000  0.65525000  1.0
  C  C113  1  0.50204000  0.38856000  0.15525000  1.0
  C  C114  1  0.00202000  0.88858000  0.34476000  1.0
  C  C115  1  0.49795000  0.61144000  0.84476000  1.0
  N  N116  1  0.22417000  0.06708000  0.80068000  1.0
  N  N117  1  0.27588000  0.43292000  0.30066000  1.0
  N  N118  1  0.77585000  0.93292000  0.19931000  1.0
  N  N119  1  0.72411000  0.56709000  0.69933000  1.0
  N  N120  1  0.37275000  0.11204000  0.26308000  1.0
  N  N121  1  0.12726000  0.38793000  0.76304000  1.0
  N  N122  1  0.62727000  0.88796000  0.73693000  1.0
  N  N123  1  0.87275000  0.61207000  0.23695000  1.0
  N  N124  1  0.31112000  0.77945000  0.99591000  1.0
  N  N125  1  0.18883000  0.72053000  0.49585000  1.0
  N  N126  1  0.68891000  0.22055000  0.00410000  1.0
  N  N127  1  0.81111000  0.27946000  0.50414000  1.0
  N  N128  1  0.34263000  0.78845000  0.07639000  1.0
  N  N129  1  0.15735000  0.71153000  0.57635000  1.0
  N  N130  1  0.65743000  0.21156000  0.92362000  1.0
  N  N131  1  0.84260000  0.28847000  0.42365000  1.0
  O  O132  1  0.75871000  0.79083000  0.61681000  1.0
  O  O133  1  0.74130000  0.70915000  0.11682000  1.0
  O  O134  1  0.24128000  0.20916000  0.38319000  1.0
  O  O135  1  0.25872000  0.29085000  0.88319000  1.0
  O  O136  1  0.94113000  0.85104000  0.69628000  1.0
  O  O137  1  0.55885000  0.64897000  0.19627000  1.0
  O  O138  1  0.05887000  0.14898000  0.30371000  1.0
  O  O139  1  0.44116000  0.35103000  0.80372000  1.0
  O  O140  1  0.11289000  0.17820000  0.67396000  1.0
  O  O141  1  0.38713000  0.32176000  0.17396000  1.0
  O  O142  1  0.88712000  0.82178000  0.32604000  1.0
  O  O143  1  0.61284000  0.67825000  0.82603000  1.0
  O  O144  1  0.89149000  0.09599000  0.69658000  1.0
  O  O145  1  0.60852000  0.40402000  0.19659000  1.0
  O  O146  1  0.10851000  0.90406000  0.30341000  1.0
  O  O147  1  0.39146000  0.59593000  0.80341000  1.0
  O  O148  1  0.95344000  0.15040000  0.84763000  1.0
  O  O149  1  0.54658000  0.34959000  0.34762000  1.0
  O  O150  1  0.04657000  0.84959000  0.15238000  1.0
  O  O151  1  0.45343000  0.65042000  0.65238000  1.0
  O  O152  1  0.33802000  0.96903000  0.03086000  1.0
  O  O153  1  0.16200000  0.53096000  0.53081000  1.0
  O  O154  1  0.66201000  0.03098000  0.96915000  1.0
  O  O155  1  0.83798000  0.46904000  0.46919000  1.0
