# generated using pymatgen
data_CuH6C7(N2O)3
_symmetry_space_group_name_H-M   'P 1'
_cell_length_a   7.58501000
_cell_length_b   10.05170000
_cell_length_c   12.71330000
_cell_angle_alpha   89.99290000
_cell_angle_beta   89.99030000
_cell_angle_gamma   79.14800000
_symmetry_Int_Tables_number   1
_chemical_formula_structural   CuH6C7(N2O)3
_chemical_formula_sum   'Cu4 H24 C28 N24 O12'
_cell_volume   951.95648408
_cell_formula_units_Z   4
loop_
 _symmetry_equiv_pos_site_id
 _symmetry_equiv_pos_as_xyz
  1  'x, y, z'
loop_
 _atom_site_type_symbol
 _atom_site_label
 _atom_site_symmetry_multiplicity
 _atom_site_fract_x
 _atom_site_fract_y
 _atom_site_fract_z
 _atom_site_occupancy
  Cu  Cu0  1  0.20892000  0.36565000  0.55526000  1.0
  Cu  Cu1  1  0.79104000  0.13439000  0.05533000  1.0
  Cu  Cu2  1  0.79107000  0.63433000  0.44474000  1.0
  Cu  Cu3  1  0.20898000  0.86562000  0.94468000  1.0
  H  H4  1  0.36510000  0.18064000  0.37169000  1.0
  H  H5  1  0.63498000  0.31930000  0.87169000  1.0
  H  H6  1  0.63487000  0.81936000  0.62831000  1.0
  H  H7  1  0.36507000  0.68065000  0.12831000  1.0
  H  H8  1  0.66486000  0.03337000  0.33649000  1.0
  H  H9  1  0.33523000  0.46656000  0.83648000  1.0
  H  H10  1  0.33511000  0.96663000  0.66351000  1.0
  H  H11  1  0.66482000  0.53342000  0.16351000  1.0
  H  H12  1  0.83339000  0.14271000  0.64401000  1.0
  H  H13  1  0.16659000  0.35735000  0.14405000  1.0
  H  H14  1  0.16659000  0.85730000  0.35599000  1.0
  H  H15  1  0.83345000  0.64264000  0.85596000  1.0
  H  H16  1  0.52637000  0.28558000  0.66778000  1.0
  H  H17  1  0.47361000  0.21450000  0.16786000  1.0
  H  H18  1  0.47361000  0.71443000  0.33222000  1.0
  H  H19  1  0.52644000  0.78546000  0.83214000  1.0
  H  H20  1  0.43901000  0.54802000  0.64107000  1.0
  H  H21  1  0.56098000  0.95201000  0.14110000  1.0
  H  H22  1  0.56097000  0.45199000  0.35894000  1.0
  H  H23  1  0.43902000  0.04798000  0.85891000  1.0
  H  H24  1  0.22655000  0.60593000  0.65211000  1.0
  H  H25  1  0.77346000  0.89413000  0.15220000  1.0
  H  H26  1  0.77344000  0.39410000  0.34787000  1.0
  H  H27  1  0.22655000  0.10586000  0.84779000  1.0
  C  C28  1  0.06277000  0.28362000  0.74441000  1.0
  C  C29  1  0.93724000  0.21635000  0.24442000  1.0
  C  C30  1  0.93725000  0.71636000  0.25558000  1.0
  C  C31  1  0.06271000  0.78370000  0.75556000  1.0
  C  C32  1  0.92239000  0.39006000  0.69732000  1.0
  C  C33  1  0.07764000  0.10991000  0.19732000  1.0
  C  C34  1  0.07763000  0.60993000  0.30269000  1.0
  C  C35  1  0.92231000  0.89014000  0.80269000  1.0
  C  C36  1  0.47301000  0.17167000  0.42930000  1.0
  C  C37  1  0.52706000  0.32829000  0.92932000  1.0
  C  C38  1  0.52697000  0.82833000  0.57070000  1.0
  C  C39  1  0.47299000  0.67168000  0.07068000  1.0
  C  C40  1  0.63928000  0.08932000  0.41023000  1.0
  C  C41  1  0.36078000  0.41062000  0.91023000  1.0
  C  C42  1  0.36070000  0.91068000  0.58977000  1.0
  C  C43  1  0.63926000  0.58935000  0.08977000  1.0
  C  C44  1  0.77261000  0.08062000  0.48742000  1.0
  C  C45  1  0.22741000  0.41937000  0.98743000  1.0
  C  C46  1  0.22738000  0.91938000  0.51257000  1.0
  C  C47  1  0.77261000  0.58061000  0.01257000  1.0
  C  C48  1  0.73330000  0.15135000  0.58213000  1.0
  C  C49  1  0.26670000  0.34869000  0.08217000  1.0
  C  C50  1  0.26668000  0.84866000  0.41787000  1.0
  C  C51  1  0.73334000  0.65129000  0.91783000  1.0
  C  C52  1  0.56463000  0.22978000  0.59546000  1.0
  C  C53  1  0.43536000  0.27027000  0.09553000  1.0
  C  C54  1  0.43535000  0.77023000  0.40454000  1.0
  C  C55  1  0.56468000  0.72971000  0.90448000  1.0
  N  N56  1  0.96002000  0.44188000  0.60441000  1.0
  N  N57  1  0.03996000  0.05813000  0.10440000  1.0
  N  N58  1  0.03998000  0.55811000  0.39559000  1.0
  N  N59  1  0.96001000  0.94190000  0.89561000  1.0
  N  N60  1  0.81441000  0.53118000  0.57851000  1.0
  N  N61  1  0.18563000  0.96880000  0.07848000  1.0
  N  N62  1  0.18558000  0.46881000  0.42150000  1.0
  N  N63  1  0.81438000  0.03122000  0.92154000  1.0
  N  N64  1  0.69052000  0.53287000  0.65280000  1.0
  N  N65  1  0.30948000  0.96709000  0.15275000  1.0
  N  N66  1  0.30949000  0.46711000  0.34722000  1.0
  N  N67  1  0.69049000  0.03294000  0.84728000  1.0
  N  N68  1  0.75580000  0.44476000  0.72851000  1.0
  N  N69  1  0.24418000  0.05521000  0.22849000  1.0
  N  N70  1  0.24422000  0.55522000  0.27151000  1.0
  N  N71  1  0.75576000  0.94484000  0.77154000  1.0
  N  N72  1  0.43768000  0.24132000  0.51976000  1.0
  N  N73  1  0.56233000  0.25868000  0.01981000  1.0
  N  N74  1  0.56230000  0.75868000  0.48023000  1.0
  N  N75  1  0.43770000  0.74129000  0.98019000  1.0
  N  N76  1  0.94103000  0.99704000  0.46535000  1.0
  N  N77  1  0.05899000  0.50292000  0.96534000  1.0
  N  N78  1  0.05895000  0.00297000  0.53464000  1.0
  N  N79  1  0.94106000  0.49705000  0.03466000  1.0
  O  O80  1  0.20574000  0.25463000  0.68737000  1.0
  O  O81  1  0.79427000  0.24535000  0.18738000  1.0
  O  O82  1  0.79427000  0.74534000  0.31261000  1.0
  O  O83  1  0.20568000  0.75473000  0.81257000  1.0
  O  O84  1  0.03884000  0.22888000  0.83021000  1.0
  O  O85  1  0.96108000  0.27109000  0.33023000  1.0
  O  O86  1  0.96121000  0.77109000  0.16978000  1.0
  O  O87  1  0.03883000  0.72897000  0.66976000  1.0
  O  O88  1  0.31994000  0.52228000  0.64392000  1.0
  O  O89  1  0.68003000  0.97777000  0.14404000  1.0
  O  O90  1  0.68004000  0.47774000  0.35608000  1.0
  O  O91  1  0.31997000  0.02222000  0.85596000  1.0
