# generated using pymatgen
data_Zn2H17C41Br6(NO4)2
_symmetry_space_group_name_H-M   'P 1'
_cell_length_a   16.52660000
_cell_length_b   17.92380000
_cell_length_c   29.11520000
_cell_angle_alpha   90.24150000
_cell_angle_beta   89.64850000
_cell_angle_gamma   89.91340000
_symmetry_Int_Tables_number   1
_chemical_formula_structural   Zn2H17C41Br6(NO4)2
_chemical_formula_sum   'Zn4 H34 C82 Br12 N4 O16'
_cell_volume   8624.24010556
_cell_formula_units_Z   2
loop_
 _symmetry_equiv_pos_site_id
 _symmetry_equiv_pos_as_xyz
  1  'x, y, z'
loop_
 _atom_site_type_symbol
 _atom_site_label
 _atom_site_symmetry_multiplicity
 _atom_site_fract_x
 _atom_site_fract_y
 _atom_site_fract_z
 _atom_site_occupancy
  Zn  Zn0  1  0.58291000  0.50043000  0.50239000  1.0
  Zn  Zn1  1  0.41470000  0.49977000  0.49858000  1.0
  Zn  Zn2  1  0.41496000  0.50293000  0.88742000  1.0
  Zn  Zn3  1  0.58330000  0.50129000  0.88165000  1.0
  H  H4  1  0.28462000  0.58432000  0.54767000  1.0
  H  H5  1  0.13207000  0.58671000  0.54968000  1.0
  H  H6  1  0.28770000  0.41567000  0.44987000  1.0
  H  H7  1  0.71084000  0.58171000  0.55261000  1.0
  H  H8  1  0.71268000  0.42019000  0.45045000  1.0
  H  H9  1  0.86533000  0.41684000  0.44840000  1.0
  H  H10  1  0.62629000  0.73722000  0.50107000  1.0
  H  H11  1  0.62723000  0.87713000  0.50012000  1.0
  H  H12  1  0.36665000  0.73874000  0.50032000  1.0
  H  H13  1  0.62896000  0.26605000  0.50084000  1.0
  H  H14  1  0.36943000  0.25822000  0.49990000  1.0
  H  H15  1  0.37451000  0.11833000  0.49959000  1.0
  H  H16  1  0.68210000  0.55227000  0.73546000  1.0
  H  H17  1  0.68341000  0.45279000  0.73540000  1.0
  H  H18  1  0.68368000  0.45269000  0.64845000  1.0
  H  H19  1  0.68253000  0.55216000  0.64882000  1.0
  H  H20  1  0.37508000  0.50322000  0.03294000  1.0
  H  H21  1  0.37758000  0.50212000  0.11906000  1.0
  H  H22  1  0.63471000  0.50152000  0.02930000  1.0
  H  H23  1  0.37284000  0.49951000  0.35492000  1.0
  H  H24  1  0.63249000  0.50078000  0.35277000  1.0
  H  H25  1  0.63124000  0.50113000  0.26656000  1.0
  H  H26  1  0.71478000  0.58187000  0.83273000  1.0
  H  H27  1  0.86752000  0.58527000  0.83282000  1.0
  H  H28  1  0.70919000  0.42158000  0.93476000  1.0
  H  H29  1  0.28814000  0.58787000  0.83772000  1.0
  H  H30  1  0.28450000  0.41913000  0.93456000  1.0
  H  H31  1  0.13185000  0.41623000  0.93568000  1.0
  H  H32  1  0.36988000  0.74373000  0.88386000  1.0
  H  H33  1  0.37433000  0.88361000  0.88395000  1.0
  H  H34  1  0.62946000  0.73612000  0.88311000  1.0
  H  H35  1  0.36648000  0.26391000  0.88526000  1.0
  H  H36  1  0.62615000  0.26439000  0.88394000  1.0
  H  H37  1  0.62690000  0.12449000  0.88407000  1.0
  C  C38  1  0.49515000  0.64637000  0.50142000  1.0
  C  C39  1  0.50253000  0.50031000  0.59062000  1.0
  C  C40  1  0.49628000  0.35379000  0.50005000  1.0
  C  C41  1  0.50235000  0.49937000  0.41024000  1.0
  C  C42  1  0.49697000  0.64835000  0.88330000  1.0
  C  C43  1  0.50240000  0.50090000  0.79440000  1.0
  C  C44  1  0.49533000  0.35584000  0.88509000  1.0
  C  C45  1  0.50307000  0.50221000  0.97472000  1.0
  C  C46  1  0.24856000  0.54727000  0.52623000  1.0
  C  C47  1  0.16474000  0.54836000  0.52713000  1.0
  C  C48  1  0.12114000  0.49916000  0.49854000  1.0
  C  C49  1  0.16654000  0.45060000  0.46993000  1.0
  C  C50  1  0.25071000  0.45260000  0.47122000  1.0
  C  C51  1  0.03586000  0.49934000  0.49908000  1.0
  C  C52  1  0.96218000  0.50102000  0.50064000  1.0
  C  C53  1  0.87690000  0.50144000  0.50131000  1.0
  C  C54  1  0.83175000  0.54846000  0.53100000  1.0
  C  C55  1  0.74758000  0.54650000  0.53006000  1.0
  C  C56  1  0.74907000  0.45557000  0.47277000  1.0
  C  C57  1  0.83289000  0.45410000  0.47175000  1.0
  C  C58  1  0.49645000  0.73000000  0.50106000  1.0
  C  C59  1  0.57002000  0.76888000  0.50092000  1.0
  C  C60  1  0.57050000  0.84622000  0.50034000  1.0
  C  C61  1  0.49747000  0.88752000  0.50000000  1.0
  C  C62  1  0.42399000  0.84704000  0.50009000  1.0
  C  C63  1  0.42331000  0.76960000  0.50053000  1.0
  C  C64  1  0.49980000  0.96610000  0.49966000  1.0
  C  C65  1  0.50491000  0.03403000  0.49956000  1.0
  C  C66  1  0.50459000  0.11267000  0.49969000  1.0
  C  C67  1  0.57625000  0.15576000  0.50001000  1.0
  C  C68  1  0.57364000  0.23321000  0.50034000  1.0
  C  C69  1  0.49888000  0.27016000  0.50010000  1.0
  C  C70  1  0.42701000  0.22863000  0.49983000  1.0
  C  C71  1  0.42984000  0.15133000  0.49969000  1.0
  C  C72  1  0.49470000  0.49973000  0.74286000  1.0
  C  C73  1  0.49484000  0.49954000  0.64220000  1.0
  C  C74  1  0.56507000  0.50105000  0.71622000  1.0
  C  C75  1  0.42188000  0.49721000  0.66838000  1.0
  C  C76  1  0.56517000  0.50103000  0.66840000  1.0
  C  C77  1  0.42180000  0.49735000  0.71716000  1.0
  C  C78  1  0.65659000  0.50218000  0.71924000  1.0
  C  C79  1  0.65676000  0.50214000  0.66493000  1.0
  C  C80  1  0.50468000  0.50203000  0.02620000  1.0
  C  C81  1  0.43210000  0.50240000  0.05145000  1.0
  C  C82  1  0.43354000  0.50190000  0.09905000  1.0
  C  C83  1  0.50763000  0.50115000  0.12315000  1.0
  C  C84  1  0.58005000  0.50103000  0.09693000  1.0
  C  C85  1  0.57880000  0.50143000  0.04924000  1.0
  C  C86  1  0.50705000  0.50072000  0.17153000  1.0
  C  C87  1  0.50251000  0.50045000  0.21339000  1.0
  C  C88  1  0.50135000  0.50024000  0.26179000  1.0
  C  C89  1  0.42850000  0.49985000  0.28758000  1.0
  C  C90  1  0.42905000  0.49960000  0.33525000  1.0
  C  C91  1  0.50281000  0.49966000  0.35874000  1.0
  C  C92  1  0.57577000  0.50026000  0.33394000  1.0
  C  C93  1  0.57502000  0.50054000  0.28631000  1.0
  C  C94  1  0.75038000  0.54676000  0.85548000  1.0
  C  C95  1  0.83418000  0.54828000  0.85566000  1.0
  C  C96  1  0.87705000  0.50117000  0.88573000  1.0
  C  C97  1  0.83088000  0.45452000  0.91481000  1.0
  C  C98  1  0.74675000  0.45650000  0.91270000  1.0
  C  C99  1  0.96232000  0.50141000  0.88599000  1.0
  C  C100  1  0.03602000  0.50322000  0.88492000  1.0
  C  C101  1  0.12130000  0.50371000  0.88493000  1.0
  C  C102  1  0.16695000  0.55240000  0.85688000  1.0
  C  C103  1  0.25113000  0.55089000  0.85874000  1.0
  C  C104  1  0.24852000  0.45622000  0.91323000  1.0
  C  C105  1  0.16471000  0.45476000  0.91359000  1.0
  C  C106  1  0.49938000  0.73195000  0.88320000  1.0
  C  C107  1  0.42732000  0.77339000  0.88356000  1.0
  C  C108  1  0.42981000  0.85067000  0.88370000  1.0
  C  C109  1  0.50438000  0.88940000  0.88367000  1.0
  C  C110  1  0.57625000  0.84639000  0.88339000  1.0
  C  C111  1  0.57399000  0.76894000  0.88312000  1.0
  C  C112  1  0.50442000  0.96804000  0.88403000  1.0
  C  C113  1  0.49926000  0.03597000  0.88438000  1.0
  C  C114  1  0.49710000  0.11459000  0.88459000  1.0
  C  C115  1  0.42370000  0.15540000  0.88495000  1.0
  C  C116  1  0.42313000  0.23287000  0.88512000  1.0
  C  C117  1  0.49633000  0.27217000  0.88484000  1.0
  C  C118  1  0.56983000  0.23297000  0.88435000  1.0
  C  C119  1  0.57020000  0.15561000  0.88433000  1.0
  Br  Br120  1  0.11541000  0.38279000  0.42978000  1.0
  Br  Br121  1  0.88349000  0.61414000  0.57226000  1.0
  Br  Br122  1  0.32364000  0.89920000  0.49950000  1.0
  Br  Br123  1  0.67868000  0.10712000  0.50002000  1.0
  Br  Br124  1  0.68159000  0.50039000  0.12734000  1.0
  Br  Br125  1  0.32736000  0.49981000  0.25673000  1.0
  Br  Br126  1  0.88102000  0.38927000  0.95666000  1.0
  Br  Br127  1  0.11608000  0.61994000  0.81669000  1.0
  Br  Br128  1  0.67847000  0.89508000  0.88364000  1.0
  Br  Br129  1  0.32329000  0.10361000  0.88516000  1.0
  Br  Br130  1  0.31961000  0.49234000  0.63850000  1.0
  Br  Br131  1  0.31941000  0.49282000  0.74764000  1.0
  N  N132  1  0.29027000  0.50000000  0.49887000  1.0
  N  N133  1  0.70763000  0.50097000  0.50142000  1.0
  N  N134  1  0.70791000  0.50157000  0.88348000  1.0
  N  N135  1  0.29047000  0.50359000  0.88638000  1.0
  O  O136  1  0.56351000  0.61328000  0.50295000  1.0
  O  O137  1  0.42627000  0.61489000  0.50002000  1.0
  O  O138  1  0.43843000  0.49983000  0.56690000  1.0
  O  O139  1  0.57435000  0.50152000  0.57444000  1.0
  O  O140  1  0.42695000  0.38445000  0.49787000  1.0
  O  O141  1  0.56404000  0.38770000  0.50215000  1.0
  O  O142  1  0.57024000  0.49919000  0.43066000  1.0
  O  O143  1  0.43291000  0.49941000  0.42961000  1.0
  O  O144  1  0.42756000  0.61790000  0.88547000  1.0
  O  O145  1  0.56475000  0.61426000  0.88136000  1.0
  O  O146  1  0.57436000  0.50095000  0.80998000  1.0
  O  O147  1  0.43843000  0.50201000  0.81863000  1.0
  O  O148  1  0.56371000  0.38845000  0.88212000  1.0
  O  O149  1  0.42668000  0.38779000  0.88821000  1.0
  O  O150  1  0.43320000  0.50414000  0.95635000  1.0
  O  O151  1  0.57044000  0.50041000  0.95334000  1.0
