# generated using pymatgen
data_ZnH17C24N2O5
_symmetry_space_group_name_H-M   'P 1'
_cell_length_a   10.12590000
_cell_length_b   13.67240000
_cell_length_c   18.50001248
_cell_angle_alpha   102.66913707
_cell_angle_beta   104.12837997
_cell_angle_gamma   97.86440000
_symmetry_Int_Tables_number   1
_chemical_formula_structural   ZnH17C24N2O5
_chemical_formula_sum   'Zn4 H68 C96 N8 O20'
_cell_volume   2373.73739217
_cell_formula_units_Z   4
loop_
 _symmetry_equiv_pos_site_id
 _symmetry_equiv_pos_as_xyz
  1  'x, y, z'
loop_
 _atom_site_type_symbol
 _atom_site_label
 _atom_site_symmetry_multiplicity
 _atom_site_fract_x
 _atom_site_fract_y
 _atom_site_fract_z
 _atom_site_occupancy
  Zn  Zn0  1  0.61461000  0.51101000  0.67553000  1.0
  Zn  Zn1  1  0.38541000  0.48898000  0.32446000  1.0
  Zn  Zn2  1  0.37995000  0.62836000  0.81402000  1.0
  Zn  Zn3  1  0.62005000  0.37165000  0.18598000  1.0
  H  H4  1  0.07469000  0.54048000  0.67552000  1.0
  H  H5  1  0.92534000  0.45952000  0.32447000  1.0
  H  H6  1  0.78609000  0.32756000  0.47345000  1.0
  H  H7  1  0.21392000  0.67244000  0.52655000  1.0
  H  H8  1  0.22967000  0.36051000  0.50584000  1.0
  H  H9  1  0.77034000  0.63947000  0.49415000  1.0
  H  H10  1  0.15967000  0.21084000  0.42662000  1.0
  H  H11  1  0.84033000  0.78918000  0.57336000  1.0
  H  H12  1  0.13529000  0.30541000  0.37375000  1.0
  H  H13  1  0.86468000  0.69461000  0.62623000  1.0
  H  H14  1  0.98307000  0.25529000  0.23866000  1.0
  H  H15  1  0.01692000  0.74472000  0.76132000  1.0
  H  H16  1  0.90467000  0.11742000  0.11593000  1.0
  H  H17  1  0.09532000  0.88259000  0.88405000  1.0
  H  H18  1  0.98101000  0.89221000  0.24297000  1.0
  H  H19  1  0.01897000  0.10779000  0.75701000  1.0
  H  H20  1  0.06569000  0.03100000  0.36601000  1.0
  H  H21  1  0.93428000  0.96901000  0.63397000  1.0
  H  H22  1  0.81902000  0.84787000  0.10374000  1.0
  H  H23  1  0.18096000  0.15214000  0.89623000  1.0
  H  H24  1  0.83532000  0.94045000  0.04982000  1.0
  H  H25  1  0.16467000  0.05957000  0.95016000  1.0
  H  H26  1  0.75666000  0.77449000  0.98142000  1.0
  H  H27  1  0.24333000  0.22553000  0.01856000  1.0
  H  H28  1  0.93000000  0.59429000  0.82168000  1.0
  H  H29  1  0.07000000  0.40570000  0.17831000  1.0
  H  H30  1  0.20375000  0.80798000  0.02888000  1.0
  H  H31  1  0.79624000  0.19203000  0.97112000  1.0
  H  H32  1  0.45077000  0.29763000  0.58413000  1.0
  H  H33  1  0.54922000  0.70236000  0.41590000  1.0
  H  H34  1  0.45626000  0.11439000  0.57975000  1.0
  H  H35  1  0.54368000  0.88560000  0.42031000  1.0
  H  H36  1  0.78950000  0.22179000  0.79351000  1.0
  H  H37  1  0.21051000  0.77821000  0.20652000  1.0
  H  H38  1  0.76775000  0.40114000  0.78755000  1.0
  H  H39  1  0.23229000  0.59886000  0.21245000  1.0
  H  H40  1  0.71405000  0.04468000  0.74290000  1.0
  H  H41  1  0.28592000  0.95530000  0.25713000  1.0
  H  H42  1  0.49487000  0.96162000  0.58397000  1.0
  H  H43  1  0.50511000  0.03839000  0.41606000  1.0
  H  H44  1  0.45089000  0.77568000  0.53115000  1.0
  H  H45  1  0.54910000  0.22432000  0.46886000  1.0
  H  H46  1  0.47724000  0.60538000  0.54914000  1.0
  H  H47  1  0.52277000  0.39462000  0.45086000  1.0
  H  H48  1  0.74187000  0.73215000  0.77106000  1.0
  H  H49  1  0.25816000  0.26785000  0.22894000  1.0
  H  H50  1  0.72127000  0.90667000  0.76469000  1.0
  H  H51  1  0.27872000  0.09332000  0.23532000  1.0
  H  H52  1  0.51607000  0.84344000  0.91727000  1.0
  H  H53  1  0.48390000  0.15656000  0.08273000  1.0
  H  H54  1  0.51969000  0.02605000  0.91640000  1.0
  H  H55  1  0.48027000  0.97396000  0.08361000  1.0
  H  H56  1  0.26513000  0.91547000  0.67860000  1.0
  H  H57  1  0.73485000  0.08455000  0.32141000  1.0
  H  H58  1  0.27279000  0.73830000  0.69067000  1.0
  H  H59  1  0.72720000  0.26171000  0.30932000  1.0
  H  H60  1  0.31912000  0.09411000  0.73396000  1.0
  H  H61  1  0.68087000  0.90590000  0.26605000  1.0
  H  H62  1  0.49661000  0.17703000  0.90431000  1.0
  H  H63  1  0.50341000  0.82296000  0.09569000  1.0
  H  H64  1  0.24533000  0.23144000  0.73143000  1.0
  H  H65  1  0.75466000  0.76856000  0.26859000  1.0
  H  H66  1  0.22227000  0.40828000  0.72865000  1.0
  H  H67  1  0.77773000  0.59174000  0.27137000  1.0
  H  H68  1  0.53072000  0.53222000  0.93508000  1.0
  H  H69  1  0.46933000  0.46778000  0.06491000  1.0
  H  H70  1  0.56294000  0.35807000  0.95043000  1.0
  H  H71  1  0.43712000  0.64193000  0.04956000  1.0
  C  C72  1  0.16539000  0.45399000  0.59430000  1.0
  C  C73  1  0.83463000  0.54600000  0.40569000  1.0
  C  C74  1  0.05543000  0.48260000  0.62122000  1.0
  C  C75  1  0.94459000  0.51739000  0.37877000  1.0
  C  C76  1  0.91861000  0.43628000  0.57744000  1.0
  C  C77  1  0.08141000  0.56371000  0.42256000  1.0
  C  C78  1  0.89279000  0.36155000  0.50803000  1.0
  C  C79  1  0.10722000  0.63844000  0.49197000  1.0
  C  C80  1  0.00374000  0.33191000  0.48204000  1.0
  C  C81  1  0.99627000  0.66808000  0.51795000  1.0
  C  C82  1  0.14035000  0.37848000  0.52488000  1.0
  C  C83  1  0.85966000  0.62151000  0.47511000  1.0
  C  C84  1  0.31257000  0.50286000  0.63963000  1.0
  C  C85  1  0.68746000  0.49712000  0.36036000  1.0
  C  C86  1  0.79915000  0.46710000  0.60488000  1.0
  C  C87  1  0.20088000  0.53290000  0.39513000  1.0
  C  C88  1  0.08390000  0.23527000  0.38378000  1.0
  C  C89  1  0.91609000  0.76474000  0.61620000  1.0
  C  C90  1  0.02964000  0.15185000  0.31016000  1.0
  C  C91  1  0.97034000  0.84816000  0.68982000  1.0
  C  C92  1  0.98319000  0.17574000  0.23967000  1.0
  C  C93  1  0.01679000  0.82427000  0.76031000  1.0
  C  C94  1  0.93873000  0.09823000  0.17085000  1.0
  C  C95  1  0.06126000  0.90178000  0.82913000  1.0
  C  C96  1  0.93793000  0.99608000  0.17165000  1.0
  C  C97  1  0.06205000  0.00392000  0.82833000  1.0
  C  C98  1  0.98200000  0.97202000  0.24237000  1.0
  C  C99  1  0.01797000  0.02798000  0.75761000  1.0
  C  C100  1  0.02838000  0.04956000  0.31105000  1.0
  C  C101  1  0.97159000  0.95045000  0.68893000  1.0
  C  C102  1  0.89035000  0.91257000  0.09806000  1.0
  C  C103  1  0.10963000  0.08744000  0.90192000  1.0
  C  C104  1  0.98347000  0.80148000  0.01418000  1.0
  C  C105  1  0.01653000  0.19853000  0.98581000  1.0
  C  C106  1  0.84939000  0.75448000  0.96753000  1.0
  C  C107  1  0.15060000  0.24554000  0.03246000  1.0
  C  C108  1  0.83036000  0.67811000  0.89940000  1.0
  C  C109  1  0.16964000  0.32190000  0.10059000  1.0
  C  C110  1  0.94470000  0.65047000  0.87635000  1.0
  C  C111  1  0.05530000  0.34953000  0.12364000  1.0
  C  C112  1  0.07951000  0.69809000  0.92354000  1.0
  C  C113  1  0.92050000  0.30191000  0.07645000  1.0
  C  C114  1  0.09855000  0.77197000  0.99272000  1.0
  C  C115  1  0.90145000  0.22804000  0.00728000  1.0
  C  C116  1  0.20588000  0.67500000  0.89897000  1.0
  C  C117  1  0.79412000  0.32499000  0.10103000  1.0
  C  C118  1  0.68355000  0.63004000  0.85134000  1.0
  C  C119  1  0.31645000  0.36996000  0.14865000  1.0
  C  C120  1  0.52429000  0.27625000  0.62878000  1.0
  C  C121  1  0.47570000  0.72374000  0.37125000  1.0
  C  C122  1  0.52874000  0.17485000  0.62700000  1.0
  C  C123  1  0.47122000  0.82514000  0.37305000  1.0
  C  C124  1  0.62582000  0.15181000  0.68645000  1.0
  C  C125  1  0.37415000  0.84819000  0.31360000  1.0
  C  C126  1  0.71330000  0.23507000  0.74552000  1.0
  C  C127  1  0.28670000  0.76493000  0.25451000  1.0
  C  C128  1  0.70202000  0.33456000  0.74291000  1.0
  C  C129  1  0.29800000  0.66544000  0.25711000  1.0
  C  C130  1  0.63873000  0.04844000  0.69056000  1.0
  C  C131  1  0.36124000  0.95156000  0.30948000  1.0
  C  C132  1  0.56885000  0.96000000  0.63761000  1.0
  C  C133  1  0.43112000  0.03999000  0.36241000  1.0
  C  C134  1  0.58404000  0.85853000  0.64648000  1.0
  C  C135  1  0.41595000  0.14148000  0.35354000  1.0
  C  C136  1  0.51650000  0.77039000  0.58594000  1.0
  C  C137  1  0.48349000  0.22961000  0.41407000  1.0
  C  C138  1  0.53133000  0.67390000  0.59539000  1.0
  C  C139  1  0.46868000  0.32610000  0.40461000  1.0
  C  C140  1  0.67610000  0.74475000  0.71929000  1.0
  C  C141  1  0.32391000  0.25524000  0.28071000  1.0
  C  C142  1  0.66528000  0.84311000  0.71484000  1.0
  C  C143  1  0.33471000  0.15687000  0.28516000  1.0
  C  C144  1  0.46269000  0.86397000  0.86574000  1.0
  C  C145  1  0.53730000  0.13603000  0.13426000  1.0
  C  C146  1  0.46395000  0.96514000  0.86452000  1.0
  C  C147  1  0.53602000  0.03485000  0.13548000  1.0
  C  C148  1  0.39173000  0.98748000  0.79661000  1.0
  C  C149  1  0.60825000  0.01253000  0.20340000  1.0
  C  C150  1  0.32401000  0.90381000  0.73272000  1.0
  C  C151  1  0.67597000  0.09621000  0.26729000  1.0
  C  C152  1  0.32701000  0.80457000  0.73886000  1.0
  C  C153  1  0.67299000  0.19542000  0.26113000  1.0
  C  C154  1  0.37978000  0.09044000  0.79062000  1.0
  C  C155  1  0.62021000  0.90957000  0.20939000  1.0
  C  C156  1  0.43217000  0.17806000  0.84772000  1.0
  C  C157  1  0.56783000  0.82194000  0.15229000  1.0
  C  C158  1  0.41025000  0.27909000  0.84071000  1.0
  C  C159  1  0.58976000  0.72092000  0.15930000  1.0
  C  C160  1  0.31220000  0.29520000  0.77816000  1.0
  C  C161  1  0.68781000  0.70480000  0.22185000  1.0
  C  C162  1  0.29885000  0.39412000  0.77594000  1.0
  C  C163  1  0.70116000  0.60589000  0.22407000  1.0
  C  C164  1  0.46965000  0.46280000  0.89177000  1.0
  C  C165  1  0.53039000  0.53720000  0.10822000  1.0
  C  C166  1  0.48798000  0.36637000  0.89958000  1.0
  C  C167  1  0.51207000  0.63364000  0.10042000  1.0
  N  N168  1  0.60928000  0.35509000  0.68559000  1.0
  N  N169  1  0.39074000  0.64490000  0.31442000  1.0
  N  N170  1  0.61018000  0.66108000  0.66130000  1.0
  N  N171  1  0.38983000  0.33892000  0.33870000  1.0
  N  N172  1  0.39482000  0.78445000  0.80424000  1.0
  N  N173  1  0.60518000  0.21556000  0.19576000  1.0
  N  N174  1  0.37806000  0.47726000  0.83080000  1.0
  N  N175  1  0.62197000  0.52275000  0.16921000  1.0
  O  O176  1  0.40737000  0.46293000  0.61747000  1.0
  O  O177  1  0.59265000  0.53705000  0.38252000  1.0
  O  O178  1  0.33434000  0.58057000  0.69647000  1.0
  O  O179  1  0.66568000  0.41940000  0.30352000  1.0
  O  O180  1  0.67607000  0.43539000  0.56069000  1.0
  O  O181  1  0.32396000  0.56461000  0.43932000  1.0
  O  O182  1  0.82575000  0.52383000  0.67409000  1.0
  O  O183  1  0.17429000  0.47617000  0.32592000  1.0
  O  O184  1  0.96899000  0.25718000  0.41361000  1.0
  O  O185  1  0.03101000  0.74282000  0.58638000  1.0
  O  O186  1  0.01071000  0.87770000  0.08128000  1.0
  O  O187  1  0.98927000  0.12231000  0.91870000  1.0
  O  O188  1  0.32504000  0.70358000  0.94716000  1.0
  O  O189  1  0.67496000  0.29639000  0.05285000  1.0
  O  O190  1  0.18398000  0.62887000  0.82720000  1.0
  O  O191  1  0.81603000  0.37113000  0.17280000  1.0
  O  O192  1  0.66361000  0.55294000  0.79463000  1.0
  O  O193  1  0.33639000  0.44706000  0.20536000  1.0
  O  O194  1  0.58797000  0.67100000  0.87215000  1.0
  O  O195  1  0.41203000  0.32901000  0.12784000  1.0
