# generated using pymatgen
data_MnH5C7NO5
_symmetry_space_group_name_H-M   'P 1'
_cell_length_a   7.37540000
_cell_length_b   14.18900000
_cell_length_c   14.18790821
_cell_angle_alpha   117.05302862
_cell_angle_beta   99.97323909
_cell_angle_gamma   99.97580000
_symmetry_Int_Tables_number   1
_chemical_formula_structural   MnH5C7NO5
_chemical_formula_sum   'Mn6 H30 C42 N6 O30'
_cell_volume   1247.41721291
_cell_formula_units_Z   6
loop_
 _symmetry_equiv_pos_site_id
 _symmetry_equiv_pos_as_xyz
  1  'x, y, z'
loop_
 _atom_site_type_symbol
 _atom_site_label
 _atom_site_symmetry_multiplicity
 _atom_site_fract_x
 _atom_site_fract_y
 _atom_site_fract_z
 _atom_site_occupancy
  Mn  Mn0  1  0.37791000  0.10608000  0.83437000  1.0
  Mn  Mn1  1  0.54320000  0.16562000  0.27165000  1.0
  Mn  Mn2  1  0.27178000  0.72835000  0.89396000  1.0
  Mn  Mn3  1  0.62209000  0.89392000  0.16563000  1.0
  Mn  Mn4  1  0.45680000  0.83438000  0.72835000  1.0
  Mn  Mn5  1  0.72821000  0.27164000  0.10604000  1.0
  H  H6  1  0.20151000  0.31233000  0.75364000  1.0
  H  H7  1  0.44772000  0.24623000  0.55860000  1.0
  H  H8  1  0.88943000  0.44158000  0.68775000  1.0
  H  H9  1  0.79849000  0.68767000  0.24636000  1.0
  H  H10  1  0.55228000  0.75377000  0.44140000  1.0
  H  H11  1  0.11057000  0.55842000  0.31225000  1.0
  H  H12  1  0.00685000  0.26684000  0.56400000  1.0
  H  H13  1  0.44259000  0.43582000  0.70272000  1.0
  H  H14  1  0.74025000  0.29739000  0.73318000  1.0
  H  H15  1  0.99315000  0.73316000  0.43600000  1.0
  H  H16  1  0.55741000  0.56418000  0.29728000  1.0
  H  H17  1  0.25975000  0.70261000  0.26682000  1.0
  H  H18  1  0.70810000  0.95325000  0.51813000  1.0
  H  H19  1  0.19006000  0.48190000  0.43504000  1.0
  H  H20  1  0.75472000  0.56492000  0.04680000  1.0
  H  H21  1  0.29189000  0.04674000  0.48186000  1.0
  H  H22  1  0.80994000  0.51810000  0.56496000  1.0
  H  H23  1  0.24528000  0.43508000  0.95320000  1.0
  H  H24  1  0.90449000  0.01202000  0.70960000  1.0
  H  H25  1  0.19495000  0.29042000  0.30235000  1.0
  H  H26  1  0.89247000  0.69768000  0.98810000  1.0
  H  H27  1  0.09551000  0.98798000  0.29040000  1.0
  H  H28  1  0.80504000  0.70957000  0.69764000  1.0
  H  H29  1  0.10753000  0.30232000  0.01190000  1.0
  H  H30  1  0.15075000  0.15105000  0.01130000  1.0
  H  H31  1  0.13925000  0.98869000  0.13967000  1.0
  H  H32  1  0.00002000  0.86034000  0.84902000  1.0
  H  H33  1  0.84925000  0.84895000  0.98870000  1.0
  H  H34  1  0.86076000  0.01132000  0.86034000  1.0
  H  H35  1  0.99999000  0.13965000  0.15098000  1.0
  C  C36  1  0.74076000  0.07346000  0.41002000  1.0
  C  C37  1  0.33071000  0.58990000  0.66336000  1.0
  C  C38  1  0.66730000  0.33659000  0.92645000  1.0
  C  C39  1  0.25925000  0.92655000  0.58998000  1.0
  C  C40  1  0.66929000  0.41010000  0.33664000  1.0
  C  C41  1  0.33269000  0.66341000  0.07355000  1.0
  C  C42  1  0.08785000  0.23595000  0.69735000  1.0
  C  C43  1  0.39038000  0.30255000  0.53851000  1.0
  C  C44  1  0.85207000  0.46163000  0.76412000  1.0
  C  C45  1  0.91215000  0.76405000  0.30265000  1.0
  C  C46  1  0.60962000  0.69745000  0.46149000  1.0
  C  C47  1  0.14793000  0.53837000  0.23588000  1.0
  C  C48  1  0.84413000  0.10561000  0.52553000  1.0
  C  C49  1  0.31844000  0.47440000  0.57999000  1.0
  C  C50  1  0.73851000  0.42004000  0.89441000  1.0
  C  C51  1  0.15587000  0.89439000  0.47447000  1.0
  C  C52  1  0.68156000  0.52560000  0.42001000  1.0
  C  C53  1  0.26149000  0.57996000  0.10559000  1.0
  C  C54  1  0.98157000  0.20878000  0.59387000  1.0
  C  C55  1  0.38750000  0.40601000  0.61481000  1.0
  C  C56  1  0.77296000  0.38529000  0.79127000  1.0
  C  C57  1  0.01844000  0.79122000  0.40613000  1.0
  C  C58  1  0.61251000  0.59400000  0.38520000  1.0
  C  C59  1  0.22704000  0.61471000  0.20873000  1.0
  C  C60  1  0.81383000  0.03404000  0.56774000  1.0
  C  C61  1  0.24604000  0.43224000  0.46622000  1.0
  C  C62  1  0.77975000  0.53379000  0.96602000  1.0
  C  C63  1  0.18617000  0.96596000  0.43226000  1.0
  C  C64  1  0.75396000  0.56776000  0.53378000  1.0
  C  C65  1  0.22025000  0.46621000  0.03398000  1.0
  C  C66  1  0.91838000  0.06440000  0.67278000  1.0
  C  C67  1  0.24560000  0.32722000  0.39155000  1.0
  C  C68  1  0.85402000  0.60851000  0.93570000  1.0
  C  C69  1  0.08162000  0.93560000  0.32722000  1.0
  C  C70  1  0.75441000  0.67279000  0.60846000  1.0
  C  C71  1  0.14598000  0.39149000  0.06430000  1.0
  C  C72  1  0.29883000  0.16837000  0.06009000  1.0
  C  C73  1  0.23862000  0.93991000  0.10822000  1.0
  C  C74  1  0.13079000  0.89175000  0.83163000  1.0
  C  C75  1  0.70117000  0.83163000  0.93991000  1.0
  C  C76  1  0.76138000  0.06009000  0.89178000  1.0
  C  C77  1  0.86921000  0.10825000  0.16837000  1.0
  N  N78  1  0.05640000  0.16397000  0.73593000  1.0
  N  N79  1  0.32037000  0.26403000  0.42798000  1.0
  N  N80  1  0.89250000  0.57214000  0.83612000  1.0
  N  N81  1  0.94360000  0.83603000  0.26407000  1.0
  N  N82  1  0.67963000  0.73597000  0.57202000  1.0
  N  N83  1  0.10750000  0.42786000  0.16388000  1.0
  O  O84  1  0.67257000  0.97057000  0.34061000  1.0
  O  O85  1  0.33209000  0.65937000  0.62992000  1.0
  O  O86  1  0.70217000  0.36993000  0.02934000  1.0
  O  O87  1  0.32743000  0.02943000  0.65939000  1.0
  O  O88  1  0.66791000  0.34063000  0.37008000  1.0
  O  O89  1  0.29783000  0.63006000  0.97066000  1.0
  O  O90  1  0.43230000  0.17630000  0.01423000  1.0
  O  O91  1  0.41789000  0.98575000  0.16206000  1.0
  O  O92  1  0.25620000  0.83788000  0.82364000  1.0
  O  O93  1  0.56770000  0.82370000  0.98577000  1.0
  O  O94  1  0.58211000  0.01425000  0.83794000  1.0
  O  O95  1  0.74380000  0.16212000  0.17636000  1.0
  O  O96  1  0.16479000  0.19007000  0.83346000  1.0
  O  O97  1  0.33117000  0.16648000  0.35656000  1.0
  O  O98  1  0.97480000  0.64358000  0.81003000  1.0
  O  O99  1  0.83520000  0.80993000  0.16654000  1.0
  O  O100  1  0.66883000  0.83352000  0.64344000  1.0
  O  O101  1  0.02520000  0.35642000  0.18997000  1.0
  O  O102  1  0.73395000  0.15246000  0.39128000  1.0
  O  O103  1  0.34270000  0.60861000  0.76111000  1.0
  O  O104  1  0.58145000  0.23888000  0.84738000  1.0
  O  O105  1  0.26604000  0.84753000  0.60871000  1.0
  O  O106  1  0.65730000  0.39139000  0.23889000  1.0
  O  O107  1  0.41854000  0.76112000  0.15262000  1.0
  O  O108  1  0.32334000  0.17943000  0.15478000  1.0
  O  O109  1  0.16857000  0.84527000  0.02459000  1.0
  O  O110  1  0.14435000  0.97535000  0.82055000  1.0
  O  O111  1  0.67667000  0.82058000  0.84523000  1.0
  O  O112  1  0.83143000  0.15473000  0.97541000  1.0
  O  O113  1  0.85565000  0.02465000  0.17945000  1.0
