# generated using pymatgen
data_NiH22C22(NO2)4
_symmetry_space_group_name_H-M   'P 1'
_cell_length_a   8.14260000
_cell_length_b   13.42920000
_cell_length_c   13.64600000
_cell_angle_alpha   110.92100000
_cell_angle_beta   96.70410000
_cell_angle_gamma   96.36290000
_symmetry_Int_Tables_number   1
_chemical_formula_structural   NiH22C22(NO2)4
_chemical_formula_sum   'Ni2 H44 C44 N8 O16'
_cell_volume   1365.43263690
_cell_formula_units_Z   2
loop_
 _symmetry_equiv_pos_site_id
 _symmetry_equiv_pos_as_xyz
  1  'x, y, z'
loop_
 _atom_site_type_symbol
 _atom_site_label
 _atom_site_symmetry_multiplicity
 _atom_site_fract_x
 _atom_site_fract_y
 _atom_site_fract_z
 _atom_site_occupancy
  Ni  Ni0  1  0.49999000  0.00000000  0.50000000  1.0
  Ni  Ni1  1  0.50000000  0.50000000  0.00000000  1.0
  H  H2  1  0.29489000  0.15904000  0.47847000  1.0
  H  H3  1  0.73711000  0.55849000  0.85862000  1.0
  H  H4  1  0.70509000  0.84097000  0.52152000  1.0
  H  H5  1  0.26290000  0.44152000  0.14139000  1.0
  H  H6  1  0.29001000  0.28104000  0.38083000  1.0
  H  H7  1  0.74377000  0.66563000  0.74733000  1.0
  H  H8  1  0.71000000  0.71897000  0.61916000  1.0
  H  H9  1  0.25624000  0.33437000  0.25268000  1.0
  H  H10  1  0.74761000  0.17912000  0.27562000  1.0
  H  H11  1  0.22222000  0.69085000  0.77501000  1.0
  H  H12  1  0.25240000  0.82088000  0.72438000  1.0
  H  H13  1  0.77779000  0.30914000  0.22497000  1.0
  H  H14  1  0.73440000  0.06297000  0.37921000  1.0
  H  H15  1  0.24121000  0.58589000  0.88908000  1.0
  H  H16  1  0.26559000  0.93703000  0.62079000  1.0
  H  H17  1  0.75880000  0.41411000  0.11091000  1.0
  H  H18  1  0.96165000  0.96991000  0.41518000  1.0
  H  H19  1  0.07519000  0.58450000  0.03356000  1.0
  H  H20  1  0.03834000  0.03009000  0.58483000  1.0
  H  H21  1  0.92481000  0.41549000  0.96645000  1.0
  H  H22  1  0.95194000  0.82938000  0.34334000  1.0
  H  H23  1  0.08275000  0.66290000  0.16990000  1.0
  H  H24  1  0.04806000  0.17062000  0.65666000  1.0
  H  H25  1  0.91725000  0.33710000  0.83011000  1.0
  H  H26  1  0.70450000  0.86982000  0.07084000  1.0
  H  H27  1  0.32176000  0.93456000  0.11787000  1.0
  H  H28  1  0.29549000  0.13017000  0.92917000  1.0
  H  H29  1  0.67823000  0.06543000  0.88213000  1.0
  H  H30  1  0.58212000  0.89905000  0.91179000  1.0
  H  H31  1  0.41786000  0.10094000  0.08822000  1.0
  H  H32  1  0.02402000  0.17971000  0.17827000  1.0
  H  H33  1  0.97598000  0.82028000  0.82173000  1.0
  H  H34  1  0.87669000  0.84876000  0.18385000  1.0
  H  H35  1  0.16485000  0.81635000  0.14259000  1.0
  H  H36  1  0.12330000  0.15124000  0.81616000  1.0
  H  H37  1  0.83515000  0.18365000  0.85741000  1.0
  H  H38  1  0.36466000  0.16807000  0.71373000  1.0
  H  H39  1  0.53698000  0.32500000  0.82555000  1.0
  H  H40  1  0.63533000  0.83193000  0.28627000  1.0
  H  H41  1  0.46302000  0.67500000  0.17445000  1.0
  H  H42  1  0.54953000  0.16152000  0.69676000  1.0
  H  H43  1  0.42416000  0.30923000  0.90382000  1.0
  H  H44  1  0.45047000  0.83848000  0.30324000  1.0
  H  H45  1  0.57585000  0.69078000  0.09618000  1.0
  C  C46  1  0.39283000  0.16616000  0.43263000  1.0
  C  C47  1  0.62412000  0.58763000  0.83708000  1.0
  C  C48  1  0.60717000  0.83385000  0.56736000  1.0
  C  C49  1  0.37589000  0.41237000  0.16292000  1.0
  C  C50  1  0.39226000  0.23484000  0.37692000  1.0
  C  C51  1  0.62601000  0.64829000  0.77296000  1.0
  C  C52  1  0.60774000  0.76516000  0.62307000  1.0
  C  C53  1  0.37400000  0.35171000  0.22704000  1.0
  C  C54  1  0.51836000  0.24230000  0.31671000  1.0
  C  C55  1  0.48214000  0.68908000  0.74779000  1.0
  C  C56  1  0.48165000  0.75769000  0.68329000  1.0
  C  C57  1  0.51788000  0.31092000  0.25221000  1.0
  C  C58  1  0.64393000  0.17881000  0.31909000  1.0
  C  C59  1  0.34065000  0.66404000  0.79002000  1.0
  C  C60  1  0.35608000  0.82119000  0.68091000  1.0
  C  C61  1  0.65936000  0.33596000  0.20997000  1.0
  C  C62  1  0.63730000  0.11172000  0.37625000  1.0
  C  C63  1  0.34917000  0.60408000  0.85463000  1.0
  C  C64  1  0.36270000  0.88829000  0.62376000  1.0
  C  C65  1  0.65083000  0.39592000  0.14536000  1.0
  C  C66  1  0.19119000  0.92409000  0.36216000  1.0
  C  C67  1  0.84252000  0.63978000  0.07376000  1.0
  C  C68  1  0.80881000  0.07591000  0.63784000  1.0
  C  C69  1  0.15749000  0.36022000  0.92624000  1.0
  C  C70  1  0.99899000  0.91056000  0.34602000  1.0
  C  C71  1  0.03468000  0.65583000  0.08850000  1.0
  C  C72  1  0.00101000  0.08944000  0.65399000  1.0
  C  C73  1  0.96533000  0.34417000  0.91151000  1.0
  C  C74  1  0.94990000  0.01717000  0.23903000  1.0
  C  C75  1  0.07468000  0.76086000  0.97946000  1.0
  C  C76  1  0.05010000  0.98282000  0.76096000  1.0
  C  C77  1  0.92532000  0.23914000  0.02054000  1.0
  C  C78  1  0.87411000  0.02357000  0.13635000  1.0
  C  C79  1  0.14019000  0.86583000  0.97132000  1.0
  C  C80  1  0.12588000  0.97643000  0.86365000  1.0
  C  C81  1  0.85982000  0.13416000  0.02868000  1.0
  C  C82  1  0.74934000  0.94414000  0.06027000  1.0
  C  C83  1  0.26482000  0.94565000  0.04690000  1.0
  C  C84  1  0.25066000  0.05586000  0.93973000  1.0
  C  C85  1  0.73517000  0.05435000  0.95310000  1.0
  C  C86  1  0.68096000  0.96018000  0.96953000  1.0
  C  C87  1  0.31903000  0.03982000  0.03047000  1.0
  C  C88  1  0.92760000  0.11771000  0.11944000  1.0
  C  C89  1  0.07240000  0.88228000  0.88055000  1.0
  N  N90  1  0.51237000  0.10372000  0.43165000  1.0
  N  N91  1  0.48888000  0.56628000  0.87892000  1.0
  N  N92  1  0.48762000  0.89628000  0.56835000  1.0
  N  N93  1  0.51113000  0.43372000  0.12108000  1.0
  N  N94  1  0.92476000  0.91971000  0.24884000  1.0
  N  N95  1  0.10498000  0.75292000  0.07538000  1.0
  N  N96  1  0.07523000  0.08029000  0.75117000  1.0
  N  N97  1  0.89503000  0.24708000  0.92462000  1.0
  O  O98  1  0.26237000  0.96910000  0.46080000  1.0
  O  O99  1  0.76486000  0.54336000  0.03640000  1.0
  O  O100  1  0.73763000  0.03091000  0.53921000  1.0
  O  O101  1  0.23515000  0.45664000  0.96360000  1.0
  O  O102  1  0.26579000  0.89028000  0.28426000  1.0
  O  O103  1  0.77289000  0.72389000  0.10122000  1.0
  O  O104  1  0.73421000  0.10972000  0.71574000  1.0
  O  O105  1  0.22711000  0.27612000  0.89879000  1.0
  O  O106  1  0.02882000  0.09928000  0.31397000  1.0
  O  O107  1  0.99393000  0.68396000  0.89964000  1.0
  O  O108  1  0.97118000  0.90072000  0.68603000  1.0
  O  O109  1  0.00607000  0.31604000  0.10037000  1.0
  O  O110  1  0.45621000  0.20209000  0.69040000  1.0
  O  O111  1  0.53941000  0.34529000  0.90269000  1.0
  O  O112  1  0.54379000  0.79791000  0.30960000  1.0
  O  O113  1  0.46060000  0.65472000  0.09731000  1.0
