# generated using pymatgen
data_ZnH22C29(NO)4
_symmetry_space_group_name_H-M   'P 1'
_cell_length_a   13.84830000
_cell_length_b   14.14250000
_cell_length_c   15.90479564
_cell_angle_alpha   73.54521421
_cell_angle_beta   64.18832802
_cell_angle_gamma   90.01020000
_symmetry_Int_Tables_number   1
_chemical_formula_structural   ZnH22C29(NO)4
_chemical_formula_sum   'Zn4 H88 C116 N16 O16'
_cell_volume   2661.65814841
_cell_formula_units_Z   4
loop_
 _symmetry_equiv_pos_site_id
 _symmetry_equiv_pos_as_xyz
  1  'x, y, z'
loop_
 _atom_site_type_symbol
 _atom_site_label
 _atom_site_symmetry_multiplicity
 _atom_site_fract_x
 _atom_site_fract_y
 _atom_site_fract_z
 _atom_site_occupancy
  Zn  Zn0  1  0.65173000  0.27683000  0.61527000  1.0
  Zn  Zn1  1  0.26686000  0.22315000  0.38478000  1.0
  Zn  Zn2  1  0.34827000  0.72318000  0.38473000  1.0
  Zn  Zn3  1  0.73314000  0.77686000  0.61522000  1.0
  H  H4  1  0.56154000  0.48723000  0.55434000  1.0
  H  H5  1  0.11554000  0.01270000  0.44581000  1.0
  H  H6  1  0.43846000  0.51278000  0.44566000  1.0
  H  H7  1  0.88446000  0.98731000  0.55418000  1.0
  H  H8  1  0.66526000  0.60943000  0.35815000  1.0
  H  H9  1  0.02331000  0.89057000  0.64196000  1.0
  H  H10  1  0.33474000  0.39057000  0.64185000  1.0
  H  H11  1  0.97670000  0.10943000  0.35803000  1.0
  H  H12  1  0.84020000  0.36909000  0.40067000  1.0
  H  H13  1  0.24113000  0.13095000  0.59905000  1.0
  H  H14  1  0.15979000  0.63091000  0.59933000  1.0
  H  H15  1  0.75887000  0.86905000  0.40095000  1.0
  H  H16  1  0.98991000  0.49290000  0.28171000  1.0
  H  H17  1  0.27171000  0.00704000  0.71815000  1.0
  H  H18  1  0.01009000  0.50710000  0.71829000  1.0
  H  H19  1  0.72829000  0.99296000  0.28185000  1.0
  H  H20  1  0.87267000  0.64526000  0.02310000  1.0
  H  H21  1  0.89559000  0.85537000  0.97670000  1.0
  H  H22  1  0.12734000  0.35474000  0.97690000  1.0
  H  H23  1  0.10441000  0.14463000  0.02330000  1.0
  H  H24  1  0.73794000  0.58967000  0.20058000  1.0
  H  H25  1  0.93849000  0.91077000  0.79920000  1.0
  H  H26  1  0.26206000  0.41033000  0.79942000  1.0
  H  H27  1  0.06151000  0.08923000  0.20080000  1.0
  H  H28  1  0.04319000  0.69485000  0.85010000  1.0
  H  H29  1  0.89311000  0.80565000  0.14981000  1.0
  H  H30  1  0.95681000  0.30514000  0.14990000  1.0
  H  H31  1  0.10688000  0.19435000  0.85019000  1.0
  H  H32  1  0.22653000  0.72630000  0.70604000  1.0
  H  H33  1  0.93241000  0.77406000  0.29379000  1.0
  H  H34  1  0.77347000  0.27369000  0.29396000  1.0
  H  H35  1  0.06758000  0.22594000  0.70621000  1.0
  H  H36  1  0.36494000  0.59023000  0.89988000  1.0
  H  H37  1  0.26481000  0.90992000  0.09987000  1.0
  H  H38  1  0.63505000  0.40977000  0.10013000  1.0
  H  H39  1  0.73518000  0.09008000  0.90013000  1.0
  H  H40  1  0.19280000  0.59809000  0.18942000  1.0
  H  H41  1  0.38236000  0.90204000  0.81053000  1.0
  H  H42  1  0.80720000  0.40191000  0.81058000  1.0
  H  H43  1  0.61764000  0.09795000  0.18947000  1.0
  H  H44  1  0.19712000  0.70174000  0.09263000  1.0
  H  H45  1  0.28990000  0.79838000  0.90728000  1.0
  H  H46  1  0.80288000  0.29826000  0.90737000  1.0
  H  H47  1  0.71010000  0.20162000  0.09272000  1.0
  H  H48  1  0.30642000  0.63004000  0.07127000  1.0
  H  H49  1  0.37763000  0.87018000  0.92874000  1.0
  H  H50  1  0.69358000  0.36995000  0.92873000  1.0
  H  H51  1  0.62237000  0.12982000  0.07126000  1.0
  H  H52  1  0.16734000  0.42170000  0.18655000  1.0
  H  H53  1  0.35395000  0.07840000  0.81332000  1.0
  H  H54  1  0.83265000  0.57829000  0.81346000  1.0
  H  H55  1  0.64605000  0.92160000  0.18668000  1.0
  H  H56  1  0.27918000  0.45160000  0.06771000  1.0
  H  H57  1  0.34684000  0.04854000  0.93219000  1.0
  H  H58  1  0.72081000  0.54840000  0.93230000  1.0
  H  H59  1  0.65316000  0.95146000  0.06781000  1.0
  H  H60  1  0.15112000  0.39991000  0.08852000  1.0
  H  H61  1  0.23963000  0.10019000  0.91130000  1.0
  H  H62  1  0.84888000  0.60009000  0.91148000  1.0
  H  H63  1  0.76037000  0.89980000  0.08870000  1.0
  H  H64  1  0.38254000  0.64634000  0.60222000  1.0
  H  H65  1  0.98451000  0.85335000  0.39786000  1.0
  H  H66  1  0.61746000  0.35366000  0.39778000  1.0
  H  H67  1  0.01549000  0.14665000  0.60214000  1.0
  H  H68  1  0.60630000  0.70296000  0.49727000  1.0
  H  H69  1  0.10356000  0.79704000  0.50261000  1.0
  H  H70  1  0.39370000  0.29704000  0.50273000  1.0
  H  H71  1  0.89645000  0.20296000  0.49738000  1.0
  H  H72  1  0.50091000  0.73246000  0.77874000  1.0
  H  H73  1  0.27985000  0.76818000  0.22089000  1.0
  H  H74  1  0.49909000  0.26754000  0.22126000  1.0
  H  H75  1  0.72015000  0.23182000  0.77911000  1.0
  H  H76  1  0.64870000  0.12076000  0.35276000  1.0
  H  H77  1  0.00136000  0.37933000  0.64731000  1.0
  H  H78  1  0.35131000  0.87924000  0.64724000  1.0
  H  H79  1  0.99863000  0.62067000  0.35270000  1.0
  H  H80  1  0.45988000  0.00844000  0.66554000  1.0
  H  H81  1  0.12558000  0.49160000  0.33451000  1.0
  H  H82  1  0.54011000  0.99156000  0.33447000  1.0
  H  H83  1  0.87441000  0.50840000  0.66550000  1.0
  H  H84  1  0.56952000  0.27205000  0.90823000  1.0
  H  H85  1  0.47773000  0.22793000  0.09182000  1.0
  H  H86  1  0.43048000  0.72795000  0.09177000  1.0
  H  H87  1  0.52227000  0.77207000  0.90818000  1.0
  H  H88  1  0.26126000  0.27310000  0.90740000  1.0
  H  H89  1  0.16859000  0.22712000  0.09269000  1.0
  H  H90  1  0.73874000  0.72690000  0.09260000  1.0
  H  H91  1  0.83141000  0.77288000  0.90731000  1.0
  C  C92  1  0.63547000  0.48205000  0.49303000  1.0
  C  C93  1  0.12833000  0.01793000  0.50700000  1.0
  C  C94  1  0.36454000  0.51795000  0.50696000  1.0
  C  C95  1  0.87167000  0.98207000  0.49300000  1.0
  C  C96  1  0.68639000  0.54334000  0.39733000  1.0
  C  C97  1  0.08366000  0.95667000  0.60269000  1.0
  C  C98  1  0.31361000  0.45666000  0.60267000  1.0
  C  C99  1  0.91633000  0.04334000  0.39731000  1.0
  C  C100  1  0.78053000  0.41908000  0.41784000  1.0
  C  C101  1  0.19848000  0.08095000  0.58198000  1.0
  C  C102  1  0.21948000  0.58092000  0.58216000  1.0
  C  C103  1  0.80152000  0.91905000  0.41801000  1.0
  C  C104  1  0.85700000  0.53816000  0.24979000  1.0
  C  C105  1  0.10683000  0.96196000  0.75008000  1.0
  C  C106  1  0.14300000  0.46184000  0.75021000  1.0
  C  C107  1  0.89317000  0.03804000  0.24992000  1.0
  C  C108  1  0.96563000  0.52600000  0.22445000  1.0
  C  C109  1  0.19014000  0.97402000  0.77541000  1.0
  C  C110  1  0.03437000  0.47400000  0.77555000  1.0
  C  C111  1  0.80986000  0.02598000  0.22459000  1.0
  C  C112  1  0.04041000  0.55851000  0.12575000  1.0
  C  C113  1  0.16618000  0.94158000  0.87410000  1.0
  C  C114  1  0.95959000  0.44149000  0.87425000  1.0
  C  C115  1  0.83382000  0.05842000  0.12590000  1.0
  C  C116  1  0.00738000  0.60195000  0.05276000  1.0
  C  C117  1  0.06006000  0.89838000  0.94708000  1.0
  C  C118  1  0.99262000  0.39805000  0.94724000  1.0
  C  C119  1  0.93993000  0.10162000  0.05292000  1.0
  C  C120  1  0.89889000  0.61327000  0.07916000  1.0
  C  C121  1  0.97794000  0.88714000  0.92067000  1.0
  C  C122  1  0.10111000  0.38673000  0.92084000  1.0
  C  C123  1  0.02205000  0.11287000  0.07933000  1.0
  C  C124  1  0.82320000  0.58155000  0.17825000  1.0
  C  C125  1  0.00140000  0.91875000  0.82160000  1.0
  C  C126  1  0.17680000  0.41845000  0.82175000  1.0
  C  C127  1  0.99860000  0.08126000  0.17840000  1.0
  C  C128  1  0.16228000  0.55661000  0.07998000  1.0
  C  C129  1  0.24225000  0.94348000  0.91988000  1.0
  C  C130  1  0.83772000  0.44339000  0.92002000  1.0
  C  C131  1  0.75775000  0.05652000  0.08012000  1.0
  C  C132  1  0.19298000  0.59932000  0.97073000  1.0
  C  C133  1  0.16362000  0.90088000  0.02910000  1.0
  C  C134  1  0.80702000  0.40068000  0.02927000  1.0
  C  C135  1  0.83638000  0.09912000  0.97090000  1.0
  C  C136  1  0.10207000  0.62758000  0.95634000  1.0
  C  C137  1  0.05827000  0.87280000  0.04351000  1.0
  C  C138  1  0.89793000  0.37242000  0.04366000  1.0
  C  C139  1  0.94173000  0.12720000  0.95649000  1.0
  C  C140  1  0.11282000  0.67168000  0.86152000  1.0
  C  C141  1  0.97420000  0.82877000  0.13834000  1.0
  C  C142  1  0.88718000  0.32832000  0.13848000  1.0
  C  C143  1  0.02580000  0.17123000  0.86166000  1.0
  C  C144  1  0.21479000  0.68845000  0.78072000  1.0
  C  C145  1  0.99538000  0.81196000  0.21912000  1.0
  C  C146  1  0.78521000  0.31154000  0.21928000  1.0
  C  C147  1  0.00461000  0.18804000  0.78088000  1.0
  C  C148  1  0.30397000  0.65935000  0.79618000  1.0
  C  C149  1  0.10007000  0.84094000  0.20368000  1.0
  C  C150  1  0.69603000  0.34064000  0.20382000  1.0
  C  C151  1  0.89992000  0.15906000  0.79632000  1.0
  C  C152  1  0.29403000  0.61363000  0.89078000  1.0
  C  C153  1  0.18474000  0.88659000  0.10904000  1.0
  C  C154  1  0.70597000  0.38637000  0.10922000  1.0
  C  C155  1  0.81526000  0.11341000  0.89096000  1.0
  C  C156  1  0.21794000  0.62627000  0.11007000  1.0
  C  C157  1  0.32807000  0.87389000  0.88987000  1.0
  C  C158  1  0.78206000  0.37373000  0.88993000  1.0
  C  C159  1  0.67193000  0.12611000  0.11013000  1.0
  C  C160  1  0.19140000  0.45132000  0.10740000  1.0
  C  C161  1  0.29879000  0.04880000  0.89247000  1.0
  C  C162  1  0.80860000  0.54868000  0.89260000  1.0
  C  C163  1  0.70121000  0.95120000  0.10753000  1.0
  C  C164  1  0.44050000  0.67155000  0.62256000  1.0
  C  C165  1  0.06294000  0.82841000  0.37740000  1.0
  C  C166  1  0.55951000  0.32845000  0.37744000  1.0
  C  C167  1  0.93705000  0.17159000  0.62260000  1.0
  C  C168  1  0.55050000  0.70098000  0.57130000  1.0
  C  C169  1  0.12183000  0.79915000  0.42854000  1.0
  C  C170  1  0.44950000  0.29902000  0.42870000  1.0
  C  C171  1  0.87817000  0.20085000  0.57146000  1.0
  C  C172  1  0.49982000  0.71579000  0.71676000  1.0
  C  C173  1  0.21669000  0.78467000  0.28296000  1.0
  C  C174  1  0.50018000  0.28422000  0.28324000  1.0
  C  C175  1  0.78331000  0.21533000  0.71704000  1.0
  C  C176  1  0.62261000  0.15030000  0.52188000  1.0
  C  C177  1  0.14456000  0.34983000  0.47823000  1.0
  C  C178  1  0.37739000  0.84971000  0.47812000  1.0
  C  C179  1  0.85543000  0.65017000  0.52178000  1.0
  C  C180  1  0.56016000  0.07198000  0.51051000  1.0
  C  C181  1  0.07071000  0.42808000  0.48952000  1.0
  C  C182  1  0.43984000  0.92802000  0.48949000  1.0
  C  C183  1  0.92929000  0.57191000  0.51048000  1.0
  C  C184  1  0.58335000  0.06752000  0.41690000  1.0
  C  C185  1  0.00025000  0.43256000  0.58312000  1.0
  C  C186  1  0.41665000  0.93248000  0.58310000  1.0
  C  C187  1  0.99974000  0.56744000  0.41689000  1.0
  C  C188  1  0.47642000  0.00369000  0.59340000  1.0
  C  C189  1  0.06985000  0.49631000  0.40662000  1.0
  C  C190  1  0.52359000  0.99631000  0.40660000  1.0
  C  C191  1  0.93014000  0.50369000  0.59339000  1.0
  C  C192  1  0.47403000  0.30108000  0.78602000  1.0
  C  C193  1  0.25996000  0.19905000  0.21401000  1.0
  C  C194  1  0.52597000  0.69892000  0.21398000  1.0
  C  C195  1  0.74004000  0.80095000  0.78599000  1.0
  C  C196  1  0.42058000  0.27617000  0.89653000  1.0
  C  C197  1  0.31705000  0.22402000  0.10353000  1.0
  C  C198  1  0.57942000  0.72383000  0.10347000  1.0
  C  C199  1  0.68295000  0.77598000  0.89647000  1.0
  C  C200  1  0.48153000  0.26245000  0.94897000  1.0
  C  C201  1  0.43046000  0.23768000  0.05109000  1.0
  C  C202  1  0.51847000  0.73756000  0.05103000  1.0
  C  C203  1  0.56954000  0.76233000  0.94891000  1.0
  C  C204  1  0.30754000  0.26327000  0.94897000  1.0
  C  C205  1  0.25647000  0.23691000  0.05109000  1.0
  C  C206  1  0.69245000  0.73673000  0.05103000  1.0
  C  C207  1  0.74353000  0.76309000  0.94891000  1.0
  N  N208  1  0.69459000  0.40472000  0.50445000  1.0
  N  N209  1  0.19898000  0.09526000  0.49546000  1.0
  N  N210  1  0.30542000  0.59528000  0.49554000  1.0
  N  N211  1  0.80102000  0.90474000  0.50454000  1.0
  N  N212  1  0.77871000  0.50270000  0.35060000  1.0
  N  N213  1  0.12940000  0.99735000  0.64928000  1.0
  N  N214  1  0.22129000  0.49731000  0.64940000  1.0
  N  N215  1  0.87061000  0.00265000  0.35071000  1.0
  N  N216  1  0.40947000  0.68070000  0.71507000  1.0
  N  N217  1  0.12450000  0.81951000  0.28478000  1.0
  N  N218  1  0.59053000  0.31930000  0.28493000  1.0
  N  N219  1  0.87549000  0.18049000  0.71522000  1.0
  N  N220  1  0.58611000  0.72858000  0.63092000  1.0
  N  N221  1  0.21717000  0.77182000  0.36880000  1.0
  N  N222  1  0.41388000  0.27143000  0.36908000  1.0
  N  N223  1  0.78283000  0.22818000  0.63120000  1.0
  O  O224  1  0.71487000  0.19202000  0.45499000  1.0
  O  O225  1  0.16981000  0.30810000  0.54519000  1.0
  O  O226  1  0.28513000  0.80798000  0.54501000  1.0
  O  O227  1  0.83019000  0.69190000  0.45482000  1.0
  O  O228  1  0.57212000  0.17017000  0.60404000  1.0
  O  O229  1  0.17637000  0.32999000  0.39603000  1.0
  O  O230  1  0.42789000  0.82983000  0.39596000  1.0
  O  O231  1  0.82363000  0.67000000  0.60398000  1.0
  O  O232  1  0.42124000  0.32983000  0.73901000  1.0
  O  O233  1  0.16015000  0.17027000  0.26101000  1.0
  O  O234  1  0.57876000  0.67018000  0.26099000  1.0
  O  O235  1  0.83986000  0.82972000  0.73899000  1.0
  O  O236  1  0.57524000  0.28831000  0.74821000  1.0
  O  O237  1  0.32335000  0.21175000  0.25184000  1.0
  O  O238  1  0.42476000  0.71170000  0.25179000  1.0
  O  O239  1  0.67665000  0.78826000  0.74816000  1.0
