# generated using pymatgen
data_CoH13C16N2O4F3
_symmetry_space_group_name_H-M   'P 1'
_cell_length_a   8.01789000
_cell_length_b   9.17390000
_cell_length_c   11.56970000
_cell_angle_alpha   99.04440000
_cell_angle_beta   97.40260000
_cell_angle_gamma   101.55100000
_symmetry_Int_Tables_number   1
_chemical_formula_structural   CoH13C16N2O4F3
_chemical_formula_sum   'Co2 H26 C32 N4 O8 F6'
_cell_volume   812.02918725
_cell_formula_units_Z   2
loop_
 _symmetry_equiv_pos_site_id
 _symmetry_equiv_pos_as_xyz
  1  'x, y, z'
loop_
 _atom_site_type_symbol
 _atom_site_label
 _atom_site_symmetry_multiplicity
 _atom_site_fract_x
 _atom_site_fract_y
 _atom_site_fract_z
 _atom_site_occupancy
  Co  Co0  1  0.65054000  0.95920000  0.12979000  1.0
  Co  Co1  1  0.34937000  0.04091000  0.87026000  1.0
  H  H2  1  0.48324000  0.63916000  0.00541000  1.0
  H  H3  1  0.51660000  0.36085000  0.99457000  1.0
  H  H4  1  0.48006000  0.46607000  0.81780000  1.0
  H  H5  1  0.51985000  0.53393000  0.18221000  1.0
  H  H6  1  0.89398000  0.80975000  0.74954000  1.0
  H  H7  1  0.10599000  0.19022000  0.25053000  1.0
  H  H8  1  0.87740000  0.96578000  0.93785000  1.0
  H  H9  1  0.12254000  0.03419000  0.06222000  1.0
  H  H10  1  0.41289000  0.96098000  0.31148000  1.0
  H  H11  1  0.58732000  0.03899000  0.68854000  1.0
  H  H12  1  0.38347000  0.12725000  0.49676000  1.0
  H  H13  1  0.61658000  0.87269000  0.50321000  1.0
  H  H14  1  0.83156000  0.44752000  0.44654000  1.0
  H  H15  1  0.16841000  0.55258000  0.55350000  1.0
  H  H16  1  0.83982000  0.26835000  0.26445000  1.0
  H  H17  1  0.16024000  0.73180000  0.73557000  1.0
  H  H18  1  0.79950000  0.58144000  0.60637000  1.0
  H  H19  1  0.20045000  0.41857000  0.39368000  1.0
  H  H20  1  0.49000000  0.34491000  0.64683000  1.0
  H  H21  1  0.50997000  0.65507000  0.35319000  1.0
  H  H22  1  0.82684000  0.35931000  0.87218000  1.0
  H  H23  1  0.17333000  0.64068000  0.12783000  1.0
  H  H24  1  0.98579000  0.27356000  0.94080000  1.0
  H  H25  1  0.01428000  0.72635000  0.05925000  1.0
  H  H26  1  0.89971000  0.40474000  0.03009000  1.0
  H  H27  1  0.10035000  0.59517000  0.96993000  1.0
  C  C28  1  0.57132000  0.67243000  0.94516000  1.0
  C  C29  1  0.42856000  0.32758000  0.05485000  1.0
  C  C30  1  0.57104000  0.57588000  0.84029000  1.0
  C  C31  1  0.42888000  0.42410000  0.15972000  1.0
  C  C32  1  0.68760000  0.62192000  0.76442000  1.0
  C  C33  1  0.31232000  0.37806000  0.23562000  1.0
  C  C34  1  0.80006000  0.76511000  0.80256000  1.0
  C  C35  1  0.19989000  0.23487000  0.19749000  1.0
  C  C36  1  0.79087000  0.85467000  0.90874000  1.0
  C  C37  1  0.20905000  0.14530000  0.09131000  1.0
  C  C38  1  0.50309000  0.06955000  0.34567000  1.0
  C  C39  1  0.49706000  0.93045000  0.65435000  1.0
  C  C40  1  0.48755000  0.16311000  0.44841000  1.0
  C  C41  1  0.51252000  0.83687000  0.55159000  1.0
  C  C42  1  0.60676000  0.30223000  0.49062000  1.0
  C  C43  1  0.39325000  0.69779000  0.50940000  1.0
  C  C44  1  0.73558000  0.34088000  0.42153000  1.0
  C  C45  1  0.26444000  0.65919000  0.57850000  1.0
  C  C46  1  0.74221000  0.24154000  0.31991000  1.0
  C  C47  1  0.25786000  0.75856000  0.68012000  1.0
  C  C48  1  0.69772000  0.53083000  0.65196000  1.0
  C  C49  1  0.30223000  0.46917000  0.34808000  1.0
  C  C50  1  0.59328000  0.39437000  0.60185000  1.0
  C  C51  1  0.40668000  0.60561000  0.39816000  1.0
  C  C52  1  0.84747000  0.84409000  0.26689000  1.0
  C  C53  1  0.15257000  0.15593000  0.73304000  1.0
  C  C54  1  0.96514000  0.78560000  0.35780000  1.0
  C  C55  1  0.03487000  0.21440000  0.64214000  1.0
  C  C56  1  0.72970000  0.18691000  0.97007000  1.0
  C  C57  1  0.27029000  0.81305000  0.02987000  1.0
  C  C58  1  0.86786000  0.31479000  0.95089000  1.0
  C  C59  1  0.13222000  0.68515000  0.04911000  1.0
  N  N60  1  0.67708000  0.81175000  0.98001000  1.0
  N  N61  1  0.32279000  0.18826000  0.02001000  1.0
  N  N62  1  0.62914000  0.10624000  0.28182000  1.0
  N  N63  1  0.37101000  0.89382000  0.71821000  1.0
  O  O64  1  0.69041000  0.77645000  0.24349000  1.0
  O  O65  1  0.30946000  0.22404000  0.75686000  1.0
  O  O66  1  0.91434000  0.95486000  0.22320000  1.0
  O  O67  1  0.08589000  0.04466000  0.77628000  1.0
  O  O68  1  0.75303000  0.14272000  0.06893000  1.0
  O  O69  1  0.24685000  0.85720000  0.93099000  1.0
  O  O70  1  0.60052000  0.13128000  0.88826000  1.0
  O  O71  1  0.39946000  0.86877000  0.11165000  1.0
  F  F72  1  0.90240000  0.78671000  0.46251000  1.0
  F  F73  1  0.09760000  0.21328000  0.53741000  1.0
  F  F74  1  0.12939000  0.86950000  0.38343000  1.0
  F  F75  1  0.87062000  0.13048000  0.61652000  1.0
  F  F76  1  0.97173000  0.63893000  0.31587000  1.0
  F  F77  1  0.02825000  0.36106000  0.68404000  1.0
