# generated using pymatgen
data_Zn6H72C92I12N24O5
_symmetry_space_group_name_H-M   'P 1'
_cell_length_a   14.83800000
_cell_length_b   19.06240000
_cell_length_c   30.47400000
_cell_angle_alpha   100.40100000
_cell_angle_beta   89.99920000
_cell_angle_gamma   112.91300000
_symmetry_Int_Tables_number   1
_chemical_formula_structural   Zn6H72C92I12N24O5
_chemical_formula_sum   'Zn12 H144 C184 I24 N48 O10'
_cell_volume   7785.41617753
_cell_formula_units_Z   2
loop_
 _symmetry_equiv_pos_site_id
 _symmetry_equiv_pos_as_xyz
  1  'x, y, z'
loop_
 _atom_site_type_symbol
 _atom_site_label
 _atom_site_symmetry_multiplicity
 _atom_site_fract_x
 _atom_site_fract_y
 _atom_site_fract_z
 _atom_site_occupancy
  Zn  Zn0  1  0.25573000  0.21690000  0.17275000  1.0
  Zn  Zn1  1  0.96122000  0.21679000  0.67270000  1.0
  Zn  Zn2  1  0.30419000  0.81461000  0.00725000  1.0
  Zn  Zn3  1  0.51046000  0.81465000  0.50709000  1.0
  Zn  Zn4  1  0.57535000  0.41506000  0.34599000  1.0
  Zn  Zn5  1  0.83945000  0.41504000  0.84599000  1.0
  Zn  Zn6  1  0.31335000  0.91684000  0.71593000  1.0
  Zn  Zn7  1  0.60352000  0.91694000  0.21600000  1.0
  Zn  Zn8  1  0.26265000  0.31876000  0.88483000  1.0
  Zn  Zn9  1  0.05612000  0.31861000  0.38481000  1.0
  Zn  Zn10  1  0.98739000  0.72032000  0.54361000  1.0
  Zn  Zn11  1  0.73287000  0.72022000  0.04354000  1.0
  H  H12  1  0.07068000  0.10083000  0.11431000  1.0
  H  H13  1  0.03016000  0.10067000  0.61426000  1.0
  H  H14  1  0.89054000  0.07533000  0.10761000  1.0
  H  H15  1  0.18488000  0.07526000  0.60756000  1.0
  H  H16  1  0.95182000  0.27452000  0.21379000  1.0
  H  H17  1  0.32276000  0.27453000  0.71372000  1.0
  H  H18  1  0.12941000  0.29270000  0.21569000  1.0
  H  H19  1  0.16330000  0.29261000  0.71560000  1.0
  H  H20  1  0.31530000  0.93012000  0.09109000  1.0
  H  H21  1  0.61467000  0.93004000  0.59091000  1.0
  H  H22  1  0.44580000  0.04203000  0.14201000  1.0
  H  H23  1  0.59605000  0.04181000  0.64194000  1.0
  H  H24  1  0.66182000  0.98132000  0.06765000  1.0
  H  H25  1  0.31937000  0.98128000  0.56757000  1.0
  H  H26  1  0.52351000  0.87581000  0.01816000  1.0
  H  H27  1  0.35206000  0.87574000  0.51804000  1.0
  H  H28  1  0.75426000  0.41014000  0.30667000  1.0
  H  H29  1  0.65556000  0.40995000  0.80667000  1.0
  H  H30  1  0.80484000  0.32698000  0.24714000  1.0
  H  H31  1  0.52200000  0.32683000  0.74706000  1.0
  H  H32  1  0.50055000  0.16794000  0.22312000  1.0
  H  H33  1  0.66760000  0.16806000  0.72300000  1.0
  H  H34  1  0.46336000  0.25440000  0.28693000  1.0
  H  H35  1  0.79110000  0.25451000  0.78687000  1.0
  H  H36  1  0.61719000  0.33820000  0.41401000  1.0
  H  H37  1  0.72050000  0.33794000  0.91396000  1.0
  H  H38  1  0.76033000  0.34948000  0.46359000  1.0
  H  H39  1  0.58872000  0.34937000  0.96357000  1.0
  H  H40  1  0.93024000  0.56412000  0.42187000  1.0
  H  H41  1  0.63410000  0.56421000  0.92198000  1.0
  H  H42  1  0.78004000  0.54404000  0.37350000  1.0
  H  H43  1  0.76409000  0.54398000  0.87359000  1.0
  H  H44  1  0.08097000  0.37945000  0.66681000  1.0
  H  H45  1  0.29836000  0.37953000  0.16682000  1.0
  H  H46  1  0.10573000  0.46817000  0.61220000  1.0
  H  H47  1  0.36231000  0.46822000  0.11217000  1.0
  H  H48  1  0.86466000  0.28540000  0.52796000  1.0
  H  H49  1  0.42068000  0.28543000  0.02801000  1.0
  H  H50  1  0.85384000  0.20136000  0.58467000  1.0
  H  H51  1  0.34748000  0.20144000  0.08474000  1.0
  H  H52  1  0.34145000  0.71828000  0.43708000  1.0
  H  H53  1  0.37694000  0.71837000  0.93723000  1.0
  H  H54  1  0.17639000  0.60617000  0.43295000  1.0
  H  H55  1  0.42986000  0.60628000  0.93303000  1.0
  H  H56  1  0.23712000  0.60718000  0.57145000  1.0
  H  H57  1  0.36995000  0.60700000  0.07149000  1.0
  H  H58  1  0.39885000  0.71921000  0.57014000  1.0
  H  H59  1  0.32020000  0.71901000  0.07023000  1.0
  H  H60  1  0.43993000  0.84238000  0.67379000  1.0
  H  H61  1  0.40263000  0.84256000  0.17375000  1.0
  H  H62  1  0.61708000  0.85993000  0.67756000  1.0
  H  H63  1  0.24298000  0.86009000  0.17751000  1.0
  H  H64  1  0.67849000  0.06697000  0.77792000  1.0
  H  H65  1  0.38838000  0.06696000  0.27802000  1.0
  H  H66  1  0.49871000  0.04221000  0.76924000  1.0
  H  H67  1  0.54346000  0.04223000  0.26936000  1.0
  H  H68  1  0.10321000  0.87993000  0.60315000  1.0
  H  H69  1  0.77684000  0.87981000  0.10298000  1.0
  H  H70  1  0.06789000  0.96710000  0.66716000  1.0
  H  H71  1  0.89949000  0.96703000  0.16695000  1.0
  H  H72  1  0.76288000  0.80752000  0.64511000  1.0
  H  H73  1  0.04470000  0.80736000  0.14499000  1.0
  H  H74  1  0.81156000  0.72545000  0.58456000  1.0
  H  H75  1  0.91380000  0.72522000  0.08448000  1.0
  H  H76  1  0.04374000  0.25085000  0.87777000  1.0
  H  H77  1  0.20689000  0.25052000  0.37775000  1.0
  H  H78  1  0.90524000  0.14619000  0.82752000  1.0
  H  H79  1  0.24070000  0.14593000  0.32740000  1.0
  H  H80  1  0.12152000  0.09834000  0.74677000  1.0
  H  H81  1  0.97653000  0.09818000  0.24670000  1.0
  H  H82  1  0.25193000  0.20902000  0.79880000  1.0
  H  H83  1  0.95692000  0.20887000  0.29878000  1.0
  H  H84  1  0.78291000  0.59471000  0.51694000  1.0
  H  H85  1  0.81181000  0.59469000  0.01693000  1.0
  H  H86  1  0.63469000  0.57328000  0.46689000  1.0
  H  H87  1  0.93874000  0.57340000  0.96692000  1.0
  H  H88  1  0.80705000  0.78404000  0.42229000  1.0
  H  H89  1  0.97708000  0.78413000  0.92232000  1.0
  H  H90  1  0.94936000  0.79600000  0.47295000  1.0
  H  H91  1  0.84665000  0.79599000  0.97297000  1.0
  H  H92  1  0.16080000  0.41910000  0.32353000  1.0
  H  H93  1  0.25836000  0.41916000  0.82365000  1.0
  H  H94  1  0.32133000  0.53256000  0.32209000  1.0
  H  H95  1  0.21119000  0.53252000  0.82215000  1.0
  H  H96  1  0.39167000  0.52414000  0.45788000  1.0
  H  H97  1  0.13226000  0.52414000  0.95791000  1.0
  H  H98  1  0.22992000  0.41213000  0.45405000  1.0
  H  H99  1  0.18199000  0.41217000  0.95413000  1.0
  H  H100  1  0.71718000  0.92755000  0.30067000  1.0
  H  H101  1  0.21068000  0.92766000  0.80074000  1.0
  H  H102  1  0.70555000  0.84258000  0.35696000  1.0
  H  H103  1  0.13733000  0.84269000  0.85704000  1.0
  H  H104  1  0.43203000  0.67863000  0.28594000  1.0
  H  H105  1  0.24630000  0.67852000  0.78585000  1.0
  H  H106  1  0.45445000  0.76847000  0.23258000  1.0
  H  H107  1  0.31370000  0.76834000  0.73248000  1.0
  H  H108  1  0.36678000  0.27009000  0.56384000  1.0
  H  H109  1  0.90339000  0.27022000  0.06385000  1.0
  H  H110  1  0.24457000  0.29110000  0.51656000  1.0
  H  H111  1  0.04665000  0.29125000  0.01660000  1.0
  H  H112  1  0.20609000  0.29181000  0.57196000  1.0
  H  H113  1  0.08578000  0.29192000  0.07200000  1.0
  H  H114  1  0.20593000  0.40789000  0.54047000  1.0
  H  H115  1  0.20210000  0.40804000  0.04054000  1.0
  H  H116  1  0.24396000  0.42260000  0.62498000  1.0
  H  H117  1  0.17871000  0.42265000  0.12505000  1.0
  H  H118  1  0.30131000  0.50979000  0.60454000  1.0
  H  H119  1  0.20862000  0.50989000  0.10464000  1.0
  H  H120  1  0.46409000  0.37240000  0.62703000  1.0
  H  H121  1  0.90835000  0.37245000  0.12707000  1.0
  H  H122  1  0.33854000  0.34262000  0.63882000  1.0
  H  H123  1  0.00406000  0.34262000  0.13886000  1.0
  H  H124  1  0.37935000  0.48550000  0.68703000  1.0
  H  H125  1  0.10618000  0.48553000  0.18713000  1.0
  H  H126  1  0.42954000  0.60171000  0.63277000  1.0
  H  H127  1  0.17223000  0.60164000  0.13279000  1.0
  H  H128  1  0.68733000  0.60483000  0.68838000  1.0
  H  H129  1  0.91768000  0.60492000  0.18846000  1.0
  H  H130  1  0.63139000  0.55815000  0.63348000  1.0
  H  H131  1  0.92685000  0.55821000  0.13357000  1.0
  H  H132  1  0.53845000  0.52529000  0.72145000  1.0
  H  H133  1  0.98681000  0.52528000  0.22153000  1.0
  H  H134  1  0.54472000  0.45619000  0.67587000  1.0
  H  H135  1  0.91152000  0.45623000  0.17590000  1.0
  H  H136  1  0.44750000  0.62797000  0.73510000  1.0
  H  H137  1  0.18077000  0.62800000  0.23511000  1.0
  H  H138  1  0.51844000  0.73212000  0.69176000  1.0
  H  H139  1  0.21380000  0.73211000  0.19171000  1.0
  H  H140  1  0.30010000  0.53142000  0.75099000  1.0
  H  H141  1  0.23152000  0.53143000  0.25089000  1.0
  H  H142  1  0.11716000  0.48058000  0.75062000  1.0
  H  H143  1  0.36361000  0.48058000  0.25048000  1.0
  H  H144  1  0.02336000  0.52606000  0.70371000  1.0
  H  H145  1  0.50284000  0.52612000  0.20350000  1.0
  H  H146  1  0.11123000  0.61981000  0.65471000  1.0
  H  H147  1  0.50865000  0.61987000  0.15456000  1.0
  H  H148  1  0.29255000  0.66931000  0.65485000  1.0
  H  H149  1  0.37691000  0.66944000  0.15480000  1.0
  H  H150  1  0.52413000  0.54563000  0.51611000  1.0
  H  H151  1  0.02167000  0.54584000  0.01623000  1.0
  H  H152  1  0.49873000  0.45445000  0.47841000  1.0
  H  H153  1  0.95587000  0.45465000  0.97852000  1.0
  H  H154  1  0.58943000  0.48689000  0.52470000  1.0
  H  H155  1  0.89761000  0.48706000  0.02481000  1.0
  C  C156  1  0.04098000  0.13864000  0.13495000  1.0
  C  C157  1  0.09767000  0.13850000  0.63489000  1.0
  C  C158  1  0.94163000  0.12464000  0.13148000  1.0
  C  C159  1  0.18303000  0.12454000  0.63144000  1.0
  C  C160  1  0.90782000  0.17401000  0.15992000  1.0
  C  C161  1  0.26621000  0.17393000  0.65989000  1.0
  C  C162  1  0.97603000  0.23607000  0.19056000  1.0
  C  C163  1  0.26009000  0.23601000  0.69050000  1.0
  C  C164  1  0.07382000  0.24632000  0.19172000  1.0
  C  C165  1  0.17252000  0.24624000  0.69164000  1.0
  C  C166  1  0.80232000  0.16047000  0.16012000  1.0
  C  C167  1  0.35816000  0.16042000  0.66006000  1.0
  C  C168  1  0.64230000  0.08619000  0.13833000  1.0
  C  C169  1  0.44385000  0.08612000  0.63824000  1.0
  C  C170  1  0.68396000  0.19120000  0.19490000  1.0
  C  C171  1  0.50728000  0.19115000  0.69479000  1.0
  C  C172  1  0.39321000  0.94451000  0.08699000  1.0
  C  C173  1  0.55111000  0.94439000  0.58685000  1.0
  C  C174  1  0.46568000  0.00578000  0.11527000  1.0
  C  C175  1  0.53992000  0.00562000  0.61518000  1.0
  C  C176  1  0.56442000  0.02085000  0.10852000  1.0
  C  C177  1  0.45630000  0.02074000  0.60843000  1.0
  C  C178  1  0.58631000  0.97301000  0.07345000  1.0
  C  C179  1  0.38657000  0.97296000  0.57335000  1.0
  C  C180  1  0.50937000  0.91382000  0.04606000  1.0
  C  C181  1  0.40426000  0.91374000  0.54594000  1.0
  C  C182  1  0.70058000  0.35549000  0.28779000  1.0
  C  C183  1  0.65472000  0.35538000  0.78776000  1.0
  C  C184  1  0.72829000  0.31000000  0.25434000  1.0
  C  C185  1  0.58161000  0.30990000  0.75426000  1.0
  C  C186  1  0.65611000  0.24119000  0.23042000  1.0
  C  C187  1  0.58512000  0.24117000  0.73031000  1.0
  C  C188  1  0.55875000  0.22038000  0.24156000  1.0
  C  C189  1  0.66174000  0.22044000  0.74145000  1.0
  C  C190  1  0.53767000  0.26816000  0.27653000  1.0
  C  C191  1  0.73051000  0.26822000  0.77646000  1.0
  C  C192  1  0.68834000  0.38693000  0.41671000  1.0
  C  C193  1  0.69819000  0.38671000  0.91667000  1.0
  C  C194  1  0.76696000  0.39353000  0.44411000  1.0
  C  C195  1  0.62624000  0.39341000  0.94408000  1.0
  C  C196  1  0.85603000  0.45757000  0.44597000  1.0
  C  C197  1  0.60145000  0.45755000  0.94599000  1.0
  C  C198  1  0.86209000  0.51335000  0.42061000  1.0
  C  C199  1  0.65129000  0.51335000  0.92068000  1.0
  C  C200  1  0.77983000  0.50261000  0.39409000  1.0
  C  C201  1  0.72275000  0.50254000  0.89414000  1.0
  C  C202  1  0.94106000  0.46644000  0.47507000  1.0
  C  C203  1  0.52537000  0.46648000  0.97512000  1.0
  C  C204  1  0.00116000  0.43295000  0.53245000  1.0
  C  C205  1  0.43180000  0.43298000  0.03249000  1.0
  C  C206  1  0.09966000  0.53320000  0.50195000  1.0
  C  C207  1  0.43360000  0.53324000  0.00201000  1.0
  C  C208  1  0.03679000  0.36021000  0.63494000  1.0
  C  C209  1  0.32330000  0.36028000  0.13496000  1.0
  C  C210  1  0.04943000  0.40948000  0.60497000  1.0
  C  C211  1  0.35990000  0.40952000  0.10496000  1.0
  C  C212  1  0.98753000  0.38269000  0.56566000  1.0
  C  C213  1  0.39508000  0.38272000  0.06569000  1.0
  C  C214  1  0.91401000  0.30760000  0.55822000  1.0
  C  C215  1  0.39349000  0.30763000  0.05825000  1.0
  C  C216  1  0.90782000  0.26119000  0.58927000  1.0
  C  C217  1  0.35328000  0.26125000  0.08931000  1.0
  C  C218  1  0.31491000  0.69100000  0.46576000  1.0
  C  C219  1  0.37619000  0.69106000  0.96589000  1.0
  C  C220  1  0.22450000  0.62931000  0.46366000  1.0
  C  C221  1  0.40491000  0.62938000  0.96375000  1.0
  C  C222  1  0.19582000  0.59770000  0.50187000  1.0
  C  C223  1  0.40192000  0.59771000  0.00194000  1.0
  C  C224  1  0.25861000  0.62986000  0.54105000  1.0
  C  C225  1  0.37116000  0.62975000  0.04111000  1.0
  C  C226  1  0.34716000  0.69193000  0.54056000  1.0
  C  C227  1  0.34468000  0.69181000  0.04066000  1.0
  C  C228  1  0.49544000  0.89097000  0.69653000  1.0
  C  C229  1  0.39565000  0.89112000  0.19652000  1.0
  C  C230  1  0.59299000  0.90063000  0.69889000  1.0
  C  C231  1  0.30775000  0.90074000  0.19886000  1.0
  C  C232  1  0.66085000  0.96449000  0.72851000  1.0
  C  C233  1  0.30369000  0.96453000  0.22852000  1.0
  C  C234  1  0.62744000  0.01649000  0.75474000  1.0
  C  C235  1  0.38903000  0.01653000  0.25480000  1.0
  C  C236  1  0.52848000  0.00296000  0.75018000  1.0
  C  C237  1  0.47448000  0.00302000  0.25025000  1.0
  C  C238  1  0.76598000  0.97707000  0.72944000  1.0
  C  C239  1  0.21109000  0.97704000  0.22941000  1.0
  C  C240  1  0.88457000  0.94498000  0.69580000  1.0
  C  C241  1  0.06048000  0.94487000  0.19566000  1.0
  C  C242  1  0.92561000  0.04933000  0.75265000  1.0
  C  C243  1  0.12354000  0.04918000  0.25258000  1.0
  C  C244  1  0.02914000  0.86680000  0.61372000  1.0
  C  C245  1  0.83782000  0.86670000  0.11355000  1.0
  C  C246  1  0.00903000  0.91490000  0.64885000  1.0
  C  C247  1  0.90609000  0.91481000  0.14864000  1.0
  C  C248  1  0.91193000  0.89449000  0.66040000  1.0
  C  C249  1  0.98271000  0.89438000  0.16022000  1.0
  C  C250  1  0.83899000  0.82555000  0.63699000  1.0
  C  C251  1  0.98665000  0.82540000  0.13685000  1.0
  C  C252  1  0.86582000  0.78007000  0.60317000  1.0
  C  C253  1  0.91426000  0.77987000  0.10305000  1.0
  C  C254  1  0.05771000  0.21597000  0.84821000  1.0
  C  C255  1  0.15806000  0.21571000  0.34816000  1.0
  C  C256  1  0.98095000  0.15734000  0.82045000  1.0
  C  C257  1  0.17616000  0.15712000  0.32036000  1.0
  C  C258  1  0.00313000  0.11370000  0.78327000  1.0
  C  C259  1  0.11030000  0.11350000  0.28318000  1.0
  C  C260  1  0.10177000  0.13183000  0.77506000  1.0
  C  C261  1  0.02981000  0.13164000  0.27499000  1.0
  C  C262  1  0.17401000  0.19230000  0.80386000  1.0
  C  C263  1  0.01809000  0.19211000  0.30382000  1.0
  C  C264  1  0.78424000  0.63491000  0.49528000  1.0
  C  C265  1  0.85067000  0.63491000  0.99527000  1.0
  C  C266  1  0.70310000  0.62339000  0.46784000  1.0
  C  C267  1  0.92037000  0.62347000  0.96787000  1.0
  C  C268  1  0.70982000  0.67792000  0.44152000  1.0
  C  C269  1  0.96814000  0.67799000  0.94154000  1.0
  C  C270  1  0.79953000  0.74104000  0.44269000  1.0
  C  C271  1  0.94158000  0.74110000  0.94271000  1.0
  C  C272  1  0.87752000  0.74824000  0.47080000  1.0
  C  C273  1  0.87074000  0.74825000  0.97081000  1.0
  C  C274  1  0.62348000  0.66871000  0.41321000  1.0
  C  C275  1  0.04523000  0.66873000  0.91323000  1.0
  C  C276  1  0.46330000  0.60236000  0.38917000  1.0
  C  C277  1  0.13898000  0.60235000  0.88918000  1.0
  C  C278  1  0.55774000  0.70294000  0.35781000  1.0
  C  C279  1  0.14517000  0.70292000  0.85781000  1.0
  C  C280  1  0.21462000  0.44464000  0.35239000  1.0
  C  C281  1  0.23002000  0.44469000  0.85249000  1.0
  C  C282  1  0.30240000  0.50718000  0.35177000  1.0
  C  C283  1  0.20472000  0.50718000  0.85184000  1.0
  C  C284  1  0.36808000  0.53724000  0.39003000  1.0
  C  C285  1  0.16906000  0.53723000  0.89008000  1.0
  C  C286  1  0.34266000  0.50311000  0.42757000  1.0
  C  C287  1  0.16031000  0.50312000  0.92762000  1.0
  C  C288  1  0.25274000  0.44092000  0.42567000  1.0
  C  C289  1  0.18805000  0.44094000  0.92576000  1.0
  C  C290  1  0.65595000  0.87153000  0.29881000  1.0
  C  C291  1  0.21572000  0.87157000  0.79884000  1.0
  C  C292  1  0.64946000  0.82459000  0.32954000  1.0
  C  C293  1  0.17526000  0.82463000  0.82957000  1.0
  C  C294  1  0.56797000  0.75404000  0.32536000  1.0
  C  C295  1  0.18602000  0.75402000  0.82535000  1.0
  C  C296  1  0.49606000  0.73323000  0.29027000  1.0
  C  C297  1  0.23695000  0.73314000  0.79021000  1.0
  C  C298  1  0.50829000  0.78308000  0.26065000  1.0
  C  C299  1  0.27456000  0.78299000  0.76059000  1.0
  C  C300  1  0.44172000  0.44552000  0.54248000  1.0
  C  C301  1  0.00397000  0.44569000  0.04258000  1.0
  C  C302  1  0.36386000  0.32762000  0.56800000  1.0
  C  C303  1  0.96386000  0.32774000  0.06805000  1.0
  C  C304  1  0.26395000  0.32254000  0.55142000  1.0
  C  C305  1  0.05870000  0.32268000  0.05147000  1.0
  C  C306  1  0.27260000  0.40586000  0.55474000  1.0
  C  C307  1  0.13341000  0.40600000  0.05482000  1.0
  C  C308  1  0.29946000  0.45124000  0.60296000  1.0
  C  C309  1  0.15190000  0.45133000  0.10304000  1.0
  C  C310  1  0.40004000  0.45501000  0.61866000  1.0
  C  C311  1  0.05506000  0.45507000  0.11875000  1.0
  C  C312  1  0.39300000  0.37178000  0.61654000  1.0
  C  C313  1  0.97885000  0.37185000  0.11659000  1.0
  C  C314  1  0.43796000  0.50834000  0.66488000  1.0
  C  C315  1  0.07046000  0.50839000  0.16497000  1.0
  C  C316  1  0.45889000  0.59427000  0.66400000  1.0
  C  C317  1  0.13550000  0.59428000  0.16404000  1.0
  C  C318  1  0.57079000  0.63520000  0.66619000  1.0
  C  C319  1  0.06457000  0.63522000  0.16621000  1.0
  C  C320  1  0.61702000  0.57797000  0.66806000  1.0
  C  C321  1  0.96108000  0.57803000  0.16813000  1.0
  C  C322  1  0.53625000  0.51149000  0.68471000  1.0
  C  C323  1  0.97530000  0.51153000  0.18477000  1.0
  C  C324  1  0.41911000  0.63572000  0.70341000  1.0
  C  C325  1  0.21681000  0.63577000  0.20340000  1.0
  C  C326  1  0.30821000  0.60207000  0.70200000  1.0
  C  C327  1  0.29406000  0.60212000  0.20194000  1.0
  C  C328  1  0.25815000  0.54921000  0.72906000  1.0
  C  C329  1  0.29125000  0.54922000  0.22896000  1.0
  C  C330  1  0.15593000  0.52134000  0.72930000  1.0
  C  C331  1  0.36558000  0.52133000  0.22915000  1.0
  C  C332  1  0.10284000  0.54665000  0.70263000  1.0
  C  C333  1  0.44394000  0.54666000  0.20245000  1.0
  C  C334  1  0.15205000  0.59902000  0.67529000  1.0
  C  C335  1  0.44708000  0.59907000  0.17514000  1.0
  C  C336  1  0.25401000  0.62611000  0.67483000  1.0
  C  C337  1  0.37224000  0.62620000  0.17475000  1.0
  C  C338  1  0.51885000  0.48594000  0.51320000  1.0
  C  C339  1  0.96727000  0.48614000  0.01331000  1.0
  I  I340  1  0.31468000  0.30399000  0.25007000  1.0
  I  I341  1  0.98935000  0.30389000  0.75004000  1.0
  I  I342  1  0.26780000  0.08737000  0.14221000  1.0
  I  I343  1  0.81915000  0.08747000  0.64228000  1.0
  I  I344  1  0.33518000  0.86139000  0.93340000  1.0
  I  I345  1  0.52612000  0.86144000  0.43324000  1.0
  I  I346  1  0.14668000  0.77656000  0.04838000  1.0
  I  I347  1  0.63012000  0.77678000  0.54822000  1.0
  I  I348  1  0.61264000  0.52807000  0.30571000  1.0
  I  I349  1  0.91515000  0.52814000  0.80577000  1.0
  I  I350  1  0.42491000  0.34115000  0.38446000  1.0
  I  I351  1  0.91605000  0.34118000  0.88442000  1.0
  I  I352  1  0.28983000  0.04343000  0.74350000  1.0
  I  I353  1  0.75351000  0.04358000  0.24373000  1.0
  I  I354  1  0.24555000  0.82264000  0.64108000  1.0
  I  I355  1  0.57703000  0.82294000  0.14108000  1.0
  I  I356  1  0.41952000  0.35409000  0.84241000  1.0
  I  I357  1  0.93443000  0.35386000  0.34245000  1.0
  I  I358  1  0.23463000  0.27256000  0.95902000  1.0
  I  I359  1  0.03851000  0.27256000  0.45905000  1.0
  I  I360  1  0.13838000  0.78957000  0.50403000  1.0
  I  I361  1  0.65134000  0.78987000  0.00421000  1.0
  I  I362  1  0.94253000  0.60403000  0.58246000  1.0
  I  I363  1  0.66138000  0.60410000  0.08250000  1.0
  N  N364  1  0.10607000  0.19843000  0.16454000  1.0
  N  N365  1  0.09239000  0.19832000  0.66446000  1.0
  N  N366  1  0.73681000  0.09903000  0.13202000  1.0
  N  N367  1  0.36218000  0.09897000  0.63194000  1.0
  N  N368  1  0.61250000  0.12857000  0.17065000  1.0
  N  N369  1  0.51604000  0.12849000  0.67056000  1.0
  N  N370  1  0.78007000  0.21103000  0.18999000  1.0
  N  N371  1  0.43103000  0.21101000  0.68988000  1.0
  N  N372  1  0.41470000  0.89963000  0.05274000  1.0
  N  N373  1  0.48472000  0.89953000  0.55260000  1.0
  N  N374  1  0.60729000  0.33479000  0.29896000  1.0
  N  N375  1  0.72736000  0.33477000  0.79893000  1.0
  N  N376  1  0.69468000  0.44029000  0.39193000  1.0
  N  N377  1  0.74536000  0.44012000  0.89194000  1.0
  N  N378  1  0.92425000  0.41838000  0.50410000  1.0
  N  N379  1  0.49413000  0.41841000  0.00414000  1.0
  N  N380  1  0.08971000  0.49067000  0.53364000  1.0
  N  N381  1  0.40099000  0.49069000  0.03369000  1.0
  N  N382  1  0.02829000  0.52280000  0.47133000  1.0
  N  N383  1  0.49457000  0.52285000  0.97139000  1.0
  N  N384  1  0.96856000  0.28691000  0.62685000  1.0
  N  N385  1  0.31831000  0.28701000  0.12689000  1.0
  N  N386  1  0.37498000  0.72165000  0.50350000  1.0
  N  N387  1  0.34671000  0.72164000  0.00363000  1.0
  N  N388  1  0.46357000  0.94121000  0.72160000  1.0
  N  N389  1  0.47769000  0.94133000  0.22165000  1.0
  N  N390  1  0.78852000  0.92652000  0.69979000  1.0
  N  N391  1  0.13810000  0.92648000  0.19971000  1.0
  N  N392  1  0.95607000  0.00682000  0.72074000  1.0
  N  N393  1  0.05066000  0.00663000  0.22062000  1.0
  N  N394  1  0.83127000  0.03788000  0.75811000  1.0
  N  N395  1  0.20648000  0.03780000  0.25807000  1.0
  N  N396  1  0.95869000  0.80048000  0.59139000  1.0
  N  N397  1  0.84183000  0.80032000  0.09127000  1.0
  N  N398  1  0.15238000  0.23345000  0.83995000  1.0
  N  N399  1  0.08091000  0.23323000  0.33992000  1.0
  N  N400  1  0.86981000  0.69660000  0.49703000  1.0
  N  N401  1  0.82675000  0.69655000  0.99701000  1.0
  N  N402  1  0.53702000  0.61258000  0.41836000  1.0
  N  N403  1  0.07549000  0.61258000  0.91838000  1.0
  N  N404  1  0.46963000  0.64555000  0.35818000  1.0
  N  N405  1  0.17585000  0.64552000  0.85819000  1.0
  N  N406  1  0.63754000  0.71621000  0.38409000  1.0
  N  N407  1  0.07867000  0.71622000  0.88410000  1.0
  N  N408  1  0.18988000  0.41230000  0.38883000  1.0
  N  N409  1  0.22240000  0.41236000  0.88894000  1.0
  N  N410  1  0.58684000  0.85099000  0.26486000  1.0
  N  N411  1  0.26412000  0.85096000  0.76484000  1.0
  O  O412  1  0.47015000  0.48903000  0.58726000  1.0
  O  O413  1  0.01907000  0.48916000  0.08737000  1.0
  O  O414  1  0.35018000  0.44430000  0.52744000  1.0
  O  O415  1  0.09429000  0.44448000  0.02753000  1.0
  O  O416  1  0.43710000  0.36914000  0.54006000  1.0
  O  O417  1  0.93217000  0.36931000  0.04013000  1.0
  O  O418  1  0.61489000  0.70567000  0.66836000  1.0
  O  O419  1  0.09097000  0.70567000  0.16830000  1.0
  O  O420  1  0.45191000  0.71645000  0.70256000  1.0
  O  O421  1  0.26468000  0.71650000  0.20253000  1.0
