# generated using pymatgen
data_AgH4C5SNO3
_symmetry_space_group_name_H-M   'P 1'
_cell_length_a   5.10162000
_cell_length_b   10.81290000
_cell_length_c   12.71460000
_cell_angle_alpha   112.47700000
_cell_angle_beta   89.99870000
_cell_angle_gamma   90.00000000
_symmetry_Int_Tables_number   1
_chemical_formula_structural   AgH4C5SNO3
_chemical_formula_sum   'Ag4 H16 C20 S4 N4 O12'
_cell_volume   648.09774822
_cell_formula_units_Z   4
loop_
 _symmetry_equiv_pos_site_id
 _symmetry_equiv_pos_as_xyz
  1  'x, y, z'
loop_
 _atom_site_type_symbol
 _atom_site_label
 _atom_site_symmetry_multiplicity
 _atom_site_fract_x
 _atom_site_fract_y
 _atom_site_fract_z
 _atom_site_occupancy
  Ag  Ag0  1  0.77788000  0.05460000  0.12713000  1.0
  Ag  Ag1  1  0.27789000  0.94540000  0.37288000  1.0
  Ag  Ag2  1  0.22207000  0.94539000  0.87287000  1.0
  Ag  Ag3  1  0.72213000  0.05460000  0.62713000  1.0
  H  H4  1  0.36497000  0.41277000  0.97957000  1.0
  H  H5  1  0.86497000  0.58723000  0.52043000  1.0
  H  H6  1  0.63500000  0.58724000  0.02043000  1.0
  H  H7  1  0.13500000  0.41277000  0.47958000  1.0
  H  H8  1  0.03169000  0.49789000  0.13433000  1.0
  H  H9  1  0.53170000  0.50209000  0.36566000  1.0
  H  H10  1  0.96827000  0.50212000  0.86566000  1.0
  H  H11  1  0.46830000  0.49790000  0.63433000  1.0
  H  H12  1  0.97811000  0.37591000  0.26866000  1.0
  H  H13  1  0.47811000  0.62409000  0.23134000  1.0
  H  H14  1  0.02190000  0.62411000  0.73134000  1.0
  H  H15  1  0.52191000  0.37590000  0.76865000  1.0
  H  H16  1  0.27862000  0.18699000  0.24761000  1.0
  H  H17  1  0.77860000  0.81303000  0.25240000  1.0
  H  H18  1  0.72139000  0.81304000  0.75241000  1.0
  H  H19  1  0.22141000  0.18697000  0.74760000  1.0
  C  C20  1  0.49516000  0.25722000  0.03429000  1.0
  C  C21  1  0.99517000  0.74278000  0.46572000  1.0
  C  C22  1  0.50485000  0.74279000  0.96571000  1.0
  C  C23  1  0.00484000  0.25722000  0.53429000  1.0
  C  C24  1  0.34097000  0.36621000  0.04103000  1.0
  C  C25  1  0.84096000  0.63379000  0.45896000  1.0
  C  C26  1  0.65905000  0.63379000  0.95896000  1.0
  C  C27  1  0.15904000  0.36620000  0.54104000  1.0
  C  C28  1  0.15349000  0.41230000  0.12715000  1.0
  C  C29  1  0.65350000  0.58768000  0.37284000  1.0
  C  C30  1  0.84649000  0.58770000  0.87285000  1.0
  C  C31  1  0.34651000  0.41231000  0.62715000  1.0
  C  C32  1  0.12581000  0.34658000  0.20175000  1.0
  C  C33  1  0.62581000  0.65342000  0.29825000  1.0
  C  C34  1  0.87420000  0.65344000  0.79826000  1.0
  C  C35  1  0.37420000  0.34657000  0.70174000  1.0
  C  C36  1  0.29108000  0.23931000  0.18974000  1.0
  C  C37  1  0.79108000  0.76069000  0.31026000  1.0
  C  C38  1  0.70892000  0.76070000  0.81026000  1.0
  C  C39  1  0.20893000  0.23931000  0.68974000  1.0
  S  S40  1  0.71921000  0.18874000  0.91614000  1.0
  S  S41  1  0.21919000  0.81126000  0.58386000  1.0
  S  S42  1  0.28078000  0.81127000  0.08387000  1.0
  S  S43  1  0.78081000  0.18873000  0.41614000  1.0
  N  N44  1  0.47565000  0.19579000  0.10792000  1.0
  N  N45  1  0.97563000  0.80422000  0.39209000  1.0
  N  N46  1  0.52436000  0.80425000  0.89209000  1.0
  N  N47  1  0.02436000  0.19577000  0.60791000  1.0
  O  O48  1  0.92592000  0.12021000  0.95436000  1.0
  O  O49  1  0.42591000  0.87978000  0.54565000  1.0
  O  O50  1  0.07407000  0.87979000  0.04565000  1.0
  O  O51  1  0.57409000  0.12020000  0.45436000  1.0
  O  O52  1  0.80999000  0.30237000  0.89122000  1.0
  O  O53  1  0.30995000  0.69763000  0.60878000  1.0
  O  O54  1  0.19002000  0.69763000  0.10877000  1.0
  O  O55  1  0.69003000  0.30235000  0.39122000  1.0
  O  O56  1  0.55667000  0.09384000  0.82345000  1.0
  O  O57  1  0.05668000  0.90615000  0.67654000  1.0
  O  O58  1  0.44331000  0.90616000  0.17655000  1.0
  O  O59  1  0.94336000  0.09383000  0.32346000  1.0
