# generated using pymatgen
data_SmH10C14NO7
_symmetry_space_group_name_H-M   'P 1'
_cell_length_a   9.34597000
_cell_length_b   10.48080000
_cell_length_c   14.35340000
_cell_angle_alpha   89.99980000
_cell_angle_beta   89.99970000
_cell_angle_gamma   83.69980000
_symmetry_Int_Tables_number   1
_chemical_formula_structural   SmH10C14NO7
_chemical_formula_sum   'Sm4 H40 C56 N4 O28'
_cell_volume   1397.47086298
_cell_formula_units_Z   4
loop_
 _symmetry_equiv_pos_site_id
 _symmetry_equiv_pos_as_xyz
  1  'x, y, z'
loop_
 _atom_site_type_symbol
 _atom_site_label
 _atom_site_symmetry_multiplicity
 _atom_site_fract_x
 _atom_site_fract_y
 _atom_site_fract_z
 _atom_site_occupancy
  Sm  Sm0  1  0.12902000  0.52830000  0.13176000  1.0
  Sm  Sm1  1  0.87098000  0.97170000  0.63176000  1.0
  Sm  Sm2  1  0.87098000  0.47170000  0.86824000  1.0
  Sm  Sm3  1  0.12902000  0.02829000  0.36824000  1.0
  H  H4  1  0.55307000  0.22563000  0.33583000  1.0
  H  H5  1  0.44693000  0.27436000  0.83583000  1.0
  H  H6  1  0.44693000  0.77437000  0.66417000  1.0
  H  H7  1  0.55307000  0.72564000  0.16416000  1.0
  H  H8  1  0.77560000  0.29745000  0.26083000  1.0
  H  H9  1  0.22439000  0.20255000  0.76083000  1.0
  H  H10  1  0.22440000  0.70255000  0.73917000  1.0
  H  H11  1  0.77561000  0.79745000  0.23917000  1.0
  H  H12  1  0.49336000  0.53020000  0.07500000  1.0
  H  H13  1  0.50663000  0.96980000  0.57500000  1.0
  H  H14  1  0.50664000  0.46981000  0.92500000  1.0
  H  H15  1  0.49336000  0.03020000  0.42500000  1.0
  H  H16  1  0.32493000  0.13746000  0.10181000  1.0
  H  H17  1  0.67507000  0.36254000  0.60181000  1.0
  H  H18  1  0.67508000  0.86255000  0.89819000  1.0
  H  H19  1  0.32493000  0.63744000  0.39819000  1.0
  H  H20  1  0.44697000  0.91687000  0.07764000  1.0
  H  H21  1  0.55302000  0.58313000  0.57764000  1.0
  H  H22  1  0.55304000  0.08313000  0.92235000  1.0
  H  H23  1  0.44696000  0.41686000  0.42236000  1.0
  H  H24  1  0.37030000  0.78196000  0.94924000  1.0
  H  H25  1  0.62970000  0.71805000  0.44924000  1.0
  H  H26  1  0.62971000  0.21804000  0.05076000  1.0
  H  H27  1  0.37029000  0.28195000  0.55076000  1.0
  H  H28  1  0.17547000  0.87111000  0.84048000  1.0
  H  H29  1  0.82453000  0.62890000  0.34048000  1.0
  H  H30  1  0.82453000  0.12889000  0.15952000  1.0
  H  H31  1  0.17546000  0.37111000  0.65952000  1.0
  H  H32  1  0.05161000  0.08999000  0.86612000  1.0
  H  H33  1  0.94839000  0.41002000  0.36612000  1.0
  H  H34  1  0.94839000  0.91001000  0.13388000  1.0
  H  H35  1  0.05161000  0.58999000  0.63388000  1.0
  H  H36  1  0.05479000  0.74913000  0.25792000  1.0
  H  H37  1  0.94522000  0.75086000  0.75792000  1.0
  H  H38  1  0.94521000  0.25087000  0.74208000  1.0
  H  H39  1  0.05479000  0.24913000  0.24208000  1.0
  H  H40  1  0.06695000  0.63726000  0.32999000  1.0
  H  H41  1  0.93306000  0.86273000  0.82999000  1.0
  H  H42  1  0.93306000  0.36273000  0.67001000  1.0
  H  H43  1  0.06694000  0.13727000  0.17001000  1.0
  C  C44  1  0.41040000  0.34534000  0.24668000  1.0
  C  C45  1  0.58960000  0.15465000  0.74667000  1.0
  C  C46  1  0.58960000  0.65466000  0.75333000  1.0
  C  C47  1  0.41040000  0.84535000  0.25332000  1.0
  C  C48  1  0.54583000  0.29414000  0.27857000  1.0
  C  C49  1  0.45417000  0.20586000  0.77857000  1.0
  C  C50  1  0.45417000  0.70586000  0.72143000  1.0
  C  C51  1  0.54583000  0.79414000  0.22143000  1.0
  C  C52  1  0.66807000  0.33306000  0.23671000  1.0
  C  C53  1  0.33192000  0.16694000  0.73671000  1.0
  C  C54  1  0.33193000  0.66694000  0.76329000  1.0
  C  C55  1  0.66808000  0.83306000  0.26329000  1.0
  C  C56  1  0.65137000  0.41604000  0.16014000  1.0
  C  C57  1  0.34863000  0.08396000  0.66014000  1.0
  C  C58  1  0.34863000  0.58397000  0.83986000  1.0
  C  C59  1  0.65137000  0.91603000  0.33986000  1.0
  C  C60  1  0.51154000  0.46333000  0.13312000  1.0
  C  C61  1  0.48846000  0.03667000  0.63312000  1.0
  C  C62  1  0.48847000  0.53668000  0.86688000  1.0
  C  C63  1  0.51153000  0.96332000  0.36688000  1.0
  C  C64  1  0.27310000  0.30638000  0.28779000  1.0
  C  C65  1  0.72690000  0.19362000  0.78779000  1.0
  C  C66  1  0.72691000  0.69362000  0.71221000  1.0
  C  C67  1  0.27310000  0.80638000  0.21221000  1.0
  C  C68  1  0.77950000  0.45000000  0.10564000  1.0
  C  C69  1  0.22050000  0.05000000  0.60563000  1.0
  C  C70  1  0.22050000  0.55000000  0.89436000  1.0
  C  C71  1  0.77950000  0.94999000  0.39436000  1.0
  C  C72  1  0.17985000  0.12629000  0.98608000  1.0
  C  C73  1  0.82015000  0.37372000  0.48608000  1.0
  C  C74  1  0.82015000  0.87371000  0.01392000  1.0
  C  C75  1  0.17985000  0.62628000  0.51392000  1.0
  C  C76  1  0.29066000  0.07678000  0.04622000  1.0
  C  C77  1  0.70935000  0.42322000  0.54621000  1.0
  C  C78  1  0.70935000  0.92322000  0.95378000  1.0
  C  C79  1  0.29065000  0.57678000  0.45378000  1.0
  C  C80  1  0.35848000  0.95343000  0.03259000  1.0
  C  C81  1  0.64152000  0.54657000  0.53259000  1.0
  C  C82  1  0.64153000  0.04657000  0.96741000  1.0
  C  C83  1  0.35847000  0.45342000  0.46741000  1.0
  C  C84  1  0.31686000  0.87862000  0.95923000  1.0
  C  C85  1  0.68314000  0.62138000  0.45922000  1.0
  C  C86  1  0.68314000  0.12138000  0.04078000  1.0
  C  C87  1  0.31685000  0.37862000  0.54078000  1.0
  C  C88  1  0.20747000  0.92778000  0.89882000  1.0
  C  C89  1  0.79254000  0.57223000  0.39882000  1.0
  C  C90  1  0.79253000  0.07222000  0.10118000  1.0
  C  C91  1  0.20746000  0.42778000  0.60118000  1.0
  C  C92  1  0.13805000  0.05101000  0.91236000  1.0
  C  C93  1  0.86195000  0.44899000  0.41236000  1.0
  C  C94  1  0.86194000  0.94898000  0.08764000  1.0
  C  C95  1  0.13805000  0.55101000  0.58764000  1.0
  C  C96  1  0.11099000  0.26021000  0.00004000  1.0
  C  C97  1  0.88901000  0.23980000  0.50003000  1.0
  C  C98  1  0.88901000  0.73979000  0.99996000  1.0
  C  C99  1  0.11100000  0.76020000  0.49995000  1.0
  N  N100  1  0.39374000  0.43153000  0.17661000  1.0
  N  N101  1  0.60626000  0.06847000  0.67661000  1.0
  N  N102  1  0.60626000  0.56848000  0.82339000  1.0
  N  N103  1  0.39374000  0.93153000  0.32339000  1.0
  O  O104  1  0.15650000  0.37598000  0.26561000  1.0
  O  O105  1  0.84350000  0.12402000  0.76561000  1.0
  O  O106  1  0.84350000  0.62402000  0.73439000  1.0
  O  O107  1  0.15650000  0.87598000  0.23439000  1.0
  O  O108  1  0.28095000  0.20636000  0.33736000  1.0
  O  O109  1  0.71905000  0.29364000  0.83736000  1.0
  O  O110  1  0.71906000  0.79365000  0.66264000  1.0
  O  O111  1  0.28095000  0.70636000  0.16264000  1.0
  O  O112  1  0.03283000  0.65890000  0.26711000  1.0
  O  O113  1  0.96718000  0.84110000  0.76711000  1.0
  O  O114  1  0.96718000  0.34110000  0.73289000  1.0
  O  O115  1  0.03283000  0.15890000  0.23289000  1.0
  O  O116  1  0.89425000  0.45830000  0.15090000  1.0
  O  O117  1  0.10575000  0.04170000  0.65089000  1.0
  O  O118  1  0.10575000  0.54170000  0.84911000  1.0
  O  O119  1  0.89425000  0.95829000  0.34912000  1.0
  O  O120  1  0.76067000  0.46568000  0.01838000  1.0
  O  O121  1  0.23932000  0.03433000  0.51838000  1.0
  O  O122  1  0.23933000  0.53433000  0.98162000  1.0
  O  O123  1  0.76066000  0.96568000  0.48162000  1.0
  O  O124  1  0.14500000  0.31685000  0.07399000  1.0
  O  O125  1  0.85500000  0.18315000  0.57399000  1.0
  O  O126  1  0.85499000  0.68315000  0.92601000  1.0
  O  O127  1  0.14504000  0.81684000  0.42601000  1.0
  O  O128  1  0.02422000  0.30979000  0.93853000  1.0
  O  O129  1  0.97578000  0.19022000  0.43852000  1.0
  O  O130  1  0.97578000  0.69021000  0.06147000  1.0
  O  O131  1  0.02422000  0.80979000  0.56146000  1.0
