# generated using pymatgen
data_CdH12C16(N2O3)2
_symmetry_space_group_name_H-M   'P 1'
_cell_length_a   7.65898000
_cell_length_b   21.26394229
_cell_length_c   21.27010000
_cell_angle_alpha   118.57209346
_cell_angle_beta   96.88850000
_cell_angle_gamma   96.90364123
_symmetry_Int_Tables_number   1
_chemical_formula_structural   CdH12C16(N2O3)2
_chemical_formula_sum   'Cd6 H72 C96 N24 O36'
_cell_volume   2956.92917989
_cell_formula_units_Z   6
loop_
 _symmetry_equiv_pos_site_id
 _symmetry_equiv_pos_as_xyz
  1  'x, y, z'
loop_
 _atom_site_type_symbol
 _atom_site_label
 _atom_site_symmetry_multiplicity
 _atom_site_fract_x
 _atom_site_fract_y
 _atom_site_fract_z
 _atom_site_occupancy
  Cd  Cd0  1  0.47861000  0.72834000  0.23023000  1.0
  Cd  Cd1  1  0.75039000  0.50197000  0.27178000  1.0
  Cd  Cd2  1  0.24846000  0.76976000  0.49801000  1.0
  Cd  Cd3  1  0.24961000  0.49803000  0.72822000  1.0
  Cd  Cd4  1  0.75153000  0.23023000  0.50198000  1.0
  Cd  Cd5  1  0.52139000  0.27166000  0.76977000  1.0
  H  H6  1  0.78130000  0.40832000  0.77661000  1.0
  H  H7  1  0.37317000  0.36814000  0.59167000  1.0
  H  H8  1  0.00440000  0.22348000  0.63190000  1.0
  H  H9  1  0.62683000  0.63186000  0.40833000  1.0
  H  H10  1  0.99560000  0.77652000  0.36810000  1.0
  H  H11  1  0.21870000  0.59168000  0.22339000  1.0
  H  H12  1  0.94298000  0.53314000  0.86718000  1.0
  H  H13  1  0.40970000  0.33383000  0.46681000  1.0
  H  H14  1  0.07530000  0.13290000  0.66616000  1.0
  H  H15  1  0.59030000  0.66617000  0.53318000  1.0
  H  H16  1  0.92469000  0.86709000  0.33383000  1.0
  H  H17  1  0.05701000  0.46686000  0.13281000  1.0
  H  H18  1  0.68814000  0.50992000  0.02821000  1.0
  H  H19  1  0.17808000  0.51805000  0.48991000  1.0
  H  H20  1  0.66017000  0.97170000  0.48176000  1.0
  H  H21  1  0.82192000  0.48195000  0.51009000  1.0
  H  H22  1  0.33984000  0.02830000  0.51824000  1.0
  H  H23  1  0.31186000  0.49008000  0.97179000  1.0
  H  H24  1  0.53401000  0.38619000  0.92983000  1.0
  H  H25  1  0.14800000  0.54345000  0.61364000  1.0
  H  H26  1  0.60460000  0.07008000  0.45639000  1.0
  H  H27  1  0.85200000  0.45655000  0.38636000  1.0
  H  H28  1  0.39541000  0.92992000  0.54362000  1.0
  H  H29  1  0.46599000  0.61381000  0.07017000  1.0
  H  H30  1  0.03736000  0.63924000  0.94157000  1.0
  H  H31  1  0.39792000  0.30209000  0.36067000  1.0
  H  H32  1  0.09587000  0.05850000  0.69776000  1.0
  H  H33  1  0.60208000  0.69791000  0.63933000  1.0
  H  H34  1  0.90413000  0.94150000  0.30223000  1.0
  H  H35  1  0.96264000  0.36076000  0.05843000  1.0
  H  H36  1  0.20614000  0.75981000  0.03838000  1.0
  H  H37  1  0.44683000  0.27855000  0.24023000  1.0
  H  H38  1  0.16828000  0.96166000  0.72141000  1.0
  H  H39  1  0.55317000  0.72145000  0.75977000  1.0
  H  H40  1  0.83172000  0.03834000  0.27859000  1.0
  H  H41  1  0.79386000  0.24019000  0.96162000  1.0
  H  H42  1  0.03336000  0.71584000  0.20170000  1.0
  H  H43  1  0.31783000  0.48586000  0.28424000  1.0
  H  H44  1  0.83215000  0.79826000  0.51418000  1.0
  H  H45  1  0.68217000  0.51414000  0.71576000  1.0
  H  H46  1  0.16785000  0.20174000  0.48582000  1.0
  H  H47  1  0.96664000  0.28416000  0.79830000  1.0
  H  H48  1  0.86736000  0.59588000  0.10696000  1.0
  H  H49  1  0.27126000  0.51086000  0.40404000  1.0
  H  H50  1  0.76053000  0.89304000  0.48908000  1.0
  H  H51  1  0.72874000  0.48914000  0.59596000  1.0
  H  H52  1  0.23947000  0.10696000  0.51092000  1.0
  H  H53  1  0.13263000  0.40412000  0.89304000  1.0
  H  H54  1  0.11099000  0.87648000  0.13658000  1.0
  H  H55  1  0.23446000  0.26025000  0.12369000  1.0
  H  H56  1  0.97502000  0.86339000  0.73983000  1.0
  H  H57  1  0.76554000  0.73975000  0.87631000  1.0
  H  H58  1  0.02499000  0.13661000  0.26017000  1.0
  H  H59  1  0.88901000  0.12352000  0.86342000  1.0
  H  H60  1  0.27980000  0.00108000  0.23931000  1.0
  H  H61  1  0.27851000  0.23838000  0.99909000  1.0
  H  H62  1  0.04103000  0.76063000  0.76166000  1.0
  H  H63  1  0.72148000  0.76162000  0.00091000  1.0
  H  H64  1  0.95898000  0.23937000  0.23834000  1.0
  H  H65  1  0.72020000  0.99892000  0.76069000  1.0
  H  H66  1  0.48254000  0.00827000  0.34293000  1.0
  H  H67  1  0.47469000  0.33469000  0.99185000  1.0
  H  H68  1  0.14025000  0.65699000  0.66526000  1.0
  H  H69  1  0.52531000  0.66531000  0.00815000  1.0
  H  H70  1  0.85975000  0.34301000  0.33474000  1.0
  H  H71  1  0.51746000  0.99173000  0.65707000  1.0
  H  H72  1  0.51933000  0.89105000  0.34169000  1.0
  H  H73  1  0.62889000  0.45066000  0.10901000  1.0
  H  H74  1  0.17825000  0.65824000  0.54930000  1.0
  H  H75  1  0.37110000  0.54934000  0.89099000  1.0
  H  H76  1  0.82175000  0.34176000  0.45070000  1.0
  H  H77  1  0.48066000  0.10895000  0.65831000  1.0
  C  C78  1  0.76413000  0.43298000  0.83309000  1.0
  C  C79  1  0.33124000  0.39995000  0.56698000  1.0
  C  C80  1  0.93084000  0.16697000  0.60005000  1.0
  C  C81  1  0.66876000  0.60005000  0.43302000  1.0
  C  C82  1  0.06917000  0.83303000  0.39995000  1.0
  C  C83  1  0.23587000  0.56702000  0.16690000  1.0
  C  C84  1  0.85559000  0.50327000  0.88492000  1.0
  C  C85  1  0.35217000  0.38142000  0.49666000  1.0
  C  C86  1  0.97031000  0.11515000  0.61855000  1.0
  C  C87  1  0.64783000  0.61858000  0.50334000  1.0
  C  C88  1  0.02969000  0.88485000  0.38146000  1.0
  C  C89  1  0.14441000  0.49673000  0.11508000  1.0
  C  C90  1  0.83596000  0.53391000  0.95813000  1.0
  C  C91  1  0.30185000  0.42396000  0.46597000  1.0
  C  C92  1  0.87775000  0.04188000  0.57592000  1.0
  C  C93  1  0.69815000  0.57604000  0.53403000  1.0
  C  C94  1  0.12225000  0.95812000  0.42408000  1.0
  C  C95  1  0.16404000  0.46609000  0.04187000  1.0
  C  C96  1  0.71511000  0.49029000  0.97352000  1.0
  C  C97  1  0.22473000  0.48300000  0.50955000  1.0
  C  C98  1  0.74173000  0.02641000  0.51684000  1.0
  C  C99  1  0.77528000  0.51701000  0.49046000  1.0
  C  C100  1  0.25827000  0.97359000  0.48316000  1.0
  C  C101  1  0.28489000  0.50971000  0.02648000  1.0
  C  C102  1  0.62753000  0.42074000  0.91883000  1.0
  C  C103  1  0.20692000  0.49789000  0.57912000  1.0
  C  C104  1  0.70897000  0.08113000  0.50198000  1.0
  C  C105  1  0.79308000  0.50211000  0.42088000  1.0
  C  C106  1  0.29103000  0.91887000  0.49802000  1.0
  C  C107  1  0.37248000  0.57926000  0.08117000  1.0
  C  C108  1  0.93721000  0.60707000  0.01582000  1.0
  C  C109  1  0.32994000  0.40851000  0.39282000  1.0
  C  C110  1  0.92144000  0.98420000  0.59138000  1.0
  C  C111  1  0.67006000  0.59149000  0.60717000  1.0
  C  C112  1  0.07856000  0.01580000  0.40862000  1.0
  C  C113  1  0.06279000  0.39293000  0.98418000  1.0
  C  C114  1  0.03529000  0.65504000  0.99832000  1.0
  C  C115  1  0.38011000  0.34307000  0.34488000  1.0
  C  C116  1  0.03707000  0.00173000  0.65683000  1.0
  C  C117  1  0.61988000  0.65693000  0.65512000  1.0
  C  C118  1  0.96294000  0.99827000  0.34317000  1.0
  C  C119  1  0.96471000  0.34496000  0.00168000  1.0
  C  C120  1  0.13009000  0.72373000  0.05300000  1.0
  C  C121  1  0.40660000  0.32919000  0.27628000  1.0
  C  C122  1  0.07746000  0.94702000  0.67075000  1.0
  C  C123  1  0.59339000  0.67081000  0.72372000  1.0
  C  C124  1  0.92255000  0.05298000  0.32925000  1.0
  C  C125  1  0.86991000  0.27627000  0.94700000  1.0
  C  C126  1  0.13282000  0.74641000  0.12699000  1.0
  C  C127  1  0.38678000  0.38057000  0.25366000  1.0
  C  C128  1  0.00634000  0.87301000  0.61943000  1.0
  C  C129  1  0.61322000  0.61943000  0.74634000  1.0
  C  C130  1  0.99367000  0.12699000  0.38057000  1.0
  C  C131  1  0.86717000  0.25359000  0.87301000  1.0
  C  C132  1  0.03661000  0.69886000  0.14478000  1.0
  C  C133  1  0.33803000  0.44587000  0.30117000  1.0
  C  C134  1  0.89227000  0.85520000  0.55412000  1.0
  C  C135  1  0.66196000  0.55413000  0.69882000  1.0
  C  C136  1  0.10773000  0.14480000  0.44588000  1.0
  C  C137  1  0.96339000  0.30114000  0.85522000  1.0
  C  C138  1  0.93934000  0.63062000  0.09001000  1.0
  C  C139  1  0.30871000  0.45923000  0.36933000  1.0
  C  C140  1  0.84955000  0.90998000  0.54071000  1.0
  C  C141  1  0.69128000  0.54077000  0.63067000  1.0
  C  C142  1  0.15045000  0.09002000  0.45929000  1.0
  C  C143  1  0.06066000  0.36938000  0.90999000  1.0
  C  C144  1  0.23077000  0.81967000  0.18544000  1.0
  C  C145  1  0.41145000  0.36583000  0.18042000  1.0
  C  C146  1  0.04591000  0.81453000  0.63420000  1.0
  C  C147  1  0.58854000  0.63417000  0.81958000  1.0
  C  C148  1  0.95409000  0.18547000  0.36580000  1.0
  C  C149  1  0.76922000  0.18033000  0.81456000  1.0
  C  C150  1  0.20576000  0.88245000  0.18245000  1.0
  C  C151  1  0.32340000  0.30011000  0.11768000  1.0
  C  C152  1  0.02396000  0.81751000  0.69994000  1.0
  C  C153  1  0.67660000  0.69989000  0.88232000  1.0
  C  C154  1  0.97604000  0.18249000  0.30006000  1.0
  C  C155  1  0.79424000  0.11755000  0.81755000  1.0
  C  C156  1  0.29638000  0.95089000  0.23935000  1.0
  C  C157  1  0.34551000  0.28857000  0.04924000  1.0
  C  C158  1  0.05771000  0.76059000  0.71145000  1.0
  C  C159  1  0.65449000  0.71143000  0.95076000  1.0
  C  C160  1  0.94230000  0.23941000  0.28855000  1.0
  C  C161  1  0.70362000  0.04911000  0.76064000  1.0
  C  C162  1  0.40964000  0.95521000  0.29838000  1.0
  C  C163  1  0.45482000  0.34322000  0.04490000  1.0
  C  C164  1  0.11201000  0.70156000  0.65676000  1.0
  C  C165  1  0.54516000  0.65677000  0.95509000  1.0
  C  C166  1  0.88799000  0.29844000  0.34324000  1.0
  C  C167  1  0.59036000  0.04479000  0.70162000  1.0
  C  C168  1  0.42907000  0.89091000  0.29783000  1.0
  C  C169  1  0.53868000  0.40696000  0.10917000  1.0
  C  C170  1  0.13194000  0.70212000  0.59303000  1.0
  C  C171  1  0.46132000  0.59304000  0.89083000  1.0
  C  C172  1  0.86806000  0.29788000  0.40697000  1.0
  C  C173  1  0.57093000  0.10909000  0.70217000  1.0
  N  N174  1  0.48518000  0.75907000  0.37770000  1.0
  N  N175  1  0.72592000  0.61868000  0.24099000  1.0
  N  N176  1  0.10760000  0.62228000  0.38130000  1.0
  N  N177  1  0.27408000  0.38132000  0.75901000  1.0
  N  N178  1  0.89240000  0.37772000  0.61870000  1.0
  N  N179  1  0.51481000  0.24093000  0.62230000  1.0
  N  N180  1  0.69413000  0.79346000  0.16449000  1.0
  N  N181  1  0.90088000  0.37116000  0.20664000  1.0
  N  N182  1  0.52968000  0.83558000  0.62888000  1.0
  N  N183  1  0.09912000  0.62884000  0.79336000  1.0
  N  N184  1  0.47032000  0.16442000  0.37111000  1.0
  N  N185  1  0.30587000  0.20654000  0.83551000  1.0
  N  N186  1  0.65261000  0.39138000  0.84949000  1.0
  N  N187  1  0.26137000  0.45795000  0.60854000  1.0
  N  N188  1  0.80317000  0.15051000  0.54198000  1.0
  N  N189  1  0.73863000  0.54205000  0.39146000  1.0
  N  N190  1  0.19683000  0.84949000  0.45802000  1.0
  N  N191  1  0.34739000  0.60862000  0.15051000  1.0
  N  N192  1  0.34255000  0.82440000  0.24269000  1.0
  N  N193  1  0.51856000  0.41834000  0.17566000  1.0
  N  N194  1  0.10039000  0.75726000  0.58167000  1.0
  N  N195  1  0.48144000  0.58166000  0.82434000  1.0
  N  N196  1  0.89961000  0.24274000  0.41833000  1.0
  N  N197  1  0.65745000  0.17560000  0.75730000  1.0
  O  O198  1  0.60326000  0.79061000  0.35840000  1.0
  O  O199  1  0.81239000  0.56782000  0.20945000  1.0
  O  O200  1  0.24491000  0.64154000  0.43212000  1.0
  O  O201  1  0.18761000  0.43218000  0.79055000  1.0
  O  O202  1  0.75509000  0.35846000  0.56788000  1.0
  O  O203  1  0.39674000  0.20939000  0.64160000  1.0
  O  O204  1  0.51296000  0.77066000  0.44236000  1.0
  O  O205  1  0.74218000  0.67177000  0.22940000  1.0
  O  O206  1  0.07060000  0.55761000  0.32821000  1.0
  O  O207  1  0.25782000  0.32823000  0.77060000  1.0
  O  O208  1  0.92940000  0.44239000  0.67179000  1.0
  O  O209  1  0.48704000  0.22934000  0.55764000  1.0
  O  O210  1  0.34386000  0.71742000  0.33166000  1.0
  O  O211  1  0.62626000  0.61428000  0.28264000  1.0
  O  O212  1  0.01247000  0.66838000  0.38570000  1.0
  O  O213  1  0.37374000  0.38572000  0.71736000  1.0
  O  O214  1  0.98753000  0.33162000  0.61430000  1.0
  O  O215  1  0.65613000  0.28258000  0.66834000  1.0
  O  O216  1  0.56285000  0.73784000  0.12716000  1.0
  O  O217  1  0.82516000  0.38943000  0.26224000  1.0
  O  O218  1  0.43535000  0.87282000  0.61062000  1.0
  O  O219  1  0.17484000  0.61057000  0.73776000  1.0
  O  O220  1  0.56465000  0.12718000  0.38938000  1.0
  O  O221  1  0.43716000  0.26217000  0.87284000  1.0
  O  O222  1  0.77255000  0.82335000  0.13495000  1.0
  O  O223  1  0.94941000  0.31173000  0.17678000  1.0
  O  O224  1  0.63775000  0.86522000  0.68828000  1.0
  O  O225  1  0.05059000  0.68827000  0.82322000  1.0
  O  O226  1  0.36225000  0.13478000  0.31172000  1.0
  O  O227  1  0.22744000  0.17665000  0.86505000  1.0
  O  O228  1  0.73807000  0.81650000  0.23302000  1.0
  O  O229  1  0.92184000  0.41667000  0.18360000  1.0
  O  O230  1  0.50537000  0.76704000  0.58343000  1.0
  O  O231  1  0.07816000  0.58333000  0.81640000  1.0
  O  O232  1  0.49462000  0.23296000  0.41657000  1.0
  O  O233  1  0.26192000  0.18350000  0.76698000  1.0
