# generated using pymatgen
data_ZnH10C12Br2(NO)2
_symmetry_space_group_name_H-M   'P 1'
_cell_length_a   9.22827000
_cell_length_b   11.25510000
_cell_length_c   16.02300000
_cell_angle_alpha   69.92050000
_cell_angle_beta   73.27270000
_cell_angle_gamma   65.80660000
_symmetry_Int_Tables_number   1
_chemical_formula_structural   ZnH10C12Br2(NO)2
_chemical_formula_sum   'Zn4 H40 C48 Br8 N8 O8'
_cell_volume   1404.60595960
_cell_formula_units_Z   4
loop_
 _symmetry_equiv_pos_site_id
 _symmetry_equiv_pos_as_xyz
  1  'x, y, z'
loop_
 _atom_site_type_symbol
 _atom_site_label
 _atom_site_symmetry_multiplicity
 _atom_site_fract_x
 _atom_site_fract_y
 _atom_site_fract_z
 _atom_site_occupancy
  Zn  Zn0  1  0.10308000  0.67296000  0.95901000  1.0
  Zn  Zn1  1  0.73511000  0.82692000  0.54087000  1.0
  Zn  Zn2  1  0.89692000  0.32704000  0.04099000  1.0
  Zn  Zn3  1  0.26488000  0.17308000  0.45913000  1.0
  H  H4  1  0.39024000  0.35315000  0.17003000  1.0
  H  H5  1  0.91374000  0.14633000  0.32977000  1.0
  H  H6  1  0.60975000  0.64684000  0.82998000  1.0
  H  H7  1  0.08627000  0.85367000  0.67023000  1.0
  H  H8  1  0.19300000  0.38963000  0.23766000  1.0
  H  H9  1  0.82058000  0.10986000  0.26214000  1.0
  H  H10  1  0.80700000  0.61037000  0.76235000  1.0
  H  H11  1  0.17942000  0.89014000  0.73785000  1.0
  H  H12  1  0.11000000  0.57905000  0.30750000  1.0
  H  H13  1  0.99708000  0.92035000  0.19228000  1.0
  H  H14  1  0.89000000  0.42095000  0.69250000  1.0
  H  H15  1  0.00293000  0.07965000  0.80772000  1.0
  H  H16  1  0.58461000  0.36656000  0.21211000  1.0
  H  H17  1  0.16336000  0.13315000  0.28775000  1.0
  H  H18  1  0.41539000  0.63344000  0.78789000  1.0
  H  H19  1  0.83664000  0.86685000  0.71225000  1.0
  H  H20  1  0.19360000  0.67392000  0.39569000  1.0
  H  H21  1  0.26382000  0.82556000  0.10418000  1.0
  H  H22  1  0.80640000  0.32608000  0.60430000  1.0
  H  H23  1  0.73619000  0.17444000  0.89582000  1.0
  H  H24  1  0.69038000  0.44894000  0.29644000  1.0
  H  H25  1  0.43589000  0.05087000  0.20351000  1.0
  H  H26  1  0.30962000  0.55106000  0.70356000  1.0
  H  H27  1  0.56412000  0.94914000  0.79649000  1.0
  H  H28  1  0.28384000  0.73469000  0.47488000  1.0
  H  H29  1  0.49394000  0.76518000  0.02501000  1.0
  H  H30  1  0.71616000  0.26530000  0.52512000  1.0
  H  H31  1  0.50607000  0.23482000  0.97499000  1.0
  H  H32  1  0.76695000  0.55130000  0.33786000  1.0
  H  H33  1  0.65648000  0.94847000  0.16225000  1.0
  H  H34  1  0.23305000  0.44870000  0.66214000  1.0
  H  H35  1  0.34352000  0.05154000  0.83775000  1.0
  H  H36  1  0.40453000  0.83082000  0.54292000  1.0
  H  H37  1  0.77872000  0.66904000  0.95703000  1.0
  H  H38  1  0.59546000  0.16918000  0.45708000  1.0
  H  H39  1  0.22129000  0.33096000  0.04297000  1.0
  H  H40  1  0.86652000  0.64520000  0.41874000  1.0
  H  H41  1  0.93083000  0.85471000  0.08128000  1.0
  H  H42  1  0.13347000  0.35481000  0.58126000  1.0
  H  H43  1  0.06917000  0.14529000  0.91873000  1.0
  C  C44  1  0.21567000  0.55345000  0.12224000  1.0
  C  C45  1  0.89188000  0.94602000  0.37752000  1.0
  C  C46  1  0.78433000  0.44654000  0.87777000  1.0
  C  C47  1  0.10812000  0.05398000  0.62247000  1.0
  C  C48  1  0.28870000  0.43113000  0.19759000  1.0
  C  C49  1  0.91776000  0.06836000  0.30218000  1.0
  C  C50  1  0.71130000  0.56886000  0.80241000  1.0
  C  C51  1  0.08224000  0.93164000  0.69782000  1.0
  C  C52  1  0.23615000  0.55457000  0.30829000  1.0
  C  C53  1  0.09947000  0.94493000  0.19151000  1.0
  C  C54  1  0.76384000  0.44542000  0.69171000  1.0
  C  C55  1  0.90054000  0.05507000  0.80849000  1.0
  C  C56  1  0.50446000  0.43397000  0.25449000  1.0
  C  C57  1  0.19309000  0.06568000  0.24538000  1.0
  C  C58  1  0.49554000  0.56602000  0.74552000  1.0
  C  C59  1  0.80692000  0.93432000  0.75462000  1.0
  C  C60  1  0.28707000  0.60599000  0.35723000  1.0
  C  C61  1  0.25080000  0.89351000  0.14265000  1.0
  C  C62  1  0.71293000  0.39400000  0.64277000  1.0
  C  C63  1  0.74920000  0.10649000  0.85735000  1.0
  C  C64  1  0.56023000  0.48244000  0.30241000  1.0
  C  C65  1  0.34529000  0.01730000  0.19748000  1.0
  C  C66  1  0.43976000  0.51756000  0.69759000  1.0
  C  C67  1  0.65472000  0.98271000  0.80252000  1.0
  C  C68  1  0.45253000  0.57355000  0.35340000  1.0
  C  C69  1  0.37989000  0.92611000  0.14653000  1.0
  C  C70  1  0.54747000  0.42645000  0.64660000  1.0
  C  C71  1  0.62012000  0.07389000  0.85347000  1.0
  C  C72  1  0.51450000  0.63272000  0.39896000  1.0
  C  C73  1  0.54662000  0.86706000  0.10104000  1.0
  C  C74  1  0.48550000  0.36728000  0.60104000  1.0
  C  C75  1  0.45339000  0.13294000  0.89896000  1.0
  C  C76  1  0.41384000  0.71279000  0.45833000  1.0
  C  C77  1  0.58546000  0.78704000  0.04162000  1.0
  C  C78  1  0.58616000  0.28721000  0.54167000  1.0
  C  C79  1  0.41455000  0.21297000  0.95837000  1.0
  C  C80  1  0.68023000  0.61041000  0.38359000  1.0
  C  C81  1  0.67465000  0.88939000  0.11647000  1.0
  C  C82  1  0.31977000  0.38958000  0.61641000  1.0
  C  C83  1  0.32535000  0.11061000  0.88353000  1.0
  C  C84  1  0.48064000  0.76532000  0.49862000  1.0
  C  C85  1  0.74502000  0.73457000  0.00133000  1.0
  C  C86  1  0.51935000  0.23468000  0.50138000  1.0
  C  C87  1  0.25499000  0.26543000  0.99867000  1.0
  C  C88  1  0.73849000  0.66302000  0.42815000  1.0
  C  C89  1  0.83004000  0.83689000  0.07185000  1.0
  C  C90  1  0.26151000  0.33699000  0.57184000  1.0
  C  C91  1  0.16997000  0.16311000  0.92815000  1.0
  Br  Br92  1  0.08049000  0.59678000  0.84272000  1.0
  Br  Br93  1  0.52050000  0.90351000  0.65717000  1.0
  Br  Br94  1  0.91951000  0.40323000  0.15728000  1.0
  Br  Br95  1  0.47950000  0.09648000  0.34283000  1.0
  Br  Br96  1  0.25817000  0.82134000  0.90286000  1.0
  Br  Br97  1  0.98251000  0.67909000  0.59713000  1.0
  Br  Br98  1  0.74183000  0.17867000  0.09713000  1.0
  Br  Br99  1  0.01748000  0.32091000  0.40288000  1.0
  N  N100  1  0.86563000  0.75990000  0.01541000  1.0
  N  N101  1  0.64066000  0.73998000  0.48460000  1.0
  N  N102  1  0.13438000  0.24010000  0.98460000  1.0
  N  N103  1  0.35933000  0.26003000  0.51539000  1.0
  N  N104  1  0.34428000  0.47150000  0.25687000  1.0
  N  N105  1  0.07293000  0.02810000  0.24290000  1.0
  N  N106  1  0.65571000  0.52849000  0.74314000  1.0
  N  N107  1  0.92707000  0.97190000  0.75709000  1.0
  O  O108  1  0.22568000  0.52166000  0.05048000  1.0
  O  O109  1  0.79789000  0.97796000  0.44914000  1.0
  O  O110  1  0.77433000  0.47834000  0.94952000  1.0
  O  O111  1  0.20210000  0.02205000  0.55086000  1.0
  O  O112  1  0.15041000  0.66748000  0.13657000  1.0
  O  O113  1  0.95541000  0.83191000  0.36333000  1.0
  O  O114  1  0.84959000  0.33251000  0.86344000  1.0
  O  O115  1  0.04459000  0.16809000  0.63667000  1.0
