# generated using pymatgen
data_GdH14C17NO7
_symmetry_space_group_name_H-M   'P 1'
_cell_length_a   6.38965000
_cell_length_b   16.59060000
_cell_length_c   24.19430000
_cell_angle_alpha   89.99990000
_cell_angle_beta   88.64080000
_cell_angle_gamma   89.99950000
_symmetry_Int_Tables_number   1
_chemical_formula_structural   GdH14C17NO7
_chemical_formula_sum   'Gd4 H56 C68 N4 O28'
_cell_volume   2564.07078945
_cell_formula_units_Z   4
loop_
 _symmetry_equiv_pos_site_id
 _symmetry_equiv_pos_as_xyz
  1  'x, y, z'
loop_
 _atom_site_type_symbol
 _atom_site_label
 _atom_site_symmetry_multiplicity
 _atom_site_fract_x
 _atom_site_fract_y
 _atom_site_fract_z
 _atom_site_occupancy
  Gd  Gd0  1  0.26346000  0.93655000  0.97815000  1.0
  Gd  Gd1  1  0.73654000  0.43655000  0.52185000  1.0
  Gd  Gd2  1  0.73653000  0.06344000  0.02185000  1.0
  Gd  Gd3  1  0.26346000  0.56344000  0.47815000  1.0
  H  H4  1  0.63906000  0.22205000  0.17971000  1.0
  H  H5  1  0.36093000  0.72205000  0.32029000  1.0
  H  H6  1  0.36092000  0.77796000  0.82028000  1.0
  H  H7  1  0.63908000  0.27795000  0.67972000  1.0
  H  H8  1  0.01104000  0.16311000  0.23656000  1.0
  H  H9  1  0.98896000  0.66312000  0.26344000  1.0
  H  H10  1  0.98894000  0.83689000  0.76344000  1.0
  H  H11  1  0.01106000  0.33689000  0.73656000  1.0
  H  H12  1  0.96139000  0.08354000  0.15121000  1.0
  H  H13  1  0.03862000  0.58355000  0.34880000  1.0
  H  H14  1  0.03859000  0.91645000  0.84879000  1.0
  H  H15  1  0.96140000  0.41645000  0.65121000  1.0
  H  H16  1  0.05368000  0.30318000  0.26203000  1.0
  H  H17  1  0.94632000  0.80318000  0.23797000  1.0
  H  H18  1  0.94632000  0.69683000  0.73797000  1.0
  H  H19  1  0.05369000  0.19683000  0.76203000  1.0
  H  H20  1  0.73337000  0.29588000  0.35706000  1.0
  H  H21  1  0.26662000  0.79589000  0.14295000  1.0
  H  H22  1  0.26663000  0.70411000  0.64294000  1.0
  H  H23  1  0.73338000  0.20411000  0.85706000  1.0
  H  H24  1  0.67762000  0.20630000  0.27600000  1.0
  H  H25  1  0.32237000  0.70631000  0.22400000  1.0
  H  H26  1  0.32238000  0.79370000  0.72400000  1.0
  H  H27  1  0.67763000  0.29369000  0.77600000  1.0
  H  H28  1  0.12238000  0.77950000  0.07119000  1.0
  H  H29  1  0.87764000  0.27950000  0.42882000  1.0
  H  H30  1  0.87764000  0.22050000  0.92882000  1.0
  H  H31  1  0.12234000  0.72048000  0.57119000  1.0
  H  H32  1  0.97750000  0.68225000  0.11682000  1.0
  H  H33  1  0.02250000  0.18226000  0.38318000  1.0
  H  H34  1  0.02247000  0.31774000  0.88319000  1.0
  H  H35  1  0.97749000  0.81773000  0.61682000  1.0
  H  H36  1  0.84444000  0.60990000  0.07552000  1.0
  H  H37  1  0.15556000  0.10990000  0.42447000  1.0
  H  H38  1  0.15554000  0.39010000  0.92448000  1.0
  H  H39  1  0.84445000  0.89009000  0.57553000  1.0
  H  H40  1  0.69870000  0.68174000  0.11618000  1.0
  H  H41  1  0.30130000  0.18174000  0.38381000  1.0
  H  H42  1  0.30127000  0.31826000  0.88382000  1.0
  H  H43  1  0.69869000  0.81825000  0.61619000  1.0
  H  H44  1  0.70680000  0.76974000  0.97284000  1.0
  H  H45  1  0.29325000  0.26974000  0.52715000  1.0
  H  H46  1  0.29321000  0.23026000  0.02716000  1.0
  H  H47  1  0.70678000  0.73026000  0.47284000  1.0
  H  H48  1  0.52944000  0.73892000  0.02702000  1.0
  H  H49  1  0.47059000  0.23892000  0.47296000  1.0
  H  H50  1  0.47056000  0.26109000  0.97298000  1.0
  H  H51  1  0.52942000  0.76109000  0.52702000  1.0
  H  H52  1  0.67015000  0.66470000  0.98715000  1.0
  H  H53  1  0.32990000  0.16470000  0.51284000  1.0
  H  H54  1  0.32986000  0.33530000  0.01285000  1.0
  H  H55  1  0.67014000  0.83530000  0.48715000  1.0
  H  H56  1  0.13088000  0.43388000  0.37460000  1.0
  H  H57  1  0.86910000  0.93389000  0.12540000  1.0
  H  H58  1  0.86913000  0.56611000  0.62540000  1.0
  H  H59  1  0.13088000  0.06611000  0.87460000  1.0
  C  C60  1  0.23040000  0.05987000  0.06772000  1.0
  C  C61  1  0.76960000  0.55987000  0.43228000  1.0
  C  C62  1  0.76959000  0.94012000  0.93227000  1.0
  C  C63  1  0.23041000  0.44012000  0.56772000  1.0
  C  C64  1  0.26997000  0.10682000  0.11708000  1.0
  C  C65  1  0.73002000  0.60683000  0.38293000  1.0
  C  C66  1  0.73001000  0.89318000  0.88292000  1.0
  C  C67  1  0.27000000  0.39318000  0.61708000  1.0
  C  C68  1  0.46836000  0.14584000  0.12510000  1.0
  C  C69  1  0.53165000  0.64585000  0.37490000  1.0
  C  C70  1  0.53162000  0.85416000  0.87489000  1.0
  C  C71  1  0.46838000  0.35416000  0.62511000  1.0
  C  C72  1  0.49030000  0.19107000  0.17436000  1.0
  C  C73  1  0.50969000  0.69108000  0.32564000  1.0
  C  C74  1  0.50968000  0.80893000  0.82563000  1.0
  C  C75  1  0.49033000  0.30893000  0.67436000  1.0
  C  C76  1  0.32929000  0.19835000  0.21382000  1.0
  C  C77  1  0.67071000  0.69836000  0.28619000  1.0
  C  C78  1  0.67069000  0.80165000  0.78618000  1.0
  C  C79  1  0.32931000  0.30165000  0.71382000  1.0
  C  C80  1  0.13604000  0.15915000  0.20523000  1.0
  C  C81  1  0.86395000  0.65915000  0.29477000  1.0
  C  C82  1  0.86393000  0.84086000  0.79476000  1.0
  C  C83  1  0.13607000  0.34086000  0.70523000  1.0
  C  C84  1  0.10930000  0.11425000  0.15786000  1.0
  C  C85  1  0.89070000  0.61426000  0.34214000  1.0
  C  C86  1  0.89069000  0.88575000  0.84214000  1.0
  C  C87  1  0.10931000  0.38575000  0.65786000  1.0
  C  C88  1  0.36102000  0.24800000  0.26360000  1.0
  C  C89  1  0.63897000  0.74801000  0.23640000  1.0
  C  C90  1  0.63897000  0.75200000  0.73639000  1.0
  C  C91  1  0.36103000  0.25200000  0.76361000  1.0
  C  C92  1  0.20212000  0.29910000  0.28320000  1.0
  C  C93  1  0.79787000  0.79911000  0.21680000  1.0
  C  C94  1  0.79787000  0.70090000  0.71680000  1.0
  C  C95  1  0.20213000  0.20090000  0.78320000  1.0
  C  C96  1  0.23292000  0.34991000  0.32866000  1.0
  C  C97  1  0.76707000  0.84991000  0.17134000  1.0
  C  C98  1  0.76708000  0.65009000  0.67134000  1.0
  C  C99  1  0.23292000  0.15009000  0.82866000  1.0
  C  C100  1  0.42594000  0.34726000  0.35676000  1.0
  C  C101  1  0.57405000  0.84726000  0.14324000  1.0
  C  C102  1  0.57406000  0.65274000  0.64324000  1.0
  C  C103  1  0.42594000  0.15274000  0.85676000  1.0
  C  C104  1  0.58341000  0.29514000  0.33663000  1.0
  C  C105  1  0.41658000  0.79514000  0.16337000  1.0
  C  C106  1  0.41659000  0.70486000  0.66337000  1.0
  C  C107  1  0.58342000  0.20486000  0.83663000  1.0
  C  C108  1  0.55376000  0.24642000  0.29095000  1.0
  C  C109  1  0.44623000  0.74643000  0.20905000  1.0
  C  C110  1  0.44624000  0.75358000  0.70905000  1.0
  C  C111  1  0.55378000  0.25357000  0.79095000  1.0
  C  C112  1  0.45988000  0.39831000  0.40605000  1.0
  C  C113  1  0.54012000  0.89831000  0.09395000  1.0
  C  C114  1  0.54013000  0.60169000  0.59395000  1.0
  C  C115  1  0.45988000  0.10169000  0.90605000  1.0
  C  C116  1  0.00435000  0.78172000  0.03875000  1.0
  C  C117  1  0.99568000  0.28173000  0.46125000  1.0
  C  C118  1  0.99566000  0.21827000  0.96125000  1.0
  C  C119  1  0.00432000  0.71827000  0.53875000  1.0
  C  C120  1  0.84167000  0.67237000  0.09079000  1.0
  C  C121  1  0.15833000  0.17237000  0.40921000  1.0
  C  C122  1  0.15831000  0.32763000  0.90922000  1.0
  C  C123  1  0.84167000  0.82762000  0.59079000  1.0
  C  C124  1  0.67854000  0.72520000  0.00548000  1.0
  C  C125  1  0.32150000  0.22520000  0.49451000  1.0
  C  C126  1  0.32147000  0.27480000  0.99452000  1.0
  C  C127  1  0.67852000  0.77480000  0.50549000  1.0
  N  N128  1  0.84867000  0.72839000  0.04446000  1.0
  N  N129  1  0.15136000  0.22840000  0.45554000  1.0
  N  N130  1  0.15133000  0.27161000  0.95555000  1.0
  N  N131  1  0.84865000  0.77160000  0.54446000  1.0
  O  O132  1  0.05493000  0.02354000  0.06017000  1.0
  O  O133  1  0.94507000  0.52353000  0.43983000  1.0
  O  O134  1  0.94505000  0.97646000  0.93983000  1.0
  O  O135  1  0.05495000  0.47646000  0.56017000  1.0
  O  O136  1  0.37286000  0.05176000  0.02941000  1.0
  O  O137  1  0.62713000  0.55175000  0.47059000  1.0
  O  O138  1  0.62712000  0.94824000  0.97059000  1.0
  O  O139  1  0.37288000  0.44824000  0.52941000  1.0
  O  O140  1  0.61242000  0.38297000  0.43741000  1.0
  O  O141  1  0.38757000  0.88297000  0.06259000  1.0
  O  O142  1  0.38758000  0.61703000  0.56259000  1.0
  O  O143  1  0.61242000  0.11703000  0.93741000  1.0
  O  O144  1  0.32709000  0.45566000  0.41457000  1.0
  O  O145  1  0.67291000  0.95566000  0.08543000  1.0
  O  O146  1  0.67293000  0.54434000  0.58542000  1.0
  O  O147  1  0.32707000  0.04434000  0.91458000  1.0
  O  O148  1  0.62679000  0.14253000  0.08972000  1.0
  O  O149  1  0.37322000  0.64253000  0.41029000  1.0
  O  O150  1  0.37318000  0.85748000  0.91027000  1.0
  O  O151  1  0.62681000  0.35747000  0.58972000  1.0
  O  O152  1  0.07422000  0.39908000  0.34426000  1.0
  O  O153  1  0.92576000  0.89908000  0.15574000  1.0
  O  O154  1  0.92577000  0.60092000  0.65574000  1.0
  O  O155  1  0.07423000  0.10092000  0.84426000  1.0
  O  O156  1  0.02040000  0.83172000  0.00007000  1.0
  O  O157  1  0.97964000  0.33172000  0.49993000  1.0
  O  O158  1  0.97962000  0.16827000  0.99993000  1.0
  O  O159  1  0.02036000  0.66827000  0.50008000  1.0
