# generated using pymatgen
data_Tb2U3H26(C3O4)10
_symmetry_space_group_name_H-M   'P 1'
_cell_length_a   10.55690000
_cell_length_b   11.45980000
_cell_length_c   13.43060000
_cell_angle_alpha   69.04630000
_cell_angle_beta   78.55740000
_cell_angle_gamma   63.11120000
_symmetry_Int_Tables_number   1
_chemical_formula_structural   Tb2U3H26(C3O4)10
_chemical_formula_sum   'Tb2 U3 H26 C30 O40'
_cell_volume   1352.02144918
_cell_formula_units_Z   1
loop_
 _symmetry_equiv_pos_site_id
 _symmetry_equiv_pos_as_xyz
  1  'x, y, z'
loop_
 _atom_site_type_symbol
 _atom_site_label
 _atom_site_symmetry_multiplicity
 _atom_site_fract_x
 _atom_site_fract_y
 _atom_site_fract_z
 _atom_site_occupancy
  Tb  Tb0  1  0.58446000  0.24864000  0.74277000  1.0
  Tb  Tb1  1  0.41554000  0.75136000  0.25723000  1.0
  U  U2  1  0.61989000  0.71549000  0.84110000  1.0
  U  U3  1  0.38011000  0.28451000  0.15890000  1.0
  U  U4  1  0.99999000  0.50000000  0.49999000  1.0
  H  H5  1  0.65452000  0.21144000  0.53230000  1.0
  H  H6  1  0.34548000  0.78856000  0.46771000  1.0
  H  H7  1  0.71623000  0.06269000  0.61967000  1.0
  H  H8  1  0.28376000  0.93731000  0.38033000  1.0
  H  H9  1  0.55239000  0.52645000  0.59036000  1.0
  H  H10  1  0.44761000  0.47356000  0.40964000  1.0
  H  H11  1  0.71613000  0.41733000  0.59653000  1.0
  H  H12  1  0.28387000  0.58267000  0.40347000  1.0
  H  H13  1  0.37620000  0.47120000  0.58049000  1.0
  H  H14  1  0.62380000  0.52881000  0.41951000  1.0
  H  H15  1  0.27022000  0.41332000  0.65273000  1.0
  H  H16  1  0.72978000  0.58668000  0.34727000  1.0
  H  H17  1  0.49669000  0.52156000  0.78593000  1.0
  H  H18  1  0.50331000  0.47844000  0.21407000  1.0
  H  H19  1  0.49429000  0.41006000  0.89818000  1.0
  H  H20  1  0.50571000  0.58994000  0.10182000  1.0
  H  H21  1  0.73395000  0.93924000  0.87040000  1.0
  H  H22  1  0.26605000  0.06076000  0.12960000  1.0
  H  H23  1  0.83444000  0.01671000  0.85343000  1.0
  H  H24  1  0.16556000  0.98329000  0.14657000  1.0
  H  H25  1  0.09130000  0.36960000  0.96846000  1.0
  H  H26  1  0.90870000  0.63039000  0.03154000  1.0
  H  H27  1  0.15438000  0.10957000  0.72220000  1.0
  H  H28  1  0.84562000  0.89043000  0.27780000  1.0
  H  H29  1  0.72930000  0.00107000  0.41208000  1.0
  H  H30  1  0.27070000  0.99893000  0.58793000  1.0
  C  C31  1  0.99114000  0.34329000  0.85852000  1.0
  C  C32  1  0.00886000  0.65672000  0.14148000  1.0
  C  C33  1  0.10637000  0.31263000  0.91394000  1.0
  C  C34  1  0.89363000  0.68737000  0.08606000  1.0
  C  C35  1  0.24150000  0.21616000  0.89513000  1.0
  C  C36  1  0.75849000  0.78383000  0.10487000  1.0
  C  C37  1  0.25916000  0.14615000  0.82243000  1.0
  C  C38  1  0.74084000  0.85385000  0.17757000  1.0
  C  C39  1  0.14054000  0.16734000  0.77556000  1.0
  C  C40  1  0.85945000  0.83266000  0.22444000  1.0
  C  C41  1  0.00683000  0.26772000  0.79078000  1.0
  C  C42  1  0.99317000  0.73228000  0.20922000  1.0
  C  C43  1  0.62769000  0.00199000  0.45015000  1.0
  C  C44  1  0.37231000  0.99802000  0.54985000  1.0
  C  C45  1  0.62135000  0.87602000  0.50795000  1.0
  C  C46  1  0.37865000  0.12398000  0.49206000  1.0
  C  C47  1  0.49190000  0.87390000  0.55879000  1.0
  C  C48  1  0.50810000  0.12610000  0.44121000  1.0
  C  C49  1  0.85718000  0.46389000  0.86436000  1.0
  C  C50  1  0.14283000  0.53611000  0.13564000  1.0
  C  C51  1  0.36042000  0.19157000  0.95540000  1.0
  C  C52  1  0.63958000  0.80843000  0.04460000  1.0
  C  C53  1  0.40160000  0.04844000  0.79139000  1.0
  C  C54  1  0.59841000  0.95155000  0.20861000  1.0
  C  C55  1  0.88689000  0.29390000  0.72936000  1.0
  C  C56  1  0.11310000  0.70609000  0.27064000  1.0
  C  C57  1  0.47516000  0.74304000  0.62205000  1.0
  C  C58  1  0.52483000  0.25696000  0.37795000  1.0
  C  C59  1  0.75273000  0.74721000  0.51266000  1.0
  C  C60  1  0.24727000  0.25279000  0.48734000  1.0
  O  O61  1  0.52860000  0.63737000  0.95605000  1.0
  O  O62  1  0.47140000  0.36263000  0.04395000  1.0
  O  O63  1  0.71439000  0.79338000  0.73067000  1.0
  O  O64  1  0.28561000  0.20663000  0.26932000  1.0
  O  O65  1  0.08457000  0.48828000  0.61109000  1.0
  O  O66  1  0.91543000  0.51172000  0.38892000  1.0
  O  O67  1  0.84561000  0.54021000  0.91887000  1.0
  O  O68  1  0.15440000  0.45979000  0.08112000  1.0
  O  O69  1  0.75382000  0.49687000  0.80880000  1.0
  O  O70  1  0.24619000  0.50313000  0.19120000  1.0
  O  O71  1  0.80322000  0.23747000  0.77551000  1.0
  O  O72  1  0.19678000  0.76253000  0.22449000  1.0
  O  O73  1  0.88151000  0.36458000  0.63067000  1.0
  O  O74  1  0.11849000  0.63542000  0.36933000  1.0
  O  O75  1  0.41596000  0.92498000  0.81339000  1.0
  O  O76  1  0.58404000  0.07501000  0.18661000  1.0
  O  O77  1  0.49448000  0.09198000  0.74410000  1.0
  O  O78  1  0.50551000  0.90802000  0.25590000  1.0
  O  O79  1  0.47942000  0.18316000  0.91174000  1.0
  O  O80  1  0.52058000  0.81684000  0.08826000  1.0
  O  O81  1  0.33049000  0.18183000  0.05564000  1.0
  O  O82  1  0.66951000  0.81817000  0.94436000  1.0
  O  O83  1  0.49760000  0.69346000  0.72217000  1.0
  O  O84  1  0.50241000  0.30654000  0.27783000  1.0
  O  O85  1  0.43106000  0.69076000  0.57592000  1.0
  O  O86  1  0.56893000  0.30925000  0.42409000  1.0
  O  O87  1  0.74842000  0.63018000  0.55727000  1.0
  O  O88  1  0.25158000  0.36982000  0.44272000  1.0
  O  O89  1  0.87006000  0.75245000  0.46924000  1.0
  O  O90  1  0.12993000  0.24756000  0.53075000  1.0
  O  O91  1  0.70453000  0.15725000  0.60170000  1.0
  O  O92  1  0.29546000  0.84275000  0.39830000  1.0
  O  O93  1  0.61687000  0.43023000  0.59128000  1.0
  O  O94  1  0.38313000  0.56977000  0.40872000  1.0
  O  O95  1  0.37025000  0.39983000  0.64629000  1.0
  O  O96  1  0.62975000  0.60018000  0.35371000  1.0
  O  O97  1  0.49791000  0.42903000  0.82007000  1.0
  O  O98  1  0.50209000  0.57097000  0.17993000  1.0
  O  O99  1  0.75451000  0.01938000  0.82574000  1.0
  O  O100  1  0.24549000  0.98062000  0.17426000  1.0
