# generated using pymatgen
data_AgH8C9N3O2
_symmetry_space_group_name_H-M   'P 1'
_cell_length_a   7.01386000
_cell_length_b   9.69961000
_cell_length_c   14.15660000
_cell_angle_alpha   94.88590000
_cell_angle_beta   89.99830000
_cell_angle_gamma   89.99930000
_symmetry_Int_Tables_number   1
_chemical_formula_structural   AgH8C9N3O2
_chemical_formula_sum   'Ag4 H32 C36 N12 O8'
_cell_volume   959.59803599
_cell_formula_units_Z   4
loop_
 _symmetry_equiv_pos_site_id
 _symmetry_equiv_pos_as_xyz
  1  'x, y, z'
loop_
 _atom_site_type_symbol
 _atom_site_label
 _atom_site_symmetry_multiplicity
 _atom_site_fract_x
 _atom_site_fract_y
 _atom_site_fract_z
 _atom_site_occupancy
  Ag  Ag0  1  0.55450000  0.68213000  0.02627000  1.0
  Ag  Ag1  1  0.05450000  0.31788000  0.47373000  1.0
  Ag  Ag2  1  0.44551000  0.31786000  0.97373000  1.0
  Ag  Ag3  1  0.94550000  0.68212000  0.52627000  1.0
  H  H4  1  0.23052000  0.25301000  0.15370000  1.0
  H  H5  1  0.73054000  0.74700000  0.34630000  1.0
  H  H6  1  0.76948000  0.74698000  0.84630000  1.0
  H  H7  1  0.26945000  0.25301000  0.65370000  1.0
  H  H8  1  0.43483000  0.45909000  0.19871000  1.0
  H  H9  1  0.93488000  0.54093000  0.30129000  1.0
  H  H10  1  0.56518000  0.54090000  0.80129000  1.0
  H  H11  1  0.06513000  0.45909000  0.69871000  1.0
  H  H12  1  0.31839000  0.69725000  0.18988000  1.0
  H  H13  1  0.81846000  0.30276000  0.31012000  1.0
  H  H14  1  0.68161000  0.30274000  0.81012000  1.0
  H  H15  1  0.18156000  0.69725000  0.68988000  1.0
  H  H16  1  0.98544000  0.74199000  0.13346000  1.0
  H  H17  1  0.48550000  0.25802000  0.36653000  1.0
  H  H18  1  0.01457000  0.25801000  0.86654000  1.0
  H  H19  1  0.51452000  0.74199000  0.63346000  1.0
  H  H20  1  0.98117000  0.11225000  0.05795000  1.0
  H  H21  1  0.48117000  0.88775000  0.44205000  1.0
  H  H22  1  0.01882000  0.88774000  0.94206000  1.0
  H  H23  1  0.51881000  0.11226000  0.55795000  1.0
  H  H24  1  0.76397000  0.13005000  0.99701000  1.0
  H  H25  1  0.26397000  0.86994000  0.50299000  1.0
  H  H26  1  0.23603000  0.86994000  0.00299000  1.0
  H  H27  1  0.73602000  0.13006000  0.49700000  1.0
  H  H28  1  0.59473000  0.14905000  0.16243000  1.0
  H  H29  1  0.09474000  0.85097000  0.33759000  1.0
  H  H30  1  0.40525000  0.85096000  0.83758000  1.0
  H  H31  1  0.90525000  0.14903000  0.66241000  1.0
  H  H32  1  0.80863000  0.08423000  0.20864000  1.0
  H  H33  1  0.30863000  0.91578000  0.29137000  1.0
  H  H34  1  0.19136000  0.91577000  0.79137000  1.0
  H  H35  1  0.69136000  0.08422000  0.70863000  1.0
  C  C36  1  0.99499000  0.38489000  0.11616000  1.0
  C  C37  1  0.49501000  0.61511000  0.38383000  1.0
  C  C38  1  0.00502000  0.61510000  0.88384000  1.0
  C  C39  1  0.50499000  0.38490000  0.61617000  1.0
  C  C40  1  0.17888000  0.35806000  0.14898000  1.0
  C  C41  1  0.67890000  0.64195000  0.35102000  1.0
  C  C42  1  0.82114000  0.64194000  0.85102000  1.0
  C  C43  1  0.32110000  0.35806000  0.64898000  1.0
  C  C44  1  0.28978000  0.47387000  0.17467000  1.0
  C  C45  1  0.78982000  0.52614000  0.32534000  1.0
  C  C46  1  0.71024000  0.52612000  0.82533000  1.0
  C  C47  1  0.21019000  0.47388000  0.67466000  1.0
  C  C48  1  0.22259000  0.61111000  0.16986000  1.0
  C  C49  1  0.72263000  0.38890000  0.33013000  1.0
  C  C50  1  0.77742000  0.38889000  0.83013000  1.0
  C  C51  1  0.27736000  0.61111000  0.66987000  1.0
  C  C52  1  0.03998000  0.63764000  0.13866000  1.0
  C  C53  1  0.54001000  0.36237000  0.36134000  1.0
  C  C54  1  0.96003000  0.36236000  0.86133000  1.0
  C  C55  1  0.45999000  0.63764000  0.63866000  1.0
  C  C56  1  0.92648000  0.52164000  0.11154000  1.0
  C  C57  1  0.42651000  0.47837000  0.38846000  1.0
  C  C58  1  0.07353000  0.47835000  0.88846000  1.0
  C  C59  1  0.57350000  0.52164000  0.61154000  1.0
  C  C60  1  0.83504000  0.15165000  0.06586000  1.0
  C  C61  1  0.33505000  0.84834000  0.43414000  1.0
  C  C62  1  0.16495000  0.84834000  0.93414000  1.0
  C  C63  1  0.66495000  0.15166000  0.56586000  1.0
  C  C64  1  0.72266000  0.08725000  0.14365000  1.0
  C  C65  1  0.22267000  0.91275000  0.35636000  1.0
  C  C66  1  0.27732000  0.91274000  0.85635000  1.0
  C  C67  1  0.77732000  0.08725000  0.64364000  1.0
  C  C68  1  0.65824000  0.94054000  0.11140000  1.0
  C  C69  1  0.15826000  0.05946000  0.38862000  1.0
  C  C70  1  0.34174000  0.05946000  0.88861000  1.0
  C  C71  1  0.84174000  0.94054000  0.61138000  1.0
  N  N72  1  0.84826000  0.30212000  0.08247000  1.0
  N  N73  1  0.34828000  0.69788000  0.41753000  1.0
  N  N74  1  0.15174000  0.69787000  0.91753000  1.0
  N  N75  1  0.65173000  0.30212000  0.58247000  1.0
  N  N76  1  0.69998000  0.38152000  0.05961000  1.0
  N  N77  1  0.20000000  0.61847000  0.44039000  1.0
  N  N78  1  0.30002000  0.61847000  0.94039000  1.0
  N  N79  1  0.80001000  0.38153000  0.55961000  1.0
  N  N80  1  0.74397000  0.51293000  0.07711000  1.0
  N  N81  1  0.24400000  0.48706000  0.42288000  1.0
  N  N82  1  0.25604000  0.48706000  0.92289000  1.0
  N  N83  1  0.75600000  0.51293000  0.57711000  1.0
  O  O84  1  0.52740000  0.88569000  0.15704000  1.0
  O  O85  1  0.02742000  0.11432000  0.34299000  1.0
  O  O86  1  0.47258000  0.11432000  0.84297000  1.0
  O  O87  1  0.97258000  0.88568000  0.65701000  1.0
  O  O88  1  0.74168000  0.88072000  0.03836000  1.0
  O  O89  1  0.24169000  0.11929000  0.46165000  1.0
  O  O90  1  0.25830000  0.11928000  0.96166000  1.0
  O  O91  1  0.75831000  0.88071000  0.53834000  1.0
