# generated using pymatgen
data_CsH4C4BrN2O3
_symmetry_space_group_name_H-M   'P 1'
_cell_length_a   9.08657000
_cell_length_b   9.15245000
_cell_length_c   10.38400000
_cell_angle_alpha   90.00000000
_cell_angle_beta   91.04470000
_cell_angle_gamma   90.00000000
_symmetry_Int_Tables_number   1
_chemical_formula_structural   CsH4C4BrN2O3
_chemical_formula_sum   'Cs4 H16 C16 Br4 N8 O12'
_cell_volume   863.43534871
_cell_formula_units_Z   4
loop_
 _symmetry_equiv_pos_site_id
 _symmetry_equiv_pos_as_xyz
  1  'x, y, z'
loop_
 _atom_site_type_symbol
 _atom_site_label
 _atom_site_symmetry_multiplicity
 _atom_site_fract_x
 _atom_site_fract_y
 _atom_site_fract_z
 _atom_site_occupancy
  Cs  Cs0  1  0.22594000  0.60555000  0.87058000  1.0
  Cs  Cs1  1  0.27406000  0.10555000  0.62942000  1.0
  Cs  Cs2  1  0.77406000  0.39445000  0.12942000  1.0
  Cs  Cs3  1  0.72594000  0.89445000  0.37058000  1.0
  H  H4  1  0.30051000  0.27631000  0.27210000  1.0
  H  H5  1  0.19949000  0.77631000  0.22790000  1.0
  H  H6  1  0.69949000  0.72369000  0.72789000  1.0
  H  H7  1  0.80051000  0.22370000  0.77210000  1.0
  H  H8  1  0.39740000  0.36909000  0.14956000  1.0
  H  H9  1  0.10260000  0.86909000  0.35044000  1.0
  H  H10  1  0.60260000  0.63091000  0.85043000  1.0
  H  H11  1  0.89740000  0.13092000  0.64957000  1.0
  H  H12  1  0.03451000  0.13277000  0.01185000  1.0
  H  H13  1  0.46549000  0.63277000  0.48815000  1.0
  H  H14  1  0.96549000  0.86723000  0.98815000  1.0
  H  H15  1  0.53451000  0.36723000  0.51185000  1.0
  H  H16  1  0.41140000  0.91233000  0.11592000  1.0
  H  H17  1  0.08859000  0.41233000  0.38408000  1.0
  H  H18  1  0.58860000  0.08767000  0.88408000  1.0
  H  H19  1  0.91141000  0.58768000  0.61592000  1.0
  C  C20  1  0.33300000  0.27054000  0.16998000  1.0
  C  C21  1  0.16700000  0.77054000  0.33002000  1.0
  C  C22  1  0.66700000  0.72946000  0.83002000  1.0
  C  C23  1  0.83300000  0.22946000  0.66998000  1.0
  C  C24  1  0.19192000  0.27285000  0.09260000  1.0
  C  C25  1  0.30808000  0.77285000  0.40740000  1.0
  C  C26  1  0.80808000  0.72715000  0.90740000  1.0
  C  C27  1  0.69192000  0.22715000  0.59260000  1.0
  C  C28  1  0.21443000  0.00885000  0.06239000  1.0
  C  C29  1  0.28557000  0.50885000  0.43762000  1.0
  C  C30  1  0.78557000  0.99115000  0.93761000  1.0
  C  C31  1  0.71443000  0.49115000  0.56238000  1.0
  C  C32  1  0.42615000  0.13555000  0.15927000  1.0
  C  C33  1  0.07385000  0.63555000  0.34073000  1.0
  C  C34  1  0.57385000  0.86445000  0.84073000  1.0
  C  C35  1  0.92615000  0.36445000  0.65927000  1.0
  Br  Br36  1  0.49271000  0.31392000  0.86548000  1.0
  Br  Br37  1  0.00730000  0.81392000  0.63452000  1.0
  Br  Br38  1  0.50729000  0.68608000  0.13451000  1.0
  Br  Br39  1  0.99271000  0.18608000  0.36549000  1.0
  N  N40  1  0.35554000  0.01251000  0.11232000  1.0
  N  N41  1  0.14446000  0.51252000  0.38768000  1.0
  N  N42  1  0.64446000  0.98749000  0.88768000  1.0
  N  N43  1  0.85554000  0.48749000  0.61232000  1.0
  N  N44  1  0.14203000  0.13967000  0.04747000  1.0
  N  N45  1  0.35797000  0.63967000  0.45253000  1.0
  N  N46  1  0.85797000  0.86033000  0.95253000  1.0
  N  N47  1  0.64203000  0.36033000  0.54747000  1.0
  O  O48  1  0.11958000  0.38498000  0.07381000  1.0
  O  O49  1  0.38042000  0.88497000  0.42619000  1.0
  O  O50  1  0.88042000  0.61502000  0.92619000  1.0
  O  O51  1  0.61958000  0.11503000  0.57381000  1.0
  O  O52  1  0.15535000  0.89135000  0.03020000  1.0
  O  O53  1  0.34464000  0.39135000  0.46980000  1.0
  O  O54  1  0.84465000  0.10865000  0.96980000  1.0
  O  O55  1  0.65535000  0.60865000  0.53019000  1.0
  O  O56  1  0.55568000  0.13051000  0.19643000  1.0
  O  O57  1  0.94432000  0.63051000  0.30356000  1.0
  O  O58  1  0.44432000  0.86949000  0.80356000  1.0
  O  O59  1  0.05568000  0.36949000  0.69644000  1.0
