# generated using pymatgen
data_CuMo6H20C16(N3O11)2
_symmetry_space_group_name_H-M   'P 1'
_cell_length_a   7.65766000
_cell_length_b   9.94821000
_cell_length_c   10.41130000
_cell_angle_alpha   105.46900000
_cell_angle_beta   92.80370000
_cell_angle_gamma   98.50030000
_symmetry_Int_Tables_number   1
_chemical_formula_structural   CuMo6H20C16(N3O11)2
_chemical_formula_sum   'Cu1 Mo6 H20 C16 N6 O22'
_cell_volume   752.75103592
_cell_formula_units_Z   1
loop_
 _symmetry_equiv_pos_site_id
 _symmetry_equiv_pos_as_xyz
  1  'x, y, z'
loop_
 _atom_site_type_symbol
 _atom_site_label
 _atom_site_symmetry_multiplicity
 _atom_site_fract_x
 _atom_site_fract_y
 _atom_site_fract_z
 _atom_site_occupancy
  Cu  Cu0  1  0.50000000  0.00000000  0.00000000  1.0
  Mo  Mo1  1  0.19450000  0.80602000  0.35995000  1.0
  Mo  Mo2  1  0.80550000  0.19398000  0.64005000  1.0
  Mo  Mo3  1  0.50809000  0.90132000  0.61491000  1.0
  Mo  Mo4  1  0.49192000  0.09868000  0.38509000  1.0
  Mo  Mo5  1  0.98985000  0.07754000  0.35826000  1.0
  Mo  Mo6  1  0.01015000  0.92247000  0.64174000  1.0
  H  H7  1  0.42300000  0.16691000  0.81734000  1.0
  H  H8  1  0.57700000  0.83308000  0.18265000  1.0
  H  H9  1  0.15707000  0.60248000  0.57241000  1.0
  H  H10  1  0.84293000  0.39752000  0.42759000  1.0
  H  H11  1  0.15982000  0.93653000  0.94628000  1.0
  H  H12  1  0.84018000  0.06347000  0.05372000  1.0
  H  H13  1  0.20930000  0.86303000  0.06382000  1.0
  H  H14  1  0.79070000  0.13697000  0.93618000  1.0
  H  H15  1  0.34047000  0.25508000  0.21256000  1.0
  H  H16  1  0.65953000  0.74492000  0.78744000  1.0
  H  H17  1  0.23106000  0.46827000  0.12670000  1.0
  H  H18  1  0.76894000  0.53173000  0.87330000  1.0
  H  H19  1  0.32533000  0.42376000  0.50916000  1.0
  H  H20  1  0.67468000  0.57625000  0.49084000  1.0
  H  H21  1  0.40869000  0.29580000  0.67110000  1.0
  H  H22  1  0.59131000  0.70420000  0.32889000  1.0
  H  H23  1  0.14436000  0.57464000  0.96620000  1.0
  H  H24  1  0.85562000  0.42534000  0.03379000  1.0
  H  H25  1  0.06175000  0.68348000  0.78573000  1.0
  H  H26  1  0.93824000  0.31651000  0.21427000  1.0
  C  C27  1  0.34031000  0.27036000  0.11339000  1.0
  C  C28  1  0.65969000  0.72964000  0.88661000  1.0
  C  C29  1  0.28446000  0.37865000  0.06793000  1.0
  C  C30  1  0.71554000  0.62134000  0.93207000  1.0
  C  C31  1  0.31662000  0.34904000  0.93259000  1.0
  C  C32  1  0.68338000  0.65096000  0.06741000  1.0
  C  C33  1  0.28748000  0.45044000  0.61074000  1.0
  C  C34  1  0.71253000  0.54956000  0.38926000  1.0
  C  C35  1  0.33262000  0.38128000  0.70296000  1.0
  C  C36  1  0.66738000  0.61872000  0.29704000  1.0
  C  C37  1  0.27908000  0.42171000  0.83308000  1.0
  C  C38  1  0.72092000  0.57829000  0.16692000  1.0
  C  C39  1  0.18367000  0.53487000  0.86576000  1.0
  C  C40  1  0.81632000  0.46512000  0.13424000  1.0
  C  C41  1  0.13888000  0.59838000  0.76893000  1.0
  C  C42  1  0.86111000  0.40161000  0.23107000  1.0
  N  N43  1  0.39008000  0.22926000  0.90536000  1.0
  N  N44  1  0.60992000  0.77074000  0.09464000  1.0
  N  N45  1  0.40351000  0.18004000  0.01294000  1.0
  N  N46  1  0.59649000  0.81996000  0.98706000  1.0
  N  N47  1  0.19020000  0.55453000  0.64484000  1.0
  N  N48  1  0.80980000  0.44547000  0.35516000  1.0
  O  O49  1  0.45111000  0.87179000  0.40982000  1.0
  O  O50  1  0.54890000  0.12821000  0.59018000  1.0
  O  O51  1  0.23820000  0.90756000  0.58538000  1.0
  O  O52  1  0.76180000  0.09245000  0.41461000  1.0
  O  O53  1  0.24495000  0.04405000  0.38064000  1.0
  O  O54  1  0.75505000  0.95595000  0.61936000  1.0
  O  O55  1  0.98026000  0.87503000  0.40200000  1.0
  O  O56  1  0.01975000  0.12497000  0.59800000  1.0
  O  O57  1  0.16444000  0.64335000  0.39365000  1.0
  O  O58  1  0.83556000  0.35666000  0.60634000  1.0
  O  O59  1  0.18869000  0.76978000  0.18640000  1.0
  O  O60  1  0.81131000  0.23022000  0.81360000  1.0
  O  O61  1  0.48073000  0.97615000  0.78318000  1.0
  O  O62  1  0.51926000  0.02385000  0.21682000  1.0
  O  O63  1  0.50074000  0.72484000  0.60019000  1.0
  O  O64  1  0.49926000  0.27516000  0.39981000  1.0
  O  O65  1  0.07236000  0.25340000  0.37725000  1.0
  O  O66  1  0.92764000  0.74661000  0.62275000  1.0
  O  O67  1  0.94436000  0.00736000  0.18697000  1.0
  O  O68  1  0.05564000  0.99265000  0.81303000  1.0
  O  O69  1  0.24729000  0.88850000  0.98194000  1.0
  O  O70  1  0.75271000  0.11150000  0.01806000  1.0
