# generated using pymatgen
data_Zn4H13C24O13F
_symmetry_space_group_name_H-M   'P 1'
_cell_length_a   13.08980000
_cell_length_b   13.26230000
_cell_length_c   15.27010000
_cell_angle_alpha   78.15390000
_cell_angle_beta   84.67910000
_cell_angle_gamma   88.64840000
_symmetry_Int_Tables_number   1
_chemical_formula_structural   Zn4H13C24O13F
_chemical_formula_sum   'Zn4 H13 C24 O13 F1'
_cell_volume   2583.23711212
_cell_formula_units_Z   1
loop_
 _symmetry_equiv_pos_site_id
 _symmetry_equiv_pos_as_xyz
  1  'x, y, z'
loop_
 _atom_site_type_symbol
 _atom_site_label
 _atom_site_symmetry_multiplicity
 _atom_site_fract_x
 _atom_site_fract_y
 _atom_site_fract_z
 _atom_site_occupancy
  Zn  Zn0  1  0.42778000  0.40975000  0.44184000  1.0
  Zn  Zn1  1  0.59992000  0.41648000  0.57529000  1.0
  Zn  Zn2  1  0.41526000  0.56987000  0.58040000  1.0
  Zn  Zn3  1  0.56550000  0.60543000  0.40003000  1.0
  H  H4  1  0.45580000  0.61957000  0.83862000  1.0
  H  H5  1  0.43638000  0.68233000  0.13856000  1.0
  H  H6  1  0.53165000  0.36547000  0.16552000  1.0
  H  H7  1  0.91549000  0.45724000  0.56081000  1.0
  H  H8  1  0.90878000  0.57916000  0.36587000  1.0
  H  H9  1  0.08798000  0.44476000  0.61179000  1.0
  H  H10  1  0.44139000  0.09423000  0.45477000  1.0
  H  H11  1  0.51596000  0.89855000  0.58530000  1.0
  H  H12  1  0.57903000  0.07301000  0.61125000  1.0
  H  H13  1  0.43172000  0.93241000  0.39889000  1.0
  H  H14  1  0.58016000  0.31330000  0.86142000  1.0
  H  H15  1  0.42876000  0.69751000  0.97390000  1.0
  H  H16  1  0.57287000  0.29231000  0.02788000  1.0
  C  C17  1  0.76919000  0.53155000  0.45517000  1.0
  C  C18  1  0.05711000  0.49744000  0.47813000  1.0
  C  C19  1  0.88167000  0.53778000  0.43290000  1.0
  C  C20  1  0.23495000  0.47455000  0.52944000  1.0
  C  C21  1  0.94692000  0.49566000  0.49385000  1.0
  C  C22  1  0.45640000  0.89050000  0.46287000  1.0
  C  C23  1  0.48624000  0.94175000  0.52381000  1.0
  C  C24  1  0.53152000  0.10870000  0.55813000  1.0
  C  C25  1  0.48393000  0.05258000  0.50960000  1.0
  C  C26  1  0.52590000  0.22234000  0.53894000  1.0
  C  C27  1  0.46571000  0.77684000  0.47335000  1.0
  C  C28  1  0.45613000  0.61728000  0.10668000  1.0
  C  C29  1  0.51722000  0.47869000  0.74185000  1.0
  C  C30  1  0.48773000  0.51456000  0.25948000  1.0
  C  C31  1  0.51725000  0.46797000  0.84095000  1.0
  C  C32  1  0.48405000  0.52217000  0.16104000  1.0
  C  C33  1  0.45287000  0.62556000  0.01576000  1.0
  C  C34  1  0.51071000  0.43810000  0.12285000  1.0
  C  C35  1  0.51392000  0.44635000  0.02876000  1.0
  C  C36  1  0.48237000  0.54149000  0.97420000  1.0
  C  C37  1  0.48245000  0.54893000  0.88056000  1.0
  C  C38  1  0.55205000  0.37526000  0.89447000  1.0
  C  C39  1  0.54833000  0.36426000  0.98629000  1.0
  C  C40  1  0.12164000  0.46793000  0.54277000  1.0
  O  O41  1  0.50314000  0.50080000  0.49958000  1.0
  O  O42  1  0.57426000  0.41701000  0.70462000  1.0
  O  O43  1  0.51498000  0.59555000  0.28414000  1.0
  O  O44  1  0.45963000  0.54913000  0.70179000  1.0
  O  O45  1  0.46411000  0.42824000  0.31143000  1.0
  O  O46  1  0.45624000  0.26481000  0.48993000  1.0
  O  O47  1  0.51929000  0.74578000  0.40979000  1.0
  O  O48  1  0.73618000  0.47411000  0.52981000  1.0
  O  O49  1  0.27621000  0.51277000  0.58801000  1.0
  O  O50  1  0.71510000  0.58534000  0.39653000  1.0
  O  O51  1  0.28035000  0.44147000  0.46341000  1.0
  O  O52  1  0.59163000  0.26893000  0.57341000  1.0
  O  O53  1  0.42049000  0.72135000  0.54371000  1.0
  F  F54  1  0.09498000  0.53566000  0.39198000  1.0
