# generated using pymatgen
data_Dy3H31C45O23
_symmetry_space_group_name_H-M   'P 1'
_cell_length_a   14.29250000
_cell_length_b   14.29260000
_cell_length_c   33.04639594
_cell_angle_alpha   102.44809776
_cell_angle_beta   102.44792017
_cell_angle_gamma   90.01010000
_symmetry_Int_Tables_number   1
_chemical_formula_structural   Dy3H31C45O23
_chemical_formula_sum   'Dy12 H124 C180 O92'
_cell_volume   6429.25718609
_cell_formula_units_Z   4
loop_
 _symmetry_equiv_pos_site_id
 _symmetry_equiv_pos_as_xyz
  1  'x, y, z'
loop_
 _atom_site_type_symbol
 _atom_site_label
 _atom_site_symmetry_multiplicity
 _atom_site_fract_x
 _atom_site_fract_y
 _atom_site_fract_z
 _atom_site_occupancy
  Dy  Dy0  1  0.45592000  0.95780000  0.91792000  1.0
  Dy  Dy1  1  0.03998000  0.54377000  0.08210000  1.0
  Dy  Dy2  1  0.79375000  0.78998000  0.58209000  1.0
  Dy  Dy3  1  0.20780000  0.20592000  0.41792000  1.0
  Dy  Dy4  1  0.71097000  0.95144000  0.87620000  1.0
  Dy  Dy5  1  0.16582000  0.92397000  0.87665000  1.0
  Dy  Dy6  1  0.07491000  0.28866000  0.12373000  1.0
  Dy  Dy7  1  0.04744000  0.83395000  0.12341000  1.0
  Dy  Dy8  1  0.53867000  0.82492000  0.62374000  1.0
  Dy  Dy9  1  0.08395000  0.79743000  0.62341000  1.0
  Dy  Dy10  1  0.17396000  0.91582000  0.37665000  1.0
  Dy  Dy11  1  0.20143000  0.46096000  0.37620000  1.0
  H  H12  1  0.85059000  0.11200000  0.87223000  1.0
  H  H13  1  0.02323000  0.75837000  0.87294000  1.0
  H  H14  1  0.24145000  0.15026000  0.12697000  1.0
  H  H15  1  0.88761000  0.97793000  0.12748000  1.0
  H  H16  1  0.40026000  0.99145000  0.62696000  1.0
  H  H17  1  0.22793000  0.63762000  0.62748000  1.0
  H  H18  1  0.00837000  0.77322000  0.37294000  1.0
  H  H19  1  0.36199000  0.60057000  0.37223000  1.0
  H  H20  1  0.81211000  0.04986000  0.82638000  1.0
  H  H21  1  0.01265000  0.77627000  0.82705000  1.0
  H  H22  1  0.22460000  0.18602000  0.17294000  1.0
  H  H23  1  0.95065000  0.98689000  0.17335000  1.0
  H  H24  1  0.43601000  0.97462000  0.67294000  1.0
  H  H25  1  0.23689000  0.70065000  0.67335000  1.0
  H  H26  1  0.02627000  0.76266000  0.32704000  1.0
  H  H27  1  0.29987000  0.56211000  0.32638000  1.0
  H  H28  1  0.63493000  0.11468000  0.84218000  1.0
  H  H29  1  0.20552000  0.72647000  0.84132000  1.0
  H  H30  1  0.27203000  0.36471000  0.15760000  1.0
  H  H31  1  0.88513000  0.79428000  0.15873000  1.0
  H  H32  1  0.61471000  0.02203000  0.65759000  1.0
  H  H33  1  0.04427000  0.63512000  0.65873000  1.0
  H  H34  1  0.97646000  0.95550000  0.34131000  1.0
  H  H35  1  0.36467000  0.38494000  0.34218000  1.0
  H  H36  1  0.53908000  0.05884000  0.84463000  1.0
  H  H37  1  0.30468000  0.78391000  0.84449000  1.0
  H  H38  1  0.21385000  0.46060000  0.15515000  1.0
  H  H39  1  0.93964000  0.69531000  0.15562000  1.0
  H  H40  1  0.71062000  0.96385000  0.65515000  1.0
  H  H41  1  0.94530000  0.68964000  0.65562000  1.0
  H  H42  1  0.03390000  0.05468000  0.34449000  1.0
  H  H43  1  0.30882000  0.28908000  0.34463000  1.0
  H  H44  1  0.54540000  0.95922000  0.00602000  1.0
  H  H45  1  0.51259000  0.06400000  0.00725000  1.0
  H  H46  1  0.95364000  0.45623000  0.99295000  1.0
  H  H47  1  0.05667000  0.49246000  0.99237000  1.0
  H  H48  1  0.70624000  0.70364000  0.49293000  1.0
  H  H49  1  0.74251000  0.80667000  0.49236000  1.0
  H  H50  1  0.31400000  0.26261000  0.50724000  1.0
  H  H51  1  0.20921000  0.29540000  0.50601000  1.0
  H  H52  1  0.80283000  0.83675000  0.00434000  1.0
  H  H53  1  0.20086000  0.16906000  0.00407000  1.0
  H  H54  1  0.83035000  0.19672000  0.99562000  1.0
  H  H55  1  0.16312000  0.79778000  0.99586000  1.0
  H  H56  1  0.44671000  0.58035000  0.49562000  1.0
  H  H57  1  0.04778000  0.91312000  0.49586000  1.0
  H  H58  1  0.41906000  0.95088000  0.50408000  1.0
  H  H59  1  0.08675000  0.55282000  0.50434000  1.0
  H  H60  1  0.79040000  0.54923000  0.02327000  1.0
  H  H61  1  0.23259000  0.47548000  0.02177000  1.0
  H  H62  1  0.52411000  0.21149000  0.97798000  1.0
  H  H63  1  0.45072000  0.76723000  0.97683000  1.0
  H  H64  1  0.46149000  0.27412000  0.47800000  1.0
  H  H65  1  0.01725000  0.20073000  0.47684000  1.0
  H  H66  1  0.72548000  0.98259000  0.52177000  1.0
  H  H67  1  0.79922000  0.54040000  0.52327000  1.0
  H  H68  1  0.64451000  0.51127000  0.96440000  1.0
  H  H69  1  0.32009000  0.45307000  0.96294000  1.0
  H  H70  1  0.54689000  0.35781000  0.03680000  1.0
  H  H71  1  0.48916000  0.68050000  0.03581000  1.0
  H  H72  1  0.60779000  0.29688000  0.53681000  1.0
  H  H73  1  0.93051000  0.23915000  0.53581000  1.0
  H  H74  1  0.70306000  0.07009000  0.46294000  1.0
  H  H75  1  0.76127000  0.39451000  0.46440000  1.0
  H  H76  1  0.46878000  0.56431000  0.95052000  1.0
  H  H77  1  0.48091000  0.38653000  0.94955000  1.0
  H  H78  1  0.61395000  0.53204000  0.05009000  1.0
  H  H79  1  0.43659000  0.51908000  0.05002000  1.0
  H  H80  1  0.78203000  0.36397000  0.55010000  1.0
  H  H81  1  0.76908000  0.18659000  0.55002000  1.0
  H  H82  1  0.63652000  0.23090000  0.44955000  1.0
  H  H83  1  0.81430000  0.21877000  0.45052000  1.0
  H  H84  1  0.33293000  0.51109000  0.88874000  1.0
  H  H85  1  0.55531000  0.37775000  0.88777000  1.0
  H  H86  1  0.62232000  0.66763000  0.11197000  1.0
  H  H87  1  0.48918000  0.44457000  0.11179000  1.0
  H  H88  1  0.91763000  0.37232000  0.61196000  1.0
  H  H89  1  0.69459000  0.23920000  0.61180000  1.0
  H  H90  1  0.62775000  0.30532000  0.38777000  1.0
  H  H91  1  0.76108000  0.08293000  0.38875000  1.0
  H  H92  1  0.33838000  0.54548000  0.81854000  1.0
  H  H93  1  0.48041000  0.27202000  0.81774000  1.0
  H  H94  1  0.72720000  0.66199000  0.18208000  1.0
  H  H95  1  0.45379000  0.51963000  0.18185000  1.0
  H  H96  1  0.91201000  0.47721000  0.68208000  1.0
  H  H97  1  0.76965000  0.20380000  0.68185000  1.0
  H  H98  1  0.52202000  0.23041000  0.31774000  1.0
  H  H99  1  0.79547000  0.08837000  0.31854000  1.0
  H  H100  1  0.61980000  0.68182000  0.87170000  1.0
  H  H101  1  0.25249000  0.18862000  0.87112000  1.0
  H  H102  1  0.81100000  0.38112000  0.12857000  1.0
  H  H103  1  0.31818000  0.74823000  0.12861000  1.0
  H  H104  1  0.63112000  0.56101000  0.62858000  1.0
  H  H105  1  0.99823000  0.06817000  0.62861000  1.0
  H  H106  1  0.43862000  0.00248000  0.37111000  1.0
  H  H107  1  0.93181000  0.36980000  0.37170000  1.0
  H  H108  1  0.46828000  0.50590000  0.76070000  1.0
  H  H109  1  0.29224000  0.25350000  0.76022000  1.0
  H  H110  1  0.74577000  0.53222000  0.23968000  1.0
  H  H111  1  0.49335000  0.70817000  0.23954000  1.0
  H  H112  1  0.78224000  0.49578000  0.73968000  1.0
  H  H113  1  0.95817000  0.24335000  0.73953000  1.0
  H  H114  1  0.50351000  0.04224000  0.26022000  1.0
  H  H115  1  0.75588000  0.21827000  0.26070000  1.0
  H  H116  1  0.48045000  0.56462000  0.69565000  1.0
  H  H117  1  0.21422000  0.13003000  0.69531000  1.0
  H  H118  1  0.86944000  0.51972000  0.30468000  1.0
  H  H119  1  0.43461000  0.78592000  0.30447000  1.0
  H  H120  1  0.76973000  0.61944000  0.80468000  1.0
  H  H121  1  0.03595000  0.18462000  0.80447000  1.0
  H  H122  1  0.38004000  0.96422000  0.19531000  1.0
  H  H123  1  0.81462000  0.23045000  0.19566000  1.0
  H  H124  1  0.51193000  0.85506000  0.76800000  1.0
  H  H125  1  0.25600000  0.91175000  0.76764000  1.0
  H  H126  1  0.08747000  0.48800000  0.23216000  1.0
  H  H127  1  0.14410000  0.74350000  0.23229000  1.0
  H  H128  1  0.73801000  0.83748000  0.73216000  1.0
  H  H129  1  0.99352000  0.89411000  0.73229000  1.0
  H  H130  1  0.16177000  0.00599000  0.26765000  1.0
  H  H131  1  0.10506000  0.26193000  0.26800000  1.0
  H  H132  1  0.92362000  0.92058000  0.84713000  1.0
  H  H133  1  0.07753000  0.07631000  0.15281000  1.0
  H  H134  1  0.32630000  0.82755000  0.65281000  1.0
  H  H135  1  0.17061000  0.67361000  0.34713000  1.0
  C  C136  1  0.64708000  0.82822000  0.94368000  1.0
  C  C137  1  0.29597000  0.11591000  0.94303000  1.0
  C  C138  1  0.88415000  0.35300000  0.05626000  1.0
  C  C139  1  0.17287000  0.70362000  0.05705000  1.0
  C  C140  1  0.60302000  0.63415000  0.55627000  1.0
  C  C141  1  0.95363000  0.92287000  0.55705000  1.0
  C  C142  1  0.36590000  0.04598000  0.44303000  1.0
  C  C143  1  0.07821000  0.39706000  0.44368000  1.0
  C  C144  1  0.68471000  0.74568000  0.96306000  1.0
  C  C145  1  0.27773000  0.21782000  0.96249000  1.0
  C  C146  1  0.78198000  0.31572000  0.03708000  1.0
  C  C147  1  0.25481000  0.72190000  0.03735000  1.0
  C  C148  1  0.56572000  0.53198000  0.53708000  1.0
  C  C149  1  0.97190000  0.00481000  0.53735000  1.0
  C  C150  1  0.46781000  0.02774000  0.46249000  1.0
  C  C151  1  0.99568000  0.43469000  0.46306000  1.0
  C  C152  1  0.76702000  0.76568000  0.99562000  1.0
  C  C153  1  0.22766000  0.23112000  0.99501000  1.0
  C  C154  1  0.76848000  0.23302000  0.00466000  1.0
  C  C155  1  0.23439000  0.77117000  0.00461000  1.0
  C  C156  1  0.48302000  0.51849000  0.50467000  1.0
  C  C157  1  0.02117000  0.98439000  0.50461000  1.0
  C  C158  1  0.48112000  0.97768000  0.49502000  1.0
  C  C159  1  0.01568000  0.51702000  0.49562000  1.0
  C  C160  1  0.80446000  0.69614000  0.01777000  1.0
  C  C161  1  0.21170000  0.32322000  0.01650000  1.0
  C  C162  1  0.67635000  0.19567000  0.98324000  1.0
  C  C163  1  0.30381000  0.78657000  0.98240000  1.0
  C  C164  1  0.44566000  0.42635000  0.48325000  1.0
  C  C165  1  0.03656000  0.05381000  0.48240000  1.0
  C  C166  1  0.57321000  0.96171000  0.51650000  1.0
  C  C167  1  0.94614000  0.55447000  0.51777000  1.0
  C  C168  1  0.76029000  0.60391000  0.00642000  1.0
  C  C169  1  0.24500000  0.40364000  0.00487000  1.0
  C  C170  1  0.59601000  0.24075000  0.99485000  1.0
  C  C171  1  0.39616000  0.75397000  0.99376000  1.0
  C  C172  1  0.49075000  0.34602000  0.49487000  1.0
  C  C173  1  0.00398000  0.14617000  0.49376000  1.0
  C  C174  1  0.65364000  0.99500000  0.50487000  1.0
  C  C175  1  0.85390000  0.51029000  0.50641000  1.0
  C  C176  1  0.67818000  0.58359000  0.97379000  1.0
  C  C177  1  0.29519000  0.39056000  0.97245000  1.0
  C  C178  1  0.60928000  0.32329000  0.02725000  1.0
  C  C179  1  0.41679000  0.70467000  0.02647000  1.0
  C  C180  1  0.57328000  0.35929000  0.52726000  1.0
  C  C181  1  0.95468000  0.16678000  0.52648000  1.0
  C  C182  1  0.64055000  0.04519000  0.47245000  1.0
  C  C183  1  0.83358000  0.42818000  0.47379000  1.0
  C  C184  1  0.63862000  0.65314000  0.95157000  1.0
  C  C185  1  0.31254000  0.29842000  0.95068000  1.0
  C  C186  1  0.70149000  0.36233000  0.04895000  1.0
  C  C187  1  0.34743000  0.68747000  0.04883000  1.0
  C  C188  1  0.61233000  0.45150000  0.54896000  1.0
  C  C189  1  0.93748000  0.09742000  0.54883000  1.0
  C  C190  1  0.54842000  0.06254000  0.45068000  1.0
  C  C191  1  0.90313000  0.38861000  0.45157000  1.0
  C  C192  1  0.88935000  0.72435000  0.05368000  1.0
  C  C193  1  0.16102000  0.33342000  0.05205000  1.0
  C  C194  1  0.66604000  0.10939000  0.94776000  1.0
  C  C195  1  0.27554000  0.83581000  0.94656000  1.0
  C  C196  1  0.35939000  0.41604000  0.44777000  1.0
  C  C197  1  0.08581000  0.02553000  0.44656000  1.0
  C  C198  1  0.58343000  0.91103000  0.55205000  1.0
  C  C199  1  0.97433000  0.63935000  0.55368000  1.0
  C  C200  1  0.55454000  0.62582000  0.91550000  1.0
  C  C201  1  0.36098000  0.28908000  0.91470000  1.0
  C  C202  1  0.71094000  0.44651000  0.08497000  1.0
  C  C203  1  0.37470000  0.63948000  0.08495000  1.0
  C  C204  1  0.69651000  0.46096000  0.58498000  1.0
  C  C205  1  0.88949000  0.12469000  0.58495000  1.0
  C  C206  1  0.53908000  0.11099000  0.41470000  1.0
  C  C207  1  0.87582000  0.30453000  0.41550000  1.0
  C  C208  1  0.47266000  0.57790000  0.91970000  1.0
  C  C209  1  0.44677000  0.34152000  0.91882000  1.0
  C  C210  1  0.65860000  0.52824000  0.08086000  1.0
  C  C211  1  0.42263000  0.55347000  0.08080000  1.0
  C  C212  1  0.77824000  0.40861000  0.58086000  1.0
  C  C213  1  0.80348000  0.17263000  0.58080000  1.0
  C  C214  1  0.59153000  0.19676000  0.41882000  1.0
  C  C215  1  0.82789000  0.22265000  0.41970000  1.0
  C  C216  1  0.39581000  0.54874000  0.88498000  1.0
  C  C217  1  0.48904000  0.33584000  0.88411000  1.0
  C  C218  1  0.66403000  0.60491000  0.11563000  1.0
  C  C219  1  0.45139000  0.51113000  0.11551000  1.0
  C  C220  1  0.85491000  0.41404000  0.61563000  1.0
  C  C221  1  0.76114000  0.20140000  0.61551000  1.0
  C  C222  1  0.58585000  0.23905000  0.38411000  1.0
  C  C223  1  0.79872000  0.14580000  0.38498000  1.0
  C  C224  1  0.39903000  0.56711000  0.84554000  1.0
  C  C225  1  0.44679000  0.27746000  0.84478000  1.0
  C  C226  1  0.72201000  0.60158000  0.15500000  1.0
  C  C227  1  0.43245000  0.55347000  0.15487000  1.0
  C  C228  1  0.85159000  0.47203000  0.65500000  1.0
  C  C229  1  0.80348000  0.18246000  0.65487000  1.0
  C  C230  1  0.52746000  0.19679000  0.34478000  1.0
  C  C231  1  0.81710000  0.14902000  0.34554000  1.0
  C  C232  1  0.47909000  0.61715000  0.84094000  1.0
  C  C233  1  0.36239000  0.22252000  0.84030000  1.0
  C  C234  1  0.77688000  0.52163000  0.15948000  1.0
  C  C235  1  0.38235000  0.63809000  0.15941000  1.0
  C  C236  1  0.77164000  0.52689000  0.65948000  1.0
  C  C237  1  0.88809000  0.13235000  0.65941000  1.0
  C  C238  1  0.47252000  0.11239000  0.34030000  1.0
  C  C239  1  0.86714000  0.22907000  0.34094000  1.0
  C  C240  1  0.55654000  0.64520000  0.87584000  1.0
  C  C241  1  0.31970000  0.22959000  0.87518000  1.0
  C  C242  1  0.77018000  0.44437000  0.12452000  1.0
  C  C243  1  0.35484000  0.68087000  0.12453000  1.0
  C  C244  1  0.69438000  0.52020000  0.62453000  1.0
  C  C245  1  0.93087000  0.10482000  0.62453000  1.0
  C  C246  1  0.47960000  0.06969000  0.37518000  1.0
  C  C247  1  0.89519000  0.30653000  0.37584000  1.0
  C  C248  1  0.48127000  0.64770000  0.80104000  1.0
  C  C249  1  0.32026000  0.15193000  0.80050000  1.0
  C  C250  1  0.84728000  0.51919000  0.19932000  1.0
  C  C251  1  0.35158000  0.68008000  0.19928000  1.0
  C  C252  1  0.76920000  0.59729000  0.69932000  1.0
  C  C253  1  0.93009000  0.10158000  0.69928000  1.0
  C  C254  1  0.40194000  0.07027000  0.30050000  1.0
  C  C255  1  0.89769000  0.23126000  0.30104000  1.0
  C  C256  1  0.47593000  0.58263000  0.76213000  1.0
  C  C257  1  0.28617000  0.17821000  0.76164000  1.0
  C  C258  1  0.82105000  0.52449000  0.23824000  1.0
  C  C259  1  0.41664000  0.71412000  0.23815000  1.0
  C  C260  1  0.77452000  0.57107000  0.73825000  1.0
  C  C261  1  0.96413000  0.16664000  0.73814000  1.0
  C  C262  1  0.42821000  0.03617000  0.26164000  1.0
  C  C263  1  0.83262000  0.22592000  0.26213000  1.0
  C  C264  1  0.48312000  0.61483000  0.72590000  1.0
  C  C265  1  0.24226000  0.10994000  0.72550000  1.0
  C  C266  1  0.88940000  0.51714000  0.27443000  1.0
  C  C267  1  0.38440000  0.75779000  0.27430000  1.0
  C  C268  1  0.76715000  0.63941000  0.77443000  1.0
  C  C269  1  0.00782000  0.13442000  0.77430000  1.0
  C  C270  1  0.35996000  0.99226000  0.22550000  1.0
  C  C271  1  0.86482000  0.23312000  0.22590000  1.0
  C  C272  1  0.49577000  0.71312000  0.72796000  1.0
  C  C273  1  0.23174000  0.01376000  0.72763000  1.0
  C  C274  1  0.98555000  0.50437000  0.27225000  1.0
  C  C275  1  0.28610000  0.76810000  0.27225000  1.0
  C  C276  1  0.75438000  0.73557000  0.77226000  1.0
  C  C277  1  0.01814000  0.03611000  0.77225000  1.0
  C  C278  1  0.26377000  0.98173000  0.22763000  1.0
  C  C279  1  0.96311000  0.24578000  0.22796000  1.0
  C  C280  1  0.50145000  0.77880000  0.76656000  1.0
  C  C281  1  0.26517000  0.98656000  0.76619000  1.0
  C  C282  1  0.01268000  0.49862000  0.23364000  1.0
  C  C283  1  0.22039000  0.73457000  0.23373000  1.0
  C  C284  1  0.74863000  0.76269000  0.73364000  1.0
  C  C285  1  0.98459000  0.97040000  0.73373000  1.0
  C  C286  1  0.23657000  0.01516000  0.26619000  1.0
  C  C287  1  0.02879000  0.25145000  0.26656000  1.0
  C  C288  1  0.49323000  0.74656000  0.80261000  1.0
  C  C289  1  0.30988000  0.05468000  0.80217000  1.0
  C  C290  1  0.94447000  0.50697000  0.19763000  1.0
  C  C291  1  0.25267000  0.69008000  0.19770000  1.0
  C  C292  1  0.75699000  0.69448000  0.69763000  1.0
  C  C293  1  0.94010000  0.00267000  0.69770000  1.0
  C  C294  1  0.30469000  0.05988000  0.30217000  1.0
  C  C295  1  0.99655000  0.24322000  0.30261000  1.0
  C  C296  1  0.50480000  0.74870000  0.68966000  1.0
  C  C297  1  0.18384000  0.93995000  0.68942000  1.0
  C  C298  1  0.05947000  0.49517000  0.31044000  1.0
  C  C299  1  0.25061000  0.81602000  0.31051000  1.0
  C  C300  1  0.74517000  0.80948000  0.81044000  1.0
  C  C301  1  0.06604000  0.00063000  0.81051000  1.0
  C  C302  1  0.18997000  0.93384000  0.18943000  1.0
  C  C303  1  0.99869000  0.25479000  0.18966000  1.0
  C  C304  1  0.49125000  0.81877000  0.84230000  1.0
  C  C305  1  0.35134000  0.02208000  0.84189000  1.0
  C  C306  1  0.97677000  0.50877000  0.15785000  1.0
  C  C307  1  0.18031000  0.64851000  0.15804000  1.0
  C  C308  1  0.75878000  0.72677000  0.65785000  1.0
  C  C309  1  0.89852000  0.93031000  0.65804000  1.0
  C  C310  1  0.27208000  0.10134000  0.34189000  1.0
  C  C311  1  0.06876000  0.24124000  0.34230000  1.0
  C  C312  1  0.94138000  0.94112000  0.88261000  1.0
  C  C313  1  0.05930000  0.05845000  0.11731000  1.0
  C  C314  1  0.30844000  0.80931000  0.61731000  1.0
  C  C315  1  0.19112000  0.69139000  0.38261000  1.0
  O  O316  1  0.70476000  0.87355000  0.92982000  1.0
  O  O317  1  0.22471000  0.05623000  0.93011000  1.0
  O  O318  1  0.94288000  0.29507000  0.07016000  1.0
  O  O319  1  0.12588000  0.77472000  0.07001000  1.0
  O  O320  1  0.54506000  0.69288000  0.57016000  1.0
  O  O321  1  0.02472000  0.87588000  0.57001000  1.0
  O  O322  1  0.30623000  0.97471000  0.43011000  1.0
  O  O323  1  0.12355000  0.45475000  0.42982000  1.0
  O  O324  1  0.56054000  0.84970000  0.94452000  1.0
  O  O325  1  0.38278000  0.09644000  0.94234000  1.0
  O  O326  1  0.90501000  0.43934000  0.05531000  1.0
  O  O327  1  0.15410000  0.61680000  0.05781000  1.0
  O  O328  1  0.68935000  0.65500000  0.55531000  1.0
  O  O329  1  0.86681000  0.90410000  0.55782000  1.0
  O  O330  1  0.34644000  0.13279000  0.44234000  1.0
  O  O331  1  0.09970000  0.31054000  0.44453000  1.0
  O  O332  1  0.90798000  0.81319000  0.06981000  1.0
  O  O333  1  0.15986000  0.26329000  0.06991000  1.0
  O  O334  1  0.73602000  0.09052000  0.92981000  1.0
  O  O335  1  0.18672000  0.83851000  0.93042000  1.0
  O  O336  1  0.34051000  0.48601000  0.42981000  1.0
  O  O337  1  0.08851000  0.93673000  0.43042000  1.0
  O  O338  1  0.51330000  0.90986000  0.56991000  1.0
  O  O339  1  0.06318000  0.65798000  0.56982000  1.0
  O  O340  1  0.94075000  0.66033000  0.06807000  1.0
  O  O341  1  0.12102000  0.41173000  0.06362000  1.0
  O  O342  1  0.58781000  0.05777000  0.93640000  1.0
  O  O343  1  0.33958000  0.87310000  0.93222000  1.0
  O  O344  1  0.30777000  0.33781000  0.43641000  1.0
  O  O345  1  0.12309000  0.08958000  0.43222000  1.0
  O  O346  1  0.66174000  0.87103000  0.56361000  1.0
  O  O347  1  0.91032000  0.69074000  0.56807000  1.0
  O  O348  1  0.51199000  0.68995000  0.65570000  1.0
  O  O349  1  0.14229000  0.96482000  0.65555000  1.0
  O  O350  1  0.03481000  0.48810000  0.34446000  1.0
  O  O351  1  0.30939000  0.85767000  0.34432000  1.0
  O  O352  1  0.73810000  0.78483000  0.84446000  1.0
  O  O353  1  0.10769000  0.05940000  0.84432000  1.0
  O  O354  1  0.21483000  0.89228000  0.15555000  1.0
  O  O355  1  0.93995000  0.26200000  0.15570000  1.0
  O  O356  1  0.50577000  0.83992000  0.69181000  1.0
  O  O357  1  0.18497000  0.85091000  0.69160000  1.0
  O  O358  1  0.14848000  0.49382000  0.30815000  1.0
  O  O359  1  0.15947000  0.81485000  0.30846000  1.0
  O  O360  1  0.74382000  0.89848000  0.80814000  1.0
  O  O361  1  0.06487000  0.90948000  0.80846000  1.0
  O  O362  1  0.10092000  0.93496000  0.19160000  1.0
  O  O363  1  0.08992000  0.25578000  0.19182000  1.0
  O  O364  1  0.55746000  0.88441000  0.85765000  1.0
  O  O365  1  0.30025000  0.97186000  0.85724000  1.0
  O  O366  1  0.02668000  0.44233000  0.14236000  1.0
  O  O367  1  0.11460000  0.69952000  0.14279000  1.0
  O  O368  1  0.69232000  0.77667000  0.64235000  1.0
  O  O369  1  0.94953000  0.86460000  0.64280000  1.0
  O  O370  1  0.22186000  0.05025000  0.35724000  1.0
  O  O371  1  0.13441000  0.30746000  0.35766000  1.0
  O  O372  1  0.42089000  0.81734000  0.86015000  1.0
  O  O373  1  0.43940000  0.04108000  0.85999000  1.0
  O  O374  1  0.95750000  0.57910000  0.13999000  1.0
  O  O375  1  0.18120000  0.56044000  0.13996000  1.0
  O  O376  1  0.82910000  0.70750000  0.63999000  1.0
  O  O377  1  0.81045000  0.93120000  0.63996000  1.0
  O  O378  1  0.29107000  0.18940000  0.35998000  1.0
  O  O379  1  0.06733000  0.17088000  0.36015000  1.0
  O  O380  1  0.87214000  0.95300000  0.90105000  1.0
  O  O381  1  0.02888000  0.95095000  0.90105000  1.0
  O  O382  1  0.05042000  0.12762000  0.09879000  1.0
  O  O383  1  0.04910000  0.97092000  0.09892000  1.0
  O  O384  1  0.37762000  0.80043000  0.59879000  1.0
  O  O385  1  0.22092000  0.79908000  0.59892000  1.0
  O  O386  1  0.20095000  0.77888000  0.40105000  1.0
  O  O387  1  0.20299000  0.62213000  0.40105000  1.0
  O  O388  1  0.79223000  0.08951000  0.85079000  1.0
  O  O389  1  0.05850000  0.76155000  0.85111000  1.0
  O  O390  1  0.23824000  0.20763000  0.14863000  1.0
  O  O391  1  0.91067000  0.94205000  0.14928000  1.0
  O  O392  1  0.45763000  0.98826000  0.64863000  1.0
  O  O393  1  0.19205000  0.66066000  0.64928000  1.0
  O  O394  1  0.01155000  0.80850000  0.35111000  1.0
  O  O395  1  0.33951000  0.54223000  0.35079000  1.0
  O  O396  1  0.60518000  0.05177000  0.83926000  1.0
  O  O397  1  0.23336000  0.78635000  0.83877000  1.0
  O  O398  1  0.21204000  0.39450000  0.16051000  1.0
  O  O399  1  0.94765000  0.76663000  0.16137000  1.0
  O  O400  1  0.64450000  0.96204000  0.66050000  1.0
  O  O401  1  0.01663000  0.69765000  0.66138000  1.0
  O  O402  1  0.03636000  0.98337000  0.33878000  1.0
  O  O403  1  0.30176000  0.35518000  0.33926000  1.0
  O  O404  1  0.49053000  0.99672000  0.99755000  1.0
  O  O405  1  0.99893000  0.51164000  0.00257000  1.0
  O  O406  1  0.76166000  0.74892000  0.50256000  1.0
  O  O407  1  0.24673000  0.24054000  0.49755000  1.0
