# generated using pymatgen
data_TbH21C25N4O7
_symmetry_space_group_name_H-M   'P 1'
_cell_length_a   8.70837000
_cell_length_b   16.26590000
_cell_length_c   20.47740000
_cell_angle_alpha   85.54760000
_cell_angle_beta   89.99980000
_cell_angle_gamma   89.99960000
_symmetry_Int_Tables_number   1
_chemical_formula_structural   TbH21C25N4O7
_chemical_formula_sum   'Tb4 H84 C100 N16 O28'
_cell_volume   2891.85941926
_cell_formula_units_Z   4
loop_
 _symmetry_equiv_pos_site_id
 _symmetry_equiv_pos_as_xyz
  1  'x, y, z'
loop_
 _atom_site_type_symbol
 _atom_site_label
 _atom_site_symmetry_multiplicity
 _atom_site_fract_x
 _atom_site_fract_y
 _atom_site_fract_z
 _atom_site_occupancy
  Tb  Tb0  1  0.21887000  0.75707000  0.71373000  1.0
  Tb  Tb1  1  0.71888000  0.74293000  0.78626000  1.0
  Tb  Tb2  1  0.78112000  0.24293000  0.28627000  1.0
  Tb  Tb3  1  0.28112000  0.25707000  0.21374000  1.0
  H  H4  1  0.75560000  0.78465000  0.62283000  1.0
  H  H5  1  0.25560000  0.71536000  0.87717000  1.0
  H  H6  1  0.24441000  0.21536000  0.37717000  1.0
  H  H7  1  0.74440000  0.28464000  0.12284000  1.0
  H  H8  1  0.95326000  0.85556000  0.54972000  1.0
  H  H9  1  0.45326000  0.64445000  0.95028000  1.0
  H  H10  1  0.04675000  0.14445000  0.45029000  1.0
  H  H11  1  0.54673000  0.35555000  0.04972000  1.0
  H  H12  1  0.66894000  0.07199000  0.52821000  1.0
  H  H13  1  0.16893000  0.42802000  0.97179000  1.0
  H  H14  1  0.33106000  0.92802000  0.47179000  1.0
  H  H15  1  0.83106000  0.57198000  0.02820000  1.0
  H  H16  1  0.46886000  0.00018000  0.60139000  1.0
  H  H17  1  0.96887000  0.49982000  0.89862000  1.0
  H  H18  1  0.53113000  0.99981000  0.39861000  1.0
  H  H19  1  0.03113000  0.50018000  0.10138000  1.0
  H  H20  1  0.62887000  0.51376000  0.86325000  1.0
  H  H21  1  0.12887000  0.98624000  0.63675000  1.0
  H  H22  1  0.37112000  0.48624000  0.13675000  1.0
  H  H23  1  0.87113000  0.01375000  0.36325000  1.0
  H  H24  1  0.63652000  0.35927000  0.88808000  1.0
  H  H25  1  0.13652000  0.14073000  0.61192000  1.0
  H  H26  1  0.36348000  0.64073000  0.11191000  1.0
  H  H27  1  0.86347000  0.85927000  0.38808000  1.0
  H  H28  1  0.23926000  0.33392000  0.76627000  1.0
  H  H29  1  0.73925000  0.16608000  0.73373000  1.0
  H  H30  1  0.76073000  0.66608000  0.23373000  1.0
  H  H31  1  0.26074000  0.83392000  0.26627000  1.0
  H  H32  1  0.22753000  0.48807000  0.74461000  1.0
  H  H33  1  0.72752000  0.01193000  0.75538000  1.0
  H  H34  1  0.77246000  0.51193000  0.25539000  1.0
  H  H35  1  0.27247000  0.98807000  0.24462000  1.0
  H  H36  1  0.61010000  0.96277000  0.88127000  1.0
  H  H37  1  0.11010000  0.53722000  0.61872000  1.0
  H  H38  1  0.38991000  0.03723000  0.11872000  1.0
  H  H39  1  0.88990000  0.46277000  0.38128000  1.0
  H  H40  1  0.59484000  0.11821000  0.87701000  1.0
  H  H41  1  0.09484000  0.38178000  0.62300000  1.0
  H  H42  1  0.40516000  0.88179000  0.12299000  1.0
  H  H43  1  0.90515000  0.61821000  0.37701000  1.0
  H  H44  1  0.17762000  0.11070000  0.76543000  1.0
  H  H45  1  0.67761000  0.38930000  0.73457000  1.0
  H  H46  1  0.82238000  0.88929000  0.23457000  1.0
  H  H47  1  0.32238000  0.61070000  0.26544000  1.0
  H  H48  1  0.19378000  0.95598000  0.77032000  1.0
  H  H49  1  0.69376000  0.54402000  0.72967000  1.0
  H  H50  1  0.80623000  0.04401000  0.22967000  1.0
  H  H51  1  0.30623000  0.45598000  0.27033000  1.0
  H  H52  1  0.54318000  0.62653000  0.63976000  1.0
  H  H53  1  0.04318000  0.87348000  0.86023000  1.0
  H  H54  1  0.45682000  0.37348000  0.36023000  1.0
  H  H55  1  0.95683000  0.12653000  0.13977000  1.0
  H  H56  1  0.53488000  0.57429000  0.56619000  1.0
  H  H57  1  0.03488000  0.92571000  0.93381000  1.0
  H  H58  1  0.46512000  0.42571000  0.43381000  1.0
  H  H59  1  0.96514000  0.07429000  0.06619000  1.0
  H  H60  1  0.41007000  0.54498000  0.63299000  1.0
  H  H61  1  0.91006000  0.95502000  0.86700000  1.0
  H  H62  1  0.58994000  0.45502000  0.36700000  1.0
  H  H63  1  0.08996000  0.04498000  0.13300000  1.0
  H  H64  1  0.36383000  0.59550000  0.44362000  1.0
  H  H65  1  0.86384000  0.90450000  0.05638000  1.0
  H  H66  1  0.63617000  0.40451000  0.55638000  1.0
  H  H67  1  0.13617000  0.09550000  0.94362000  1.0
  H  H68  1  0.17489000  0.56577000  0.46795000  1.0
  H  H69  1  0.67490000  0.93423000  0.03205000  1.0
  H  H70  1  0.82511000  0.43424000  0.53205000  1.0
  H  H71  1  0.32511000  0.06577000  0.96795000  1.0
  H  H72  1  0.33333333  0.52842000  0.51612000  1.0
  H  H73  1  0.83333000  0.97158000  0.98388000  1.0
  H  H74  1  0.66666667  0.47158000  0.48388000  1.0
  H  H75  1  0.16667000  0.02842000  0.01612000  1.0
  H  H76  1  0.04798000  0.70080000  0.51644000  1.0
  H  H77  1  0.54798000  0.79921000  0.98356000  1.0
  H  H78  1  0.95203000  0.29921000  0.48356000  1.0
  H  H79  1  0.45203000  0.20079000  0.01644000  1.0
  H  H80  1  0.17036000  0.72368000  0.44741000  1.0
  H  H81  1  0.67036000  0.77633000  0.05259000  1.0
  H  H82  1  0.82964000  0.27633000  0.55259000  1.0
  H  H83  1  0.32965000  0.22367000  0.94741000  1.0
  H  H84  1  0.19685000  0.77520000  0.52093000  1.0
  H  H85  1  0.69686000  0.72481000  0.97907000  1.0
  H  H86  1  0.80315000  0.22481000  0.47907000  1.0
  H  H87  1  0.30315000  0.27519000  0.02093000  1.0
  C  C88  1  0.49036000  0.84856000  0.66462000  1.0
  C  C89  1  0.99035000  0.65143000  0.83538000  1.0
  C  C90  1  0.50965000  0.15143000  0.33538000  1.0
  C  C91  1  0.00964000  0.34856000  0.16462000  1.0
  C  C92  1  0.60291000  0.88923000  0.61771000  1.0
  C  C93  1  0.10291000  0.61077000  0.88229000  1.0
  C  C94  1  0.39709000  0.11077000  0.38229000  1.0
  C  C95  1  0.89708000  0.38923000  0.11771000  1.0
  C  C96  1  0.73675000  0.84720000  0.60132000  1.0
  C  C97  1  0.23675000  0.65280000  0.89868000  1.0
  C  C98  1  0.26325000  0.15280000  0.39868000  1.0
  C  C99  1  0.76324000  0.34720000  0.10133000  1.0
  C  C100  1  0.84642000  0.88624000  0.56088000  1.0
  C  C101  1  0.34642000  0.61377000  0.93912000  1.0
  C  C102  1  0.15359000  0.11377000  0.43912000  1.0
  C  C103  1  0.65358000  0.38623000  0.06088000  1.0
  C  C104  1  0.82339000  0.96858000  0.53645000  1.0
  C  C105  1  0.32338000  0.53143000  0.96356000  1.0
  C  C106  1  0.17661000  0.03143000  0.46356000  1.0
  C  C107  1  0.67661000  0.46857000  0.03645000  1.0
  C  C108  1  0.68544000  0.00906000  0.54941000  1.0
  C  C109  1  0.18544000  0.49094000  0.95060000  1.0
  C  C110  1  0.31455000  0.99094000  0.45059000  1.0
  C  C111  1  0.81455000  0.50905000  0.04940000  1.0
  C  C112  1  0.57571000  0.96952000  0.58996000  1.0
  C  C113  1  0.07571000  0.53049000  0.91004000  1.0
  C  C114  1  0.42429000  0.03048000  0.41004000  1.0
  C  C115  1  0.92428000  0.46951000  0.08996000  1.0
  C  C116  1  0.42741000  0.60029000  0.78399000  1.0
  C  C117  1  0.92738000  0.89972000  0.71601000  1.0
  C  C118  1  0.57260000  0.39971000  0.21601000  1.0
  C  C119  1  0.07260000  0.10028000  0.28399000  1.0
  C  C120  1  0.42930000  0.50909000  0.80160000  1.0
  C  C121  1  0.92929000  0.99091000  0.69839000  1.0
  C  C122  1  0.57069000  0.49091000  0.19840000  1.0
  C  C123  1  0.07070000  0.00909000  0.30161000  1.0
  C  C124  1  0.54400000  0.47370000  0.84280000  1.0
  C  C125  1  0.04399000  0.02630000  0.65720000  1.0
  C  C126  1  0.45600000  0.52630000  0.15720000  1.0
  C  C127  1  0.95600000  0.97370000  0.34280000  1.0
  C  C128  1  0.54847000  0.38855000  0.85634000  1.0
  C  C129  1  0.04847000  0.11145000  0.64367000  1.0
  C  C130  1  0.45153000  0.61144000  0.14366000  1.0
  C  C131  1  0.95153000  0.88855000  0.35633000  1.0
  C  C132  1  0.44047000  0.33812000  0.82774000  1.0
  C  C133  1  0.94047000  0.16188000  0.67226000  1.0
  C  C134  1  0.55952000  0.66188000  0.17226000  1.0
  C  C135  1  0.05952000  0.83812000  0.32774000  1.0
  C  C136  1  0.32309000  0.37386000  0.78743000  1.0
  C  C137  1  0.82309000  0.12614000  0.71257000  1.0
  C  C138  1  0.67690000  0.62614000  0.21257000  1.0
  C  C139  1  0.17691000  0.87386000  0.28743000  1.0
  C  C140  1  0.31759000  0.45875000  0.77517000  1.0
  C  C141  1  0.81758000  0.04125000  0.72483000  1.0
  C  C142  1  0.68241000  0.54125000  0.22483000  1.0
  C  C143  1  0.18242000  0.95874000  0.27517000  1.0
  C  C144  1  0.41458000  0.85886000  0.82432000  1.0
  C  C145  1  0.91455000  0.64114000  0.67568000  1.0
  C  C146  1  0.58544000  0.14114000  0.17568000  1.0
  C  C147  1  0.08543000  0.35886000  0.32432000  1.0
  C  C148  1  0.40072000  0.95058000  0.82726000  1.0
  C  C149  1  0.90071000  0.54942000  0.67274000  1.0
  C  C150  1  0.59929000  0.04942000  0.17274000  1.0
  C  C151  1  0.09929000  0.45058000  0.32726000  1.0
  C  C152  1  0.51452000  0.99629000  0.85729000  1.0
  C  C153  1  0.01451000  0.50371000  0.64271000  1.0
  C  C154  1  0.48549000  0.00371000  0.14271000  1.0
  C  C155  1  0.98548000  0.49629000  0.35729000  1.0
  C  C156  1  0.50669000  0.08179000  0.85484000  1.0
  C  C157  1  0.00669000  0.41820000  0.64516000  1.0
  C  C158  1  0.49331000  0.91820000  0.14516000  1.0
  C  C159  1  0.99330000  0.58179000  0.35484000  1.0
  C  C160  1  0.38382000  0.12295000  0.82130000  1.0
  C  C161  1  0.88381000  0.37705000  0.67870000  1.0
  C  C162  1  0.61618000  0.87705000  0.17870000  1.0
  C  C163  1  0.11618000  0.62295000  0.32130000  1.0
  C  C164  1  0.26983000  0.07730000  0.79182000  1.0
  C  C165  1  0.76982000  0.42271000  0.70818000  1.0
  C  C166  1  0.73017000  0.92270000  0.20818000  1.0
  C  C167  1  0.23017000  0.57729000  0.29182000  1.0
  C  C168  1  0.27816000  0.99188000  0.79494000  1.0
  C  C169  1  0.77815000  0.50813000  0.70505000  1.0
  C  C170  1  0.72185000  0.00812000  0.20506000  1.0
  C  C171  1  0.22185000  0.49187000  0.29495000  1.0
  C  C172  1  0.34893000  0.66083000  0.58172000  1.0
  C  C173  1  0.84893000  0.83916000  0.91827000  1.0
  C  C174  1  0.65107000  0.33917000  0.41827000  1.0
  C  C175  1  0.15108000  0.16083000  0.08173000  1.0
  C  C176  1  0.46666000  0.59762000  0.60579000  1.0
  C  C177  1  0.96666000  0.90238000  0.89420000  1.0
  C  C178  1  0.53334000  0.40238000  0.39420000  1.0
  C  C179  1  0.03335000  0.09762000  0.10580000  1.0
  C  C180  1  0.28856000  0.58186000  0.48633000  1.0
  C  C181  1  0.78856000  0.91814000  0.01367000  1.0
  C  C182  1  0.71144000  0.41815000  0.51366000  1.0
  C  C183  1  0.21144000  0.08186000  0.98633000  1.0
  C  C184  1  0.16584000  0.71695000  0.50099000  1.0
  C  C185  1  0.66583000  0.78306000  0.99901000  1.0
  C  C186  1  0.83416000  0.28306000  0.49901000  1.0
  C  C187  1  0.33417000  0.21694000  0.00099000  1.0
  N  N188  1  0.93325000  0.01574000  0.49947000  1.0
  N  N189  1  0.43324000  0.48427000  0.00053000  1.0
  N  N190  1  0.06675000  0.98427000  0.50053000  1.0
  N  N191  1  0.56674000  0.51573000  0.99947000  1.0
  N  N192  1  0.46094000  0.25215000  0.84080000  1.0
  N  N193  1  0.96094000  0.24785000  0.65921000  1.0
  N  N194  1  0.53905000  0.74785000  0.15920000  1.0
  N  N195  1  0.03905000  0.75215000  0.34079000  1.0
  N  N196  1  0.36469000  0.20899000  0.81184000  1.0
  N  N197  1  0.86468000  0.29101000  0.68816000  1.0
  N  N198  1  0.63531000  0.79100000  0.18816000  1.0
  N  N199  1  0.13531000  0.70899000  0.31184000  1.0
  N  N200  1  0.27356000  0.65271000  0.52512000  1.0
  N  N201  1  0.77355000  0.84729000  0.97488000  1.0
  N  N202  1  0.72645000  0.34729000  0.47488000  1.0
  N  N203  1  0.22645000  0.15271000  0.02512000  1.0
  O  O204  1  0.35243000  0.87426000  0.66350000  1.0
  O  O205  1  0.85244000  0.62574000  0.83650000  1.0
  O  O206  1  0.64757000  0.12574000  0.33650000  1.0
  O  O207  1  0.14756000  0.37426000  0.16350000  1.0
  O  O208  1  0.31510000  0.62976000  0.75005000  1.0
  O  O209  1  0.81510000  0.87025000  0.74994000  1.0
  O  O210  1  0.68489000  0.37024000  0.24995000  1.0
  O  O211  1  0.18490000  0.12976000  0.25006000  1.0
  O  O212  1  0.54209000  0.82549000  0.84023000  1.0
  O  O213  1  0.04210000  0.67451000  0.65976000  1.0
  O  O214  1  0.45791000  0.17451000  0.15977000  1.0
  O  O215  1  0.95791000  0.32548000  0.34023000  1.0
  O  O216  1  0.29727000  0.82073000  0.80481000  1.0
  O  O217  1  0.79728000  0.67927000  0.69518000  1.0
  O  O218  1  0.70273000  0.17927000  0.19518000  1.0
  O  O219  1  0.20273000  0.32073000  0.30482000  1.0
  O  O220  1  0.53947000  0.64210000  0.80299000  1.0
  O  O221  1  0.03947000  0.85789000  0.69701000  1.0
  O  O222  1  0.46052000  0.35789000  0.19701000  1.0
  O  O223  1  0.96053000  0.14210000  0.30300000  1.0
  O  O224  1  0.53211000  0.78726000  0.70415000  1.0
  O  O225  1  0.03211000  0.71274000  0.79585000  1.0
  O  O226  1  0.46789000  0.21273000  0.29585000  1.0
  O  O227  1  0.96789000  0.28726000  0.20415000  1.0
  O  O228  1  0.32209000  0.72189000  0.61390000  1.0
  O  O229  1  0.82210000  0.77812000  0.88610000  1.0
  O  O230  1  0.67790000  0.27812000  0.38611000  1.0
  O  O231  1  0.17792000  0.22189000  0.11389000  1.0
