# generated using pymatgen
data_CsH2C3(SN)3
_symmetry_space_group_name_H-M   'P 1'
_cell_length_a   5.37903000
_cell_length_b   10.98360000
_cell_length_c   14.93570000
_cell_angle_alpha   89.45630000
_cell_angle_beta   87.54670000
_cell_angle_gamma   75.84180000
_symmetry_Int_Tables_number   1
_chemical_formula_structural   CsH2C3(SN)3
_chemical_formula_sum   'Cs4 H8 C12 S12 N12'
_cell_volume   854.82886173
_cell_formula_units_Z   4
loop_
 _symmetry_equiv_pos_site_id
 _symmetry_equiv_pos_as_xyz
  1  'x, y, z'
loop_
 _atom_site_type_symbol
 _atom_site_label
 _atom_site_symmetry_multiplicity
 _atom_site_fract_x
 _atom_site_fract_y
 _atom_site_fract_z
 _atom_site_occupancy
  Cs  Cs0  1  0.62535000  0.02198000  0.75910000  1.0
  Cs  Cs1  1  0.64831000  0.97763000  0.25921000  1.0
  Cs  Cs2  1  0.10463000  0.23073000  0.97357000  1.0
  Cs  Cs3  1  0.33379000  0.76942000  0.47348000  1.0
  H  H4  1  0.93900000  0.79779000  0.06098000  1.0
  H  H5  1  0.73519000  0.20207000  0.56175000  1.0
  H  H6  1  0.21279000  0.61106000  0.77880000  1.0
  H  H7  1  0.82251000  0.38897000  0.27873000  1.0
  H  H8  1  0.53487000  0.60887000  0.90991000  1.0
  H  H9  1  0.14567000  0.39111000  0.40953000  1.0
  H  H10  1  0.82132000  0.42545000  0.61982000  1.0
  H  H11  1  0.24602000  0.57467000  0.11986000  1.0
  C  C12  1  0.99525000  0.53736000  0.69339000  1.0
  C  C13  1  0.53171000  0.46272000  0.19327000  1.0
  C  C14  1  0.63707000  0.91210000  0.99224000  1.0
  C  C15  1  0.54805000  0.08791000  0.49244000  1.0
  C  C16  1  0.41381000  0.80550000  0.90395000  1.0
  C  C17  1  0.21945000  0.19458000  0.40388000  1.0
  C  C18  1  0.09610000  0.31029000  0.69794000  1.0
  C  C19  1  0.40655000  0.68978000  0.19785000  1.0
  C  C20  1  0.31712000  0.41472000  0.78890000  1.0
  C  C21  1  0.73090000  0.58528000  0.28903000  1.0
  C  C22  1  0.75695000  0.68555000  0.99181000  1.0
  C  C23  1  0.44392000  0.31445000  0.49152000  1.0
  S  S24  1  0.04699000  0.17661000  0.65483000  1.0
  S  S25  1  0.22481000  0.82332000  0.15449000  1.0
  S  S26  1  0.20050000  0.80247000  0.82524000  1.0
  S  S27  1  0.00361000  0.19762000  0.32502000  1.0
  S  S28  1  0.53590000  0.41559000  0.86627000  1.0
  S  S29  1  0.95023000  0.58432000  0.36658000  1.0
  S  S30  1  0.69766000  0.04491000  0.03173000  1.0
  S  S31  1  0.74147000  0.95499000  0.53157000  1.0
  S  S32  1  0.82923000  0.67450000  0.65451000  1.0
  S  S33  1  0.50324000  0.32554000  0.15408000  1.0
  S  S34  1  0.94518000  0.55016000  0.02528000  1.0
  S  S35  1  0.49965000  0.44982000  0.52386000  1.0
  N  N36  1  0.27030000  0.30627000  0.76076000  1.0
  N  N37  1  0.57627000  0.69375000  0.26083000  1.0
  N  N38  1  0.78844000  0.79847000  0.01906000  1.0
  N  N39  1  0.58603000  0.20153000  0.51948000  1.0
  N  N40  1  0.18056000  0.52759000  0.75467000  1.0
  N  N41  1  0.70698000  0.47242000  0.25469000  1.0
  N  N42  1  0.56289000  0.69280000  0.93475000  1.0
  N  N43  1  0.25681000  0.30723000  0.43457000  1.0
  N  N44  1  0.95942000  0.42457000  0.66642000  1.0
  N  N45  1  0.38342000  0.57549000  0.16640000  1.0
  N  N46  1  0.44901000  0.91477000  0.93513000  1.0
  N  N47  1  0.36310000  0.08529000  0.43516000  1.0
