# generated using pymatgen
data_Zn4H44C83N20O11F12
_symmetry_space_group_name_H-M   'P 1'
_cell_length_a   19.67590000
_cell_length_b   19.75490000
_cell_length_c   21.60974091
_cell_angle_alpha   106.18767143
_cell_angle_beta   108.85088430
_cell_angle_gamma   109.27300000
_symmetry_Int_Tables_number   1
_chemical_formula_structural   Zn4H44C83N20O11F12
_chemical_formula_sum   'Zn4 H44 C83 N20 O11 F12'
_cell_volume   6769.23043104
_cell_formula_units_Z   1
loop_
 _symmetry_equiv_pos_site_id
 _symmetry_equiv_pos_as_xyz
  1  'x, y, z'
loop_
 _atom_site_type_symbol
 _atom_site_label
 _atom_site_symmetry_multiplicity
 _atom_site_fract_x
 _atom_site_fract_y
 _atom_site_fract_z
 _atom_site_occupancy
  Zn  Zn0  1  0.86973000  0.88268000  0.48019000  1.0
  Zn  Zn1  1  0.10249000  0.10592000  0.50452000  1.0
  Zn  Zn2  1  0.09219000  0.97672000  0.58836000  1.0
  Zn  Zn3  1  0.84678000  0.97178000  0.37316000  1.0
  H  H4  1  0.12368000  0.86794000  0.48240000  1.0
  H  H5  1  0.62208000  0.16681000  0.74462000  1.0
  H  H6  1  0.12631000  0.64721000  0.47293000  1.0
  H  H7  1  0.18769000  0.10127000  0.75012000  1.0
  H  H8  1  0.11440000  0.54100000  0.50353000  1.0
  H  H9  1  0.89812000  0.40947000  0.37177000  1.0
  H  H10  1  0.89888000  0.53155000  0.39044000  1.0
  H  H11  1  0.94100000  0.37142000  0.28625000  1.0
  H  H12  1  0.00760000  0.51838000  0.27397000  1.0
  H  H13  1  0.13357000  0.60165000  0.39416000  1.0
  H  H14  1  0.77714000  0.08386000  0.45493000  1.0
  H  H15  1  0.12124000  0.05888000  0.36598000  1.0
  H  H16  1  0.91277000  0.47368000  0.27213000  1.0
  H  H17  1  0.64068000  0.44889000  0.16800000  1.0
  H  H18  1  0.71158000  0.58262000  0.27136000  1.0
  H  H19  1  0.59552000  0.55350000  0.01885000  1.0
  H  H20  1  0.52034000  0.37359000  0.83535000  1.0
  H  H21  1  0.22287000  0.25043000  0.63886000  1.0
  H  H22  1  0.94444000  0.08411000  0.07907000  1.0
  H  H23  1  0.90211000  0.05027000  0.87824000  1.0
  H  H24  1  0.88501000  0.99883000  0.75227000  1.0
  H  H25  1  0.09972000  0.99538000  0.24187000  1.0
  H  H26  1  0.86212000  0.73385000  0.37082000  1.0
  H  H27  1  0.05621000  0.94264000  0.93713000  1.0
  H  H28  1  0.11535000  0.99222000  0.13111000  1.0
  H  H29  1  0.88940000  0.01749000  0.62022000  1.0
  H  H30  1  0.71077000  0.69675000  0.35827000  1.0
  H  H31  1  0.76266000  0.83850000  0.55167000  1.0
  H  H32  1  0.82751000  0.00089000  0.20084000  1.0
  H  H33  1  0.18358000  0.29433000  0.46314000  1.0
  H  H34  1  0.55704000  0.03112000  0.47832000  1.0
  H  H35  1  0.68617000  0.31408000  0.80236000  1.0
  H  H36  1  0.02047000  0.47710000  0.53077000  1.0
  H  H37  1  0.77836000  0.81374000  0.22968000  1.0
  H  H38  1  0.10107000  0.47109000  0.29248000  1.0
  H  H39  1  0.18517000  0.46705000  0.46578000  1.0
  H  H40  1  0.46333000  0.31782000  0.71998000  1.0
  H  H41  1  0.64284000  0.74396000  0.15243000  1.0
  H  H42  1  0.13114000  0.95642000  0.77304000  1.0
  H  H43  1  0.49935000  0.01705000  0.55759000  1.0
  H  H44  1  0.62043000  0.00807000  0.58114000  1.0
  H  H45  1  0.68676000  0.20706000  0.57171000  1.0
  H  H46  1  0.51438000  0.12862000  0.52255000  1.0
  H  H47  1  0.58199000  0.22692000  0.58908000  1.0
  C  C48  1  0.88636000  0.88885000  0.63310000  1.0
  C  C49  1  0.92498000  0.77825000  0.40463000  1.0
  C  C50  1  0.76675000  0.79721000  0.27049000  1.0
  C  C51  1  0.07442000  0.23205000  0.47218000  1.0
  C  C52  1  0.26999000  0.04217000  0.60517000  1.0
  C  C53  1  0.72596000  0.72116000  0.26615000  1.0
  C  C54  1  0.31895000  0.08473000  0.58013000  1.0
  C  C55  1  0.99501000  0.77049000  0.41025000  1.0
  C  C56  1  0.99991000  0.03479000  0.28489000  1.0
  C  C57  1  0.62784000  0.05754000  0.62619000  1.0
  C  C58  1  0.64178000  0.15358000  0.56824000  1.0
  C  C59  1  0.02087000  0.26515000  0.45304000  1.0
  C  C60  1  0.56981000  0.16488000  0.57460000  1.0
  C  C61  1  0.40208000  0.11194000  0.60306000  1.0
  C  C62  1  0.68701000  0.13746000  0.63305000  1.0
  C  C63  1  0.18269000  0.12827000  0.71281000  1.0
  C  C64  1  0.54525000  0.05619000  0.61439000  1.0
  C  C65  1  0.55257000  0.14072000  0.63244000  1.0
  C  C66  1  0.62627000  0.19618000  0.70840000  1.0
  C  C67  1  0.70505000  0.20515000  0.70301000  1.0
  C  C68  1  0.47465000  0.13517000  0.62529000  1.0
  C  C69  1  0.75689000  0.13193000  0.62762000  1.0
  C  C70  1  0.23963000  0.20047000  0.72143000  1.0
  C  C71  1  0.79385000  0.10700000  0.59992000  1.0
  C  C72  1  0.10595000  0.52548000  0.44737000  1.0
  C  C73  1  0.95686000  0.45847000  0.41532000  1.0
  C  C74  1  0.96007000  0.53753000  0.41575000  1.0
  C  C75  1  0.80727000  0.05885000  0.48636000  1.0
  C  C76  1  0.99941000  0.69899000  0.38445000  1.0
  C  C77  1  0.02480000  0.44636000  0.39902000  1.0
  C  C78  1  0.09958000  0.59116000  0.42503000  1.0
  C  C79  1  0.00986000  0.56722000  0.37766000  1.0
  C  C80  1  0.97810000  0.49624000  0.30466000  1.0
  C  C81  1  0.82466000  0.07036000  0.55829000  1.0
  C  C82  1  0.99605000  0.42898000  0.31669000  1.0
  C  C83  1  0.00269000  0.63636000  0.37131000  1.0
  C  C84  1  0.02965000  0.38029000  0.41371000  1.0
  C  C85  1  0.02801000  0.32702000  0.43208000  1.0
  C  C86  1  0.68860000  0.64406000  0.20450000  1.0
  C  C87  1  0.20147000  0.20437000  0.65576000  1.0
  C  C88  1  0.65653000  0.63448000  0.13169000  1.0
  C  C89  1  0.62241000  0.56008000  0.07422000  1.0
  C  C90  1  0.61459000  0.49259000  0.08664000  1.0
  C  C91  1  0.64706000  0.50159000  0.15854000  1.0
  C  C92  1  0.73344000  0.73765000  0.33656000  1.0
  C  C93  1  0.68492000  0.57625000  0.21597000  1.0
  C  C94  1  0.40829000  0.30012000  0.91266000  1.0
  C  C95  1  0.33361000  0.25503000  0.85099000  1.0
  C  C96  1  0.47740000  0.34751000  0.90916000  1.0
  C  C97  1  0.32085000  0.25071000  0.78174000  1.0
  C  C98  1  0.39272000  0.29318000  0.77721000  1.0
  C  C99  1  0.86510000  0.02521000  0.57146000  1.0
  C  C100  1  0.46711000  0.33935000  0.83965000  1.0
  C  C101  1  0.96105000  0.94198000  0.77248000  1.0
  C  C102  1  0.00884000  0.92794000  0.82686000  1.0
  C  C103  1  0.26051000  0.09008000  0.52593000  1.0
  C  C104  1  0.01972000  0.95590000  0.89702000  1.0
  C  C105  1  0.98092000  0.00092000  0.91560000  1.0
  C  C106  1  0.93220000  0.01590000  0.86297000  1.0
  C  C107  1  0.92268000  0.98683000  0.79277000  1.0
  C  C108  1  0.97895000  0.06519000  0.11476000  1.0
  C  C109  1  0.97261000  0.06766000  0.17694000  1.0
  C  C110  1  0.02942000  0.03527000  0.09734000  1.0
  C  C111  1  0.95550000  0.21846000  0.46082000  1.0
  C  C112  1  0.01287000  0.04061000  0.22352000  1.0
  C  C113  1  0.06699000  0.01616000  0.20689000  1.0
  C  C114  1  0.05877000  0.84656000  0.46105000  1.0
  C  C115  1  0.07578000  0.01393000  0.14535000  1.0
  C  C116  1  0.01817000  0.92509000  0.67977000  1.0
  C  C117  1  0.95482000  0.91662000  0.69974000  1.0
  C  C118  1  0.80004000  0.86226000  0.61163000  1.0
  C  C119  1  0.84689000  0.99848000  0.25357000  1.0
  C  C120  1  0.15152000  0.24590000  0.47501000  1.0
  C  C121  1  0.61324000  0.08641000  0.49585000  1.0
  C  C122  1  0.63432000  0.27789000  0.74666000  1.0
  C  C123  1  0.95929000  0.45405000  0.48540000  1.0
  C  C124  1  0.05666000  0.41728000  0.29139000  1.0
  C  C125  1  0.92901000  0.01566000  0.29492000  1.0
  C  C126  1  0.17967000  0.51487000  0.44994000  1.0
  C  C127  1  0.39927000  0.29413000  0.71085000  1.0
  C  C128  1  0.64760000  0.69851000  0.11220000  1.0
  C  C129  1  0.10367000  0.94892000  0.71678000  1.0
  C  C130  1  0.05734000  0.04194000  0.34843000  1.0
  N  N131  1  0.91060000  0.88419000  0.57973000  1.0
  N  N132  1  0.54813000  0.41150000  0.96753000  1.0
  N  N133  1  0.98370000  0.02831000  0.98439000  1.0
  N  N134  1  0.03947000  0.17237000  0.48890000  1.0
  N  N135  1  0.03323000  0.01849000  0.03130000  1.0
  N  N136  1  0.11874000  0.09029000  0.64640000  1.0
  N  N137  1  0.83376000  0.00927000  0.45939000  1.0
  N  N138  1  0.13044000  0.13864000  0.61150000  1.0
  N  N139  1  0.86983000  0.98828000  0.51150000  1.0
  N  N140  1  0.96673000  0.16357000  0.48197000  1.0
  N  N141  1  0.98933000  0.90751000  0.60794000  1.0
  N  N142  1  0.18624000  0.05626000  0.51997000  1.0
  N  N143  1  0.77470000  0.81671000  0.37875000  1.0
  N  N144  1  0.02835000  0.89437000  0.48486000  1.0
  N  N145  1  0.94656000  0.01243000  0.36029000  1.0
  N  N146  1  0.02424000  0.02936000  0.39305000  1.0
  N  N147  1  0.94589000  0.85221000  0.45006000  1.0
  N  N148  1  0.79508000  0.85312000  0.33714000  1.0
  N  N149  1  0.19294000  0.02480000  0.57072000  1.0
  N  N150  1  0.56232000  0.41538000  0.03057000  1.0
  O  O151  1  0.76860000  0.86398000  0.65217000  1.0
  O  O152  1  0.64216000  0.70149000  0.05499000  1.0
  O  O153  1  0.14697000  0.96032000  0.68551000  1.0
  O  O154  1  0.79572000  0.98091000  0.27709000  1.0
  O  O155  1  0.18328000  0.20329000  0.49024000  1.0
  O  O156  1  0.64544000  0.09045000  0.45659000  1.0
  O  O157  1  0.58921000  0.30335000  0.72108000  1.0
  O  O158  1  0.89834000  0.42737000  0.49222000  1.0
  O  O159  1  0.05820000  0.35401000  0.27094000  1.0
  O  O160  1  0.23073000  0.55527000  0.43740000  1.0
  O  O161  1  0.34467000  0.27306000  0.65122000  1.0
  F  F162  1  0.27337000  0.12241000  0.48142000  1.0
  F  F163  1  0.92382000  0.09722000  0.19376000  1.0
  F  F164  1  0.04522000  0.88258000  0.80874000  1.0
  F  F165  1  0.88668000  0.22402000  0.44887000  1.0
  F  F166  1  0.29400000  0.01854000  0.65708000  1.0
  F  F167  1  0.75991000  0.20870000  0.76420000  1.0
  F  F168  1  0.74305000  0.27795000  0.70163000  1.0
  F  F169  1  0.66150000  0.04816000  0.68892000  1.0
  F  F170  1  0.51806000  0.02496000  0.65731000  1.0
  F  F171  1  0.99749000  0.59554000  0.48856000  1.0
  F  F172  1  0.27018000  0.21545000  0.86129000  1.0
  F  F173  1  0.41026000  0.30090000  0.97561000  1.0
