# generated using pymatgen
data_Cu2H13C14(NO3)2
_symmetry_space_group_name_H-M   'P 1'
_cell_length_a   12.62270000
_cell_length_b   12.91890000
_cell_length_c   13.97630000
_cell_angle_alpha   90.00040000
_cell_angle_beta   90.00060000
_cell_angle_gamma   114.34200000
_symmetry_Int_Tables_number   1
_chemical_formula_structural   Cu2H13C14(NO3)2
_chemical_formula_sum   'Cu8 H52 C56 N8 O24'
_cell_volume   2076.52284690
_cell_formula_units_Z   4
loop_
 _symmetry_equiv_pos_site_id
 _symmetry_equiv_pos_as_xyz
  1  'x, y, z'
loop_
 _atom_site_type_symbol
 _atom_site_label
 _atom_site_symmetry_multiplicity
 _atom_site_fract_x
 _atom_site_fract_y
 _atom_site_fract_z
 _atom_site_occupancy
  Cu  Cu0  1  0.16126000  0.43186000  0.59683000  1.0
  Cu  Cu1  1  0.51676000  0.08662000  0.92653000  1.0
  Cu  Cu2  1  0.33875000  0.06816000  0.09686000  1.0
  Cu  Cu3  1  0.98325000  0.41343000  0.42651000  1.0
  Cu  Cu4  1  0.83876000  0.56818000  0.40313000  1.0
  Cu  Cu5  1  0.48326000  0.91343000  0.07349000  1.0
  Cu  Cu6  1  0.66127000  0.93186000  0.90319000  1.0
  Cu  Cu7  1  0.01675000  0.58662000  0.57348000  1.0
  H  H8  1  0.53673000  0.05014000  0.72471000  1.0
  H  H9  1  0.69608000  0.12284000  0.59945000  1.0
  H  H10  1  0.91944000  0.34101000  0.81532000  1.0
  H  H11  1  0.75220000  0.25830000  0.93247000  1.0
  H  H12  1  0.32441000  0.32470000  0.58712000  1.0
  H  H13  1  0.40782000  0.22636000  0.70179000  1.0
  H  H14  1  0.21527000  0.29771000  0.92683000  1.0
  H  H15  1  0.13445000  0.38736000  0.80237000  1.0
  H  H16  1  0.40458000  0.60606000  0.34975000  1.0
  H  H17  1  0.35508000  0.68833000  0.42590000  1.0
  H  H18  1  0.25625000  0.55206000  0.38735000  1.0
  H  H19  1  0.37200000  0.46401000  0.47909000  1.0
  H  H20  1  0.46810000  0.59983000  0.51849000  1.0
  H  H21  1  0.96326000  0.44990000  0.22470000  1.0
  H  H22  1  0.80389000  0.37717000  0.09945000  1.0
  H  H23  1  0.58060000  0.15897000  0.31532000  1.0
  H  H24  1  0.74785000  0.24172000  0.43246000  1.0
  H  H25  1  0.17560000  0.17532000  0.08714000  1.0
  H  H26  1  0.09214000  0.27364000  0.20180000  1.0
  H  H27  1  0.28469000  0.20231000  0.42686000  1.0
  H  H28  1  0.36553000  0.11266000  0.30241000  1.0
  H  H29  1  0.09540000  0.89387000  0.84987000  1.0
  H  H30  1  0.14496000  0.81162000  0.92601000  1.0
  H  H31  1  0.24372000  0.94791000  0.88745000  1.0
  H  H32  1  0.12795000  0.03590000  0.97923000  1.0
  H  H33  1  0.03189000  0.90006000  0.01864000  1.0
  H  H34  1  0.46328000  0.94989000  0.27529000  1.0
  H  H35  1  0.30393000  0.87719000  0.40056000  1.0
  H  H36  1  0.08060000  0.65898000  0.18468000  1.0
  H  H37  1  0.24784000  0.74172000  0.06753000  1.0
  H  H38  1  0.67560000  0.67531000  0.41285000  1.0
  H  H39  1  0.59214000  0.77362000  0.29818000  1.0
  H  H40  1  0.78470000  0.70230000  0.07312000  1.0
  H  H41  1  0.86554000  0.61266000  0.19758000  1.0
  H  H42  1  0.59540000  0.39384000  0.65011000  1.0
  H  H43  1  0.64497000  0.31161000  0.57396000  1.0
  H  H44  1  0.74373000  0.44788000  0.61253000  1.0
  H  H45  1  0.62793000  0.53586000  0.52076000  1.0
  H  H46  1  0.53190000  0.40001000  0.48134000  1.0
  H  H47  1  0.03673000  0.55014000  0.77530000  1.0
  H  H48  1  0.19610000  0.62284000  0.90056000  1.0
  H  H49  1  0.41944000  0.84099000  0.68468000  1.0
  H  H50  1  0.25219000  0.75827000  0.56754000  1.0
  H  H51  1  0.82446000  0.82473000  0.91289000  1.0
  H  H52  1  0.90786000  0.72639000  0.79821000  1.0
  H  H53  1  0.71524000  0.79770000  0.57319000  1.0
  H  H54  1  0.63442000  0.88734000  0.69767000  1.0
  H  H55  1  0.90458000  0.10608000  0.15026000  1.0
  H  H56  1  0.85508000  0.18834000  0.07411000  1.0
  H  H57  1  0.75625000  0.05208000  0.11265000  1.0
  H  H58  1  0.87201000  0.96402000  0.02091000  1.0
  H  H59  1  0.96811000  0.09986000  0.98152000  1.0
  C  C60  1  0.62324000  0.11469000  0.74087000  1.0
  C  C61  1  0.71051000  0.15487000  0.67254000  1.0
  C  C62  1  0.81931000  0.23813000  0.69850000  1.0
  C  C63  1  0.83558000  0.27699000  0.79278000  1.0
  C  C64  1  0.74485000  0.23197000  0.85790000  1.0
  C  C65  1  0.91583000  0.28389000  0.62530000  1.0
  C  C66  1  0.30285000  0.31616000  0.66295000  1.0
  C  C67  1  0.34823000  0.26213000  0.72640000  1.0
  C  C68  1  0.31625000  0.25380000  0.82285000  1.0
  C  C69  1  0.24017000  0.30140000  0.85192000  1.0
  C  C70  1  0.19662000  0.35209000  0.78400000  1.0
  C  C71  1  0.36120000  0.19424000  0.89472000  1.0
  C  C72  1  0.34636000  0.60196000  0.40970000  1.0
  C  C73  1  0.37594000  0.54917000  0.49765000  1.0
  C  C74  1  0.87676000  0.38533000  0.24086000  1.0
  C  C75  1  0.78949000  0.34515000  0.17254000  1.0
  C  C76  1  0.68070000  0.26187000  0.19850000  1.0
  C  C77  1  0.66444000  0.22300000  0.29278000  1.0
  C  C78  1  0.75517000  0.26805000  0.35790000  1.0
  C  C79  1  0.58416000  0.21612000  0.12533000  1.0
  C  C80  1  0.19714000  0.18386000  0.16298000  1.0
  C  C81  1  0.15174000  0.23788000  0.22642000  1.0
  C  C82  1  0.18373000  0.24622000  0.32287000  1.0
  C  C83  1  0.25981000  0.19863000  0.35194000  1.0
  C  C84  1  0.30335000  0.14793000  0.28404000  1.0
  C  C85  1  0.13878000  0.30578000  0.39473000  1.0
  C  C86  1  0.15363000  0.89799000  0.90982000  1.0
  C  C87  1  0.12405000  0.95075000  0.99779000  1.0
  C  C88  1  0.37677000  0.88533000  0.25914000  1.0
  C  C89  1  0.28950000  0.84516000  0.32747000  1.0
  C  C90  1  0.18071000  0.76188000  0.30150000  1.0
  C  C91  1  0.16445000  0.72301000  0.20722000  1.0
  C  C92  1  0.25517000  0.76805000  0.14210000  1.0
  C  C93  1  0.08418000  0.71614000  0.37468000  1.0
  C  C94  1  0.69715000  0.68385000  0.33701000  1.0
  C  C95  1  0.65174000  0.73786000  0.27357000  1.0
  C  C96  1  0.68373000  0.74621000  0.17712000  1.0
  C  C97  1  0.75981000  0.69862000  0.14804000  1.0
  C  C98  1  0.80336000  0.64792000  0.21595000  1.0
  C  C99  1  0.63878000  0.80577000  0.10526000  1.0
  C  C100  1  0.65364000  0.39796000  0.59016000  1.0
  C  C101  1  0.62404000  0.45072000  0.50220000  1.0
  C  C102  1  0.12324000  0.61469000  0.75915000  1.0
  C  C103  1  0.21053000  0.65486000  0.82747000  1.0
  C  C104  1  0.31932000  0.73813000  0.80150000  1.0
  C  C105  1  0.33558000  0.77698000  0.70722000  1.0
  C  C106  1  0.24485000  0.73195000  0.64211000  1.0
  C  C107  1  0.41584000  0.78390000  0.87470000  1.0
  C  C108  1  0.80287000  0.81618000  0.83706000  1.0
  C  C109  1  0.84826000  0.76215000  0.77361000  1.0
  C  C110  1  0.81626000  0.75382000  0.67716000  1.0
  C  C111  1  0.74017000  0.80140000  0.64810000  1.0
  C  C112  1  0.69662000  0.85208000  0.71602000  1.0
  C  C113  1  0.86121000  0.69426000  0.60528000  1.0
  C  C114  1  0.84636000  0.10197000  0.09031000  1.0
  C  C115  1  0.87595000  0.04919000  0.00236000  1.0
  N  N116  1  0.64058000  0.15274000  0.83180000  1.0
  N  N117  1  0.22711000  0.35867000  0.69128000  1.0
  N  N118  1  0.85943000  0.34728000  0.33179000  1.0
  N  N119  1  0.27287000  0.14136000  0.19131000  1.0
  N  N120  1  0.35944000  0.84728000  0.16821000  1.0
  N  N121  1  0.77288000  0.64135000  0.30867000  1.0
  N  N122  1  0.14058000  0.65272000  0.66822000  1.0
  N  N123  1  0.72712000  0.85867000  0.80873000  1.0
  O  O124  1  0.01394000  0.35172000  0.66236000  1.0
  O  O125  1  0.89478000  0.25485000  0.53989000  1.0
  O  O126  1  0.33543000  0.19602000  0.98095000  1.0
  O  O127  1  0.42221000  0.14579000  0.85696000  1.0
  O  O128  1  0.09296000  0.50241000  0.51688000  1.0
  O  O129  1  0.31093000  0.54604000  0.57948000  1.0
  O  O130  1  0.48607000  0.14832000  0.16240000  1.0
  O  O131  1  0.60519000  0.24514000  0.03990000  1.0
  O  O132  1  0.16450000  0.30396000  0.48097000  1.0
  O  O133  1  0.07780000  0.35426000  0.35696000  1.0
  O  O134  1  0.40706000  0.99765000  0.01690000  1.0
  O  O135  1  0.18910000  0.95392000  0.07960000  1.0
  O  O136  1  0.98608000  0.64834000  0.33760000  1.0
  O  O137  1  0.10522000  0.74517000  0.46010000  1.0
  O  O138  1  0.66451000  0.80396000  0.01902000  1.0
  O  O139  1  0.57780000  0.85424000  0.14304000  1.0
  O  O140  1  0.90706000  0.49765000  0.48310000  1.0
  O  O141  1  0.68911000  0.45392000  0.42039000  1.0
  O  O142  1  0.51394000  0.85173000  0.83765000  1.0
  O  O143  1  0.39478000  0.75484000  0.96012000  1.0
  O  O144  1  0.83544000  0.69605000  0.51905000  1.0
  O  O145  1  0.92222000  0.64581000  0.64304000  1.0
  O  O146  1  0.59297000  0.00241000  0.98313000  1.0
  O  O147  1  0.81094000  0.04606000  0.92053000  1.0
