# generated using pymatgen
data_ZnH38C42N2O5F6
_symmetry_space_group_name_H-M   'P 1'
_cell_length_a   7.36250000
_cell_length_b   14.03020000
_cell_length_c   21.04980000
_cell_angle_alpha   77.25400000
_cell_angle_beta   79.95530000
_cell_angle_gamma   77.19030000
_symmetry_Int_Tables_number   1
_chemical_formula_structural   ZnH38C42N2O5F6
_chemical_formula_sum   'Zn2 H76 C84 N4 O10 F12'
_cell_volume   2049.94029997
_cell_formula_units_Z   2
loop_
 _symmetry_equiv_pos_site_id
 _symmetry_equiv_pos_as_xyz
  1  'x, y, z'
loop_
 _atom_site_type_symbol
 _atom_site_label
 _atom_site_symmetry_multiplicity
 _atom_site_fract_x
 _atom_site_fract_y
 _atom_site_fract_z
 _atom_site_occupancy
  Zn  Zn0  1  0.94579000  0.84332000  0.63459000  1.0
  Zn  Zn1  1  0.93993000  0.37367000  0.13524000  1.0
  H  H2  1  0.51957000  0.17082000  0.64249000  1.0
  H  H3  1  0.48225000  0.24536000  0.70293000  1.0
  H  H4  1  0.77122000  0.25402000  0.58637000  1.0
  H  H5  1  0.73758000  0.32309000  0.64970000  1.0
  H  H6  1  0.05335000  0.20922000  0.66150000  1.0
  H  H7  1  0.03809000  0.00370000  0.76218000  1.0
  H  H8  1  0.90934000  0.04552000  0.83365000  1.0
  H  H9  1  0.09881000  0.10176000  0.78972000  1.0
  H  H10  1  0.66554000  0.29368000  0.75534000  1.0
  H  H11  1  0.89405000  0.27319000  0.77757000  1.0
  H  H12  1  0.72132000  0.21190000  0.82928000  1.0
  H  H13  1  0.47828000  0.11803000  0.81200000  1.0
  H  H14  1  0.61642000  0.99627000  0.81224000  1.0
  H  H15  1  0.43506000  0.04103000  0.76189000  1.0
  H  H16  1  0.94612000  0.65584000  0.48248000  1.0
  H  H17  1  0.08197000  0.54671000  0.45714000  1.0
  H  H18  1  0.75349000  0.55472000  0.56040000  1.0
  H  H19  1  0.89812000  0.44621000  0.53658000  1.0
  H  H20  1  0.96026000  0.43570000  0.65252000  1.0
  H  H21  1  0.30044000  0.53306000  0.66457000  1.0
  H  H22  1  0.48657000  0.47203000  0.61327000  1.0
  H  H23  1  0.33875000  0.40219000  0.67169000  1.0
  H  H24  1  0.19833000  0.39355000  0.51173000  1.0
  H  H25  1  0.27661000  0.32411000  0.58633000  1.0
  H  H26  1  0.42739000  0.39184000  0.52826000  1.0
  H  H27  1  0.40815000  0.56668000  0.45662000  1.0
  H  H28  1  0.47374000  0.61104000  0.52055000  1.0
  H  H29  1  0.32425000  0.69230000  0.46611000  1.0
  H  H30  1  0.90391000  0.97069000  0.49284000  1.0
  H  H31  1  0.69420000  0.99796000  0.40582000  1.0
  H  H32  1  0.38476000  0.78715000  0.53654000  1.0
  H  H33  1  0.60591000  0.77009000  0.61710000  1.0
  H  H34  1  0.17761000  0.71506000  0.36084000  1.0
  H  H35  1  0.87114000  0.76781000  0.29511000  1.0
  H  H36  1  0.28770000  0.01191000  0.22435000  1.0
  H  H37  1  0.02840000  0.14461000  0.17978000  1.0
  H  H38  1  0.32249000  0.36642000  0.17324000  1.0
  H  H39  1  0.59556000  0.24564000  0.21580000  1.0
  H  H40  1  0.94746000  0.74441000  0.78443000  1.0
  H  H41  1  0.14242000  0.72687000  0.87418000  1.0
  H  H42  1  0.52954000  0.87950000  0.72985000  1.0
  H  H43  1  0.32052000  0.88800000  0.64705000  1.0
  H  H44  1  0.59409000  0.99023000  0.94379000  1.0
  H  H45  1  0.89929000  0.95104000  0.00934000  1.0
  H  H46  1  0.55543000  0.73391000  0.06189000  1.0
  H  H47  1  0.82620000  0.60471000  0.10235000  1.0
  H  H48  1  0.57612000  0.37539000  0.08816000  1.0
  H  H49  1  0.29412000  0.49209000  0.04838000  1.0
  H  H50  1  0.50454000  0.46180000  0.33306000  1.0
  H  H51  1  0.50928000  0.40078000  0.41588000  1.0
  H  H52  1  0.71488000  0.56193000  0.34834000  1.0
  H  H53  1  0.72545000  0.49546000  0.42984000  1.0
  H  H54  1  0.05105000  0.44373000  0.37148000  1.0
  H  H55  1  0.03705000  0.16189000  0.38074000  1.0
  H  H56  1  0.19166000  0.23822000  0.38744000  1.0
  H  H57  1  0.11127000  0.24837000  0.31111000  1.0
  H  H58  1  0.73152000  0.34234000  0.47874000  1.0
  H  H59  1  0.97585000  0.29989000  0.48223000  1.0
  H  H60  1  0.83447000  0.21615000  0.47656000  1.0
  H  H61  1  0.58769000  0.21338000  0.40911000  1.0
  H  H62  1  0.72991000  0.17763000  0.33730000  1.0
  H  H63  1  0.51030000  0.25932000  0.33088000  1.0
  H  H64  1  0.96477000  0.53561000  0.84962000  1.0
  H  H65  1  0.85582000  0.53523000  0.93123000  1.0
  H  H66  1  0.69232000  0.40967000  0.92190000  1.0
  H  H67  1  0.80460000  0.41062000  0.84054000  1.0
  H  H68  1  0.94116000  0.24145000  0.90191000  1.0
  H  H69  1  0.31046000  0.23262000  0.96575000  1.0
  H  H70  1  0.45971000  0.27740000  0.89492000  1.0
  H  H71  1  0.33058000  0.18559000  0.89277000  1.0
  H  H72  1  0.08810000  0.41784000  0.79044000  1.0
  H  H73  1  0.20643000  0.29281000  0.79193000  1.0
  H  H74  1  0.33209000  0.38488000  0.79607000  1.0
  H  H75  1  0.22773000  0.55024000  0.93850000  1.0
  H  H76  1  0.31097000  0.51906000  0.85987000  1.0
  H  H77  1  0.40343000  0.44299000  0.93091000  1.0
  C  C78  1  0.07361000  0.03985000  0.59599000  1.0
  C  C79  1  0.94962000  0.07963000  0.64542000  1.0
  C  C80  1  0.79737000  0.03386000  0.68281000  1.0
  C  C81  1  0.22942000  0.09370000  0.55564000  1.0
  C  C82  1  0.68224000  0.10612000  0.72589000  1.0
  C  C83  1  0.59017000  0.19615000  0.67576000  1.0
  C  C84  1  0.75540000  0.24776000  0.63969000  1.0
  C  C85  1  0.92677000  0.17716000  0.66929000  1.0
  C  C86  1  0.84457000  0.14815000  0.74294000  1.0
  C  C87  1  0.98008000  0.06996000  0.78408000  1.0
  C  C88  1  0.77609000  0.23690000  0.77770000  1.0
  C  C89  1  0.54595000  0.06287000  0.78116000  1.0
  C  C90  1  0.83838000  0.63985000  0.68148000  1.0
  C  C91  1  0.96812000  0.59769000  0.63429000  1.0
  C  C92  1  0.09305000  0.65212000  0.58667000  1.0
  C  C93  1  0.68625000  0.58526000  0.72448000  1.0
  C  C94  1  0.18754000  0.58528000  0.53742000  1.0
  C  C95  1  0.02317000  0.58080000  0.50044000  1.0
  C  C96  1  0.89983000  0.51607000  0.55172000  1.0
  C  C97  1  0.99841000  0.49692000  0.61399000  1.0
  C  C98  1  0.21091000  0.48213000  0.58512000  1.0
  C  C99  1  0.34064000  0.47273000  0.63653000  1.0
  C  C100  1  0.28024000  0.39365000  0.55048000  1.0
  C  C101  1  0.35780000  0.61536000  0.49288000  1.0
  C  C102  1  0.78758000  0.93128000  0.49994000  1.0
  C  C103  1  0.67247000  0.94522000  0.45151000  1.0
  C  C104  1  0.52678000  0.89095000  0.46280000  1.0
  C  C105  1  0.50162000  0.82672000  0.52397000  1.0
  C  C106  1  0.62311000  0.81813000  0.56915000  1.0
  C  C107  1  0.40317000  0.89698000  0.41693000  1.0
  C  C108  1  0.28290000  0.89261000  0.38490000  1.0
  C  C109  1  0.14525000  0.87673000  0.35261000  1.0
  C  C110  1  0.10171000  0.78951000  0.34424000  1.0
  C  C111  1  0.94311000  0.81683000  0.31032000  1.0
  C  C112  1  0.89533000  0.91976000  0.29925000  1.0
  C  C113  1  0.74929000  0.98744000  0.27089000  1.0
  C  C114  1  0.61691000  0.04657000  0.24823000  1.0
  C  C115  1  0.46541000  0.11738000  0.22331000  1.0
  C  C116  1  0.30183000  0.08964000  0.21286000  1.0
  C  C117  1  0.15716000  0.16295000  0.18852000  1.0
  C  C118  1  0.32149000  0.28702000  0.18480000  1.0
  C  C119  1  0.47331000  0.21942000  0.20877000  1.0
  C  C120  1  0.07800000  0.77282000  0.77479000  1.0
  C  C121  1  0.18625000  0.76375000  0.82456000  1.0
  C  C122  1  0.35102000  0.80385000  0.80982000  1.0
  C  C123  1  0.40186000  0.84870000  0.74433000  1.0
  C  C124  1  0.28569000  0.85347000  0.69804000  1.0
  C  C125  1  0.46474000  0.80398000  0.85777000  1.0
  C  C126  1  0.57209000  0.81378000  0.89301000  1.0
  C  C127  1  0.69126000  0.83480000  0.93089000  1.0
  C  C128  1  0.69472000  0.92091000  0.95224000  1.0
  C  C129  1  0.85313000  0.90071000  0.98598000  1.0
  C  C130  1  0.94010000  0.80305000  0.98421000  1.0
  C  C131  1  0.10047000  0.74310000  0.00825000  1.0
  C  C132  1  0.24255000  0.69065000  0.02852000  1.0
  C  C133  1  0.40125000  0.62376000  0.05147000  1.0
  C  C134  1  0.55426000  0.65504000  0.06729000  1.0
  C  C135  1  0.70481000  0.58381000  0.08965000  1.0
  C  C136  1  0.56571000  0.45549000  0.08139000  1.0
  C  C137  1  0.40935000  0.52066000  0.05896000  1.0
  C  C138  1  0.02811000  0.48618000  0.22913000  1.0
  C  C139  1  0.93877000  0.42938000  0.28299000  1.0
  C  C140  1  0.81409000  0.36596000  0.27811000  1.0
  C  C141  1  0.14423000  0.56031000  0.23799000  1.0
  C  C142  1  0.72858000  0.32796000  0.34814000  1.0
  C  C143  1  0.59857000  0.42323000  0.36976000  1.0
  C  C144  1  0.73708000  0.48690000  0.37858000  1.0
  C  C145  1  0.93063000  0.42477000  0.35638000  1.0
  C  C146  1  0.90226000  0.31580000  0.38487000  1.0
  C  C147  1  0.06948000  0.23697000  0.36442000  1.0
  C  C148  1  0.85689000  0.29315000  0.45957000  1.0
  C  C149  1  0.63432000  0.23967000  0.35686000  1.0
  C  C150  1  0.86645000  0.25077000  0.04336000  1.0
  C  C151  1  0.96015000  0.30384000  0.98874000  1.0
  C  C152  1  0.06175000  0.37926000  0.99201000  1.0
  C  C153  1  0.75199000  0.17390000  0.03754000  1.0
  C  C154  1  0.12370000  0.42703000  0.92131000  1.0
  C  C155  1  0.93410000  0.48678000  0.89711000  1.0
  C  C156  1  0.82925000  0.40535000  0.89116000  1.0
  C  C157  1  0.96548000  0.30776000  0.91560000  1.0
  C  C158  1  0.16216000  0.33439000  0.88749000  1.0
  C  C159  1  0.32448000  0.25320000  0.91200000  1.0
  C  C160  1  0.19748000  0.35965000  0.81246000  1.0
  C  C161  1  0.27495000  0.48791000  0.91210000  1.0
  N  N162  1  0.76444000  0.86868000  0.55802000  1.0
  N  N163  1  0.16614000  0.26047000  0.17420000  1.0
  N  N164  1  0.12564000  0.81739000  0.71230000  1.0
  N  N165  1  0.71102000  0.48531000  0.09710000  1.0
  O  O166  1  0.08341000  0.95602000  0.57926000  1.0
  O  O167  1  0.75653000  0.95140000  0.68224000  1.0
  O  O168  1  0.81571000  0.72826000  0.69280000  1.0
  O  O169  1  0.12351000  0.73844000  0.58192000  1.0
  O  O170  1  0.02036000  0.95756000  0.32468000  1.0
  O  O171  1  0.03351000  0.48390000  0.16823000  1.0
  O  O172  1  0.77307000  0.34421000  0.22804000  1.0
  O  O173  1  0.85344000  0.25946000  0.10350000  1.0
  O  O174  1  0.09488000  0.40695000  0.04119000  1.0
  O  O175  1  0.84091000  0.76155000  0.95043000  1.0
  F  F176  1  0.25711000  0.08327000  0.49178000  1.0
  F  F177  1  0.19728000  0.19345000  0.55506000  1.0
  F  F178  1  0.39727000  0.05399000  0.58016000  1.0
  F  F179  1  0.71940000  0.48447000  0.72827000  1.0
  F  F180  1  0.51785000  0.62213000  0.69995000  1.0
  F  F181  1  0.65816000  0.60098000  0.78725000  1.0
  F  F182  1  0.11520000  0.64640000  0.19300000  1.0
  F  F183  1  0.10664000  0.58725000  0.29845000  1.0
  F  F184  1  0.33291000  0.52088000  0.22920000  1.0
  F  F185  1  0.78713000  0.08939000  0.08387000  1.0
  F  F186  1  0.56325000  0.21193000  0.04839000  1.0
  F  F187  1  0.78286000  0.14354000  0.97837000  1.0
