# generated using pymatgen
data_La2NiH22C26(N3O10)2
_symmetry_space_group_name_H-M   'P 1'
_cell_length_a   6.92662000
_cell_length_b   9.17769000
_cell_length_c   13.92820000
_cell_angle_alpha   86.76640000
_cell_angle_beta   84.84060000
_cell_angle_gamma   75.71230000
_symmetry_Int_Tables_number   1
_chemical_formula_structural   La2NiH22C26(N3O10)2
_chemical_formula_sum   'La2 Ni1 H22 C26 N6 O20'
_cell_volume   854.02010364
_cell_formula_units_Z   1
loop_
 _symmetry_equiv_pos_site_id
 _symmetry_equiv_pos_as_xyz
  1  'x, y, z'
loop_
 _atom_site_type_symbol
 _atom_site_label
 _atom_site_symmetry_multiplicity
 _atom_site_fract_x
 _atom_site_fract_y
 _atom_site_fract_z
 _atom_site_occupancy
  La  La0  1  0.49393000  0.71651000  0.40640000  1.0
  La  La1  1  0.50605000  0.28350000  0.59360000  1.0
  Ni  Ni2  1  0.50001000  0.49999000  0.99999000  1.0
  H  H3  1  0.16580000  0.43460000  0.99015000  1.0
  H  H4  1  0.83420000  0.56539000  0.00985000  1.0
  H  H5  1  0.28815000  0.25439000  0.97893000  1.0
  H  H6  1  0.71186000  0.74560000  0.02106000  1.0
  H  H7  1  0.76888000  0.15347000  0.05889000  1.0
  H  H8  1  0.23113000  0.84653000  0.94112000  1.0
  H  H9  1  0.73425000  0.09077000  0.24184000  1.0
  H  H10  1  0.26575000  0.90924000  0.75817000  1.0
  H  H11  1  0.98011000  0.53735000  0.13774000  1.0
  H  H12  1  0.01988000  0.46265000  0.86226000  1.0
  H  H13  1  0.07952000  0.25897000  0.39477000  1.0
  H  H14  1  0.92048000  0.74103000  0.60522000  1.0
  H  H15  1  0.34079000  0.07953000  0.12140000  1.0
  H  H16  1  0.65922000  0.92046000  0.87860000  1.0
  H  H17  1  0.74622000  0.91666000  0.50853000  1.0
  H  H18  1  0.25377000  0.08334000  0.49147000  1.0
  H  H19  1  0.70795000  0.97337000  0.40502000  1.0
  H  H20  1  0.29204000  0.02663000  0.59498000  1.0
  H  H21  1  0.12117000  0.61473000  0.49782000  1.0
  H  H22  1  0.87883000  0.38527000  0.50217000  1.0
  H  H23  1  0.01523000  0.76405000  0.43849000  1.0
  H  H24  1  0.98477000  0.23595000  0.56151000  1.0
  C  C25  1  0.69565000  0.22968000  0.11499000  1.0
  C  C26  1  0.30435000  0.77031000  0.88501000  1.0
  C  C27  1  0.58649000  0.31987000  0.26072000  1.0
  C  C28  1  0.41352000  0.68012000  0.73929000  1.0
  C  C29  1  0.52905000  0.43205000  0.19053000  1.0
  C  C30  1  0.47096000  0.56794000  0.80947000  1.0
  C  C31  1  0.41069000  0.58972000  0.18459000  1.0
  C  C32  1  0.58932000  0.41028000  0.81541000  1.0
  C  C33  1  0.55127000  0.31073000  0.36715000  1.0
  C  C34  1  0.44873000  0.68928000  0.63285000  1.0
  C  C35  1  0.87594000  0.53520000  0.32482000  1.0
  C  C36  1  0.12406000  0.46480000  0.67518000  1.0
  C  C37  1  0.15793000  0.30929000  0.11483000  1.0
  C  C38  1  0.84206000  0.69071000  0.88517000  1.0
  C  C39  1  0.04627000  0.42828000  0.17101000  1.0
  C  C40  1  0.95372000  0.57171000  0.82899000  1.0
  C  C41  1  0.01612000  0.41013000  0.27096000  1.0
  C  C42  1  0.98388000  0.58987000  0.72904000  1.0
  C  C43  1  0.10421000  0.27428000  0.31722000  1.0
  C  C44  1  0.89578000  0.72572000  0.68278000  1.0
  C  C45  1  0.24773000  0.17341000  0.16192000  1.0
  C  C46  1  0.75227000  0.82658000  0.83808000  1.0
  C  C47  1  0.22365000  0.15748000  0.26241000  1.0
  C  C48  1  0.77635000  0.84252000  0.73759000  1.0
  C  C49  1  0.33430000  0.01731000  0.31213000  1.0
  C  C50  1  0.66570000  0.98269000  0.68787000  1.0
  N  N51  1  0.17298000  0.32695000  0.01479000  1.0
  N  N52  1  0.82703000  0.67305000  0.98521000  1.0
  N  N53  1  0.59797000  0.37277000  0.10139000  1.0
  N  N54  1  0.40204000  0.62722000  0.89861000  1.0
  N  N55  1  0.69071000  0.19567000  0.21060000  1.0
  N  N56  1  0.30930000  0.80433000  0.78940000  1.0
  O  O57  1  0.38559000  0.63855000  0.09493000  1.0
  O  O58  1  0.61441000  0.36145000  0.90506000  1.0
  O  O59  1  0.34105000  0.66874000  0.25510000  1.0
  O  O60  1  0.65896000  0.33127000  0.74490000  1.0
  O  O61  1  0.59170000  0.18134000  0.40866000  1.0
  O  O62  1  0.40830000  0.81867000  0.59134000  1.0
  O  O63  1  0.48222000  0.43122000  0.41303000  1.0
  O  O64  1  0.51778000  0.56880000  0.58697000  1.0
  O  O65  1  0.85008000  0.52898000  0.41709000  1.0
  O  O66  1  0.14992000  0.47103000  0.58290000  1.0
  O  O67  1  0.77168000  0.64307000  0.27583000  1.0
  O  O68  1  0.22831000  0.35692000  0.72417000  1.0
  O  O69  1  0.26448000  0.98088000  0.39671000  1.0
  O  O70  1  0.73550000  0.01912000  0.60329000  1.0
  O  O71  1  0.49359000  0.93720000  0.27193000  1.0
  O  O72  1  0.50642000  0.06281000  0.72808000  1.0
  O  O73  1  0.74549000  0.87768000  0.44258000  1.0
  O  O74  1  0.25450000  0.12232000  0.55743000  1.0
  O  O75  1  0.14486000  0.70305000  0.45784000  1.0
  O  O76  1  0.85514000  0.29695000  0.54215000  1.0
