# generated using pymatgen
data_CdH16C22S2N10O
_symmetry_space_group_name_H-M   'P 1'
_cell_length_a   9.86117000
_cell_length_b   11.31410000
_cell_length_c   11.47900000
_cell_angle_alpha   82.28980000
_cell_angle_beta   81.08060000
_cell_angle_gamma   72.04220000
_symmetry_Int_Tables_number   1
_chemical_formula_structural   CdH16C22S2N10O
_chemical_formula_sum   'Cd2 H32 C44 S4 N20 O2'
_cell_volume   1198.49830478
_cell_formula_units_Z   2
loop_
 _symmetry_equiv_pos_site_id
 _symmetry_equiv_pos_as_xyz
  1  'x, y, z'
loop_
 _atom_site_type_symbol
 _atom_site_label
 _atom_site_symmetry_multiplicity
 _atom_site_fract_x
 _atom_site_fract_y
 _atom_site_fract_z
 _atom_site_occupancy
  Cd  Cd0  1  0.74081000  0.97497000  0.59864000  1.0
  Cd  Cd1  1  0.25919000  0.02503000  0.40136000  1.0
  H  H2  1  0.59730000  0.19821000  0.97797000  1.0
  H  H3  1  0.40270000  0.80179000  0.02203000  1.0
  H  H4  1  0.44714000  0.19442000  0.82267000  1.0
  H  H5  1  0.55286000  0.80558000  0.17733000  1.0
  H  H6  1  0.38736000  0.37217000  0.66941000  1.0
  H  H7  1  0.61264000  0.62784000  0.33059000  1.0
  H  H8  1  0.62150000  0.56174000  0.82663000  1.0
  H  H9  1  0.37850000  0.43826000  0.17337000  1.0
  H  H10  1  0.42460000  0.55977000  0.56964000  1.0
  H  H11  1  0.57541000  0.44023000  0.43037000  1.0
  H  H12  1  0.35371000  0.65828000  0.68482000  1.0
  H  H13  1  0.64629000  0.34172000  0.31518000  1.0
  H  H14  1  0.48056000  0.81287000  0.71188000  1.0
  H  H15  1  0.51944000  0.18713000  0.28812000  1.0
  H  H16  1  0.84918000  0.68533000  0.47085000  1.0
  H  H17  1  0.15082000  0.31467000  0.52915000  1.0
  H  H18  1  0.81919000  0.67658000  0.01080000  1.0
  H  H19  1  0.18081000  0.32341000  0.98920000  1.0
  H  H20  1  0.88677000  0.92570000  0.13464000  1.0
  H  H21  1  0.11323000  0.07430000  0.86536000  1.0
  H  H22  1  0.03598000  0.86426000  0.02727000  1.0
  H  H23  1  0.96402000  0.13573000  0.97273000  1.0
  H  H24  1  0.06704000  0.75040000  0.25614000  1.0
  H  H25  1  0.93296000  0.24960000  0.74386000  1.0
  H  H26  1  0.09948000  0.53788000  0.35449000  1.0
  H  H27  1  0.90053000  0.46212000  0.64551000  1.0
  H  H28  1  0.98879000  0.39245000  0.28430000  1.0
  H  H29  1  0.01121000  0.60755000  0.71570000  1.0
  H  H30  1  0.53133000  0.98567000  0.88342000  1.0
  H  H31  1  0.46867000  0.01433000  0.11658000  1.0
  H  H32  1  0.98204000  0.87049000  0.81214000  1.0
  H  H33  1  0.01796000  0.12951000  0.18786000  1.0
  C  C34  1  0.70771000  0.37850000  0.00095000  1.0
  C  C35  1  0.29229000  0.62150000  0.99905000  1.0
  C  C36  1  0.61883000  0.38009000  0.91095000  1.0
  C  C37  1  0.38117000  0.61991000  0.08905000  1.0
  C  C38  1  0.56885000  0.27632000  0.91071000  1.0
  C  C39  1  0.43114000  0.72368000  0.08930000  1.0
  C  C40  1  0.48544000  0.27448000  0.82437000  1.0
  C  C41  1  0.51456000  0.72552000  0.17563000  1.0
  C  C42  1  0.45098000  0.37485000  0.73820000  1.0
  C  C43  1  0.54902000  0.62515000  0.26180000  1.0
  C  C44  1  0.49796000  0.47941000  0.73892000  1.0
  C  C45  1  0.50204000  0.52059000  0.26108000  1.0
  C  C46  1  0.58236000  0.48175000  0.82536000  1.0
  C  C47  1  0.41764000  0.51825000  0.17464000  1.0
  C  C48  1  0.45124000  0.58921000  0.64829000  1.0
  C  C49  1  0.54876000  0.41079000  0.35172000  1.0
  C  C50  1  0.56432000  0.75923000  0.65032000  1.0
  C  C51  1  0.43568000  0.24077000  0.34968000  1.0
  C  C52  1  0.74914000  0.69126000  0.52785000  1.0
  C  C53  1  0.25087000  0.30874000  0.47215000  1.0
  C  C54  1  0.83192000  0.44257000  0.10381000  1.0
  C  C55  1  0.16808000  0.55744000  0.89619000  1.0
  C  C56  1  0.89741000  0.52635000  0.14319000  1.0
  C  C57  1  0.10259000  0.47365000  0.85681000  1.0
  C  C58  1  0.88084000  0.64697000  0.08594000  1.0
  C  C59  1  0.11916000  0.35303000  0.91406000  1.0
  C  C60  1  0.94164000  0.72785000  0.12590000  1.0
  C  C61  1  0.05836000  0.27215000  0.87410000  1.0
  C  C62  1  0.92929000  0.85824000  0.06746000  1.0
  C  C63  1  0.07071000  0.14176000  0.93254000  1.0
  C  C64  1  0.01934000  0.68783000  0.22352000  1.0
  C  C65  1  0.98067000  0.31217000  0.77647000  1.0
  C  C66  1  0.03704000  0.56763000  0.27968000  1.0
  C  C67  1  0.96296000  0.43237000  0.72032000  1.0
  C  C68  1  0.97648000  0.48623000  0.24053000  1.0
  C  C69  1  0.02353000  0.51376000  0.75947000  1.0
  C  C70  1  0.64457000  0.95412000  0.89502000  1.0
  C  C71  1  0.35543000  0.04589000  0.10498000  1.0
  C  C72  1  0.87273000  0.89872000  0.85602000  1.0
  C  C73  1  0.12727000  0.10128000  0.14398000  1.0
  C  C74  1  0.38240000  0.04368000  0.64493000  1.0
  C  C75  1  0.61759000  0.95632000  0.35507000  1.0
  C  C76  1  0.08459000  0.83155000  0.51308000  1.0
  C  C77  1  0.91541000  0.16845000  0.48693000  1.0
  S  S78  1  0.22741000  0.79458000  0.41643000  1.0
  S  S79  1  0.77259000  0.20542000  0.58357000  1.0
  S  S80  1  0.23180000  0.01170000  0.64580000  1.0
  S  S81  1  0.76820000  0.98830000  0.35420000  1.0
  N  N82  1  0.75541000  0.28720000  0.08178000  1.0
  N  N83  1  0.24458000  0.71280000  0.91822000  1.0
  N  N84  1  0.83552000  0.32849000  0.14776000  1.0
  N  N85  1  0.16448000  0.67151000  0.85223000  1.0
  N  N86  1  0.83644000  0.89627000  0.97426000  1.0
  N  N87  1  0.16356000  0.10373000  0.02574000  1.0
  N  N88  1  0.75283000  0.93597000  0.80369000  1.0
  N  N89  1  0.24718000  0.06403000  0.19631000  1.0
  N  N90  1  0.55900000  0.65418000  0.61140000  1.0
  N  N91  1  0.44100000  0.34582000  0.38860000  1.0
  N  N92  1  0.68390000  0.78550000  0.59881000  1.0
  N  N93  1  0.31610000  0.21450000  0.40119000  1.0
  N  N94  1  0.49314000  0.06481000  0.64389000  1.0
  N  N95  1  0.50686000  0.93519000  0.35611000  1.0
  N  N96  1  0.98230000  0.85827000  0.58455000  1.0
  N  N97  1  0.01770000  0.14173000  0.41545000  1.0
  N  N98  1  0.69069000  0.93106000  0.00098000  1.0
  N  N99  1  0.30931000  0.06894000  0.99902000  1.0
  N  N100  1  0.67709000  0.60841000  0.53326000  1.0
  N  N101  1  0.32291000  0.39159000  0.46674000  1.0
  O  O102  1  0.75242000  0.48026000  0.00969000  1.0
  O  O103  1  0.24758000  0.51974000  0.99031000  1.0
