# generated using pymatgen
data_H12PbC17SN2O5
_symmetry_space_group_name_H-M   'P 1'
_cell_length_a   5.51052000
_cell_length_b   10.28760000
_cell_length_c   29.05980000
_cell_angle_alpha   90.00040000
_cell_angle_beta   90.00070000
_cell_angle_gamma   81.11820000
_symmetry_Int_Tables_number   1
_chemical_formula_structural   H12PbC17SN2O5
_chemical_formula_sum   'H48 Pb4 C68 S4 N8 O20'
_cell_volume   1627.64675490
_cell_formula_units_Z   4
loop_
 _symmetry_equiv_pos_site_id
 _symmetry_equiv_pos_as_xyz
  1  'x, y, z'
loop_
 _atom_site_type_symbol
 _atom_site_label
 _atom_site_symmetry_multiplicity
 _atom_site_fract_x
 _atom_site_fract_y
 _atom_site_fract_z
 _atom_site_occupancy
  H  H0  1  0.87737000  0.86123000  0.77693000  1.0
  H  H1  1  0.62263000  0.13876000  0.27693000  1.0
  H  H2  1  0.12263000  0.13873000  0.22307000  1.0
  H  H3  1  0.37741000  0.86128000  0.72307000  1.0
  H  H4  1  0.84370000  0.62262000  0.78368000  1.0
  H  H5  1  0.65631000  0.37737000  0.28368000  1.0
  H  H6  1  0.15630000  0.37734000  0.21632000  1.0
  H  H7  1  0.34370000  0.62267000  0.71633000  1.0
  H  H8  1  0.53082000  0.55583000  0.85727000  1.0
  H  H9  1  0.96919000  0.44417000  0.35727000  1.0
  H  H10  1  0.46920000  0.44415000  0.14272000  1.0
  H  H11  1  0.03080000  0.55587000  0.64273000  1.0
  H  H12  1  0.56598000  0.79491000  0.84898000  1.0
  H  H13  1  0.93402000  0.20510000  0.34898000  1.0
  H  H14  1  0.43403000  0.20508000  0.15102000  1.0
  H  H15  1  0.06598000  0.79493000  0.65102000  1.0
  H  H16  1  0.56569000  0.98632000  0.88937000  1.0
  H  H17  1  0.93428000  0.01370000  0.38938000  1.0
  H  H18  1  0.43432000  0.01364000  0.11061000  1.0
  H  H19  1  0.06571000  0.98634000  0.61062000  1.0
  H  H20  1  0.66555000  0.90682000  0.96873000  1.0
  H  H21  1  0.83443000  0.09318000  0.46874000  1.0
  H  H22  1  0.33443000  0.09314000  0.03126000  1.0
  H  H23  1  0.16559000  0.90683000  0.53126000  1.0
  H  H24  1  0.25160000  0.14493000  0.96776000  1.0
  H  H25  1  0.24839000  0.85506000  0.46776000  1.0
  H  H26  1  0.74834000  0.85506000  0.03224000  1.0
  H  H27  1  0.75166000  0.14493000  0.53225000  1.0
  H  H28  1  0.12827000  0.21035000  0.88867000  1.0
  H  H29  1  0.37176000  0.78964000  0.38868000  1.0
  H  H30  1  0.87172000  0.78962000  0.11133000  1.0
  H  H31  1  0.62826000  0.21037000  0.61133000  1.0
  H  H32  1  0.69396000  0.23051000  0.07072000  1.0
  H  H33  1  0.80604000  0.76948000  0.57073000  1.0
  H  H34  1  0.30602000  0.76948000  0.92927000  1.0
  H  H35  1  0.19399000  0.23052000  0.42927000  1.0
  H  H36  1  0.99266000  0.38422000  0.07107000  1.0
  H  H37  1  0.50734000  0.61577000  0.57106000  1.0
  H  H38  1  0.00733000  0.61577000  0.92893000  1.0
  H  H39  1  0.49268000  0.38422000  0.42893000  1.0
  H  H40  1  0.77345000  0.48415000  0.93063000  1.0
  H  H41  1  0.72654000  0.51587000  0.43063000  1.0
  H  H42  1  0.22654000  0.51586000  0.06937000  1.0
  H  H43  1  0.27346000  0.48413000  0.56937000  1.0
  H  H44  1  0.47634000  0.33181000  0.93716000  1.0
  H  H45  1  0.02365000  0.66819000  0.43716000  1.0
  H  H46  1  0.52364000  0.66820000  0.06284000  1.0
  H  H47  1  0.97637000  0.33179000  0.56283000  1.0
  Pb  Pb48  1  0.68849000  0.19483000  0.80386000  1.0
  Pb  Pb49  1  0.81152000  0.80517000  0.30387000  1.0
  Pb  Pb50  1  0.31151000  0.80513000  0.19614000  1.0
  Pb  Pb51  1  0.18847000  0.19487000  0.69613000  1.0
  C  C52  1  0.25847000  0.98284000  0.80386000  1.0
  C  C53  1  0.24149000  0.01717000  0.30386000  1.0
  C  C54  1  0.74151000  0.01714000  0.19614000  1.0
  C  C55  1  0.75850000  0.98287000  0.69614000  1.0
  C  C56  1  0.22457000  0.84247000  0.81228000  1.0
  C  C57  1  0.27544000  0.15753000  0.31229000  1.0
  C  C58  1  0.77544000  0.15750000  0.18772000  1.0
  C  C59  1  0.72455000  0.84251000  0.68772000  1.0
  C  C60  1  0.01970000  0.79404000  0.79440000  1.0
  C  C61  1  0.48030000  0.20596000  0.29440000  1.0
  C  C62  1  0.98030000  0.20592000  0.20560000  1.0
  C  C63  1  0.51973000  0.79408000  0.70560000  1.0
  C  C64  1  0.99994000  0.66126000  0.79839000  1.0
  C  C65  1  0.50006000  0.33873000  0.29840000  1.0
  C  C66  1  0.00008000  0.33870000  0.20161000  1.0
  C  C67  1  0.49994000  0.66131000  0.70161000  1.0
  C  C68  1  0.18516000  0.57722000  0.82124000  1.0
  C  C69  1  0.31484000  0.42278000  0.32124000  1.0
  C  C70  1  0.81485000  0.42276000  0.17876000  1.0
  C  C71  1  0.68516000  0.57726000  0.67876000  1.0
  C  C72  1  0.38792000  0.62395000  0.84021000  1.0
  C  C73  1  0.11209000  0.37606000  0.34021000  1.0
  C  C74  1  0.61209000  0.37603000  0.15979000  1.0
  C  C75  1  0.88790000  0.62398000  0.65979000  1.0
  C  C76  1  0.40636000  0.75680000  0.83556000  1.0
  C  C77  1  0.09363000  0.24320000  0.33556000  1.0
  C  C78  1  0.59362000  0.24317000  0.16444000  1.0
  C  C79  1  0.90638000  0.75684000  0.66444000  1.0
  C  C80  1  0.71704000  0.01780000  0.90829000  1.0
  C  C81  1  0.78294000  0.98220000  0.40829000  1.0
  C  C82  1  0.28295000  0.98217000  0.09170000  1.0
  C  C83  1  0.21708000  0.01781000  0.59171000  1.0
  C  C84  1  0.77436000  0.97473000  0.95278000  1.0
  C  C85  1  0.72562000  0.02527000  0.45278000  1.0
  C  C86  1  0.22562000  0.02524000  0.04722000  1.0
  C  C87  1  0.27441000  0.97474000  0.54722000  1.0
  C  C88  1  0.96875000  0.01977000  0.97606000  1.0
  C  C89  1  0.53123000  0.98023000  0.47606000  1.0
  C  C90  1  0.03120000  0.98021000  0.02394000  1.0
  C  C91  1  0.46878000  0.01978000  0.52394000  1.0
  C  C92  1  0.09938000  0.10493000  0.95202000  1.0
  C  C93  1  0.40061000  0.89506000  0.45203000  1.0
  C  C94  1  0.90057000  0.89505000  0.04798000  1.0
  C  C95  1  0.59942000  0.10494000  0.54798000  1.0
  C  C96  1  0.03032000  0.14279000  0.90738000  1.0
  C  C97  1  0.46969000  0.85720000  0.40738000  1.0
  C  C98  1  0.96966000  0.85719000  0.09262000  1.0
  C  C99  1  0.53033000  0.14281000  0.59262000  1.0
  C  C100  1  0.71368000  0.28968000  0.04012000  1.0
  C  C101  1  0.78632000  0.71032000  0.54012000  1.0
  C  C102  1  0.28631000  0.71032000  0.95988000  1.0
  C  C103  1  0.21371000  0.28968000  0.45987000  1.0
  C  C104  1  0.88447000  0.37638000  0.04012000  1.0
  C  C105  1  0.61554000  0.62361000  0.54012000  1.0
  C  C106  1  0.11552000  0.62361000  0.95988000  1.0
  C  C107  1  0.38448000  0.37638000  0.45988000  1.0
  C  C108  1  0.91205000  0.45222000  0.00076000  1.0
  C  C109  1  0.58794000  0.54778000  0.50076000  1.0
  C  C110  1  0.08794000  0.54778000  0.99924000  1.0
  C  C111  1  0.41206000  0.45221000  0.49924000  1.0
  C  C112  1  0.76228000  0.43250000  0.96306000  1.0
  C  C113  1  0.73772000  0.56750000  0.46306000  1.0
  C  C114  1  0.23771000  0.56750000  0.03694000  1.0
  C  C115  1  0.26229000  0.43249000  0.53694000  1.0
  C  C116  1  0.59407000  0.34475000  0.96653000  1.0
  C  C117  1  0.90593000  0.65525000  0.46654000  1.0
  C  C118  1  0.40592000  0.65525000  0.03346000  1.0
  C  C119  1  0.09409000  0.34474000  0.53346000  1.0
  S  S120  1  0.16729000  0.40650000  0.82364000  1.0
  S  S121  1  0.33271000  0.59351000  0.32364000  1.0
  S  S122  1  0.83272000  0.59348000  0.17636000  1.0
  S  S123  1  0.66727000  0.40654000  0.67636000  1.0
  N  N124  1  0.84112000  0.10101000  0.88561000  1.0
  N  N125  1  0.65888000  0.89900000  0.38561000  1.0
  N  N126  1  0.15887000  0.89896000  0.11438000  1.0
  N  N127  1  0.34112000  0.10103000  0.61439000  1.0
  N  N128  1  0.56686000  0.27316000  0.00436000  1.0
  N  N129  1  0.93315000  0.72684000  0.50436000  1.0
  N  N130  1  0.43312000  0.72685000  0.99564000  1.0
  N  N131  1  0.06687000  0.27315000  0.49564000  1.0
  O  O132  1  0.09879000  0.05590000  0.77970000  1.0
  O  O133  1  0.40119000  0.94410000  0.27970000  1.0
  O  O134  1  0.90120000  0.94405000  0.22030000  1.0
  O  O135  1  0.59880000  0.05596000  0.72030000  1.0
  O  O136  1  0.45153000  0.01777000  0.82066000  1.0
  O  O137  1  0.04845000  0.98224000  0.32066000  1.0
  O  O138  1  0.54844000  0.98221000  0.17934000  1.0
  O  O139  1  0.95154000  0.01780000  0.67934000  1.0
  O  O140  1  0.91417000  0.39672000  0.83778000  1.0
  O  O141  1  0.58583000  0.60329000  0.33778000  1.0
  O  O142  1  0.08584000  0.60325000  0.16222000  1.0
  O  O143  1  0.41416000  0.39676000  0.66222000  1.0
  O  O144  1  0.22919000  0.35539000  0.77698000  1.0
  O  O145  1  0.27081000  0.64461000  0.27698000  1.0
  O  O146  1  0.77084000  0.64458000  0.22302000  1.0
  O  O147  1  0.72918000  0.35543000  0.72302000  1.0
  O  O148  1  0.35344000  0.34816000  0.85755000  1.0
  O  O149  1  0.14656000  0.65184000  0.35755000  1.0
  O  O150  1  0.64659000  0.65182000  0.14245000  1.0
  O  O151  1  0.85342000  0.34819000  0.64245000  1.0
