# generated using pymatgen
data_Cd2H27C41N6O11
_symmetry_space_group_name_H-M   'P 1'
_cell_length_a   14.23180000
_cell_length_b   15.63870000
_cell_length_c   22.88130000
_cell_angle_alpha   79.58940000
_cell_angle_beta   71.86730000
_cell_angle_gamma   62.93180000
_symmetry_Int_Tables_number   1
_chemical_formula_structural   Cd2H27C41N6O11
_chemical_formula_sum   'Cd8 H108 C164 N24 O44'
_cell_volume   4304.99728462
_cell_formula_units_Z   4
loop_
 _symmetry_equiv_pos_site_id
 _symmetry_equiv_pos_as_xyz
  1  'x, y, z'
loop_
 _atom_site_type_symbol
 _atom_site_label
 _atom_site_symmetry_multiplicity
 _atom_site_fract_x
 _atom_site_fract_y
 _atom_site_fract_z
 _atom_site_occupancy
  Cd  Cd0  1  0.32558000  0.58695000  0.32287000  1.0
  Cd  Cd1  1  0.23523000  0.91309000  0.17713000  1.0
  Cd  Cd2  1  0.67442000  0.41305000  0.67713000  1.0
  Cd  Cd3  1  0.76477000  0.08691000  0.82287000  1.0
  Cd  Cd4  1  0.40667000  0.05371000  0.47021000  1.0
  Cd  Cd5  1  0.93058000  0.44635000  0.02974000  1.0
  Cd  Cd6  1  0.59333000  0.94629000  0.52979000  1.0
  Cd  Cd7  1  0.06942000  0.55365000  0.97026000  1.0
  H  H8  1  0.60249000  0.45347000  0.32449000  1.0
  H  H9  1  0.38074000  0.04644000  0.17546000  1.0
  H  H10  1  0.39751000  0.54653000  0.67551000  1.0
  H  H11  1  0.61926000  0.95356000  0.82454000  1.0
  H  H12  1  0.31523000  0.67137000  0.19762000  1.0
  H  H13  1  0.18427000  0.82881000  0.30254000  1.0
  H  H14  1  0.68477000  0.32863000  0.80238000  1.0
  H  H15  1  0.81573000  0.17119000  0.69746000  1.0
  H  H16  1  0.42628000  0.65280000  0.20618000  1.0
  H  H17  1  0.28549000  0.84725000  0.29371000  1.0
  H  H18  1  0.57371000  0.34720000  0.79383000  1.0
  H  H19  1  0.71451000  0.15275000  0.70629000  1.0
  H  H20  1  0.71435000  0.91794000  0.94318000  1.0
  H  H21  1  0.57594000  0.58232000  0.55673000  1.0
  H  H22  1  0.28565000  0.08207000  0.05682000  1.0
  H  H23  1  0.42406000  0.41769000  0.44327000  1.0
  H  H24  1  0.64479000  0.95657000  0.06735000  1.0
  H  H25  1  0.66922000  0.54351000  0.43260000  1.0
  H  H26  1  0.35521000  0.04344000  0.93265000  1.0
  H  H27  1  0.33078000  0.45649000  0.56740000  1.0
  H  H28  1  0.69834000  0.18896000  0.95870000  1.0
  H  H29  1  0.84600000  0.31096000  0.54135000  1.0
  H  H30  1  0.30167000  0.81105000  0.04130000  1.0
  H  H31  1  0.15400000  0.68903000  0.45865000  1.0
  H  H32  1  0.70018000  0.01701000  0.14020000  1.0
  H  H33  1  0.85747000  0.48289000  0.35981000  1.0
  H  H34  1  0.29982000  0.98299000  0.85980000  1.0
  H  H35  1  0.14252000  0.51711000  0.64019000  1.0
  H  H36  1  0.62582000  0.10969000  0.23415000  1.0
  H  H37  1  0.96982000  0.39025000  0.26585000  1.0
  H  H38  1  0.37418000  0.89031000  0.76585000  1.0
  H  H39  1  0.03017000  0.60975000  0.73415000  1.0
  H  H40  1  0.45573000  0.36612000  0.13272000  1.0
  H  H41  1  0.95469000  0.13380000  0.36727000  1.0
  H  H42  1  0.54427000  0.63388000  0.86729000  1.0
  H  H43  1  0.04530000  0.86619000  0.63273000  1.0
  H  H44  1  0.53157000  0.27418000  0.03918000  1.0
  H  H45  1  0.84519000  0.22565000  0.46087000  1.0
  H  H46  1  0.46843000  0.72582000  0.96082000  1.0
  H  H47  1  0.15481000  0.77434000  0.53913000  1.0
  H  H48  1  0.47657000  0.18948000  0.31533000  1.0
  H  H49  1  0.98122000  0.31052000  0.18467000  1.0
  H  H50  1  0.52344000  0.81052000  0.68467000  1.0
  H  H51  1  0.01876000  0.68948000  0.81533000  1.0
  H  H52  1  0.36410000  0.34725000  0.38726000  1.0
  H  H53  1  0.09855000  0.15280000  0.11271000  1.0
  H  H54  1  0.63590000  0.65275000  0.61274000  1.0
  H  H55  1  0.90144000  0.84720000  0.88729000  1.0
  H  H56  1  0.46462000  0.44247000  0.20434000  1.0
  H  H57  1  0.11178000  0.05755000  0.29557000  1.0
  H  H58  1  0.53538000  0.55753000  0.79566000  1.0
  H  H59  1  0.88821000  0.94245000  0.70443000  1.0
  H  H60  1  0.94003000  0.64232000  0.33494000  1.0
  H  H61  1  0.91708000  0.85759000  0.16536000  1.0
  H  H62  1  0.05997000  0.35768000  0.66506000  1.0
  H  H63  1  0.08291000  0.14241000  0.83464000  1.0
  H  H64  1  0.67930000  0.92669000  0.33005000  1.0
  H  H65  1  0.93606000  0.57317000  0.17007000  1.0
  H  H66  1  0.32070000  0.07331000  0.66995000  1.0
  H  H67  1  0.06394000  0.42682000  0.82993000  1.0
  H  H68  1  0.00292000  0.89068000  0.31729000  1.0
  H  H69  1  0.21086000  0.60926000  0.18280000  1.0
  H  H70  1  0.99709000  0.10932000  0.68271000  1.0
  H  H71  1  0.78915000  0.39074000  0.81719000  1.0
  H  H72  1  0.92879000  0.01413000  0.22996000  1.0
  H  H73  1  0.17263000  0.48576000  0.27013000  1.0
  H  H74  1  0.07121000  0.98587000  0.77003000  1.0
  H  H75  1  0.82738000  0.51424000  0.72986000  1.0
  H  H76  1  0.87442000  0.19074000  0.21410000  1.0
  H  H77  1  0.27930000  0.30920000  0.28591000  1.0
  H  H78  1  0.12558000  0.80926000  0.78589000  1.0
  H  H79  1  0.72071000  0.69080000  0.71408000  1.0
  H  H80  1  0.61412000  0.23886000  0.37972000  1.0
  H  H81  1  0.23319000  0.26100000  0.12021000  1.0
  H  H82  1  0.38588000  0.76113000  0.62028000  1.0
  H  H83  1  0.76681000  0.73900000  0.87978000  1.0
  H  H84  1  0.84198000  0.62435000  0.27832000  1.0
  H  H85  1  0.74419000  0.87553000  0.22188000  1.0
  H  H86  1  0.15802000  0.37565000  0.72168000  1.0
  H  H87  1  0.25581000  0.12447000  0.77812000  1.0
  H  H88  1  0.71300000  0.56069000  0.27380000  1.0
  H  H89  1  0.54715000  0.93913000  0.22622000  1.0
  H  H90  1  0.28700000  0.43931000  0.72620000  1.0
  H  H91  1  0.45285000  0.06086000  0.77378000  1.0
  H  H92  1  0.45085000  0.78699000  0.38770000  1.0
  H  H93  1  0.62565000  0.71265000  0.11238000  1.0
  H  H94  1  0.54915000  0.21301000  0.61230000  1.0
  H  H95  1  0.37435000  0.28735000  0.88762000  1.0
  H  H96  1  0.02430000  0.35218000  0.56744000  1.0
  H  H97  1  0.94391000  0.14779000  0.93253000  1.0
  H  H98  1  0.97570000  0.64782000  0.43256000  1.0
  H  H99  1  0.05609000  0.85221000  0.06747000  1.0
  H  H100  1  0.09094000  0.48903000  0.38737000  1.0
  H  H101  1  0.96740000  0.01105000  0.11261000  1.0
  H  H102  1  0.90905000  0.51097000  0.61263000  1.0
  H  H103  1  0.03260000  0.98894000  0.88739000  1.0
  H  H104  1  0.08776000  0.33038000  0.36679000  1.0
  H  H105  1  0.78484000  0.16969000  0.13308000  1.0
  H  H106  1  0.91223000  0.66962000  0.63322000  1.0
  H  H107  1  0.21515000  0.83031000  0.86692000  1.0
  H  H108  1  0.25787000  0.14618000  0.35440000  1.0
  H  H109  1  0.75854000  0.35381000  0.14551000  1.0
  H  H110  1  0.74214000  0.85383000  0.64560000  1.0
  H  H111  1  0.24145000  0.64619000  0.85449000  1.0
  H  H112  1  0.22385000  0.25389000  0.51980000  1.0
  H  H113  1  0.99793000  0.24596000  0.98018000  1.0
  H  H114  1  0.77615000  0.74611000  0.48020000  1.0
  H  H115  1  0.00208000  0.75404000  0.01983000  1.0
  C  C116  1  0.70281000  0.97941000  0.96490000  1.0
  C  C117  1  0.64751000  0.52073000  0.53507000  1.0
  C  C118  1  0.29719000  0.02059000  0.03510000  1.0
  C  C119  1  0.35249000  0.47927000  0.46494000  1.0
  C  C120  1  0.66826000  0.99719000  0.02641000  1.0
  C  C121  1  0.69229000  0.50286000  0.47356000  1.0
  C  C122  1  0.33174000  0.00281000  0.97359000  1.0
  C  C123  1  0.30771000  0.49713000  0.52645000  1.0
  C  C124  1  0.69378000  0.12033000  0.97040000  1.0
  C  C125  1  0.78462000  0.37964000  0.52961000  1.0
  C  C126  1  0.30622000  0.87967000  0.02960000  1.0
  C  C127  1  0.21537000  0.62036000  0.47039000  1.0
  C  C128  1  0.62237000  0.14012000  0.08344000  1.0
  C  C129  1  0.84605000  0.35979000  0.41657000  1.0
  C  C130  1  0.37763000  0.85988000  0.91656000  1.0
  C  C131  1  0.15394000  0.64021000  0.58343000  1.0
  C  C132  1  0.64755000  0.09380000  0.13855000  1.0
  C  C133  1  0.87997000  0.40611000  0.36144000  1.0
  C  C134  1  0.35245000  0.90620000  0.86145000  1.0
  C  C135  1  0.12003000  0.59388000  0.63856000  1.0
  C  C136  1  0.60543000  0.14585000  0.19142000  1.0
  C  C137  1  0.94275000  0.35409000  0.30856000  1.0
  C  C138  1  0.39458000  0.85415000  0.80858000  1.0
  C  C139  1  0.05724000  0.64591000  0.69144000  1.0
  C  C140  1  0.53765000  0.24452000  0.18928000  1.0
  C  C141  1  0.97151000  0.25544000  0.31070000  1.0
  C  C142  1  0.46235000  0.75548000  0.81072000  1.0
  C  C143  1  0.02848000  0.74456000  0.68930000  1.0
  C  C144  1  0.51271000  0.29056000  0.13400000  1.0
  C  C145  1  0.93735000  0.20937000  0.36598000  1.0
  C  C146  1  0.48729000  0.70945000  0.86600000  1.0
  C  C147  1  0.06264000  0.79062000  0.63402000  1.0
  C  C148  1  0.55507000  0.23871000  0.08129000  1.0
  C  C149  1  0.87520000  0.26119000  0.41872000  1.0
  C  C150  1  0.44494000  0.76129000  0.91871000  1.0
  C  C151  1  0.12480000  0.73881000  0.58128000  1.0
  C  C152  1  0.45890000  0.26443000  0.30319000  1.0
  C  C153  1  0.02648000  0.23557000  0.19679000  1.0
  C  C154  1  0.54110000  0.73557000  0.69681000  1.0
  C  C155  1  0.97350000  0.76443000  0.80321000  1.0
  C  C156  1  0.40251000  0.34384000  0.33820000  1.0
  C  C157  1  0.08457000  0.15618000  0.16176000  1.0
  C  C158  1  0.59750000  0.65616000  0.66180000  1.0
  C  C159  1  0.91542000  0.84382000  0.83824000  1.0
  C  C160  1  0.45132000  0.39597000  0.24422000  1.0
  C  C161  1  0.09171000  0.10405000  0.25571000  1.0
  C  C162  1  0.54868000  0.60403000  0.75578000  1.0
  C  C163  1  0.90828000  0.89594000  0.74429000  1.0
  C  C164  1  0.09926000  0.69517000  0.32682000  1.0
  C  C165  1  0.12094000  0.80489000  0.17338000  1.0
  C  C166  1  0.90075000  0.30483000  0.67318000  1.0
  C  C167  1  0.87906000  0.19511000  0.82662000  1.0
  C  C168  1  0.98256000  0.75995000  0.32686000  1.0
  C  C169  1  0.06921000  0.73998000  0.17333000  1.0
  C  C170  1  0.01744000  0.24004000  0.67314000  1.0
  C  C171  1  0.93079000  0.26002000  0.82667000  1.0
  C  C172  1  0.90941000  0.72031000  0.33226000  1.0
  C  C173  1  0.96178000  0.77959000  0.16798000  1.0
  C  C174  1  0.09059000  0.27969000  0.66774000  1.0
  C  C175  1  0.03822000  0.22041000  0.83202000  1.0
  C  C176  1  0.79907000  0.77927000  0.33502000  1.0
  C  C177  1  0.91320000  0.72062000  0.16519000  1.0
  C  C178  1  0.20093000  0.22073000  0.66498000  1.0
  C  C179  1  0.08680000  0.27938000  0.83481000  1.0
  C  C180  1  0.76427000  0.87966000  0.32994000  1.0
  C  C181  1  0.97383000  0.62024000  0.17020000  1.0
  C  C182  1  0.23573000  0.12034000  0.67006000  1.0
  C  C183  1  0.02617000  0.37976000  0.82981000  1.0
  C  C184  1  0.83692000  0.92072000  0.32242000  1.0
  C  C185  1  0.08004000  0.57918000  0.17765000  1.0
  C  C186  1  0.16309000  0.07928000  0.67758000  1.0
  C  C187  1  0.91996000  0.42081000  0.82235000  1.0
  C  C188  1  0.94605000  0.85981000  0.32177000  1.0
  C  C189  1  0.12758000  0.64011000  0.17834000  1.0
  C  C190  1  0.05395000  0.14019000  0.67823000  1.0
  C  C191  1  0.87241000  0.35989000  0.82166000  1.0
  C  C192  1  0.80200000  0.02634000  0.31389000  1.0
  C  C193  1  0.14222000  0.47355000  0.18616000  1.0
  C  C194  1  0.19800000  0.97366000  0.68611000  1.0
  C  C195  1  0.85778000  0.52645000  0.81384000  1.0
  C  C196  1  0.86001000  0.06386000  0.26291000  1.0
  C  C197  1  0.18667000  0.43602000  0.23716000  1.0
  C  C198  1  0.13999000  0.93614000  0.73709000  1.0
  C  C199  1  0.81334000  0.56398000  0.76284000  1.0
  C  C200  1  0.83006000  0.16239000  0.25417000  1.0
  C  C201  1  0.24668000  0.33750000  0.24585000  1.0
  C  C202  1  0.16994000  0.83761000  0.74582000  1.0
  C  C203  1  0.75332000  0.66250000  0.75415000  1.0
  C  C204  1  0.74292000  0.22645000  0.29688000  1.0
  C  C205  1  0.26652000  0.27346000  0.20309000  1.0
  C  C206  1  0.25708000  0.77355000  0.70312000  1.0
  C  C207  1  0.73348000  0.72655000  0.79691000  1.0
  C  C208  1  0.68339000  0.19005000  0.34681000  1.0
  C  C209  1  0.22053000  0.30985000  0.15315000  1.0
  C  C210  1  0.31662000  0.80995000  0.65319000  1.0
  C  C211  1  0.77947000  0.69015000  0.84684000  1.0
  C  C212  1  0.71169000  0.09166000  0.35511000  1.0
  C  C213  1  0.15859000  0.40823000  0.14489000  1.0
  C  C214  1  0.28832000  0.90834000  0.64489000  1.0
  C  C215  1  0.84141000  0.59177000  0.85511000  1.0
  C  C216  1  0.71297000  0.33173000  0.28849000  1.0
  C  C217  1  0.33355000  0.16817000  0.21147000  1.0
  C  C218  1  0.28704000  0.66827000  0.71151000  1.0
  C  C219  1  0.66645000  0.83183000  0.78853000  1.0
  C  C220  1  0.64266000  0.05981000  0.40990000  1.0
  C  C221  1  0.11248000  0.44016000  0.09011000  1.0
  C  C222  1  0.35736000  0.94018000  0.59010000  1.0
  C  C223  1  0.88753000  0.55985000  0.90989000  1.0
  C  C224  1  0.72208000  0.73767000  0.33890000  1.0
  C  C225  1  0.79849000  0.76211000  0.16132000  1.0
  C  C226  1  0.27792000  0.26233000  0.66110000  1.0
  C  C227  1  0.20151000  0.23788000  0.83868000  1.0
  C  C228  1  0.75684000  0.65717000  0.30491000  1.0
  C  C229  1  0.71863000  0.84261000  0.19528000  1.0
  C  C230  1  0.24317000  0.34283000  0.69508000  1.0
  C  C231  1  0.28137000  0.15739000  0.80472000  1.0
  C  C232  1  0.68442000  0.62243000  0.30118000  1.0
  C  C233  1  0.60777000  0.87732000  0.19893000  1.0
  C  C234  1  0.31558000  0.37757000  0.69882000  1.0
  C  C235  1  0.39223000  0.12268000  0.80107000  1.0
  C  C236  1  0.57281000  0.67067000  0.33015000  1.0
  C  C237  1  0.57348000  0.82905000  0.16992000  1.0
  C  C238  1  0.42720000  0.32933000  0.66984000  1.0
  C  C239  1  0.42652000  0.17095000  0.83008000  1.0
  C  C240  1  0.53744000  0.74958000  0.36496000  1.0
  C  C241  1  0.65194000  0.75009000  0.13519000  1.0
  C  C242  1  0.46256000  0.25042000  0.63504000  1.0
  C  C243  1  0.34805000  0.24991000  0.86482000  1.0
  C  C244  1  0.61068000  0.78119000  0.37142000  1.0
  C  C245  1  0.76324000  0.71854000  0.12878000  1.0
  C  C246  1  0.38932000  0.21881000  0.62857000  1.0
  C  C247  1  0.23675000  0.28146000  0.87123000  1.0
  C  C248  1  0.48915000  0.64253000  0.32414000  1.0
  C  C249  1  0.45568000  0.85729000  0.17582000  1.0
  C  C250  1  0.51085000  0.35747000  0.67585000  1.0
  C  C251  1  0.54431000  0.14272000  0.82418000  1.0
  C  C252  1  0.56464000  0.85994000  0.41536000  1.0
  C  C253  1  0.83992000  0.63983000  0.08481000  1.0
  C  C254  1  0.43536000  0.14006000  0.58464000  1.0
  C  C255  1  0.16008000  0.36017000  0.91519000  1.0
  C  C256  1  0.01420000  0.41727000  0.53830000  1.0
  C  C257  1  0.96976000  0.08271000  0.96168000  1.0
  C  C258  1  0.98580000  0.58273000  0.46171000  1.0
  C  C259  1  0.03024000  0.91729000  0.03832000  1.0
  C  C260  1  0.06313000  0.41101000  0.47506000  1.0
  C  C261  1  0.94925000  0.08899000  0.02490000  1.0
  C  C262  1  0.93686000  0.58899000  0.52495000  1.0
  C  C263  1  0.05074000  0.91102000  0.97510000  1.0
  C  C264  1  0.04931000  0.49325000  0.43628000  1.0
  C  C265  1  0.97888000  0.00678000  0.06371000  1.0
  C  C266  1  0.95069000  0.50675000  0.56372000  1.0
  C  C267  1  0.02112000  0.99322000  0.93629000  1.0
  C  C268  1  0.14084000  0.28649000  0.39612000  1.0
  C  C269  1  0.82347000  0.21355000  0.10378000  1.0
  C  C270  1  0.85916000  0.71351000  0.60389000  1.0
  C  C271  1  0.17653000  0.78645000  0.89622000  1.0
  C  C272  1  0.22325000  0.19504000  0.39143000  1.0
  C  C273  1  0.80984000  0.30495000  0.10849000  1.0
  C  C274  1  0.77675000  0.80497000  0.60857000  1.0
  C  C275  1  0.19016000  0.69505000  0.89151000  1.0
  C  C276  1  0.20839000  0.24791000  0.47747000  1.0
  C  C277  1  0.93407000  0.25199000  0.02248000  1.0
  C  C278  1  0.79161000  0.75209000  0.52253000  1.0
  C  C279  1  0.06593000  0.74801000  0.97752000  1.0
  N  N280  1  0.71905000  0.05636000  0.93060000  1.0
  N  N281  1  0.70621000  0.44373000  0.56939000  1.0
  N  N282  1  0.28095000  0.94365000  0.06940000  1.0
  N  N283  1  0.29379000  0.55626000  0.43062000  1.0
  N  N284  1  0.66213000  0.08760000  0.02949000  1.0
  N  N285  1  0.77944000  0.41235000  0.47051000  1.0
  N  N286  1  0.33787000  0.91240000  0.97051000  1.0
  N  N287  1  0.22056000  0.58764000  0.52950000  1.0
  N  N288  1  0.48940000  0.29820000  0.24313000  1.0
  N  N289  1  0.03081000  0.20179000  0.25683000  1.0
  N  N290  1  0.51060000  0.70180000  0.75687000  1.0
  N  N291  1  0.96918000  0.79820000  0.74317000  1.0
  N  N292  1  0.39862000  0.42513000  0.30100000  1.0
  N  N293  1  0.12490000  0.07491000  0.19893000  1.0
  N  N294  1  0.60138000  0.57487000  0.69900000  1.0
  N  N295  1  0.87509000  0.92509000  0.80107000  1.0
  N  N296  1  0.26449000  0.17271000  0.44218000  1.0
  N  N297  1  0.87966000  0.32720000  0.05777000  1.0
  N  N298  1  0.73552000  0.82729000  0.55782000  1.0
  N  N299  1  0.12034000  0.67280000  0.94223000  1.0
  N  N300  1  0.13215000  0.31890000  0.45094000  1.0
  N  N301  1  0.90211000  0.18109000  0.04899000  1.0
  N  N302  1  0.86785000  0.68110000  0.54906000  1.0
  N  N303  1  0.09789000  0.81891000  0.95101000  1.0
  O  O304  1  0.75560000  0.36884000  0.24224000  1.0
  O  O305  1  0.36699000  0.13106000  0.25774000  1.0
  O  O306  1  0.24439000  0.63116000  0.75776000  1.0
  O  O307  1  0.63301000  0.86894000  0.74226000  1.0
  O  O308  1  0.63524000  0.38123000  0.33617000  1.0
  O  O309  1  0.35312000  0.11864000  0.16377000  1.0
  O  O310  1  0.36476000  0.61877000  0.66383000  1.0
  O  O311  1  0.64688000  0.88136000  0.83622000  1.0
  O  O312  1  0.54290000  0.09189000  0.40982000  1.0
  O  O313  1  0.04467000  0.40816000  0.09016000  1.0
  O  O314  1  0.45711000  0.90810000  0.59019000  1.0
  O  O315  1  0.95533000  0.59184000  0.90984000  1.0
  O  O316  1  0.68870000  0.00676000  0.45084000  1.0
  O  O317  1  0.14639000  0.49328000  0.04920000  1.0
  O  O318  1  0.31132000  0.99324000  0.54916000  1.0
  O  O319  1  0.85361000  0.50672000  0.95080000  1.0
  O  O320  1  0.47511000  0.93031000  0.41005000  1.0
  O  O321  1  0.81542000  0.56950000  0.09005000  1.0
  O  O322  1  0.52489000  0.06968000  0.58994000  1.0
  O  O323  1  0.18458000  0.43049000  0.90995000  1.0
  O  O324  1  0.61610000  0.84821000  0.45476000  1.0
  O  O325  1  0.91906000  0.65158000  0.04540000  1.0
  O  O326  1  0.38390000  0.15180000  0.54524000  1.0
  O  O327  1  0.08094000  0.34841000  0.95460000  1.0
  O  O328  1  0.39084000  0.70520000  0.33180000  1.0
  O  O329  1  0.42762000  0.79467000  0.16819000  1.0
  O  O330  1  0.60916000  0.29480000  0.66819000  1.0
  O  O331  1  0.57238000  0.20533000  0.83181000  1.0
  O  O332  1  0.51801000  0.55584000  0.31153000  1.0
  O  O333  1  0.38533000  0.94405000  0.18832000  1.0
  O  O334  1  0.48199000  0.44416000  0.68847000  1.0
  O  O335  1  0.61467000  0.05595000  0.81169000  1.0
  O  O336  1  0.13514000  0.60531000  0.32350000  1.0
  O  O337  1  0.06360000  0.89475000  0.17657000  1.0
  O  O338  1  0.86486000  0.39469000  0.67650000  1.0
  O  O339  1  0.93640000  0.10525000  0.82343000  1.0
  O  O340  1  0.16021000  0.73294000  0.33136000  1.0
  O  O341  1  0.22415000  0.76722000  0.16899000  1.0
  O  O342  1  0.83979000  0.26706000  0.66864000  1.0
  O  O343  1  0.77585000  0.23278000  0.83101000  1.0
  O  O344  1  0.37750000  0.62127000  0.21383000  1.0
  O  O345  1  0.21271000  0.87884000  0.28622000  1.0
  O  O346  1  0.62250000  0.37874000  0.78617000  1.0
  O  O347  1  0.78729000  0.12115000  0.71378000  1.0
