# generated using pymatgen
data_Sn2H15C12NO7
_symmetry_space_group_name_H-M   'P 1'
_cell_length_a   11.25130000
_cell_length_b   13.57990000
_cell_length_c   14.07170368
_cell_angle_alpha   118.70106617
_cell_angle_beta   113.29064308
_cell_angle_gamma   90.14360000
_symmetry_Int_Tables_number   1
_chemical_formula_structural   Sn2H15C12NO7
_chemical_formula_sum   'Sn8 H60 C48 N4 O28'
_cell_volume   1682.08496630
_cell_formula_units_Z   4
loop_
 _symmetry_equiv_pos_site_id
 _symmetry_equiv_pos_as_xyz
  1  'x, y, z'
loop_
 _atom_site_type_symbol
 _atom_site_label
 _atom_site_symmetry_multiplicity
 _atom_site_fract_x
 _atom_site_fract_y
 _atom_site_fract_z
 _atom_site_occupancy
  Sn  Sn0  1  0.04624000  0.75008000  0.50037000  1.0
  Sn  Sn1  1  0.45362000  0.74988000  0.49973000  1.0
  Sn  Sn2  1  0.95377000  0.24992000  0.49964000  1.0
  Sn  Sn3  1  0.54638000  0.25012000  0.50027000  1.0
  Sn  Sn4  1  0.67341000  0.67279000  0.34599000  1.0
  Sn  Sn5  1  0.82651000  0.82678000  0.65409000  1.0
  Sn  Sn6  1  0.32659000  0.32721000  0.65401000  1.0
  Sn  Sn7  1  0.17350000  0.17322000  0.34591000  1.0
  H  H8  1  0.68817000  0.52097000  0.00059000  1.0
  H  H9  1  0.31184000  0.47903000  0.99941000  1.0
  H  H10  1  0.18839000  0.97956000  0.00055000  1.0
  H  H11  1  0.81160000  0.02043000  0.99945000  1.0
  H  H12  1  0.08276000  0.74023000  0.19517000  1.0
  H  H13  1  0.11262000  0.45537000  0.19619000  1.0
  H  H14  1  0.38708000  0.75926000  0.80418000  1.0
  H  H15  1  0.41717000  0.04458000  0.80443000  1.0
  H  H16  1  0.91724000  0.25979000  0.80483000  1.0
  H  H17  1  0.88738000  0.54463000  0.80381000  1.0
  H  H18  1  0.61293000  0.24073000  0.19583000  1.0
  H  H19  1  0.58282000  0.95542000  0.19557000  1.0
  H  H20  1  0.09887000  0.54976000  0.47773000  1.0
  H  H21  1  0.37854000  0.92780000  0.47715000  1.0
  H  H22  1  0.12156000  0.95040000  0.52240000  1.0
  H  H23  1  0.40095000  0.57208000  0.52259000  1.0
  H  H24  1  0.90113000  0.45024000  0.52227000  1.0
  H  H25  1  0.62145000  0.07219000  0.52284000  1.0
  H  H26  1  0.87844000  0.04960000  0.47760000  1.0
  H  H27  1  0.59905000  0.42792000  0.47741000  1.0
  H  H28  1  0.14644000  0.57537000  0.38274000  1.0
  H  H29  1  0.23658000  0.80757000  0.38272000  1.0
  H  H30  1  0.26351000  0.92485000  0.61708000  1.0
  H  H31  1  0.35338000  0.69211000  0.61754000  1.0
  H  H32  1  0.85355000  0.42462000  0.61725000  1.0
  H  H33  1  0.76343000  0.19242000  0.61728000  1.0
  H  H34  1  0.73649000  0.07515000  0.38292000  1.0
  H  H35  1  0.64664000  0.30789000  0.38247000  1.0
  H  H36  1  0.97415333  0.52228000  0.33333333  1.0
  H  H37  1  0.35925000  0.81090000  0.33260000  1.0
  H  H38  1  0.14084000  0.97795000  0.66711000  1.0
  H  H39  1  0.52571000  0.68901000  0.66690000  1.0
  H  H40  1  0.02589000  0.47772000  0.66671000  1.0
  H  H41  1  0.64075000  0.18909000  0.66740000  1.0
  H  H42  1  0.85917000  0.02205000  0.33289000  1.0
  H  H43  1  0.47429000  0.31099000  0.33310000  1.0
  H  H44  1  0.57921000  0.76205000  0.20506000  1.0
  H  H45  1  0.62588000  0.44292000  0.20498000  1.0
  H  H46  1  0.87384000  0.73782000  0.79539000  1.0
  H  H47  1  0.92098000  0.05681000  0.79480000  1.0
  H  H48  1  0.42078000  0.23795000  0.79494000  1.0
  H  H49  1  0.37413000  0.55708000  0.79502000  1.0
  H  H50  1  0.12616000  0.26219000  0.20462000  1.0
  H  H51  1  0.07902000  0.94319000  0.20520000  1.0
  H  H52  1  0.74245000  0.84849000  0.32464000  1.0
  H  H53  1  0.58197000  0.47639000  0.32503000  1.0
  H  H54  1  0.91767000  0.65170000  0.67536000  1.0
  H  H55  1  0.75781000  0.02335000  0.67506000  1.0
  H  H56  1  0.25755000  0.15151000  0.67536000  1.0
  H  H57  1  0.41803000  0.52361000  0.67496000  1.0
  H  H58  1  0.08233000  0.34830000  0.32464000  1.0
  H  H59  1  0.24219000  0.97665000  0.32494000  1.0
  H  H60  1  0.60022000  0.86348000  0.35478000  1.0
  H  H61  1  0.75393000  0.49047000  0.35444000  1.0
  H  H62  1  0.74575000  0.63596000  0.64601000  1.0
  H  H63  1  0.90011000  0.00872000  0.64504000  1.0
  H  H64  1  0.39977000  0.13652000  0.64522000  1.0
  H  H65  1  0.24607000  0.50953000  0.64556000  1.0
  H  H66  1  0.25425000  0.36404000  0.35400000  1.0
  H  H67  1  0.09989000  0.99127000  0.35495000  1.0
  C  C68  1  0.77435000  0.55704000  0.00026000  1.0
  C  C69  1  0.22564000  0.44296000  0.99974000  1.0
  C  C70  1  0.27451000  0.94326000  0.00039000  1.0
  C  C71  1  0.72549000  0.05673000  0.99962000  1.0
  C  C72  1  0.88432000  0.63482000  0.11024000  1.0
  C  C73  1  0.22585000  0.47536000  0.11018000  1.0
  C  C74  1  0.27414000  0.86524000  0.89002000  1.0
  C  C75  1  0.61551000  0.02440000  0.88957000  1.0
  C  C76  1  0.11568000  0.36519000  0.88976000  1.0
  C  C77  1  0.77416000  0.52464000  0.88983000  1.0
  C  C78  1  0.72585000  0.13475000  0.10998000  1.0
  C  C79  1  0.38448000  0.97560000  0.11043000  1.0
  C  C80  1  0.99638000  0.67967000  0.11044000  1.0
  C  C81  1  0.11433000  0.43111000  0.11116000  1.0
  C  C82  1  0.38550000  0.82011000  0.88916000  1.0
  C  C83  1  0.50358000  0.06888000  0.88920000  1.0
  C  C84  1  0.00361000  0.32034000  0.88955000  1.0
  C  C85  1  0.88567000  0.56889000  0.88884000  1.0
  C  C86  1  0.61451000  0.17989000  0.11085000  1.0
  C  C87  1  0.49642000  0.93111000  0.11080000  1.0
  C  C88  1  0.99535000  0.64472000  0.99941000  1.0
  C  C89  1  0.00466000  0.35528000  0.00059000  1.0
  C  C90  1  0.49523000  0.85502000  0.99983000  1.0
  C  C91  1  0.50477000  0.14499000  0.00018000  1.0
  C  C92  1  0.88126000  0.66654000  0.22666000  1.0
  C  C93  1  0.34518000  0.55972000  0.22606000  1.0
  C  C94  1  0.15479000  0.83358000  0.77408000  1.0
  C  C95  1  0.61848000  0.93969000  0.77324000  1.0
  C  C96  1  0.11874000  0.33346000  0.77334000  1.0
  C  C97  1  0.65482000  0.44028000  0.77394000  1.0
  C  C98  1  0.84521000  0.16641000  0.22592000  1.0
  C  C99  1  0.38152000  0.06031000  0.22676000  1.0
  C  C100  1  0.06925000  0.57772000  0.41227000  1.0
  C  C101  1  0.34299000  0.83451000  0.41189000  1.0
  C  C102  1  0.15710000  0.92244000  0.58787000  1.0
  C  C103  1  0.43049000  0.66535000  0.58795000  1.0
  C  C104  1  0.93074000  0.42228000  0.58773000  1.0
  C  C105  1  0.65701000  0.16548000  0.58811000  1.0
  C  C106  1  0.84290000  0.07756000  0.41213000  1.0
  C  C107  1  0.56951000  0.33465000  0.41205000  1.0
  C  C108  1  0.64589000  0.80337000  0.30223000  1.0
  C  C109  1  0.65621000  0.49860000  0.30225000  1.0
  C  C110  1  0.84348000  0.69638000  0.69811000  1.0
  C  C111  1  0.85438000  0.00095000  0.69765000  1.0
  C  C112  1  0.35411000  0.19663000  0.69777000  1.0
  C  C113  1  0.34379000  0.50140000  0.69774000  1.0
  C  C114  1  0.15653000  0.30363000  0.30190000  1.0
  C  C115  1  0.14562000  0.99905000  0.30234000  1.0
  N  N116  1  0.11523000  0.68853000  0.99904000  1.0
  N  N117  1  0.88478000  0.31148000  0.00096000  1.0
  N  N118  1  0.61493000  0.81090000  0.99954000  1.0
  N  N119  1  0.38508000  0.18910000  0.00047000  1.0
  O  O120  1  0.97826000  0.74704000  0.32545000  1.0
  O  O121  1  0.34648000  0.57867000  0.32531000  1.0
  O  O122  1  0.15315000  0.75318000  0.67490000  1.0
  O  O123  1  0.52149000  0.92134000  0.67435000  1.0
  O  O124  1  0.02174000  0.25296000  0.67455000  1.0
  O  O125  1  0.65351000  0.42133000  0.67469000  1.0
  O  O126  1  0.84685000  0.24682000  0.32510000  1.0
  O  O127  1  0.47851000  0.07866000  0.32565000  1.0
  O  O128  1  0.78544000  0.61132000  0.22072000  1.0
  O  O129  1  0.43525000  0.60807000  0.21957000  1.0
  O  O130  1  0.06501000  0.88841000  0.78038000  1.0
  O  O131  1  0.71406000  0.89050000  0.77928000  1.0
  O  O132  1  0.21456000  0.38869000  0.77928000  1.0
  O  O133  1  0.56475000  0.39193000  0.78044000  1.0
  O  O134  1  0.93500000  0.11159000  0.21961000  1.0
  O  O135  1  0.28596000  0.10950000  0.22073000  1.0
  O  O136  1  0.11264000  0.65567000  0.89915000  1.0
  O  O137  1  0.78790000  0.24458000  0.90135000  1.0
  O  O138  1  0.71185000  0.84376000  0.09917000  1.0
  O  O139  1  0.38784000  0.25625000  0.10031000  1.0
  O  O140  1  0.88735000  0.34434000  0.10085000  1.0
  O  O141  1  0.21209000  0.75542000  0.09864000  1.0
  O  O142  1  0.28815000  0.15625000  0.90084000  1.0
  O  O143  1  0.61216000  0.74375000  0.89970000  1.0
  O  O144  1  0.86686000  0.74976000  0.50005000  1.0
  O  O145  1  0.63303000  0.74982000  0.50007000  1.0
  O  O146  1  0.13314000  0.25023000  0.49995000  1.0
  O  O147  1  0.36697000  0.25018000  0.49993000  1.0
