# generated using pymatgen
data_CuH5(C2N)2
_symmetry_space_group_name_H-M   'P 1'
_cell_length_a   6.29563000
_cell_length_b   8.45320000
_cell_length_c   9.61378000
_cell_angle_alpha   90.00050000
_cell_angle_beta   90.00030000
_cell_angle_gamma   89.99980000
_symmetry_Int_Tables_number   1
_chemical_formula_structural   CuH5(C2N)2
_chemical_formula_sum   'Cu4 H20 C16 N8'
_cell_volume   511.62825439
_cell_formula_units_Z   4
loop_
 _symmetry_equiv_pos_site_id
 _symmetry_equiv_pos_as_xyz
  1  'x, y, z'
loop_
 _atom_site_type_symbol
 _atom_site_label
 _atom_site_symmetry_multiplicity
 _atom_site_fract_x
 _atom_site_fract_y
 _atom_site_fract_z
 _atom_site_occupancy
  Cu  Cu0  1  0.75000000  0.46538000  0.88399000  1.0
  Cu  Cu1  1  0.25001000  0.03462000  0.38399000  1.0
  Cu  Cu2  1  0.75000000  0.96538000  0.61601000  1.0
  Cu  Cu3  1  0.25000000  0.53462000  0.11602000  1.0
  H  H4  1  0.60951000  0.65884000  0.36170000  1.0
  H  H5  1  0.39050000  0.84117000  0.86169000  1.0
  H  H6  1  0.89050000  0.15884000  0.13831000  1.0
  H  H7  1  0.10950000  0.34116000  0.63831000  1.0
  H  H8  1  0.39050000  0.34116000  0.63831000  1.0
  H  H9  1  0.60949000  0.15884000  0.13831000  1.0
  H  H10  1  0.10950000  0.84117000  0.86169000  1.0
  H  H11  1  0.89051000  0.65884000  0.36169000  1.0
  H  H12  1  0.75001000  0.47364000  0.54485000  1.0
  H  H13  1  0.25000000  0.02635000  0.04486000  1.0
  H  H14  1  0.75000000  0.97366000  0.95514000  1.0
  H  H15  1  0.25000000  0.52633000  0.45514000  1.0
  H  H16  1  0.60880000  0.36418000  0.41628000  1.0
  H  H17  1  0.39120000  0.13582000  0.91629000  1.0
  H  H18  1  0.89121000  0.86418000  0.08371000  1.0
  H  H19  1  0.10879000  0.63581000  0.58371000  1.0
  H  H20  1  0.39121000  0.63581000  0.58371000  1.0
  H  H21  1  0.60879000  0.86418000  0.08371000  1.0
  H  H22  1  0.10879000  0.13582000  0.91629000  1.0
  H  H23  1  0.89122000  0.36418000  0.41628000  1.0
  C  C24  1  0.75000000  0.27274000  0.79098000  1.0
  C  C25  1  0.25001000  0.22727000  0.29098000  1.0
  C  C26  1  0.75000000  0.77275000  0.70901000  1.0
  C  C27  1  0.25000000  0.72725000  0.20902000  1.0
  C  C28  1  0.75001000  0.54443000  0.19617000  1.0
  C  C29  1  0.24999000  0.95557000  0.69617000  1.0
  C  C30  1  0.75000000  0.04443000  0.30384000  1.0
  C  C31  1  0.25000000  0.45557000  0.80384000  1.0
  C  C32  1  0.75001000  0.58422000  0.34248000  1.0
  C  C33  1  0.25000000  0.91578000  0.84248000  1.0
  C  C34  1  0.75000000  0.08423000  0.15752000  1.0
  C  C35  1  0.25000000  0.41578000  0.65752000  1.0
  C  C36  1  0.75001000  0.43678000  0.43557000  1.0
  C  C37  1  0.25000000  0.06322000  0.93558000  1.0
  C  C38  1  0.74999000  0.93679000  0.06442000  1.0
  C  C39  1  0.24999000  0.56321000  0.56442000  1.0
  N  N40  1  0.75000000  0.15862000  0.72069000  1.0
  N  N41  1  0.25001000  0.34138000  0.22069000  1.0
  N  N42  1  0.75000000  0.65861000  0.77932000  1.0
  N  N43  1  0.25000000  0.84139000  0.27932000  1.0
  N  N44  1  0.75000000  0.50992000  0.07879000  1.0
  N  N45  1  0.25000000  0.99008000  0.57879000  1.0
  N  N46  1  0.75000000  0.00992000  0.42121000  1.0
  N  N47  1  0.25000000  0.49008000  0.92121000  1.0
