# generated using pymatgen
data_Ni3H20C28(NO7)2
_symmetry_space_group_name_H-M   'P 1'
_cell_length_a   7.59564000
_cell_length_b   10.83500000
_cell_length_c   17.29040000
_cell_angle_alpha   90.00840000
_cell_angle_beta   90.02660000
_cell_angle_gamma   74.86800000
_symmetry_Int_Tables_number   1
_chemical_formula_structural   Ni3H20C28(NO7)2
_chemical_formula_sum   'Ni6 H40 C56 N4 O28'
_cell_volume   1373.63937025
_cell_formula_units_Z   2
loop_
 _symmetry_equiv_pos_site_id
 _symmetry_equiv_pos_as_xyz
  1  'x, y, z'
loop_
 _atom_site_type_symbol
 _atom_site_label
 _atom_site_symmetry_multiplicity
 _atom_site_fract_x
 _atom_site_fract_y
 _atom_site_fract_z
 _atom_site_occupancy
  Ni  Ni0  1  0.41022000  0.29905000  0.92530000  1.0
  Ni  Ni1  1  0.09466000  0.70257000  0.42645000  1.0
  Ni  Ni2  1  0.59390000  0.70168000  0.07332000  1.0
  Ni  Ni3  1  0.90883000  0.29785000  0.57449000  1.0
  Ni  Ni4  1  0.00270000  0.49699000  0.99774000  1.0
  Ni  Ni5  1  0.50286000  0.49867000  0.50152000  1.0
  H  H6  1  0.53629000  0.47397000  0.98381000  1.0
  H  H7  1  0.90115000  0.54250000  0.40041000  1.0
  H  H8  1  0.40629000  0.54378000  0.10680000  1.0
  H  H9  1  0.03430000  0.47608000  0.51907000  1.0
  H  H10  1  0.71486000  0.37613000  0.94912000  1.0
  H  H11  1  0.77723000  0.63490000  0.45861000  1.0
  H  H12  1  0.27636000  0.62955000  0.04664000  1.0
  H  H13  1  0.21484000  0.37525000  0.54975000  1.0
  H  H14  1  0.63933000  0.05024000  0.98850000  1.0
  H  H15  1  0.86190000  0.94899000  0.49008000  1.0
  H  H16  1  0.36379000  0.94882000  0.01019000  1.0
  H  H17  1  0.14136000  0.05006000  0.51057000  1.0
  H  H18  1  0.85811000  0.85962000  0.93602000  1.0
  H  H19  1  0.64063000  0.13850000  0.43798000  1.0
  H  H20  1  0.14263000  0.13828000  0.06234000  1.0
  H  H21  1  0.36268000  0.86034000  0.56285000  1.0
  H  H22  1  0.27018000  0.50267000  0.69561000  1.0
  H  H23  1  0.21352000  0.49138000  0.19814000  1.0
  H  H24  1  0.71860000  0.49229000  0.30115000  1.0
  H  H25  1  0.76980000  0.50239000  0.80458000  1.0
  H  H26  1  0.94156000  0.88613000  0.66558000  1.0
  H  H27  1  0.56601000  0.11551000  0.16603000  1.0
  H  H28  1  0.06559000  0.11479000  0.33378000  1.0
  H  H29  1  0.43974000  0.88553000  0.83392000  1.0
  H  H30  1  0.05295000  0.72259000  0.89513000  1.0
  H  H31  1  0.45310000  0.27749000  0.39616000  1.0
  H  H32  1  0.94975000  0.27457000  0.10325000  1.0
  H  H33  1  0.55330000  0.72168000  0.60459000  1.0
  H  H34  1  0.97311000  0.16104000  0.89773000  1.0
  H  H35  1  0.53142000  0.83859000  0.39722000  1.0
  H  H36  1  0.03039000  0.83801000  0.10165000  1.0
  H  H37  1  0.46862000  0.16473000  0.60295000  1.0
  H  H38  1  0.60469000  0.24037000  0.77901000  1.0
  H  H39  1  0.90936000  0.76373000  0.27851000  1.0
  H  H40  1  0.40888000  0.76237000  0.22127000  1.0
  H  H41  1  0.10076000  0.23841000  0.72087000  1.0
  H  H42  1  0.82191000  0.05980000  0.71676000  1.0
  H  H43  1  0.69023000  0.94335000  0.21645000  1.0
  H  H44  1  0.18891000  0.94139000  0.28327000  1.0
  H  H45  1  0.31972000  0.05847000  0.78302000  1.0
  C  C46  1  0.68415000  0.04759000  0.92849000  1.0
  C  C47  1  0.81951000  0.95266000  0.42967000  1.0
  C  C48  1  0.32066000  0.95213000  0.07045000  1.0
  C  C49  1  0.18537000  0.04714000  0.57074000  1.0
  C  C50  1  0.80899000  0.94157000  0.89831000  1.0
  C  C51  1  0.69361000  0.05820000  0.39951000  1.0
  C  C52  1  0.19460000  0.05752000  0.10062000  1.0
  C  C53  1  0.31132000  0.94158000  0.60085000  1.0
  C  C54  1  0.24167000  0.48705000  0.84790000  1.0
  C  C55  1  0.25376000  0.50971000  0.34947000  1.0
  C  C56  1  0.75555000  0.50888000  0.14995000  1.0
  C  C57  1  0.74103000  0.48606000  0.65227000  1.0
  C  C58  1  0.97993000  0.82105000  0.78523000  1.0
  C  C59  1  0.52473000  0.17909000  0.28606000  1.0
  C  C60  1  0.02372000  0.17774000  0.21371000  1.0
  C  C61  1  0.48017000  0.82046000  0.71432000  1.0
  C  C62  1  0.18930000  0.59140000  0.72060000  1.0
  C  C63  1  0.30447000  0.40516000  0.22208000  1.0
  C  C64  1  0.80704000  0.40508000  0.27732000  1.0
  C  C65  1  0.68885000  0.59094000  0.77940000  1.0
  C  C66  1  0.16159000  0.60116000  0.80023000  1.0
  C  C67  1  0.33621000  0.39655000  0.30153000  1.0
  C  C68  1  0.83696000  0.39545000  0.19781000  1.0
  C  C69  1  0.66137000  0.60044000  0.69975000  1.0
  C  C70  1  0.00491000  0.80815000  0.70454000  1.0
  C  C71  1  0.49956000  0.19202000  0.20541000  1.0
  C  C72  1  0.99923000  0.19131000  0.29438000  1.0
  C  C73  1  0.50389000  0.80757000  0.79508000  1.0
  C  C74  1  0.11459000  0.69561000  0.67279000  1.0
  C  C75  1  0.38486000  0.30290000  0.17375000  1.0
  C  C76  1  0.88591000  0.30286000  0.32587000  1.0
  C  C77  1  0.61342000  0.69517000  0.82704000  1.0
  C  C78  1  0.16648000  0.68062000  0.58897000  1.0
  C  C79  1  0.33540000  0.31745000  0.08927000  1.0
  C  C80  1  0.83628000  0.31866000  0.41026000  1.0
  C  C81  1  0.66412000  0.68035000  0.91099000  1.0
  C  C82  1  0.86162000  0.93828000  0.82007000  1.0
  C  C83  1  0.64456000  0.06245000  0.32084000  1.0
  C  C84  1  0.14410000  0.06115000  0.17909000  1.0
  C  C85  1  0.36216000  0.93772000  0.67935000  1.0
  C  C86  1  0.06382000  0.71675000  0.83252000  1.0
  C  C87  1  0.43960000  0.28264000  0.33360000  1.0
  C  C88  1  0.93800000  0.28075000  0.16585000  1.0
  C  C89  1  0.56408000  0.71599000  0.66721000  1.0
  C  C90  1  0.04786000  0.22960000  0.91932000  1.0
  C  C91  1  0.45704000  0.77009000  0.41923000  1.0
  C  C92  1  0.95651000  0.76881000  0.08026000  1.0
  C  C93  1  0.54568000  0.23099000  0.58013000  1.0
  C  C94  1  0.66439000  0.15336000  0.81149000  1.0
  C  C95  1  0.84620000  0.84949000  0.31147000  1.0
  C  C96  1  0.34585000  0.84823000  0.18836000  1.0
  C  C97  1  0.16225000  0.15190000  0.68823000  1.0
  C  C98  1  0.78792000  0.05033000  0.77727000  1.0
  C  C99  1  0.72198000  0.95198000  0.27730000  1.0
  C  C100  1  0.22117000  0.95048000  0.22253000  1.0
  C  C101  1  0.28658000  0.04922000  0.72238000  1.0
  N  N102  1  0.60947000  0.15204000  0.88569000  1.0
  N  N103  1  0.89790000  0.84996000  0.38617000  1.0
  N  N104  1  0.39817000  0.84903000  0.11380000  1.0
  N  N105  1  0.10826000  0.15072000  0.61385000  1.0
  O  O106  1  0.31610000  0.59797000  0.57651000  1.0
  O  O107  1  0.18583000  0.40094000  0.07658000  1.0
  O  O108  1  0.69080000  0.40642000  0.42287000  1.0
  O  O109  1  0.81651000  0.60096000  0.92370000  1.0
  O  O110  1  0.94913000  0.32844000  0.95324000  1.0
  O  O111  1  0.55230000  0.67566000  0.45788000  1.0
  O  O112  1  0.05364000  0.67140000  0.04474000  1.0
  O  O113  1  0.44981000  0.32820000  0.54373000  1.0
  O  O114  1  0.21539000  0.48593000  0.92202000  1.0
  O  O115  1  0.28810000  0.51448000  0.42231000  1.0
  O  O116  1  0.78742000  0.51326000  0.07689000  1.0
  O  O117  1  0.71455000  0.48483000  0.57814000  1.0
  O  O118  1  0.34444000  0.38824000  0.81684000  1.0
  O  O119  1  0.14014000  0.60492000  0.31892000  1.0
  O  O120  1  0.64473000  0.60520000  0.18086000  1.0
  O  O121  1  0.84363000  0.38723000  0.68333000  1.0
  O  O122  1  0.21768000  0.19862000  0.90794000  1.0
  O  O123  1  0.28924000  0.79701000  0.40325000  1.0
  O  O124  1  0.78747000  0.79804000  0.09383000  1.0
  O  O125  1  0.71501000  0.19927000  0.59270000  1.0
  O  O126  1  0.06213000  0.75050000  0.53897000  1.0
  O  O127  1  0.44190000  0.24925000  0.03997000  1.0
  O  O128  1  0.93860000  0.24768000  0.45972000  1.0
  O  O129  1  0.55608000  0.74741000  0.96088000  1.0
  O  O130  1  0.58254000  0.41521000  0.94056000  1.0
  O  O131  1  0.90921000  0.59162000  0.44693000  1.0
  O  O132  1  0.40928000  0.58800000  0.05788000  1.0
  O  O133  1  0.08293000  0.41299000  0.55998000  1.0
