# generated using pymatgen
data_CoH18C14(NO)4
_symmetry_space_group_name_H-M   'P 1'
_cell_length_a   9.13173000
_cell_length_b   9.19083000
_cell_length_c   9.19080000
_cell_angle_alpha   95.17900000
_cell_angle_beta   97.35140000
_cell_angle_gamma   97.35140000
_symmetry_Int_Tables_number   1
_chemical_formula_structural   CoH18C14(NO)4
_chemical_formula_sum   'Co2 H36 C28 N8 O8'
_cell_volume   754.26582269
_cell_formula_units_Z   2
loop_
 _symmetry_equiv_pos_site_id
 _symmetry_equiv_pos_as_xyz
  1  'x, y, z'
loop_
 _atom_site_type_symbol
 _atom_site_label
 _atom_site_symmetry_multiplicity
 _atom_site_fract_x
 _atom_site_fract_y
 _atom_site_fract_z
 _atom_site_occupancy
  Co  Co0  1  0.25000000  0.10913000  0.89087000  1.0
  Co  Co1  1  0.75000000  0.89087000  0.10913000  1.0
  H  H2  1  0.97630000  0.27589000  0.77083000  1.0
  H  H3  1  0.52371000  0.22918000  0.72411000  1.0
  H  H4  1  0.02370000  0.72411000  0.22917000  1.0
  H  H5  1  0.47629000  0.77083000  0.27588000  1.0
  H  H6  1  0.40315000  0.42125000  0.00938000  1.0
  H  H7  1  0.09686000  0.99063000  0.57875000  1.0
  H  H8  1  0.59685000  0.57875000  0.99062000  1.0
  H  H9  1  0.90314000  0.00937000  0.42125000  1.0
  H  H10  1  0.26225000  0.66796000  0.95412000  1.0
  H  H11  1  0.23776000  0.04589000  0.33205000  1.0
  H  H12  1  0.73775000  0.33204000  0.04589000  1.0
  H  H13  1  0.76224000  0.95411000  0.66795000  1.0
  H  H14  1  0.96097000  0.67171000  0.87759000  1.0
  H  H15  1  0.53903000  0.12241000  0.32829000  1.0
  H  H16  1  0.03903000  0.32828000  0.12241000  1.0
  H  H17  1  0.46096000  0.87759000  0.67171000  1.0
  H  H18  1  0.87038000  0.51654000  0.75784000  1.0
  H  H19  1  0.62962000  0.24217000  0.48345000  1.0
  H  H20  1  0.12962000  0.48346000  0.24216000  1.0
  H  H21  1  0.37038000  0.75784000  0.51654000  1.0
  H  H22  1  0.12862000  0.74505000  0.70271000  1.0
  H  H23  1  0.37137000  0.29729000  0.25495000  1.0
  H  H24  1  0.87138000  0.25495000  0.29730000  1.0
  H  H25  1  0.62861000  0.70270000  0.74504000  1.0
  H  H26  1  0.94259000  0.72670000  0.61725000  1.0
  H  H27  1  0.55740000  0.38275000  0.27329000  1.0
  H  H28  1  0.05741000  0.27329000  0.38275000  1.0
  H  H29  1  0.44258000  0.61725000  0.72670000  1.0
  H  H30  1  0.11400000  0.62048000  0.45569000  1.0
  H  H31  1  0.38601000  0.54431000  0.37951000  1.0
  H  H32  1  0.88601000  0.37952000  0.54431000  1.0
  H  H33  1  0.61399000  0.45569000  0.62047000  1.0
  H  H34  1  0.15556000  0.49507000  0.58314000  1.0
  H  H35  1  0.34444000  0.41687000  0.50492000  1.0
  H  H36  1  0.84444000  0.50493000  0.41687000  1.0
  H  H37  1  0.65556000  0.58313000  0.49507000  1.0
  C  C38  1  0.07344000  0.34783000  0.82874000  1.0
  C  C39  1  0.42656000  0.17127000  0.65217000  1.0
  C  C40  1  0.92656000  0.65217000  0.17127000  1.0
  C  C41  1  0.57343000  0.82873000  0.34783000  1.0
  C  C42  1  0.29381000  0.42922000  0.95201000  1.0
  C  C43  1  0.20620000  0.04799000  0.57079000  1.0
  C  C44  1  0.70620000  0.57078000  0.04799000  1.0
  C  C45  1  0.79380000  0.95201000  0.42922000  1.0
  C  C46  1  0.22380000  0.55065000  0.92833000  1.0
  C  C47  1  0.27621000  0.07168000  0.44936000  1.0
  C  C48  1  0.77620000  0.44936000  0.07167000  1.0
  C  C49  1  0.72379000  0.92832000  0.55064000  1.0
  C  C50  1  0.97719000  0.58864000  0.78996000  1.0
  C  C51  1  0.52281000  0.21004000  0.41135000  1.0
  C  C52  1  0.02281000  0.41135000  0.21004000  1.0
  C  C53  1  0.47719000  0.78996000  0.58864000  1.0
  C  C54  1  0.03006000  0.66339000  0.66019000  1.0
  C  C55  1  0.46994000  0.33981000  0.33660000  1.0
  C  C56  1  0.96994000  0.33660000  0.33981000  1.0
  C  C57  1  0.53005000  0.66018000  0.66339000  1.0
  C  C58  1  0.06648000  0.55555000  0.53785000  1.0
  C  C59  1  0.43352000  0.46215000  0.44444000  1.0
  C  C60  1  0.93353000  0.44445000  0.46215000  1.0
  C  C61  1  0.56647000  0.53785000  0.55554000  1.0
  C  C62  1  0.95370000  0.97696000  0.92326000  1.0
  C  C63  1  0.54630000  0.07672000  0.02305000  1.0
  C  C64  1  0.04629000  0.02304000  0.07673000  1.0
  C  C65  1  0.45370000  0.92327000  0.97696000  1.0
  N  N66  1  0.19894000  0.30352000  0.88924000  1.0
  N  N67  1  0.30108000  0.11077000  0.69649000  1.0
  N  N68  1  0.80107000  0.69648000  0.11077000  1.0
  N  N69  1  0.69893000  0.88924000  0.30352000  1.0
  N  N70  1  0.08467000  0.49747000  0.85137000  1.0
  N  N71  1  0.41533000  0.14864000  0.50253000  1.0
  N  N72  1  0.91533000  0.50253000  0.14863000  1.0
  N  N73  1  0.58467000  0.85136000  0.49747000  1.0
  O  O74  1  0.01353000  0.00787000  0.81162000  1.0
  O  O75  1  0.48647000  0.18838000  0.99214000  1.0
  O  O76  1  0.98647000  0.99214000  0.18838000  1.0
  O  O77  1  0.51353000  0.81162000  0.00786000  1.0
  O  O78  1  0.82101000  0.90931000  0.91858000  1.0
  O  O79  1  0.67899000  0.08142000  0.09069000  1.0
  O  O80  1  0.17899000  0.09069000  0.08142000  1.0
  O  O81  1  0.32101000  0.91858000  0.90931000  1.0
