# generated using pymatgen
data_Zn3H22C24S2(N2O)8
_symmetry_space_group_name_H-M   'P 1'
_cell_length_a   8.10487000
_cell_length_b   14.01080000
_cell_length_c   15.99490000
_cell_angle_alpha   114.11800000
_cell_angle_beta   90.00000000
_cell_angle_gamma   106.81200000
_symmetry_Int_Tables_number   1
_chemical_formula_structural   Zn3H22C24S2(N2O)8
_chemical_formula_sum   'Zn6 H44 C48 S4 N32 O16'
_cell_volume   1572.31875701
_cell_formula_units_Z   2
loop_
 _symmetry_equiv_pos_site_id
 _symmetry_equiv_pos_as_xyz
  1  'x, y, z'
loop_
 _atom_site_type_symbol
 _atom_site_label
 _atom_site_symmetry_multiplicity
 _atom_site_fract_x
 _atom_site_fract_y
 _atom_site_fract_z
 _atom_site_occupancy
  Zn  Zn0  1  0.27004000  0.27582000  0.04898000  1.0
  Zn  Zn1  1  0.99438000  0.72413000  0.45092000  1.0
  Zn  Zn2  1  0.72996000  0.72418000  0.95102000  1.0
  Zn  Zn3  1  0.00562000  0.27587000  0.54909000  1.0
  Zn  Zn4  1  0.01359000  0.00011000  0.75006000  1.0
  Zn  Zn5  1  0.98640000  0.99989000  0.24994000  1.0
  H  H6  1  0.53766000  0.69080000  0.19792000  1.0
  H  H7  1  0.84692000  0.30917000  0.30218000  1.0
  H  H8  1  0.46233000  0.30920000  0.80207000  1.0
  H  H9  1  0.15309000  0.69083000  0.69782000  1.0
  H  H10  1  0.37869000  0.64185000  0.02759000  1.0
  H  H11  1  0.73708000  0.35830000  0.47255000  1.0
  H  H12  1  0.62131000  0.35816000  0.97241000  1.0
  H  H13  1  0.26293000  0.64170000  0.52745000  1.0
  H  H14  1  0.75197000  0.03612000  0.11803000  1.0
  H  H15  1  0.71649000  0.96400000  0.38198000  1.0
  H  H16  1  0.24803000  0.96388000  0.88197000  1.0
  H  H17  1  0.28351000  0.03600000  0.61802000  1.0
  H  H18  1  0.54554000  0.42316000  0.26014000  1.0
  H  H19  1  0.12238000  0.57668000  0.23978000  1.0
  H  H20  1  0.45446000  0.57684000  0.73986000  1.0
  H  H21  1  0.87763000  0.42333000  0.76022000  1.0
  H  H22  1  0.67350000  0.65140000  0.32048000  1.0
  H  H23  1  0.02210000  0.34846000  0.17958000  1.0
  H  H24  1  0.32650000  0.34860000  0.67952000  1.0
  H  H25  1  0.97791000  0.65155000  0.82042000  1.0
  H  H26  1  0.15238000  0.53567000  0.88320000  1.0
  H  H27  1  0.61672000  0.46454000  0.61686000  1.0
  H  H28  1  0.84761000  0.46433000  0.11680000  1.0
  H  H29  1  0.38328000  0.53546000  0.38314000  1.0
  H  H30  1  0.03656000  0.31943000  0.86461000  1.0
  H  H31  1  0.71696000  0.68070000  0.63527000  1.0
  H  H32  1  0.96343000  0.68057000  0.13540000  1.0
  H  H33  1  0.28305000  0.31930000  0.36473000  1.0
  H  H34  1  0.84103000  0.21392000  0.95490000  1.0
  H  H35  1  0.62757000  0.78626000  0.54514000  1.0
  H  H36  1  0.15897000  0.78608000  0.04510000  1.0
  H  H37  1  0.37243000  0.21374000  0.45486000  1.0
  H  H38  1  0.58949000  0.08124000  0.01190000  1.0
  H  H39  1  0.50884000  0.91895000  0.48815000  1.0
  H  H40  1  0.41051000  0.91876000  0.98810000  1.0
  H  H41  1  0.49116000  0.08105000  0.51185000  1.0
  H  H42  1  0.38755000  0.09475000  0.27328000  1.0
  H  H43  1  0.29308000  0.90509000  0.22653000  1.0
  H  H44  1  0.61245000  0.90525000  0.72672000  1.0
  H  H45  1  0.70692000  0.09491000  0.77347000  1.0
  H  H46  1  0.55609000  0.22008000  0.18492000  1.0
  H  H47  1  0.33612000  0.77959000  0.31476000  1.0
  H  H48  1  0.44391000  0.77992000  0.81508000  1.0
  H  H49  1  0.66387000  0.22041000  0.68523000  1.0
  C  C50  1  0.52085000  0.47470000  0.22949000  1.0
  C  C51  1  0.04621000  0.52518000  0.27049000  1.0
  C  C52  1  0.47914000  0.52530000  0.77051000  1.0
  C  C53  1  0.95380000  0.47482000  0.72951000  1.0
  C  C54  1  0.58494000  0.58755000  0.26001000  1.0
  C  C55  1  0.99743000  0.41234000  0.24004000  1.0
  C  C56  1  0.41506000  0.41244000  0.73999000  1.0
  C  C57  1  0.00258000  0.58766000  0.75997000  1.0
  C  C58  1  0.41035000  0.51532000  0.12900000  1.0
  C  C59  1  0.89518000  0.48468000  0.37105000  1.0
  C  C60  1  0.58964000  0.48468000  0.87100000  1.0
  C  C61  1  0.10483000  0.51532000  0.62895000  1.0
  C  C62  1  0.30611000  0.49281000  0.04622000  1.0
  C  C63  1  0.81345000  0.50726000  0.45383000  1.0
  C  C64  1  0.69388000  0.50719000  0.95378000  1.0
  C  C65  1  0.18656000  0.49274000  0.54617000  1.0
  C  C66  1  0.18133000  0.49961000  0.92745000  1.0
  C  C67  1  0.68179000  0.50056000  0.57260000  1.0
  C  C68  1  0.81866000  0.50039000  0.07255000  1.0
  C  C69  1  0.31821000  0.49944000  0.42741000  1.0
  C  C70  1  0.12574000  0.39278000  0.91928000  1.0
  C  C71  1  0.73292000  0.60734000  0.58067000  1.0
  C  C72  1  0.87426000  0.60722000  0.08072000  1.0
  C  C73  1  0.26708000  0.39266000  0.41933000  1.0
  C  C74  1  0.85546000  0.17670000  0.00078000  1.0
  C  C75  1  0.67929000  0.82345000  0.49925000  1.0
  C  C76  1  0.14453000  0.82330000  0.99922000  1.0
  C  C77  1  0.32071000  0.17655000  0.50075000  1.0
  C  C78  1  0.72939000  0.11063000  0.02863000  1.0
  C  C79  1  0.61932000  0.88952000  0.47139000  1.0
  C  C80  1  0.27061000  0.88937000  0.97137000  1.0
  C  C81  1  0.38068000  0.11048000  0.52861000  1.0
  C  C82  1  0.98859000  0.13209000  0.09212000  1.0
  C  C83  1  0.85698000  0.86797000  0.40786000  1.0
  C  C84  1  0.01141000  0.86791000  0.90788000  1.0
  C  C85  1  0.14302000  0.13203000  0.59214000  1.0
  C  C86  1  0.13959000  0.13339000  0.14135000  1.0
  C  C87  1  0.00657000  0.86654000  0.35855000  1.0
  C  C88  1  0.86041000  0.86661000  0.85865000  1.0
  C  C89  1  0.99343000  0.13346000  0.64145000  1.0
  C  C90  1  0.33333333  0.12111000  0.22759000  1.0
  C  C91  1  0.21249000  0.87872000  0.27221000  1.0
  C  C92  1  0.66666667  0.87889000  0.77240000  1.0
  C  C93  1  0.78751000  0.12128000  0.72779000  1.0
  C  C94  1  0.41785000  0.18361000  0.18282000  1.0
  C  C95  1  0.23445000  0.81615000  0.31693000  1.0
  C  C96  1  0.58214000  0.81639000  0.81718000  1.0
  C  C97  1  0.76555000  0.18385000  0.68307000  1.0
  S  S98  1  0.38949000  0.14689000  0.86512000  1.0
  S  S99  1  0.24259000  0.85317000  0.63490000  1.0
  S  S100  1  0.61051000  0.85311000  0.13488000  1.0
  S  S101  1  0.75742000  0.14683000  0.36510000  1.0
  N  N102  1  0.41196000  0.43062000  0.14801000  1.0
  N  N103  1  0.98147000  0.56932000  0.35197000  1.0
  N  N104  1  0.58803000  0.56938000  0.85199000  1.0
  N  N105  1  0.01854000  0.43068000  0.64803000  1.0
  N  N106  1  0.51355000  0.61170000  0.19590000  1.0
  N  N107  1  0.90195000  0.38827000  0.30419000  1.0
  N  N108  1  0.48644000  0.38830000  0.80410000  1.0
  N  N109  1  0.09806000  0.61174000  0.69581000  1.0
  N  N110  1  0.20422000  0.38932000  0.99371000  1.0
  N  N111  1  0.81494000  0.61074000  0.50625000  1.0
  N  N112  1  0.79577000  0.61068000  0.00629000  1.0
  N  N113  1  0.18507000  0.38926000  0.49375000  1.0
  N  N114  1  0.29505000  0.56184000  0.00818000  1.0
  N  N115  1  0.73341000  0.43829000  0.49193000  1.0
  N  N116  1  0.70494000  0.43816000  0.99182000  1.0
  N  N117  1  0.26660000  0.56171000  0.50807000  1.0
  N  N118  1  0.01545000  0.19010000  0.04083000  1.0
  N  N119  1  0.82583000  0.80999000  0.45918000  1.0
  N  N120  1  0.98455000  0.80989000  0.95916000  1.0
  N  N121  1  0.17417000  0.19000000  0.54082000  1.0
  N  N122  1  0.81524000  0.08368000  0.08591000  1.0
  N  N123  1  0.73209000  0.91641000  0.41408000  1.0
  N  N124  1  0.18476000  0.91632000  0.91409000  1.0
  N  N125  1  0.26791000  0.08359000  0.58592000  1.0
  N  N126  1  0.29577000  0.19087000  0.12867000  1.0
  N  N127  1  0.10517000  0.80896000  0.37113000  1.0
  N  N128  1  0.70423000  0.80912000  0.87133000  1.0
  N  N129  1  0.89483000  0.19104000  0.62887000  1.0
  N  N130  1  0.15649000  0.08940000  0.20113000  1.0
  N  N131  1  0.06748000  0.91053000  0.29877000  1.0
  N  N132  1  0.84351000  0.91060000  0.79887000  1.0
  N  N133  1  0.93252000  0.08947000  0.70123000  1.0
  O  O134  1  0.46525000  0.06309000  0.86222000  1.0
  O  O135  1  0.40230000  0.93671000  0.63761000  1.0
  O  O136  1  0.53475000  0.93691000  0.13778000  1.0
  O  O137  1  0.59770000  0.06328000  0.36239000  1.0
  O  O138  1  0.44663000  0.24623000  0.95950000  1.0
  O  O139  1  0.20001000  0.75372000  0.54059000  1.0
  O  O140  1  0.55337000  0.75377000  0.04050000  1.0
  O  O141  1  0.79999000  0.24628000  0.45941000  1.0
  O  O142  1  0.43894000  0.18629000  0.79324000  1.0
  O  O143  1  0.25247000  0.81384000  0.70683000  1.0
  O  O144  1  0.56106000  0.81371000  0.20676000  1.0
  O  O145  1  0.74753000  0.18616000  0.29317000  1.0
  O  O146  1  0.19362000  0.10341000  0.85871000  1.0
  O  O147  1  0.09054000  0.89696000  0.64138000  1.0
  O  O148  1  0.80638000  0.89659000  0.14129000  1.0
  O  O149  1  0.90947000  0.10304000  0.35862000  1.0
