# generated using pymatgen
data_Na2H7C4SN2ClO4
_symmetry_space_group_name_H-M   'P 1'
_cell_length_a   6.54963000
_cell_length_b   8.68227000
_cell_length_c   9.97860000
_cell_angle_alpha   115.78200000
_cell_angle_beta   109.12700000
_cell_angle_gamma   90.02000000
_symmetry_Int_Tables_number   1
_chemical_formula_structural   Na2H7C4SN2ClO4
_chemical_formula_sum   'Na4 H14 C8 S2 N4 Cl2 O8'
_cell_volume   475.89118280
_cell_formula_units_Z   2
loop_
 _symmetry_equiv_pos_site_id
 _symmetry_equiv_pos_as_xyz
  1  'x, y, z'
loop_
 _atom_site_type_symbol
 _atom_site_label
 _atom_site_symmetry_multiplicity
 _atom_site_fract_x
 _atom_site_fract_y
 _atom_site_fract_z
 _atom_site_occupancy
  Na  Na0  1  0.75217000  0.25241000  0.50466000  1.0
  Na  Na1  1  0.74781000  0.74772000  0.49533000  1.0
  Na  Na2  1  0.24786000  0.74759000  0.49537000  1.0
  Na  Na3  1  0.25220000  0.25227000  0.50464000  1.0
  H  H4  1  0.75011000  0.73172000  0.99997000  1.0
  H  H5  1  0.24992000  0.26829000  0.00001000  1.0
  H  H6  1  0.62763000  0.18459000  0.75537000  1.0
  H  H7  1  0.87238000  0.42932000  0.24471000  1.0
  H  H8  1  0.37232000  0.81541000  0.24463000  1.0
  H  H9  1  0.12764000  0.57070000  0.75530000  1.0
  H  H10  1  0.40206000  0.36837000  0.30417000  1.0
  H  H11  1  0.09801000  0.06409000  0.69581000  1.0
  H  H12  1  0.59795000  0.63163000  0.69584000  1.0
  H  H13  1  0.90201000  0.93591000  0.30420000  1.0
  H  H14  1  0.36610000  0.16154000  0.23229000  1.0
  H  H15  1  0.13389000  0.92914000  0.76767000  1.0
  H  H16  1  0.63393000  0.83846000  0.76771000  1.0
  H  H17  1  0.86610000  0.07086000  0.23234000  1.0
  C  C18  1  0.75004000  0.28162000  0.00004000  1.0
  C  C19  1  0.24992000  0.71839000  0.99998000  1.0
  C  C20  1  0.67715000  0.45369000  0.85431000  1.0
  C  C21  1  0.82288000  0.59937000  0.14563000  1.0
  C  C22  1  0.32287000  0.54630000  0.14566000  1.0
  C  C23  1  0.17707000  0.40064000  0.85435000  1.0
  C  C24  1  0.75004000  0.60663000  0.00000000  1.0
  C  C25  1  0.24996000  0.39336000  0.00001000  1.0
  S  S26  1  0.75017000  0.08864000  0.00000000  1.0
  S  S27  1  0.24984000  0.91136000  0.00001000  1.0
  N  N28  1  0.68136000  0.29681000  0.86281000  1.0
  N  N29  1  0.81860000  0.43403000  0.13720000  1.0
  N  N30  1  0.31857000  0.70319000  0.13717000  1.0
  N  N31  1  0.18137000  0.56598000  0.86278000  1.0
  Cl  Cl32  1  0.50000000  0.99999000  0.50000000  1.0
  Cl  Cl33  1  0.00001000  0.50000000  0.50000000  1.0
  O  O34  1  0.60722000  0.44288000  0.71459000  1.0
  O  O35  1  0.89283000  0.72833000  0.28537000  1.0
  O  O36  1  0.39284000  0.55710000  0.28540000  1.0
  O  O37  1  0.10719000  0.27168000  0.71462000  1.0
  O  O38  1  0.41631000  0.27117000  0.33286000  1.0
  O  O39  1  0.08377000  0.93819000  0.66710000  1.0
  O  O40  1  0.58369000  0.72885000  0.66715000  1.0
  O  O41  1  0.91623000  0.06181000  0.33291000  1.0
