# generated using pymatgen
data_Zn4H23C65N21O5
_symmetry_space_group_name_H-M   'P 1'
_cell_length_a   18.49550000
_cell_length_b   19.26070000
_cell_length_c   20.33280000
_cell_angle_alpha   104.46000000
_cell_angle_beta   112.43300000
_cell_angle_gamma   107.88000000
_symmetry_Int_Tables_number   1
_chemical_formula_structural   Zn4H23C65N21O5
_chemical_formula_sum   'Zn4 H23 C65 N21 O5'
_cell_volume   5791.23680645
_cell_formula_units_Z   1
loop_
 _symmetry_equiv_pos_site_id
 _symmetry_equiv_pos_as_xyz
  1  'x, y, z'
loop_
 _atom_site_type_symbol
 _atom_site_label
 _atom_site_symmetry_multiplicity
 _atom_site_fract_x
 _atom_site_fract_y
 _atom_site_fract_z
 _atom_site_occupancy
  Zn  Zn0  1  0.89385000  0.89984000  0.49369000  1.0
  Zn  Zn1  1  0.12428000  0.12233000  0.50131000  1.0
  Zn  Zn2  1  0.11418000  0.01532000  0.60902000  1.0
  Zn  Zn3  1  0.89771000  0.00341000  0.39033000  1.0
  H  H4  1  0.85441000  0.87611000  0.63021000  1.0
  H  H5  1  0.46145000  0.67962000  0.99801000  1.0
  H  H6  1  0.90173000  0.86444000  0.00389000  1.0
  H  H7  1  0.19779000  0.17045000  0.76876000  1.0
  H  H8  1  0.67899000  0.98557000  0.32563000  1.0
  H  H9  1  0.28686000  0.29919000  0.64664000  1.0
  H  H10  1  0.73391000  0.91277000  0.51752000  1.0
  H  H11  1  0.84700000  0.10721000  0.49932000  1.0
  H  H12  1  0.12688000  0.05215000  0.77233000  1.0
  H  H13  1  0.74046000  0.72540000  0.34983000  1.0
  H  H14  1  0.17940000  0.84442000  0.71508000  1.0
  H  H15  1  0.19529000  0.03128000  0.40081000  1.0
  H  H16  1  0.20701000  0.61702000  0.75870000  1.0
  H  H17  1  0.78747000  0.39334000  0.52743000  1.0
  H  H18  1  0.55640000  0.57436000  0.16865000  1.0
  H  H19  1  0.87752000  0.83542000  0.81671000  1.0
  H  H20  1  0.89924000  0.93993000  0.23113000  1.0
  H  H21  1  0.78327000  0.86685000  0.22090000  1.0
  H  H22  1  0.16131000  0.88527000  0.52786000  1.0
  H  H23  1  0.12261000  0.48462000  0.71966000  1.0
  H  H24  1  0.87118000  0.52779000  0.56641000  1.0
  H  H25  1  0.12227000  0.27014000  0.61250000  1.0
  H  H26  1  0.39118000  0.40631000  0.99216000  1.0
  C  C27  1  0.91999000  0.92280000  0.65385000  1.0
  C  C28  1  0.95726000  0.77880000  0.53561000  1.0
  C  C29  1  0.78806000  0.84258000  0.26432000  1.0
  C  C30  1  0.05788000  0.21927000  0.57812000  1.0
  C  C31  1  0.16148000  0.92731000  0.50101000  1.0
  C  C32  1  0.72595000  0.77188000  0.25600000  1.0
  C  C33  1  0.19699000  0.94109000  0.45260000  1.0
  C  C34  1  0.02364000  0.77516000  0.59757000  1.0
  C  C35  1  0.03354000  0.02521000  0.26402000  1.0
  C  C36  1  0.58853000  0.93241000  0.41146000  1.0
  C  C37  1  0.51780000  0.92016000  0.40849000  1.0
  C  C38  1  0.97866000  0.21556000  0.57316000  1.0
  C  C39  1  0.44255000  0.90935000  0.40807000  1.0
  C  C40  1  0.37551000  0.90261000  0.41139000  1.0
  C  C41  1  0.30764000  0.90410000  0.41994000  1.0
  C  C42  1  0.21398000  0.18878000  0.72789000  1.0
  C  C43  1  0.25051000  0.91278000  0.43295000  1.0
  C  C44  1  0.08226000  0.57119000  0.69023000  1.0
  C  C45  1  0.01057000  0.58278000  0.64459000  1.0
  C  C46  1  0.92553000  0.51776000  0.60112000  1.0
  C  C47  1  0.91120000  0.44210000  0.59911000  1.0
  C  C48  1  0.98332000  0.42906000  0.64080000  1.0
  C  C49  1  0.25658000  0.26731000  0.73574000  1.0
  C  C50  1  0.06736000  0.49477000  0.68753000  1.0
  C  C51  1  0.02132000  0.65498000  0.63613000  1.0
  C  C52  1  0.97361000  0.35045000  0.62745000  1.0
  C  C53  1  0.96925000  0.28343000  0.60601000  1.0
  C  C54  1  0.70604000  0.96834000  0.37289000  1.0
  C  C55  1  0.02273000  0.71199000  0.61949000  1.0
  C  C56  1  0.40495000  0.46576000  0.99298000  1.0
  C  C57  1  0.36276000  0.47361000  0.92333000  1.0
  C  C58  1  0.37951000  0.55249000  0.92723000  1.0
  C  C59  1  0.44621000  0.61983000  0.99670000  1.0
  C  C60  1  0.66979000  0.94405000  0.41798000  1.0
  C  C61  1  0.49505000  0.61123000  0.06363000  1.0
  C  C62  1  0.46930000  0.53280000  0.06220000  1.0
  C  C63  1  0.31318000  0.40358000  0.85229000  1.0
  C  C64  1  0.57176000  0.67398000  0.13135000  1.0
  C  C65  1  0.64371000  0.71775000  0.18996000  1.0
  C  C66  1  0.25958000  0.25483000  0.66555000  1.0
  C  C67  1  0.28654000  0.34017000  0.79793000  1.0
  C  C68  1  0.96062000  0.88823000  0.99981000  1.0
  C  C69  1  0.04276000  0.93532000  0.06833000  1.0
  C  C70  1  0.11959000  0.96205000  0.06189000  1.0
  C  C71  1  0.76452000  0.77019000  0.32998000  1.0
  C  C72  1  0.11104000  0.95142000  0.98756000  1.0
  C  C73  1  0.02713000  0.91384000  0.91984000  1.0
  C  C74  1  0.95257000  0.87684000  0.92663000  1.0
  C  C75  1  0.04645000  0.96201000  0.14136000  1.0
  C  C76  1  0.01495000  0.91897000  0.84894000  1.0
  C  C77  1  0.00168000  0.93443000  0.79180000  1.0
  C  C78  1  0.73468000  0.93155000  0.47159000  1.0
  C  C79  1  0.04297000  0.99273000  0.19970000  1.0
  C  C80  1  0.91663000  0.13605000  0.52019000  1.0
  C  C81  1  0.05931000  0.01361000  0.72629000  1.0
  C  C82  1  0.17798000  0.00206000  0.43546000  1.0
  C  C83  1  0.99335000  0.95552000  0.72912000  1.0
  C  C84  1  0.17928000  0.15058000  0.36226000  1.0
  C  C85  1  0.86929000  0.72091000  0.48451000  1.0
  C  C86  1  0.32965000  0.56536000  0.86257000  1.0
  C  C87  1  0.20374000  0.00164000  0.12990000  1.0
  C  C88  1  0.18593000  0.98144000  0.97893000  1.0
  C  C89  1  0.09368000  0.85289000  0.63283000  1.0
  C  C90  1  0.95999000  0.99373000  0.27255000  1.0
  C  C91  1  0.09280000  0.09471000  0.33548000  1.0
  N  N92  1  0.94191000  0.95783000  0.61042000  1.0
  N  N93  1  0.19302000  0.13485000  0.65889000  1.0
  N  N94  1  0.78461000  0.96871000  0.39743000  1.0
  N  N95  1  0.22115000  0.17595000  0.61961000  1.0
  N  N96  1  0.80250000  0.94623000  0.45845000  1.0
  N  N97  1  0.95646000  0.09639000  0.49444000  1.0
  N  N98  1  0.02830000  0.01394000  0.65469000  1.0
  N  N99  1  0.84223000  0.83543000  0.37771000  1.0
  N  N100  1  0.25157000  0.19683000  0.38689000  1.0
  N  N101  1  0.79512000  0.67512000  0.44360000  1.0
  N  N102  1  0.28847000  0.57975000  0.81266000  1.0
  N  N103  1  0.13611000  0.02305000  0.47200000  1.0
  N  N104  1  0.27283000  0.03288000  0.18588000  1.0
  N  N105  1  0.24535000  0.00453000  0.96884000  1.0
  N  N106  1  0.07073000  0.89733000  0.59532000  1.0
  N  N107  1  0.97447000  0.03936000  0.34257000  1.0
  N  N108  1  0.05670000  0.10207000  0.38236000  1.0
  N  N109  1  0.98676000  0.85239000  0.53464000  1.0
  N  N110  1  0.85734000  0.88091000  0.33766000  1.0
  N  N111  1  0.12600000  0.97772000  0.51272000  1.0
  N  N112  1  0.04323000  0.14816000  0.53063000  1.0
  O  O113  1  0.17457000  0.88471000  0.69473000  1.0
  O  O114  1  0.16337000  0.63466000  0.73268000  1.0
  O  O115  1  0.83023000  0.37702000  0.55549000  1.0
  O  O116  1  0.51009000  0.52165000  0.12674000  1.0
  O  O117  1  0.87178000  0.83441000  0.86254000  1.0
