# generated using pymatgen
data_CdH4C4(N2O3)2
_symmetry_space_group_name_H-M   'P 1'
_cell_length_a   7.17767000
_cell_length_b   9.44445000
_cell_length_c   12.72900000
_cell_angle_alpha   89.99970000
_cell_angle_beta   92.68630000
_cell_angle_gamma   90.00000000
_symmetry_Int_Tables_number   1
_chemical_formula_structural   CdH4C4(N2O3)2
_chemical_formula_sum   'Cd4 H16 C16 N16 O24'
_cell_volume   861.93981319
_cell_formula_units_Z   4
loop_
 _symmetry_equiv_pos_site_id
 _symmetry_equiv_pos_as_xyz
  1  'x, y, z'
loop_
 _atom_site_type_symbol
 _atom_site_label
 _atom_site_symmetry_multiplicity
 _atom_site_fract_x
 _atom_site_fract_y
 _atom_site_fract_z
 _atom_site_occupancy
  Cd  Cd0  1  0.14168000  0.93997000  0.28246000  1.0
  Cd  Cd1  1  0.35832000  0.43997000  0.21754000  1.0
  Cd  Cd2  1  0.85832000  0.06003000  0.71754000  1.0
  Cd  Cd3  1  0.64168000  0.56003000  0.78246000  1.0
  H  H4  1  0.21048000  0.87690000  0.53100000  1.0
  H  H5  1  0.28951000  0.37690000  0.96900000  1.0
  H  H6  1  0.78952000  0.12310000  0.46900000  1.0
  H  H7  1  0.71048000  0.62310000  0.03100000  1.0
  H  H8  1  0.54704000  0.08681000  0.32336000  1.0
  H  H9  1  0.95296000  0.58682000  0.17664000  1.0
  H  H10  1  0.45296000  0.91319000  0.67664000  1.0
  H  H11  1  0.04704000  0.41318000  0.82336000  1.0
  H  H12  1  0.79179000  0.88358000  0.11833000  1.0
  H  H13  1  0.70822000  0.38358000  0.38167000  1.0
  H  H14  1  0.20821000  0.11642000  0.88167000  1.0
  H  H15  1  0.29179000  0.61642000  0.61833000  1.0
  H  H16  1  0.30425000  0.07547000  0.07101000  1.0
  H  H17  1  0.19576000  0.57546000  0.42899000  1.0
  H  H18  1  0.69575000  0.92453000  0.92899000  1.0
  H  H19  1  0.80425000  0.42454000  0.57101000  1.0
  C  C20  1  0.34033000  0.93143000  0.51671000  1.0
  C  C21  1  0.15967000  0.43143000  0.98329000  1.0
  C  C22  1  0.65967000  0.06857000  0.48329000  1.0
  C  C23  1  0.84033000  0.56857000  0.01671000  1.0
  C  C24  1  0.52478000  0.04835000  0.40234000  1.0
  C  C25  1  0.97522000  0.54835000  0.09766000  1.0
  C  C26  1  0.47522000  0.95165000  0.59767000  1.0
  C  C27  1  0.02477000  0.45165000  0.90234000  1.0
  C  C28  1  0.88610000  0.93438000  0.06528000  1.0
  C  C29  1  0.61391000  0.43438000  0.43472000  1.0
  C  C30  1  0.11390000  0.06562000  0.93472000  1.0
  C  C31  1  0.38610000  0.56562000  0.56528000  1.0
  C  C32  1  0.16790000  0.04137000  0.03972000  1.0
  C  C33  1  0.33210000  0.54136000  0.46028000  1.0
  C  C34  1  0.83210000  0.95863000  0.96028000  1.0
  C  C35  1  0.66791000  0.45864000  0.53972000  1.0
  N  N36  1  0.84273000  0.78560000  0.38028000  1.0
  N  N37  1  0.65727000  0.28559000  0.11972000  1.0
  N  N38  1  0.15727000  0.21440000  0.61972000  1.0
  N  N39  1  0.34273000  0.71440000  0.88028000  1.0
  N  N40  1  0.42222000  0.75028000  0.19743000  1.0
  N  N41  1  0.07778000  0.25028000  0.30257000  1.0
  N  N42  1  0.57779000  0.24972000  0.80257000  1.0
  N  N43  1  0.92221000  0.74972000  0.69743000  1.0
  N  N44  1  0.36507000  0.97998000  0.41920000  1.0
  N  N45  1  0.13493000  0.47997000  0.08080000  1.0
  N  N46  1  0.63493000  0.02002000  0.58080000  1.0
  N  N47  1  0.86507000  0.52003000  0.91920000  1.0
  N  N48  1  0.05416000  0.97575000  0.10465000  1.0
  N  N49  1  0.44584000  0.47575000  0.39535000  1.0
  N  N50  1  0.94584000  0.02425000  0.89535000  1.0
  N  N51  1  0.55416000  0.52425000  0.60465000  1.0
  O  O52  1  0.84025000  0.84806000  0.28975000  1.0
  O  O53  1  0.65975000  0.34806000  0.21024000  1.0
  O  O54  1  0.15975000  0.15194000  0.71024000  1.0
  O  O55  1  0.34025000  0.65194000  0.78975000  1.0
  O  O56  1  0.99900000  0.77526000  0.43106000  1.0
  O  O57  1  0.50100000  0.27526000  0.06894000  1.0
  O  O58  1  0.00100000  0.22474000  0.56894000  1.0
  O  O59  1  0.49900000  0.72474000  0.93106000  1.0
  O  O60  1  0.69551000  0.73984000  0.41494000  1.0
  O  O61  1  0.80449000  0.23984000  0.08506000  1.0
  O  O62  1  0.30449000  0.26016000  0.58506000  1.0
  O  O63  1  0.19550000  0.76016000  0.91494000  1.0
  O  O64  1  0.27319000  0.71259000  0.24428000  1.0
  O  O65  1  0.22681000  0.21259000  0.25571000  1.0
  O  O66  1  0.72681000  0.28741000  0.75572000  1.0
  O  O67  1  0.77319000  0.78741000  0.74429000  1.0
  O  O68  1  0.45483000  0.87876000  0.18392000  1.0
  O  O69  1  0.04517000  0.37876000  0.31608000  1.0
  O  O70  1  0.54517000  0.12124000  0.81608000  1.0
  O  O71  1  0.95483000  0.62124000  0.68391000  1.0
  O  O72  1  0.52906000  0.65396000  0.16721000  1.0
  O  O73  1  0.97094000  0.15396000  0.33279000  1.0
  O  O74  1  0.47094000  0.34604000  0.83279000  1.0
  O  O75  1  0.02905000  0.84604000  0.66721000  1.0
