# generated using pymatgen
data_ZnH4C5N3O2
_symmetry_space_group_name_H-M   'P 1'
_cell_length_a   13.17090000
_cell_length_b   13.33260000
_cell_length_c   27.74960000
_cell_angle_alpha   89.99960000
_cell_angle_beta   90.00020000
_cell_angle_gamma   89.99960000
_symmetry_Int_Tables_number   1
_chemical_formula_structural   ZnH4C5N3O2
_chemical_formula_sum   'Zn16 H64 C80 N48 O32'
_cell_volume   4872.89473098
_cell_formula_units_Z   16
loop_
 _symmetry_equiv_pos_site_id
 _symmetry_equiv_pos_as_xyz
  1  'x, y, z'
loop_
 _atom_site_type_symbol
 _atom_site_label
 _atom_site_symmetry_multiplicity
 _atom_site_fract_x
 _atom_site_fract_y
 _atom_site_fract_z
 _atom_site_occupancy
  Zn  Zn0  1  0.99196000  0.56170000  0.19853000  1.0
  Zn  Zn1  1  0.00804000  0.06169000  0.80147000  1.0
  Zn  Zn2  1  0.49196000  0.06169000  0.30147000  1.0
  Zn  Zn3  1  0.50803000  0.56169000  0.69853000  1.0
  Zn  Zn4  1  0.89363000  0.12035000  0.20133000  1.0
  Zn  Zn5  1  0.10637000  0.62035000  0.79866000  1.0
  Zn  Zn6  1  0.39362000  0.62034000  0.29866000  1.0
  Zn  Zn7  1  0.60638000  0.12034000  0.70134000  1.0
  Zn  Zn8  1  0.33364000  0.01368000  0.19032000  1.0
  Zn  Zn9  1  0.66637000  0.51368000  0.80968000  1.0
  Zn  Zn10  1  0.83363000  0.51367000  0.30968000  1.0
  Zn  Zn11  1  0.16637000  0.01368000  0.69032000  1.0
  Zn  Zn12  1  0.94268000  0.95556000  0.31079000  1.0
  Zn  Zn13  1  0.05732000  0.45556000  0.68921000  1.0
  Zn  Zn14  1  0.44268000  0.45556000  0.18921000  1.0
  Zn  Zn15  1  0.55732000  0.95556000  0.81079000  1.0
  H  H16  1  0.82914000  0.02383000  0.05081000  1.0
  H  H17  1  0.17087000  0.52383000  0.94920000  1.0
  H  H18  1  0.32914000  0.52381000  0.44920000  1.0
  H  H19  1  0.67086000  0.02383000  0.55081000  1.0
  H  H20  1  0.08029000  0.16080000  0.95161000  1.0
  H  H21  1  0.91971000  0.66080000  0.04839000  1.0
  H  H22  1  0.58029000  0.66080000  0.54839000  1.0
  H  H23  1  0.41970000  0.16079000  0.45161000  1.0
  H  H24  1  0.20658000  0.07460000  0.52337000  1.0
  H  H25  1  0.79342000  0.57462000  0.47663000  1.0
  H  H26  1  0.70658000  0.57460000  0.97663000  1.0
  H  H27  1  0.29343000  0.07460000  0.02337000  1.0
  H  H28  1  0.01093000  0.80102000  0.22126000  1.0
  H  H29  1  0.98907000  0.30102000  0.77873000  1.0
  H  H30  1  0.51093000  0.30102000  0.27874000  1.0
  H  H31  1  0.48906000  0.80102000  0.72126000  1.0
  H  H32  1  0.18850000  0.94336000  0.28643000  1.0
  H  H33  1  0.81151000  0.44338000  0.71357000  1.0
  H  H34  1  0.68849000  0.44337000  0.21357000  1.0
  H  H35  1  0.31150000  0.94338000  0.78643000  1.0
  H  H36  1  0.11660000  0.09682000  0.15824000  1.0
  H  H37  1  0.88340000  0.59681000  0.84176000  1.0
  H  H38  1  0.61659000  0.59681000  0.34176000  1.0
  H  H39  1  0.38341000  0.09681000  0.65824000  1.0
  H  H40  1  0.70794000  0.97728000  0.35052000  1.0
  H  H41  1  0.29205000  0.47728000  0.64948000  1.0
  H  H42  1  0.20795000  0.47728000  0.14948000  1.0
  H  H43  1  0.79206000  0.97728000  0.85052000  1.0
  H  H44  1  0.02242000  0.15253000  0.03863000  1.0
  H  H45  1  0.97759000  0.65254000  0.96137000  1.0
  H  H46  1  0.52242000  0.65252000  0.46136000  1.0
  H  H47  1  0.47758000  0.15252000  0.53863000  1.0
  H  H48  1  0.65473000  0.12379000  0.21850000  1.0
  H  H49  1  0.34527000  0.62378000  0.78150000  1.0
  H  H50  1  0.15472000  0.62379000  0.28149000  1.0
  H  H51  1  0.84528000  0.12379000  0.71850000  1.0
  H  H52  1  0.02870000  0.93368000  0.54889000  1.0
  H  H53  1  0.97129000  0.43367000  0.45111000  1.0
  H  H54  1  0.52871000  0.43368000  0.95112000  1.0
  H  H55  1  0.47130000  0.93367000  0.04889000  1.0
  H  H56  1  0.91798000  0.89439000  0.47759000  1.0
  H  H57  1  0.08201000  0.39438000  0.52241000  1.0
  H  H58  1  0.41799000  0.39438000  0.02241000  1.0
  H  H59  1  0.58201000  0.89439000  0.97758000  1.0
  H  H60  1  0.90394000  0.01179000  0.96739000  1.0
  H  H61  1  0.09607000  0.51179000  0.03261000  1.0
  H  H62  1  0.40395000  0.51178000  0.53261000  1.0
  H  H63  1  0.59606000  0.01178000  0.46739000  1.0
  H  H64  1  0.10607000  0.02030000  0.45035000  1.0
  H  H65  1  0.89392000  0.52032000  0.54965000  1.0
  H  H66  1  0.60607000  0.52032000  0.04965000  1.0
  H  H67  1  0.39392000  0.02032000  0.95035000  1.0
  H  H68  1  0.84809000  0.74310000  0.34885000  1.0
  H  H69  1  0.15191000  0.24310000  0.65115000  1.0
  H  H70  1  0.34808000  0.24310000  0.15115000  1.0
  H  H71  1  0.65191000  0.74310000  0.84885000  1.0
  H  H72  1  0.33897000  0.77033000  0.20653000  1.0
  H  H73  1  0.66103000  0.27034000  0.79347000  1.0
  H  H74  1  0.83897000  0.27033000  0.29347000  1.0
  H  H75  1  0.16103000  0.77033000  0.70653000  1.0
  H  H76  1  0.46834000  0.83561000  0.34176000  1.0
  H  H77  1  0.53165000  0.33560000  0.65824000  1.0
  H  H78  1  0.96834000  0.33560000  0.15824000  1.0
  H  H79  1  0.03166000  0.83560000  0.84176000  1.0
  C  C80  1  0.01498000  0.07097000  0.89288000  1.0
  C  C81  1  0.98502000  0.57097000  0.10712000  1.0
  C  C82  1  0.51498000  0.57097000  0.60712000  1.0
  C  C83  1  0.48503000  0.07096000  0.39288000  1.0
  C  C84  1  0.89168000  0.07397000  0.06007000  1.0
  C  C85  1  0.10833000  0.57398000  0.93993000  1.0
  C  C86  1  0.39168000  0.57396000  0.43993000  1.0
  C  C87  1  0.60833000  0.07396000  0.56007000  1.0
  C  C88  1  0.02402000  0.10307000  0.94359000  1.0
  C  C89  1  0.97598000  0.60307000  0.05641000  1.0
  C  C90  1  0.52402000  0.60307000  0.55641000  1.0
  C  C91  1  0.47598000  0.10307000  0.44359000  1.0
  C  C92  1  0.15636000  0.02800000  0.54526000  1.0
  C  C93  1  0.84364000  0.52803000  0.45473000  1.0
  C  C94  1  0.65636000  0.52801000  0.95473000  1.0
  C  C95  1  0.34364000  0.02800000  0.04527000  1.0
  C  C96  1  0.89814000  0.10742000  0.11058000  1.0
  C  C97  1  0.10188000  0.60742000  0.88942000  1.0
  C  C98  1  0.39813000  0.60741000  0.38942000  1.0
  C  C99  1  0.60187000  0.10741000  0.61058000  1.0
  C  C100  1  0.97035000  0.76337000  0.25009000  1.0
  C  C101  1  0.02964000  0.26337000  0.74991000  1.0
  C  C102  1  0.47035000  0.26337000  0.24991000  1.0
  C  C103  1  0.52964000  0.76337000  0.75009000  1.0
  C  C104  1  0.17550000  0.03106000  0.59775000  1.0
  C  C105  1  0.82450000  0.53108000  0.40225000  1.0
  C  C106  1  0.67549000  0.53106000  0.90225000  1.0
  C  C107  1  0.32451000  0.03106000  0.09775000  1.0
  C  C108  1  0.14753000  0.98239000  0.25813000  1.0
  C  C109  1  0.85247000  0.48240000  0.74186000  1.0
  C  C110  1  0.64752000  0.48240000  0.24187000  1.0
  C  C111  1  0.35247000  0.98240000  0.75814000  1.0
  C  C112  1  0.94659000  0.93814000  0.40315000  1.0
  C  C113  1  0.05341000  0.43814000  0.59685000  1.0
  C  C114  1  0.44659000  0.43814000  0.09685000  1.0
  C  C115  1  0.55341000  0.93814000  0.90315000  1.0
  C  C116  1  0.11101000  0.06061000  0.19318000  1.0
  C  C117  1  0.88899000  0.56062000  0.80682000  1.0
  C  C118  1  0.61101000  0.56062000  0.30682000  1.0
  C  C119  1  0.38900000  0.06061000  0.69318000  1.0
  C  C120  1  0.71878000  0.01270000  0.31568000  1.0
  C  C121  1  0.28122000  0.51270000  0.68432000  1.0
  C  C122  1  0.21878000  0.51270000  0.18432000  1.0
  C  C123  1  0.78123000  0.01270000  0.81568000  1.0
  C  C124  1  0.96182000  0.10169000  0.02708000  1.0
  C  C125  1  0.03819000  0.60170000  0.97292000  1.0
  C  C126  1  0.46181000  0.60169000  0.47292000  1.0
  C  C127  1  0.53818000  0.10168000  0.52708000  1.0
  C  C128  1  0.69165000  0.08730000  0.24875000  1.0
  C  C129  1  0.30835000  0.58730000  0.75125000  1.0
  C  C130  1  0.19165000  0.58731000  0.25124000  1.0
  C  C131  1  0.80835000  0.08730000  0.74876000  1.0
  C  C132  1  0.07806000  0.97744000  0.52516000  1.0
  C  C133  1  0.92194000  0.47744000  0.47484000  1.0
  C  C134  1  0.57806000  0.47744000  0.97484000  1.0
  C  C135  1  0.42194000  0.97743000  0.02516000  1.0
  C  C136  1  0.97215000  0.93484000  0.45500000  1.0
  C  C137  1  0.02784000  0.43484000  0.54500000  1.0
  C  C138  1  0.47216000  0.43484000  0.04500000  1.0
  C  C139  1  0.52784000  0.93485000  0.95500000  1.0
  C  C140  1  0.96055000  0.06783000  0.97791000  1.0
  C  C141  1  0.03946000  0.56783000  0.02209000  1.0
  C  C142  1  0.46055000  0.56782000  0.52209000  1.0
  C  C143  1  0.53946000  0.06782000  0.47791000  1.0
  C  C144  1  0.05481000  0.97955000  0.47440000  1.0
  C  C145  1  0.94518000  0.47956000  0.52559000  1.0
  C  C146  1  0.55482000  0.47956000  0.02560000  1.0
  C  C147  1  0.44518000  0.97955000  0.97440000  1.0
  C  C148  1  0.88728000  0.73397000  0.31469000  1.0
  C  C149  1  0.11272000  0.23397000  0.68531000  1.0
  C  C150  1  0.38728000  0.23397000  0.18531000  1.0
  C  C151  1  0.61272000  0.73397000  0.81469000  1.0
  C  C152  1  0.37189000  0.80985000  0.23697000  1.0
  C  C153  1  0.62812000  0.30984000  0.76303000  1.0
  C  C154  1  0.87189000  0.30985000  0.26303000  1.0
  C  C155  1  0.12812000  0.80985000  0.73697000  1.0
  C  C156  1  0.43753000  0.84301000  0.30563000  1.0
  C  C157  1  0.56246000  0.34301000  0.69437000  1.0
  C  C158  1  0.93753000  0.34301000  0.19437000  1.0
  C  C159  1  0.06247000  0.84301000  0.80563000  1.0
  N  N160  1  0.40012000  0.76643000  0.27896000  1.0
  N  N161  1  0.59987000  0.26643000  0.72104000  1.0
  N  N162  1  0.90013000  0.26643000  0.22104000  1.0
  N  N163  1  0.09988000  0.76643000  0.77896000  1.0
  N  N164  1  0.18913000  0.01595000  0.21646000  1.0
  N  N165  1  0.81087000  0.51596000  0.78354000  1.0
  N  N166  1  0.68912000  0.51596000  0.28354000  1.0
  N  N167  1  0.31088000  0.01596000  0.71646000  1.0
  N  N168  1  0.93275000  0.80900000  0.28982000  1.0
  N  N169  1  0.06724000  0.30900000  0.71017000  1.0
  N  N170  1  0.43275000  0.30900000  0.21018000  1.0
  N  N171  1  0.56725000  0.80900000  0.78982000  1.0
  N  N172  1  0.95036000  0.66548000  0.25012000  1.0
  N  N173  1  0.04963000  0.16548000  0.74988000  1.0
  N  N174  1  0.45036000  0.16548000  0.24988000  1.0
  N  N175  1  0.54963000  0.66548000  0.75012000  1.0
  N  N176  1  0.04887000  0.00421000  0.26068000  1.0
  N  N177  1  0.95113000  0.50421000  0.73932000  1.0
  N  N178  1  0.54887000  0.50422000  0.23932000  1.0
  N  N179  1  0.45113000  0.00422000  0.76068000  1.0
  N  N180  1  0.39001000  0.90805000  0.23727000  1.0
  N  N181  1  0.60998000  0.40804000  0.76273000  1.0
  N  N182  1  0.89001000  0.40805000  0.26273000  1.0
  N  N183  1  0.10999000  0.90804000  0.73727000  1.0
  N  N184  1  0.80845000  0.02145000  0.29361000  1.0
  N  N185  1  0.19155000  0.52144000  0.70639000  1.0
  N  N186  1  0.30845000  0.52144000  0.20639000  1.0
  N  N187  1  0.69155000  0.02145000  0.79361000  1.0
  N  N188  1  0.89702000  0.64674000  0.29166000  1.0
  N  N189  1  0.10298000  0.14674000  0.70834000  1.0
  N  N190  1  0.39702000  0.14674000  0.20834000  1.0
  N  N191  1  0.60298000  0.64674000  0.79166000  1.0
  N  N192  1  0.43181000  0.92922000  0.28145000  1.0
  N  N193  1  0.56819000  0.42921000  0.71855000  1.0
  N  N194  1  0.93180000  0.42922000  0.21855000  1.0
  N  N195  1  0.06820000  0.92922000  0.78145000  1.0
  N  N196  1  0.64370000  0.05371000  0.28867000  1.0
  N  N197  1  0.35630000  0.55371000  0.71133000  1.0
  N  N198  1  0.14369000  0.55371000  0.21133000  1.0
  N  N199  1  0.85631000  0.05371000  0.78867000  1.0
  N  N200  1  0.79074000  0.06929000  0.25063000  1.0
  N  N201  1  0.20926000  0.56929000  0.74937000  1.0
  N  N202  1  0.29074000  0.56930000  0.24937000  1.0
  N  N203  1  0.70926000  0.06929000  0.75063000  1.0
  N  N204  1  0.02589000  0.05433000  0.21883000  1.0
  N  N205  1  0.97411000  0.55432000  0.78117000  1.0
  N  N206  1  0.52589000  0.55433000  0.28117000  1.0
  N  N207  1  0.47411000  0.05432000  0.71883000  1.0
  O  O208  1  0.05602000  0.12988000  0.86073000  1.0
  O  O209  1  0.94397000  0.62987000  0.13927000  1.0
  O  O210  1  0.55601000  0.62987000  0.63927000  1.0
  O  O211  1  0.44399000  0.12987000  0.36073000  1.0
  O  O212  1  0.96787000  0.99232000  0.88087000  1.0
  O  O213  1  0.03214000  0.49232000  0.11913000  1.0
  O  O214  1  0.46787000  0.49231000  0.61913000  1.0
  O  O215  1  0.53214000  0.99231000  0.38087000  1.0
  O  O216  1  0.13011000  0.96549000  0.62534000  1.0
  O  O217  1  0.86988000  0.46551000  0.37466000  1.0
  O  O218  1  0.63010000  0.46549000  0.87466000  1.0
  O  O219  1  0.36990000  0.96550000  0.12534000  1.0
  O  O220  1  0.01219000  0.97691000  0.37312000  1.0
  O  O221  1  0.98780000  0.47692000  0.62688000  1.0
  O  O222  1  0.51219000  0.47692000  0.12688000  1.0
  O  O223  1  0.48780000  0.97692000  0.87312000  1.0
  O  O224  1  0.86262000  0.90333000  0.38883000  1.0
  O  O225  1  0.13737000  0.40333000  0.61117000  1.0
  O  O226  1  0.36263000  0.40333000  0.11117000  1.0
  O  O227  1  0.63736000  0.90333000  0.88882000  1.0
  O  O228  1  0.96843000  0.16465000  0.12520000  1.0
  O  O229  1  0.03159000  0.66466000  0.87480000  1.0
  O  O230  1  0.46842000  0.66464000  0.37480000  1.0
  O  O231  1  0.53158000  0.16465000  0.62520000  1.0
  O  O232  1  0.83009000  0.07241000  0.14029000  1.0
  O  O233  1  0.16992000  0.57241000  0.85971000  1.0
  O  O234  1  0.33009000  0.57240000  0.35971000  1.0
  O  O235  1  0.66991000  0.07241000  0.64029000  1.0
  O  O236  1  0.23274000  0.09805000  0.61492000  1.0
  O  O237  1  0.76725000  0.59806000  0.38508000  1.0
  O  O238  1  0.73274000  0.59805000  0.88507000  1.0
  O  O239  1  0.26726000  0.09805000  0.11493000  1.0
