# generated using pymatgen
data_AlH9C24N3(O2F)3
_symmetry_space_group_name_H-M   'P 1'
_cell_length_a   3.94670000
_cell_length_b   15.81610000
_cell_length_c   15.82300000
_cell_angle_alpha   60.16300000
_cell_angle_beta   86.62990000
_cell_angle_gamma   86.15540000
_symmetry_Int_Tables_number   1
_chemical_formula_structural   AlH9C24N3(O2F)3
_chemical_formula_sum   'Al1 H9 C24 N3 O6 F3'
_cell_volume   854.47239564
_cell_formula_units_Z   1
loop_
 _symmetry_equiv_pos_site_id
 _symmetry_equiv_pos_as_xyz
  1  'x, y, z'
loop_
 _atom_site_type_symbol
 _atom_site_label
 _atom_site_symmetry_multiplicity
 _atom_site_fract_x
 _atom_site_fract_y
 _atom_site_fract_z
 _atom_site_occupancy
  Al  Al0  1  0.03700000  0.49971000  0.49920000  1.0
  H  H1  1  0.75872000  0.48627000  0.24075000  1.0
  H  H2  1  0.73678000  0.39998000  0.14438000  1.0
  H  H3  1  0.43599000  0.14015000  0.40605000  1.0
  H  H4  1  0.43481000  0.41112000  0.95367000  1.0
  H  H5  1  0.60096000  0.23504000  0.76599000  1.0
  H  H6  1  0.58060000  0.14096000  0.94867000  1.0
  H  H7  1  0.30912000  0.95641000  0.14494000  1.0
  H  H8  1  0.73360000  0.76447000  0.48187000  1.0
  H  H9  1  0.71956000  0.94734000  0.39613000  1.0
  C  C10  1  0.51721000  0.64959000  0.42026000  1.0
  C  C11  1  0.57404000  0.42010000  0.42809000  1.0
  C  C12  1  0.51972000  0.42840000  0.64920000  1.0
  C  C13  1  0.51630000  0.21522000  0.06996000  1.0
  C  C14  1  0.56272000  0.21298000  0.21368000  1.0
  C  C15  1  0.51967000  0.07093000  0.21254000  1.0
  C  C16  1  0.68450000  0.41079000  0.27547000  1.0
  C  C17  1  0.67385000  0.36292000  0.22213000  1.0
  C  C18  1  0.58203000  0.26525000  0.26874000  1.0
  C  C19  1  0.50213000  0.21630000  0.36891000  1.0
  C  C20  1  0.50141000  0.26667000  0.41966000  1.0
  C  C21  1  0.59065000  0.36428000  0.37498000  1.0
  C  C22  1  0.46370000  0.37180000  0.91331000  1.0
  C  C23  1  0.46023000  0.42184000  0.81244000  1.0
  C  C24  1  0.51122000  0.37432000  0.75783000  1.0
  C  C25  1  0.55855000  0.27237000  0.80819000  1.0
  C  C26  1  0.54893000  0.22019000  0.90938000  1.0
  C  C27  1  0.50645000  0.26978000  0.96254000  1.0
  C  C28  1  0.39681000  0.91517000  0.21939000  1.0
  C  C29  1  0.39204000  0.81419000  0.26993000  1.0
  C  C30  1  0.51268000  0.75803000  0.36477000  1.0
  C  C31  1  0.63489000  0.80791000  0.40879000  1.0
  C  C32  1  0.62849000  0.90904000  0.36128000  1.0
  C  C33  1  0.51276000  0.96331000  0.26557000  1.0
  N  N34  1  0.55074000  0.26625000  0.11604000  1.0
  N  N35  1  0.55477000  0.11507000  0.26522000  1.0
  N  N36  1  0.49312000  0.11771000  0.11512000  1.0
  O  O37  1  0.77027000  0.40738000  0.60741000  1.0
  O  O38  1  0.74578000  0.60704000  0.48385000  1.0
  O  O39  1  0.79987000  0.48226000  0.40642000  1.0
  O  O40  1  0.27660000  0.48961000  0.60620000  1.0
  O  O41  1  0.32974000  0.40385000  0.48979000  1.0
  O  O42  1  0.29371000  0.60610000  0.40313000  1.0
  F  F43  1  0.41817000  0.21774000  0.51632000  1.0
  F  F44  1  0.41910000  0.52071000  0.76565000  1.0
  F  F45  1  0.27551000  0.77015000  0.22317000  1.0
