# generated using pymatgen
data_NaH4C4BrN2O3
_symmetry_space_group_name_H-M   'P 1'
_cell_length_a   7.41557000
_cell_length_b   7.92395000
_cell_length_c   13.89780000
_cell_angle_alpha   101.46800000
_cell_angle_beta   90.02810000
_cell_angle_gamma   117.89500000
_symmetry_Int_Tables_number   1
_chemical_formula_structural   NaH4C4BrN2O3
_chemical_formula_sum   'Na4 H16 C16 Br4 N8 O12'
_cell_volume   703.21119519
_cell_formula_units_Z   4
loop_
 _symmetry_equiv_pos_site_id
 _symmetry_equiv_pos_as_xyz
  1  'x, y, z'
loop_
 _atom_site_type_symbol
 _atom_site_label
 _atom_site_symmetry_multiplicity
 _atom_site_fract_x
 _atom_site_fract_y
 _atom_site_fract_z
 _atom_site_occupancy
  Na  Na0  1  0.62112000  0.00009000  0.24997000  1.0
  Na  Na1  1  0.37886000  0.99990000  0.75003000  1.0
  Na  Na2  1  0.86059000  0.99994000  0.75004000  1.0
  Na  Na3  1  0.13939000  0.00008000  0.24992000  1.0
  H  H4  1  0.64397000  0.42157000  0.72509000  1.0
  H  H5  1  0.22219000  0.57822000  0.77479000  1.0
  H  H6  1  0.35601000  0.57843000  0.27491000  1.0
  H  H7  1  0.77783000  0.42178000  0.22521000  1.0
  H  H8  1  0.90389000  0.52250000  0.70651000  1.0
  H  H9  1  0.38137000  0.47756000  0.79360000  1.0
  H  H10  1  0.09610000  0.47752000  0.29350000  1.0
  H  H11  1  0.61865000  0.52244000  0.20641000  1.0
  H  H12  1  0.75002000  0.08966000  0.48106000  1.0
  H  H13  1  0.66030000  0.91034000  0.01898000  1.0
  H  H14  1  0.24999000  0.91035000  0.51895000  1.0
  H  H15  1  0.33968000  0.08965000  0.98103000  1.0
  H  H16  1  0.75066000  0.60075000  0.45911000  1.0
  H  H17  1  0.14988000  0.39919000  0.04084000  1.0
  H  H18  1  0.24938000  0.39928000  0.54090000  1.0
  H  H19  1  0.85010000  0.60078000  0.95915000  1.0
  C  C20  1  0.75636000  0.34176000  0.45808000  1.0
  C  C21  1  0.41453000  0.65828000  0.04195000  1.0
  C  C22  1  0.24364000  0.65824000  0.54192000  1.0
  C  C23  1  0.58542000  0.34171000  0.95806000  1.0
  C  C24  1  0.72842000  0.56022000  0.60271000  1.0
  C  C25  1  0.16797000  0.43979000  0.89727000  1.0
  C  C26  1  0.27160000  0.43979000  0.39730000  1.0
  C  C27  1  0.83202000  0.56022000  0.10272000  1.0
  C  C28  1  0.74690000  0.43715000  0.66724000  1.0
  C  C29  1  0.30952000  0.56277000  0.83275000  1.0
  C  C30  1  0.25309000  0.56285000  0.33277000  1.0
  C  C31  1  0.69049000  0.43723000  0.16725000  1.0
  C  C32  1  0.71788000  0.24020000  0.61557000  1.0
  C  C33  1  0.47748000  0.75977000  0.88444000  1.0
  C  C34  1  0.28209000  0.75981000  0.38442000  1.0
  C  C35  1  0.52250000  0.24023000  0.11557000  1.0
  Br  Br36  1  0.94852000  0.15774000  0.12438000  1.0
  Br  Br37  1  0.79049000  0.84234000  0.37548000  1.0
  Br  Br38  1  0.05154000  0.84218000  0.87559000  1.0
  Br  Br39  1  0.20949000  0.15768000  0.62452000  1.0
  N  N40  1  0.74442000  0.21555000  0.51695000  1.0
  N  N41  1  0.52874000  0.78445000  0.98308000  1.0
  N  N42  1  0.25561000  0.78448000  0.48306000  1.0
  N  N43  1  0.47125000  0.21555000  0.01693000  1.0
  N  N44  1  0.74735000  0.50848000  0.50372000  1.0
  N  N45  1  0.23887000  0.49144000  0.99625000  1.0
  N  N46  1  0.25269000  0.49156000  0.49628000  1.0
  N  N47  1  0.76111000  0.50853000  0.00375000  1.0
  O  O48  1  0.77366000  0.30558000  0.36896000  1.0
  O  O49  1  0.46802000  0.69446000  0.13108000  1.0
  O  O50  1  0.22642000  0.69446000  0.63105000  1.0
  O  O51  1  0.53198000  0.30547000  0.86891000  1.0
  O  O52  1  0.70340000  0.70312000  0.63461000  1.0
  O  O53  1  0.00008000  0.29687000  0.86532000  1.0
  O  O54  1  0.29658000  0.29689000  0.36538000  1.0
  O  O55  1  0.99994000  0.70310000  0.13467000  1.0
  O  O56  1  0.67744000  0.10624000  0.65860000  1.0
  O  O57  1  0.57086000  0.89382000  0.84146000  1.0
  O  O58  1  0.32253000  0.89376000  0.34140000  1.0
  O  O59  1  0.42917000  0.10617000  0.15855000  1.0
