# generated using pymatgen
data_Hf3H23C33N3O16
_symmetry_space_group_name_H-M   'P 1'
_cell_length_a   14.01270000
_cell_length_b   14.02450000
_cell_length_c   14.11190000
_cell_angle_alpha   87.99870000
_cell_angle_beta   86.02220000
_cell_angle_gamma   89.12600000
_symmetry_Int_Tables_number   1
_chemical_formula_structural   Hf3H23C33N3O16
_chemical_formula_sum   'Hf6 H46 C66 N6 O32'
_cell_volume   2764.68890751
_cell_formula_units_Z   2
loop_
 _symmetry_equiv_pos_site_id
 _symmetry_equiv_pos_as_xyz
  1  'x, y, z'
loop_
 _atom_site_type_symbol
 _atom_site_label
 _atom_site_symmetry_multiplicity
 _atom_site_fract_x
 _atom_site_fract_y
 _atom_site_fract_z
 _atom_site_occupancy
  Hf  Hf0  1  0.81445000  0.19339000  0.95263000  1.0
  Hf  Hf1  1  0.71638000  0.99175000  0.85527000  1.0
  Hf  Hf2  1  0.03419000  0.07560000  0.95949000  1.0
  Hf  Hf3  1  0.92455000  0.09720000  0.74339000  1.0
  Hf  Hf4  1  0.82700000  0.96775000  0.06800000  1.0
  Hf  Hf5  1  0.93947000  0.87489000  0.85818000  1.0
  H  H6  1  0.16650000  0.44339000  0.20489000  1.0
  H  H7  1  0.15450000  0.63064000  0.21768000  1.0
  H  H8  1  0.59177000  0.62484000  0.61224000  1.0
  H  H9  1  0.60732000  0.43659000  0.60318000  1.0
  H  H10  1  0.21303000  0.73979000  0.48792000  1.0
  H  H11  1  0.19145000  0.75155000  0.30282000  1.0
  H  H12  1  0.54354000  0.31790000  0.32400000  1.0
  H  H13  1  0.56555000  0.30173000  0.50965000  1.0
  H  H14  1  0.43010000  0.72488000  0.19533000  1.0
  H  H15  1  0.24568000  0.71983000  0.16859000  1.0
  H  H16  1  0.31746000  0.34573000  0.62473000  1.0
  H  H17  1  0.50279000  0.34893000  0.65148000  1.0
  H  H18  1  0.73881000  0.17651000  0.77360000  1.0
  H  H19  1  0.90848000  0.13298000  0.11679000  1.0
  H  H20  1  0.09279000  0.99709000  0.79174000  1.0
  H  H21  1  0.77176000  0.81891000  0.95102000  1.0
  H  H22  1  0.20837000  0.33401000  0.88549000  1.0
  H  H23  1  0.16653000  0.30681000  0.67630000  1.0
  H  H24  1  0.57196000  0.39626000  0.89877000  1.0
  H  H25  1  0.48780000  0.22835000  0.79632000  1.0
  H  H26  1  0.18490000  0.67133000  0.91506000  1.0
  H  H27  1  0.24628000  0.83541000  0.03779000  1.0
  H  H28  1  0.57435000  0.77258000  0.14247000  1.0
  H  H29  1  0.53859000  0.73523000  0.93347000  1.0
  H  H30  1  0.27677000  0.48713000  0.94224000  1.0
  H  H31  1  0.47183000  0.58012000  0.87899000  1.0
  H  H32  1  0.55240000  0.04522000  0.26174000  1.0
  H  H33  1  0.60302000  0.25129000  0.19435000  1.0
  H  H34  1  0.52703000  0.05006000  0.62152000  1.0
  H  H35  1  0.69396000  0.16455000  0.52049000  1.0
  H  H36  1  0.06302000  0.87782000  0.27597000  1.0
  H  H37  1  0.22505000  0.00962000  0.19263000  1.0
  H  H38  1  0.20195000  0.01564000  0.54842000  1.0
  H  H39  1  0.12977000  0.81153000  0.59748000  1.0
  H  H40  1  0.32687000  0.07542000  0.31784000  1.0
  H  H41  1  0.42503000  0.98211000  0.48955000  1.0
  H  H42  1  0.65512000  0.75730000  0.66206000  1.0
  H  H43  1  0.86318000  0.70081000  0.60016000  1.0
  H  H44  1  0.86256000  0.34209000  0.54631000  1.0
  H  H45  1  0.74696000  0.42664000  0.71921000  1.0
  H  H46  1  0.02963000  0.65860000  0.09681000  1.0
  H  H47  1  0.89079000  0.72092000  0.26395000  1.0
  H  H48  1  0.89238000  0.36934000  0.20955000  1.0
  H  H49  1  0.10025000  0.32832000  0.13339000  1.0
  H  H50  1  0.83668000  0.44726000  0.35912000  1.0
  H  H51  1  0.91927000  0.62356000  0.45100000  1.0
  C  C52  1  0.01406000  0.44554000  0.25740000  1.0
  C  C53  1  0.10565000  0.48214000  0.23700000  1.0
  C  C54  1  0.09967000  0.58157000  0.24483000  1.0
  C  C55  1  0.00586000  0.60726000  0.27303000  1.0
  C  C56  1  0.74180000  0.62492000  0.55245000  1.0
  C  C57  1  0.65172000  0.58651000  0.57796000  1.0
  C  C58  1  0.65962000  0.48694000  0.57267000  1.0
  C  C59  1  0.75297000  0.46289000  0.54080000  1.0
  C  C60  1  0.25511000  0.89110000  0.47065000  1.0
  C  C61  1  0.23422000  0.79991000  0.44109000  1.0
  C  C62  1  0.22194000  0.80635000  0.34327000  1.0
  C  C63  1  0.23976000  0.89969000  0.31036000  1.0
  C  C64  1  0.49643000  0.16811000  0.33881000  1.0
  C  C65  1  0.52035000  0.25791000  0.37006000  1.0
  C  C66  1  0.53359000  0.24902000  0.46761000  1.0
  C  C67  1  0.51400000  0.15546000  0.49856000  1.0
  C  C68  1  0.44945000  0.67071000  0.05004000  1.0
  C  C69  1  0.39942000  0.69210000  0.13616000  1.0
  C  C70  1  0.30165000  0.68791000  0.12291000  1.0
  C  C71  1  0.28946000  0.65993000  0.03072000  1.0
  C  C72  1  0.29858000  0.39899000  0.77018000  1.0
  C  C73  1  0.34865000  0.37749000  0.68420000  1.0
  C  C74  1  0.44666000  0.37986000  0.69791000  1.0
  C  C75  1  0.45875000  0.40685000  0.79042000  1.0
  C  C76  1  0.98757000  0.27517000  0.05698000  1.0
  C  C77  1  0.60485000  0.19867000  0.88626000  1.0
  C  C78  1  0.84405000  0.30736000  0.74311000  1.0
  C  C79  1  0.69806000  0.14024000  0.14808000  1.0
  C  C80  1  0.76637000  0.80151000  0.74577000  1.0
  C  C81  1  0.14230000  0.86711000  0.93531000  1.0
  C  C82  1  0.72008000  0.07222000  0.64363000  1.0
  C  C83  1  0.62886000  0.87043000  0.03260000  1.0
  C  C84  1  0.03427000  0.98271000  0.16435000  1.0
  C  C85  1  0.11502000  0.20458000  0.78376000  1.0
  C  C86  1  0.04457000  0.92501000  0.65393000  1.0
  C  C87  1  0.91988000  0.76464000  0.06994000  1.0
  C  C88  1  0.21583000  0.34685000  0.80841000  1.0
  C  C89  1  0.16426000  0.29289000  0.75295000  1.0
  C  C90  1  0.52991000  0.35985000  0.84901000  1.0
  C  C91  1  0.53586000  0.26370000  0.84110000  1.0
  C  C92  1  0.21868000  0.70618000  0.97182000  1.0
  C  C93  1  0.20550000  0.80089000  0.98595000  1.0
  C  C94  1  0.57807000  0.78373000  0.06539000  1.0
  C  C95  1  0.53002000  0.72543000  0.01082000  1.0
  C  C96  1  0.34592000  0.49639000  0.90268000  1.0
  C  C97  1  0.40275000  0.57075000  0.91860000  1.0
  C  C98  1  0.54804000  0.12316000  0.25903000  1.0
  C  C99  1  0.60951000  0.17366000  0.19860000  1.0
  C  C100  1  0.56212000  0.10311000  0.57292000  1.0
  C  C101  1  0.65773000  0.11738000  0.57406000  1.0
  C  C102  1  0.09815000  0.93134000  0.22831000  1.0
  C  C103  1  0.19204000  0.95080000  0.23521000  1.0
  C  C104  1  0.19949000  0.93783000  0.54712000  1.0
  C  C105  1  0.12973000  0.88924000  0.59923000  1.0
  C  C106  1  0.33826000  0.02481000  0.37649000  1.0
  C  C107  1  0.41370000  0.03302000  0.43109000  1.0
  C  C108  1  0.73287000  0.75441000  0.66349000  1.0
  C  C109  1  0.78513000  0.70069000  0.60029000  1.0
  C  C110  1  0.80837000  0.38533000  0.58497000  1.0
  C  C111  1  0.79575000  0.37756000  0.68122000  1.0
  C  C112  1  0.97316000  0.70049000  0.13341000  1.0
  C  C113  1  0.95244000  0.68542000  0.22816000  1.0
  C  C114  1  0.97043000  0.37297000  0.20536000  1.0
  C  C115  1  0.02230000  0.32631000  0.13621000  1.0
  C  C116  1  0.88293000  0.50810000  0.36636000  1.0
  C  C117  1  0.87318000  0.56259000  0.44393000  1.0
  N  N118  1  0.95646000  0.52133000  0.29438000  1.0
  N  N119  1  0.79974000  0.54934000  0.51604000  1.0
  N  N120  1  0.27437000  0.94822000  0.38663000  1.0
  N  N121  1  0.47767000  0.10949000  0.42169000  1.0
  N  N122  1  0.38115000  0.63682000  0.99002000  1.0
  N  N123  1  0.36721000  0.43045000  0.83105000  1.0
  O  O124  1  0.04881000  0.21573000  0.02057000  1.0
  O  O125  1  0.59813000  0.10937000  0.87315000  1.0
  O  O126  1  0.82875000  0.31360000  0.83301000  1.0
  O  O127  1  0.73838000  0.20407000  0.09183000  1.0
  O  O128  1  0.73451000  0.05748000  0.16560000  1.0
  O  O129  1  0.89414000  0.24241000  0.70065000  1.0
  O  O130  1  0.66984000  0.23827000  0.93010000  1.0
  O  O131  1  0.90386000  0.29146000  0.02764000  1.0
  O  O132  1  0.76429000  0.05507000  0.97014000  1.0
  O  O133  1  0.93490000  0.14402000  0.88025000  1.0
  O  O134  1  0.77845000  0.13569000  0.81180000  1.0
  O  O135  1  0.90055000  0.10632000  0.05538000  1.0
  O  O136  1  0.70331000  0.85700000  0.78602000  1.0
  O  O137  1  0.14934000  0.95576000  0.95175000  1.0
  O  O138  1  0.80999000  0.08688000  0.63226000  1.0
  O  O139  1  0.68563000  0.90212000  0.09118000  1.0
  O  O140  1  0.94477000  0.96580000  0.17653000  1.0
  O  O141  1  0.06120000  0.17142000  0.72321000  1.0
  O  O142  1  0.00656000  0.86306000  0.71352000  1.0
  O  O143  1  0.93847000  0.75764000  0.98045000  1.0
  O  O144  1  0.01094000  0.00975000  0.63977000  1.0
  O  O145  1  0.85851000  0.82210000  0.10940000  1.0
  O  O146  1  0.67717000  0.02493000  0.71290000  1.0
  O  O147  1  0.13198000  0.16260000  0.86342000  1.0
  O  O148  1  0.07364000  0.04081000  0.10183000  1.0
  O  O149  1  0.61420000  0.91039000  0.95128000  1.0
  O  O150  1  0.84882000  0.78251000  0.77663000  1.0
  O  O151  1  0.08485000  0.83115000  0.87997000  1.0
  O  O152  1  0.94918000  0.95629000  0.97701000  1.0
  O  O153  1  0.85621000  0.97786000  0.79757000  1.0
  O  O154  1  0.02917000  0.00633000  0.82189000  1.0
  O  O155  1  0.79926000  0.88161000  0.93915000  1.0
