# generated using pymatgen
data_Tb2H20C28S(N4O7)2
_symmetry_space_group_name_H-M   'P 1'
_cell_length_a   8.56917000
_cell_length_b   11.43899415
_cell_length_c   17.81660000
_cell_angle_alpha   102.81944497
_cell_angle_beta   90.03120000
_cell_angle_gamma   111.92492797
_symmetry_Int_Tables_number   1
_chemical_formula_structural   Tb2H20C28S(N4O7)2
_chemical_formula_sum   'Tb4 H40 C56 S2 N16 O28'
_cell_volume   1573.00780956
_cell_formula_units_Z   2
loop_
 _symmetry_equiv_pos_site_id
 _symmetry_equiv_pos_as_xyz
  1  'x, y, z'
loop_
 _atom_site_type_symbol
 _atom_site_label
 _atom_site_symmetry_multiplicity
 _atom_site_fract_x
 _atom_site_fract_y
 _atom_site_fract_z
 _atom_site_occupancy
  Tb  Tb0  1  0.50346000  0.27789000  0.73818000  1.0
  Tb  Tb1  1  0.22549000  0.72211000  0.76188000  1.0
  Tb  Tb2  1  0.49654000  0.72211000  0.26182000  1.0
  Tb  Tb3  1  0.77451000  0.27789000  0.23812000  1.0
  H  H4  1  0.67317000  0.56122000  0.79391000  1.0
  H  H5  1  0.11134000  0.43858000  0.70592000  1.0
  H  H6  1  0.32684000  0.43879000  0.20609000  1.0
  H  H7  1  0.88866000  0.56142000  0.29408000  1.0
  H  H8  1  0.52813000  0.54466000  0.73005000  1.0
  H  H9  1  0.98313000  0.45545000  0.76981000  1.0
  H  H10  1  0.47186000  0.45533000  0.26995000  1.0
  H  H11  1  0.01687000  0.54455000  0.23019000  1.0
  H  H12  1  0.05668000  0.08759000  0.73731000  1.0
  H  H13  1  0.96820000  0.91231000  0.76262000  1.0
  H  H14  1  0.94331000  0.91241000  0.26269000  1.0
  H  H15  1  0.03180000  0.08769000  0.23738000  1.0
  H  H16  1  0.34390000  0.44611000  0.88799000  1.0
  H  H17  1  0.89817000  0.55389000  0.61196000  1.0
  H  H18  1  0.65611000  0.55389000  0.11201000  1.0
  H  H19  1  0.10183000  0.44611000  0.38804000  1.0
  H  H20  1  0.54081000  0.28808000  0.53659000  1.0
  H  H21  1  0.25351000  0.71245000  0.96335000  1.0
  H  H22  1  0.45920000  0.71192000  0.46341000  1.0
  H  H23  1  0.74649000  0.28755000  0.03665000  1.0
  H  H24  1  0.80991000  0.15363000  0.67146000  1.0
  H  H25  1  0.65663000  0.84674000  0.82860000  1.0
  H  H26  1  0.19009000  0.84637000  0.32854000  1.0
  H  H27  1  0.34336000  0.15325000  0.17140000  1.0
  H  H28  1  0.83926000  0.16958000  0.83187000  1.0
  H  H29  1  0.66884000  0.83013000  0.66806000  1.0
  H  H30  1  0.16074000  0.83042000  0.16813000  1.0
  H  H31  1  0.33115000  0.16987000  0.33194000  1.0
  H  H32  1  0.73309000  0.17831000  0.44129000  1.0
  H  H33  1  0.55530000  0.82204000  0.05872000  1.0
  H  H34  1  0.26692000  0.82169000  0.55871000  1.0
  H  H35  1  0.44470000  0.17796000  0.94128000  1.0
  H  H36  1  0.25049000  0.44606000  0.01117000  1.0
  H  H37  1  0.80412000  0.55367000  0.48871000  1.0
  H  H38  1  0.74952000  0.55395000  0.98883000  1.0
  H  H39  1  0.19587000  0.44633000  0.51129000  1.0
  H  H40  1  0.70372000  0.92923000  0.44800000  1.0
  H  H41  1  0.77446000  0.07068000  0.05234000  1.0
  H  H42  1  0.29628000  0.07077000  0.55201000  1.0
  H  H43  1  0.22553000  0.92932000  0.94765000  1.0
  C  C44  1  0.08264000  0.17365000  0.78347000  1.0
  C  C45  1  0.90837000  0.82625000  0.71646000  1.0
  C  C46  1  0.91736000  0.82635000  0.21653000  1.0
  C  C47  1  0.09163000  0.17375000  0.28354000  1.0
  C  C48  1  0.23849000  0.35805000  0.86006000  1.0
  C  C49  1  0.88058000  0.64194000  0.63986000  1.0
  C  C50  1  0.76151000  0.64195000  0.13994000  1.0
  C  C51  1  0.11941000  0.35806000  0.36014000  1.0
  C  C52  1  0.62543000  0.24377000  0.55022000  1.0
  C  C53  1  0.38231000  0.75676000  0.94976000  1.0
  C  C54  1  0.37458000  0.75623000  0.44978000  1.0
  C  C55  1  0.61768000  0.24323000  0.05023000  1.0
  C  C56  1  0.76045000  0.17577000  0.62276000  1.0
  C  C57  1  0.58510000  0.82458000  0.87727000  1.0
  C  C58  1  0.23955000  0.82423000  0.37724000  1.0
  C  C59  1  0.41489000  0.17541000  0.12273000  1.0
  C  C60  1  0.97486000  0.21287000  0.82968000  1.0
  C  C61  1  0.76140000  0.78693000  0.67023000  1.0
  C  C62  1  0.02514000  0.78713000  0.17032000  1.0
  C  C63  1  0.23860000  0.21307000  0.32977000  1.0
  C  C64  1  0.71818000  0.18912000  0.50252000  1.0
  C  C65  1  0.52960000  0.81117000  0.99749000  1.0
  C  C66  1  0.28183000  0.81088000  0.49749000  1.0
  C  C67  1  0.47040000  0.18883000  0.00251000  1.0
  C  C68  1  0.03051000  0.41410000  0.93805000  1.0
  C  C69  1  0.61639000  0.58578000  0.56192000  1.0
  C  C70  1  0.96949000  0.58590000  0.06195000  1.0
  C  C71  1  0.38360000  0.41422000  0.43808000  1.0
  C  C72  1  0.90953000  0.07725000  0.52548000  1.0
  C  C73  1  0.83247000  0.92290000  0.97458000  1.0
  C  C74  1  0.09048000  0.92275000  0.47453000  1.0
  C  C75  1  0.16752000  0.07710000  0.02541000  1.0
  C  C76  1  0.88547000  0.44279000  0.93221000  1.0
  C  C77  1  0.44286000  0.55727000  0.56786000  1.0
  C  C78  1  0.11453000  0.55721000  0.06779000  1.0
  C  C79  1  0.55713000  0.44273000  0.43214000  1.0
  C  C80  1  0.14120000  0.47113000  0.00521000  1.0
  C  C81  1  0.66987000  0.52868000  0.49471000  1.0
  C  C82  1  0.85881000  0.52887000  0.99479000  1.0
  C  C83  1  0.33013000  0.47132000  0.50529000  1.0
  C  C84  1  0.07870000  0.12084000  0.55647000  1.0
  C  C85  1  0.95798000  0.87930000  0.94341000  1.0
  C  C86  1  0.92131000  0.87916000  0.44354000  1.0
  C  C87  1  0.04202000  0.12070000  0.05658000  1.0
  C  C88  1  0.83469000  0.96007000  0.47042000  1.0
  C  C89  1  0.87460000  0.03994000  0.02979000  1.0
  C  C90  1  0.16532000  0.03993000  0.52958000  1.0
  C  C91  1  0.12539000  0.96006000  0.97021000  1.0
  C  C92  1  0.75584000  0.39174000  0.86389000  1.0
  C  C93  1  0.36441000  0.60843000  0.63621000  1.0
  C  C94  1  0.24416000  0.60826000  0.13611000  1.0
  C  C95  1  0.63559000  0.39157000  0.36379000  1.0
  C  C96  1  0.17417000  0.25073000  0.61325000  1.0
  C  C97  1  0.92350000  0.74928000  0.88667000  1.0
  C  C98  1  0.82585000  0.74928000  0.38675000  1.0
  C  C99  1  0.07650000  0.25072000  0.11333000  1.0
  S  S100  1  0.40207000  0.99999000  0.75010000  1.0
  S  S101  1  0.59793000  0.00001000  0.24990000  1.0
  N  N102  1  0.24628000  0.26464000  0.80309000  1.0
  N  N103  1  0.98149000  0.73539000  0.69685000  1.0
  N  N104  1  0.75370000  0.73535000  0.19691000  1.0
  N  N105  1  0.01851000  0.26461000  0.30315000  1.0
  N  N106  1  0.65212000  0.23419000  0.62502000  1.0
  N  N107  1  0.41851000  0.76631000  0.87496000  1.0
  N  N108  1  0.34788000  0.76581000  0.37498000  1.0
  N  N109  1  0.58149000  0.23369000  0.12503000  1.0
  N  N110  1  0.07572000  0.33109000  0.87829000  1.0
  N  N111  1  0.74453000  0.66878000  0.62162000  1.0
  N  N112  1  0.92428000  0.66891000  0.12171000  1.0
  N  N113  1  0.25546000  0.33122000  0.37838000  1.0
  N  N114  1  0.80363000  0.14670000  0.54972000  1.0
  N  N115  1  0.65730000  0.85357000  0.95033000  1.0
  N  N116  1  0.19638000  0.85330000  0.45029000  1.0
  N  N117  1  0.34269000  0.14642000  0.04967000  1.0
  O  O118  1  0.32219000  0.26979000  0.64048000  1.0
  O  O119  1  0.05242000  0.73007000  0.85949000  1.0
  O  O120  1  0.67782000  0.73022000  0.35952000  1.0
  O  O121  1  0.94757000  0.26993000  0.14051000  1.0
  O  O122  1  0.55651000  0.11286000  0.78966000  1.0
  O  O123  1  0.44345000  0.88681000  0.71069000  1.0
  O  O124  1  0.44349000  0.88714000  0.21034000  1.0
  O  O125  1  0.55655000  0.11319000  0.28931000  1.0
  O  O126  1  0.32820000  0.04908000  0.69401000  1.0
  O  O127  1  0.27870000  0.95113000  0.80599000  1.0
  O  O128  1  0.67180000  0.95092000  0.30599000  1.0
  O  O129  1  0.72130000  0.04887000  0.19400000  1.0
  O  O130  1  0.59217000  0.49770000  0.74895000  1.0
  O  O131  1  0.09388000  0.50226000  0.75084000  1.0
  O  O132  1  0.40782000  0.50230000  0.25105000  1.0
  O  O133  1  0.90613000  0.49775000  0.24916000  1.0
  O  O134  1  0.79949000  0.37139000  0.79482000  1.0
  O  O135  1  0.42827000  0.62855000  0.70530000  1.0
  O  O136  1  0.20051000  0.62861000  0.20519000  1.0
  O  O137  1  0.57172000  0.37145000  0.29471000  1.0
  O  O138  1  0.60313000  0.37002000  0.87619000  1.0
  O  O139  1  0.23351000  0.63036000  0.62388000  1.0
  O  O140  1  0.39686000  0.62997000  0.12381000  1.0
  O  O141  1  0.76648000  0.36964000  0.37612000  1.0
  O  O142  1  0.10474000  0.33151000  0.62792000  1.0
  O  O143  1  0.77352000  0.66855000  0.87204000  1.0
  O  O144  1  0.89526000  0.66849000  0.37208000  1.0
  O  O145  1  0.22648000  0.33145000  0.12795000  1.0
