# generated using pymatgen
data_Zn4H28C32Cl2O13
_symmetry_space_group_name_H-M   'P 1'
_cell_length_a   17.96580000
_cell_length_b   18.49350000
_cell_length_c   19.47660876
_cell_angle_alpha   63.70714828
_cell_angle_beta   63.73893033
_cell_angle_gamma   89.91340000
_symmetry_Int_Tables_number   1
_chemical_formula_structural   Zn4H28C32Cl2O13
_chemical_formula_sum   'Zn8 H56 C64 Cl4 O26'
_cell_volume   5048.31720218
_cell_formula_units_Z   2
loop_
 _symmetry_equiv_pos_site_id
 _symmetry_equiv_pos_as_xyz
  1  'x, y, z'
loop_
 _atom_site_type_symbol
 _atom_site_label
 _atom_site_symmetry_multiplicity
 _atom_site_fract_x
 _atom_site_fract_y
 _atom_site_fract_z
 _atom_site_occupancy
  Zn  Zn0  1  0.94555000  0.53276000  0.92311000  1.0
  Zn  Zn1  1  0.97127000  0.38295000  0.06839000  1.0
  Zn  Zn2  1  0.96944000  0.55878000  0.06226000  1.0
  Zn  Zn3  1  0.13091000  0.54310000  0.91283000  1.0
  Zn  Zn4  1  0.56094000  0.96848000  0.06226000  1.0
  Zn  Zn5  1  0.53620000  0.95157000  0.91898000  1.0
  Zn  Zn6  1  0.54515000  0.12584000  0.91450000  1.0
  Zn  Zn7  1  0.37836000  0.97141000  0.06760000  1.0
  H  H8  1  0.22345000  0.82942000  0.34733000  1.0
  H  H9  1  0.47314000  0.83832000  0.32380000  1.0
  H  H10  1  0.27846000  0.68064000  0.63569000  1.0
  H  H11  1  0.02855000  0.66968000  0.65974000  1.0
  H  H12  1  0.68346000  0.27619000  0.63895000  1.0
  H  H13  1  0.67940000  0.03702000  0.65431000  1.0
  H  H14  1  0.83529000  0.23362000  0.34361000  1.0
  H  H15  1  0.83913000  0.47284000  0.32820000  1.0
  H  H16  1  0.89827000  0.80025000  0.88413000  1.0
  H  H17  1  0.88148000  0.78491000  0.98672000  1.0
  H  H18  1  0.79484000  0.87975000  0.98078000  1.0
  H  H19  1  0.80936000  0.89170000  0.88006000  1.0
  H  H20  1  0.67560000  0.76634000  0.12470000  1.0
  H  H21  1  0.60248000  0.70088000  0.12656000  1.0
  H  H22  1  0.76108000  0.67022000  0.12831000  1.0
  H  H23  1  0.68909000  0.60730000  0.12625000  1.0
  H  H24  1  0.79610000  0.70827000  0.88066000  1.0
  H  H25  1  0.71225000  0.62799000  0.97934000  1.0
  H  H26  1  0.62175000  0.71894000  0.98142000  1.0
  H  H27  1  0.70476000  0.79824000  0.88103000  1.0
  H  H28  1  0.21499000  0.30697000  0.87635000  1.0
  H  H29  1  0.13248000  0.22883000  0.98003000  1.0
  H  H30  1  0.22230000  0.13730000  0.97911000  1.0
  H  H31  1  0.30479000  0.21642000  0.87618000  1.0
  H  H32  1  0.20753000  0.12188000  0.11965000  1.0
  H  H33  1  0.28028000  0.18786000  0.11751000  1.0
  H  H34  1  0.11932000  0.21514000  0.11985000  1.0
  H  H35  1  0.19370000  0.28163000  0.11540000  1.0
  H  H36  1  0.32107000  0.40421000  0.86890000  1.0
  H  H37  1  0.31235000  0.39530000  0.96592000  1.0
  H  H38  1  0.40050000  0.30224000  0.96863000  1.0
  H  H39  1  0.41036000  0.31234000  0.87081000  1.0
  H  H40  1  0.90550000  0.27233000  0.91709000  1.0
  H  H41  1  0.86831000  0.35632000  0.86330000  1.0
  H  H42  1  0.78220000  0.26558000  0.85903000  1.0
  H  H43  1  0.81883000  0.18180000  0.91406000  1.0
  H  H44  1  0.65316000  0.30404000  0.94527000  1.0
  H  H45  1  0.59629000  0.24679000  0.06137000  1.0
  H  H46  1  0.73849000  0.39375000  0.95188000  1.0
  H  H47  1  0.68264000  0.33434000  0.06793000  1.0
  H  H48  1  0.82621000  0.18838000  0.08460000  1.0
  H  H49  1  0.73581000  0.21444000  0.14589000  1.0
  H  H50  1  0.64795000  0.12515000  0.14185000  1.0
  H  H51  1  0.73818000  0.09841000  0.08141000  1.0
  H  H52  1  0.17925000  0.81256000  0.90588000  1.0
  H  H53  1  0.27223000  0.78497000  0.84915000  1.0
  H  H54  1  0.35416000  0.88001000  0.85259000  1.0
  H  H55  1  0.26033000  0.90382000  0.91347000  1.0
  H  H56  1  0.40628000  0.76067000  0.93117000  1.0
  H  H57  1  0.35301000  0.70358000  0.04722000  1.0
  H  H58  1  0.31993000  0.66533000  0.93175000  1.0
  H  H59  1  0.26501000  0.61081000  0.04781000  1.0
  H  H60  1  0.09857000  0.73456000  0.07341000  1.0
  H  H61  1  0.13090000  0.65018000  0.13205000  1.0
  H  H62  1  0.21989000  0.73926000  0.13517000  1.0
  H  H63  1  0.18363000  0.82286000  0.08111000  1.0
  C  C64  1  0.85753000  0.35899000  0.00328000  1.0
  C  C65  1  0.89215000  0.39837000  0.22896000  1.0
  C  C66  1  0.85500000  0.63649000  0.99775000  1.0
  C  C67  1  0.14891000  0.64586000  0.98677000  1.0
  C  C68  1  0.10954000  0.62015000  0.75483000  1.0
  C  C69  1  0.14998000  0.36917000  0.98763000  1.0
  C  C70  1  0.63995000  0.85949000  0.99470000  1.0
  C  C71  1  0.62781000  0.11139000  0.75361000  1.0
  C  C72  1  0.64553000  0.14081000  0.99510000  1.0
  C  C73  1  0.36677000  0.14617000  0.98918000  1.0
  C  C74  1  0.39333000  0.88797000  0.22842000  1.0
  C  C75  1  0.35936000  0.86861000  0.99195000  1.0
  C  C76  1  0.26309000  0.81303000  0.37842000  1.0
  C  C77  1  0.40402000  0.81771000  0.36585000  1.0
  C  C78  1  0.36768000  0.77218000  0.45586000  1.0
  C  C79  1  0.27707000  0.74407000  0.51226000  1.0
  C  C80  1  0.23867000  0.69682000  0.60478000  1.0
  C  C81  1  0.09767000  0.69098000  0.61768000  1.0
  C  C82  1  0.13386000  0.73710000  0.52766000  1.0
  C  C83  1  0.22446000  0.76564000  0.47105000  1.0
  C  C84  1  0.35125000  0.83843000  0.32675000  1.0
  C  C85  1  0.15056000  0.67061000  0.65666000  1.0
  C  C86  1  0.70095000  0.23948000  0.60582000  1.0
  C  C87  1  0.69896000  0.10439000  0.61395000  1.0
  C  C88  1  0.74406000  0.14206000  0.52364000  1.0
  C  C89  1  0.77052000  0.23043000  0.46945000  1.0
  C  C90  1  0.81767000  0.27034000  0.37672000  1.0
  C  C91  1  0.81963000  0.40549000  0.36855000  1.0
  C  C92  1  0.77378000  0.36777000  0.45885000  1.0
  C  C93  1  0.74752000  0.27936000  0.51307000  1.0
  C  C94  1  0.67730000  0.15364000  0.65533000  1.0
  C  C95  1  0.84193000  0.35618000  0.32726000  1.0
  C  C96  1  0.84858000  0.78375000  0.95112000  1.0
  C  C97  1  0.79022000  0.84547000  0.94844000  1.0
  C  C98  1  0.69607000  0.79780000  0.99548000  1.0
  C  C99  1  0.67018000  0.73338000  0.09146000  1.0
  C  C100  1  0.72777000  0.67087000  0.09255000  1.0
  C  C101  1  0.79468000  0.69429000  0.99741000  1.0
  C  C102  1  0.74839000  0.69199000  0.94813000  1.0
  C  C103  1  0.68872000  0.75227000  0.94839000  1.0
  C  C104  1  0.19979000  0.26250000  0.94402000  1.0
  C  C105  1  0.25942000  0.20169000  0.94392000  1.0
  C  C106  1  0.31010000  0.20781000  0.98878000  1.0
  C  C107  1  0.24526000  0.18602000  0.08390000  1.0
  C  C108  1  0.18696000  0.24780000  0.08330000  1.0
  C  C109  1  0.21050000  0.31120000  0.98780000  1.0
  C  C110  1  0.30452000  0.35892000  0.93664000  1.0
  C  C111  1  0.36337000  0.29763000  0.93791000  1.0
  C  C112  1  0.84746000  0.29352000  0.91992000  1.0
  C  C113  1  0.78998000  0.23348000  0.91740000  1.0
  C  C114  1  0.70068000  0.19793000  0.00092000  1.0
  C  C115  1  0.66082000  0.27133000  0.00359000  1.0
  C  C116  1  0.71802000  0.33041000  0.00743000  1.0
  C  C117  1  0.79798000  0.29840000  0.00554000  1.0
  C  C118  1  0.76953000  0.21093000  0.08504000  1.0
  C  C119  1  0.71139000  0.15152000  0.08255000  1.0
  C  C120  1  0.23546000  0.79066000  0.90830000  1.0
  C  C121  1  0.29048000  0.85245000  0.91141000  1.0
  C  C122  1  0.30102000  0.80714000  0.99398000  1.0
  C  C123  1  0.34284000  0.73486000  0.99021000  1.0
  C  C124  1  0.28526000  0.67278000  0.98994000  1.0
  C  C125  1  0.20533000  0.70379000  0.99072000  1.0
  C  C126  1  0.15512000  0.71215000  0.07347000  1.0
  C  C127  1  0.21245000  0.77164000  0.07659000  1.0
  Cl  Cl128  1  0.06689000  0.76071000  0.48263000  1.0
  Cl  Cl129  1  0.43451000  0.74867000  0.50109000  1.0
  Cl  Cl130  1  0.74766000  0.42990000  0.50737000  1.0
  Cl  Cl131  1  0.76912000  0.07989000  0.47515000  1.0
  O  O132  1  0.00604000  0.50401000  0.99074000  1.0
  O  O133  1  0.87560000  0.43539000  0.94583000  1.0
  O  O134  1  0.91338000  0.35218000  0.19390000  1.0
  O  O135  1  0.89055000  0.62830000  0.04402000  1.0
  O  O136  1  0.88639000  0.32941000  0.05673000  1.0
  O  O137  1  0.86681000  0.60180000  0.95119000  1.0
  O  O138  1  0.90945000  0.47762000  0.18864000  1.0
  O  O139  1  0.06856000  0.63022000  0.03675000  1.0
  O  O140  1  0.15882000  0.60366000  0.78809000  1.0
  O  O141  1  0.18541000  0.61866000  0.93311000  1.0
  O  O142  1  0.02796000  0.59796000  0.79672000  1.0
  O  O143  1  0.07037000  0.33457000  0.04097000  1.0
  O  O144  1  0.18254000  0.44679000  0.93421000  1.0
  O  O145  1  0.50350000  0.00499000  0.99180000  1.0
  O  O146  1  0.63861000  0.89857000  0.03520000  1.0
  O  O147  1  0.61107000  0.03209000  0.79395000  1.0
  O  O148  1  0.62313000  0.17524000  0.93648000  1.0
  O  O149  1  0.59874000  0.86808000  0.95363000  1.0
  O  O150  1  0.62680000  0.06309000  0.04814000  1.0
  O  O151  1  0.60644000  0.15747000  0.78880000  1.0
  O  O152  1  0.44685000  0.17619000  0.93614000  1.0
  O  O153  1  0.34545000  0.91155000  0.19405000  1.0
  O  O154  1  0.32940000  0.06905000  0.04207000  1.0
  O  O155  1  0.47476000  0.90224000  0.18743000  1.0
  O  O156  1  0.43712000  0.89390000  0.93026000  1.0
  O  O157  1  0.32723000  0.89088000  0.05026000  1.0
