# generated using pymatgen
data_MnH4C7O5
_symmetry_space_group_name_H-M   'P 1'
_cell_length_a   9.22098000
_cell_length_b   9.24160000
_cell_length_c   10.41380000
_cell_angle_alpha   89.98790000
_cell_angle_beta   89.98640000
_cell_angle_gamma   119.87600000
_symmetry_Int_Tables_number   1
_chemical_formula_structural   MnH4C7O5
_chemical_formula_sum   'Mn3 H12 C21 O15'
_cell_volume   769.49422840
_cell_formula_units_Z   3
loop_
 _symmetry_equiv_pos_site_id
 _symmetry_equiv_pos_as_xyz
  1  'x, y, z'
loop_
 _atom_site_type_symbol
 _atom_site_label
 _atom_site_symmetry_multiplicity
 _atom_site_fract_x
 _atom_site_fract_y
 _atom_site_fract_z
 _atom_site_occupancy
  Mn  Mn0  1  0.99816000  0.99841000  0.49812000  1.0
  Mn  Mn1  1  0.99962000  0.00168000  0.83540000  1.0
  Mn  Mn2  1  0.00099000  0.99976000  0.16644000  1.0
  H  H3  1  0.88873000  0.63154000  0.62246000  1.0
  H  H4  1  0.74237000  0.11117000  0.95735000  1.0
  H  H5  1  0.37015000  0.25799000  0.29101000  1.0
  H  H6  1  0.63092000  0.88863000  0.37681000  1.0
  H  H7  1  0.11218000  0.74228000  0.04194000  1.0
  H  H8  1  0.25727000  0.36829000  0.71050000  1.0
  H  H9  1  0.92287000  0.40867000  0.53081000  1.0
  H  H10  1  0.48480000  0.07650000  0.86602000  1.0
  H  H11  1  0.59170000  0.51475000  0.19934000  1.0
  H  H12  1  0.40829000  0.92350000  0.46851000  1.0
  H  H13  1  0.07707000  0.48520000  0.13341000  1.0
  H  H14  1  0.51397000  0.59102000  0.80191000  1.0
  C  C15  1  0.99970000  0.27160000  0.33211000  1.0
  C  C16  1  0.27072000  0.99983000  0.66726000  1.0
  C  C17  1  0.72790000  0.72815000  0.00056000  1.0
  C  C18  1  0.00067000  0.73619000  0.33221000  1.0
  C  C19  1  0.73639000  0.00016000  0.66699000  1.0
  C  C20  1  0.26439000  0.26399000  0.00088000  1.0
  C  C21  1  0.95345000  0.63447000  0.44269000  1.0
  C  C22  1  0.68104000  0.04683000  0.77754000  1.0
  C  C23  1  0.36627000  0.31901000  0.11133000  1.0
  C  C24  1  0.63429000  0.95341000  0.55659000  1.0
  C  C25  1  0.04732000  0.68109000  0.22162000  1.0
  C  C26  1  0.31886000  0.36555000  0.89031000  1.0
  C  C27  1  0.95679000  0.48594000  0.44452000  1.0
  C  C28  1  0.52858000  0.04293000  0.77967000  1.0
  C  C29  1  0.51433000  0.47110000  0.11309000  1.0
  C  C30  1  0.48563000  0.95710000  0.55481000  1.0
  C  C31  1  0.04323000  0.52887000  0.21966000  1.0
  C  C32  1  0.47068000  0.51395000  0.88829000  1.0
  C  C33  1  0.99985000  0.43214000  0.33206000  1.0
  C  C34  1  0.43165000  0.99999000  0.66728000  1.0
  C  C35  1  0.56759000  0.56777000  0.00066000  1.0
  O  O36  1  0.00128000  0.88108000  0.33230000  1.0
  O  O37  1  0.88119000  0.00036000  0.66681000  1.0
  O  O38  1  0.12015000  0.11932000  0.00095000  1.0
  O  O39  1  0.04223000  0.22841000  0.43589000  1.0
  O  O40  1  0.18490000  0.95666000  0.77098000  1.0
  O  O41  1  0.77099000  0.81347000  0.10445000  1.0
  O  O42  1  0.22790000  0.04293000  0.56357000  1.0
  O  O43  1  0.95715000  0.18614000  0.22832000  1.0
  O  O44  1  0.81340000  0.77137000  0.89669000  1.0
  O  O45  1  0.90391000  0.69576000  0.54445000  1.0
  O  O46  1  0.79199000  0.09665000  0.87931000  1.0
  O  O47  1  0.30569000  0.20860000  0.21317000  1.0
  O  O48  1  0.69554000  0.90385000  0.45464000  1.0
  O  O49  1  0.09714000  0.79164000  0.11986000  1.0
  O  O50  1  0.20812000  0.30429000  0.78857000  1.0
