# generated using pymatgen
data_ZnH8C8N(ClO)2
_symmetry_space_group_name_H-M   'P 1'
_cell_length_a   6.72877000
_cell_length_b   12.08090000
_cell_length_c   12.81180000
_cell_angle_alpha   90.00000000
_cell_angle_beta   90.00000000
_cell_angle_gamma   95.22980000
_symmetry_Int_Tables_number   1
_chemical_formula_structural   ZnH8C8N(ClO)2
_chemical_formula_sum   'Zn4 H32 C32 N4 Cl8 O8'
_cell_volume   1037.13057230
_cell_formula_units_Z   4
loop_
 _symmetry_equiv_pos_site_id
 _symmetry_equiv_pos_as_xyz
  1  'x, y, z'
loop_
 _atom_site_type_symbol
 _atom_site_label
 _atom_site_symmetry_multiplicity
 _atom_site_fract_x
 _atom_site_fract_y
 _atom_site_fract_z
 _atom_site_occupancy
  Zn  Zn0  1  0.92551000  0.65363000  0.49332000  1.0
  Zn  Zn1  1  0.57449000  0.84637000  0.99332000  1.0
  Zn  Zn2  1  0.07449000  0.34637000  0.50668000  1.0
  Zn  Zn3  1  0.42551000  0.15363000  0.00668000  1.0
  H  H4  1  0.99941000  0.33425000  0.89938000  1.0
  H  H5  1  0.50059000  0.16575000  0.39938000  1.0
  H  H6  1  0.00059000  0.66575000  0.10062000  1.0
  H  H7  1  0.49941000  0.83425000  0.60062000  1.0
  H  H8  1  0.18087000  0.67786000  0.97950000  1.0
  H  H9  1  0.31913000  0.82214000  0.47950000  1.0
  H  H10  1  0.81913000  0.32214000  0.02050000  1.0
  H  H11  1  0.68087000  0.17786000  0.52050000  1.0
  H  H12  1  0.40055000  0.68595000  0.82519000  1.0
  H  H13  1  0.09945000  0.81405000  0.32519000  1.0
  H  H14  1  0.59945000  0.31405000  0.17481000  1.0
  H  H15  1  0.90055000  0.18595000  0.67481000  1.0
  H  H16  1  0.73512000  0.50855000  0.77811000  1.0
  H  H17  1  0.76488000  0.99145000  0.27811000  1.0
  H  H18  1  0.26488000  0.49145000  0.22189000  1.0
  H  H19  1  0.23512000  0.00855000  0.72189000  1.0
  H  H20  1  0.59910000  0.38144000  0.74531000  1.0
  H  H21  1  0.90090000  0.11856000  0.24531000  1.0
  H  H22  1  0.40090000  0.61856000  0.25469000  1.0
  H  H23  1  0.09910000  0.88144000  0.75469000  1.0
  H  H24  1  0.23499000  0.35581000  0.74947000  1.0
  H  H25  1  0.26501000  0.14419000  0.24947000  1.0
  H  H26  1  0.76501000  0.64419000  0.25053000  1.0
  H  H27  1  0.73499000  0.85581000  0.75053000  1.0
  H  H28  1  0.50262000  0.61695000  0.67875000  1.0
  H  H29  1  0.99738000  0.88306000  0.17875000  1.0
  H  H30  1  0.49738000  0.38306000  0.32125000  1.0
  H  H31  1  0.00262000  0.11694000  0.82125000  1.0
  H  H32  1  0.37916000  0.49455000  0.62550000  1.0
  H  H33  1  0.12084000  0.00545000  0.12550000  1.0
  H  H34  1  0.62084000  0.50546000  0.37449000  1.0
  H  H35  1  0.87916000  0.99454000  0.87450000  1.0
  C  C36  1  0.77533000  0.45747000  0.62172000  1.0
  C  C37  1  0.72467000  0.04253000  0.12172000  1.0
  C  C38  1  0.22467000  0.54253000  0.37828000  1.0
  C  C39  1  0.27533000  0.95747000  0.87828000  1.0
  C  C40  1  0.06821000  0.50433000  0.95471000  1.0
  C  C41  1  0.43179000  0.99567000  0.45471000  1.0
  C  C42  1  0.93179000  0.49567000  0.04529000  1.0
  C  C43  1  0.56821000  0.00433000  0.54529000  1.0
  C  C44  1  0.08621000  0.41357000  0.88773000  1.0
  C  C45  1  0.41379000  0.08643000  0.38773000  1.0
  C  C46  1  0.91379000  0.58643000  0.11227000  1.0
  C  C47  1  0.58621000  0.91357000  0.61227000  1.0
  C  C48  1  0.18419000  0.60383000  0.93167000  1.0
  C  C49  1  0.31581000  0.89617000  0.43167000  1.0
  C  C50  1  0.81581000  0.39617000  0.06833000  1.0
  C  C51  1  0.68419000  0.10383000  0.56833000  1.0
  C  C52  1  0.30939000  0.61036000  0.84600000  1.0
  C  C53  1  0.19061000  0.88964000  0.34600000  1.0
  C  C54  1  0.69061000  0.38964000  0.15400000  1.0
  C  C55  1  0.80939000  0.11036000  0.65400000  1.0
  C  C56  1  0.64304000  0.46579000  0.71642000  1.0
  C  C57  1  0.85696000  0.03421000  0.21642000  1.0
  C  C58  1  0.35696000  0.53422000  0.28358000  1.0
  C  C59  1  0.14304000  0.96578000  0.78358000  1.0
  C  C60  1  0.21496000  0.42352000  0.80370000  1.0
  C  C61  1  0.28504000  0.07648000  0.30370000  1.0
  C  C62  1  0.78504000  0.57648000  0.19629000  1.0
  C  C63  1  0.71496000  0.92352000  0.69630000  1.0
  C  C64  1  0.46177000  0.52869000  0.69368000  1.0
  C  C65  1  0.03823000  0.97131000  0.19368000  1.0
  C  C66  1  0.53823000  0.47131000  0.30632000  1.0
  C  C67  1  0.96177000  0.02869000  0.80632000  1.0
  N  N68  1  0.32418000  0.52105000  0.78406000  1.0
  N  N69  1  0.17582000  0.97895000  0.28406000  1.0
  N  N70  1  0.67582000  0.47895000  0.21594000  1.0
  N  N71  1  0.82418000  0.02105000  0.71594000  1.0
  Cl  Cl72  1  0.72023000  0.75938000  0.40868000  1.0
  Cl  Cl73  1  0.77977000  0.74062000  0.90868000  1.0
  Cl  Cl74  1  0.27977000  0.24062000  0.59132000  1.0
  Cl  Cl75  1  0.22023000  0.25938000  0.09131000  1.0
  Cl  Cl76  1  0.10541000  0.71614000  0.63048000  1.0
  Cl  Cl77  1  0.39459000  0.78386000  0.13048000  1.0
  Cl  Cl78  1  0.89459000  0.28386000  0.36952000  1.0
  Cl  Cl79  1  0.60541000  0.21614000  0.86952000  1.0
  O  O80  1  0.90341000  0.38606000  0.62723000  1.0
  O  O81  1  0.59658000  0.11394000  0.12723000  1.0
  O  O82  1  0.09658000  0.61394000  0.37277000  1.0
  O  O83  1  0.40342000  0.88605000  0.87277000  1.0
  O  O84  1  0.75240000  0.52058000  0.54407000  1.0
  O  O85  1  0.74760000  0.97942000  0.04407000  1.0
  O  O86  1  0.24760000  0.47942000  0.45593000  1.0
  O  O87  1  0.25240000  0.02058000  0.95593000  1.0
