# generated using pymatgen
data_AgH10C14N5O3F2
_symmetry_space_group_name_H-M   'P 1'
_cell_length_a   6.77863000
_cell_length_b   6.77864000
_cell_length_c   18.87231920
_cell_angle_alpha   80.31092284
_cell_angle_beta   86.99248588
_cell_angle_gamma   112.66620000
_symmetry_Int_Tables_number   1
_chemical_formula_structural   AgH10C14N5O3F2
_chemical_formula_sum   'Ag2 H20 C28 N10 O6 F4'
_cell_volume   782.20136860
_cell_formula_units_Z   2
loop_
 _symmetry_equiv_pos_site_id
 _symmetry_equiv_pos_as_xyz
  1  'x, y, z'
loop_
 _atom_site_type_symbol
 _atom_site_label
 _atom_site_symmetry_multiplicity
 _atom_site_fract_x
 _atom_site_fract_y
 _atom_site_fract_z
 _atom_site_occupancy
  Ag  Ag0  1  0.93320000  0.68320000  0.25000000  1.0
  Ag  Ag1  1  0.06680000  0.31680000  0.75000000  1.0
  H  H2  1  0.71835000  0.78356000  0.95477000  1.0
  H  H3  1  0.73830000  0.17313000  0.54523000  1.0
  H  H4  1  0.28167000  0.21645000  0.04523000  1.0
  H  H5  1  0.26168000  0.82688000  0.45476000  1.0
  H  H6  1  0.69908000  0.15861000  0.15947000  1.0
  H  H7  1  0.31806000  0.35853000  0.34054000  1.0
  H  H8  1  0.30093000  0.84139000  0.84053000  1.0
  H  H9  1  0.68193000  0.64147000  0.65946000  1.0
  H  H10  1  0.82615000  0.37475000  0.03554000  1.0
  H  H11  1  0.41024000  0.36164000  0.46448000  1.0
  H  H12  1  0.17386000  0.62525000  0.96447000  1.0
  H  H13  1  0.58974000  0.63834000  0.53553000  1.0
  H  H14  1  0.51154000  0.55689000  0.20429000  1.0
  H  H15  1  0.76116000  0.21583000  0.29572000  1.0
  H  H16  1  0.48847000  0.44311000  0.79572000  1.0
  H  H17  1  0.23884000  0.78417000  0.70428000  1.0
  H  H18  1  0.52086000  0.78591000  0.23616000  1.0
  H  H19  1  0.02207000  0.25701000  0.26385000  1.0
  H  H20  1  0.47915000  0.21408000  0.76385000  1.0
  H  H21  1  0.97793000  0.74299000  0.73615000  1.0
  C  C22  1  0.86686000  0.22102000  0.91553000  1.0
  C  C23  1  0.13651000  0.28237000  0.58447000  1.0
  C  C24  1  0.13316000  0.77897000  0.08447000  1.0
  C  C25  1  0.86346000  0.71763000  0.41552000  1.0
  C  C26  1  0.78589000  0.09681000  0.98641000  1.0
  C  C27  1  0.08319000  0.27229000  0.51359000  1.0
  C  C28  1  0.21411000  0.90318000  0.01359000  1.0
  C  C29  1  0.91679000  0.72771000  0.48641000  1.0
  C  C30  1  0.71649000  0.86753000  0.99898000  1.0
  C  C31  1  0.86648000  0.21548000  0.50102000  1.0
  C  C32  1  0.28353000  0.13248000  0.00102000  1.0
  C  C33  1  0.13351000  0.78453000  0.49898000  1.0
  C  C34  1  0.64494000  0.75115000  0.06897000  1.0
  C  C35  1  0.82010000  0.21392000  0.43103000  1.0
  C  C36  1  0.35508000  0.24885000  0.93103000  1.0
  C  C37  1  0.17989000  0.78608000  0.56896000  1.0
  C  C38  1  0.63765000  0.84721000  0.12939000  1.0
  C  C39  1  0.97658000  0.26703000  0.37062000  1.0
  C  C40  1  0.36237000  0.15280000  0.87061000  1.0
  C  C41  1  0.02340000  0.73297000  0.62938000  1.0
  C  C42  1  0.70460000  0.07664000  0.11487000  1.0
  C  C43  1  0.19149000  0.31946000  0.38513000  1.0
  C  C44  1  0.29542000  0.92336000  0.88513000  1.0
  C  C45  1  0.80850000  0.68054000  0.61487000  1.0
  C  C46  1  0.77724000  0.19868000  0.04510000  1.0
  C  C47  1  0.24376000  0.32232000  0.45491000  1.0
  C  C48  1  0.22277000  0.80130000  0.95491000  1.0
  C  C49  1  0.75623000  0.67768000  0.54509000  1.0
  N  N50  1  0.93662000  0.32334000  0.85666000  1.0
  N  N51  1  0.17998000  0.29326000  0.64336000  1.0
  N  N52  1  0.06337000  0.67664000  0.14335000  1.0
  N  N53  1  0.82001000  0.70675000  0.35664000  1.0
  N  N54  1  0.57737000  0.72334000  0.19791000  1.0
  N  N55  1  0.92124000  0.27530000  0.30209000  1.0
  N  N56  1  0.42263000  0.27667000  0.80209000  1.0
  N  N57  1  0.07876000  0.72471000  0.69790000  1.0
  N  N58  1  0.34733000  0.09733000  0.25000000  1.0
  N  N59  1  0.65267000  0.90267000  0.75000000  1.0
  O  O60  1  0.33783000  0.91033000  0.27897000  1.0
  O  O61  1  0.18930000  0.11681000  0.22103000  1.0
  O  O62  1  0.66216000  0.08967000  0.72103000  1.0
  O  O63  1  0.81071000  0.88319000  0.77897000  1.0
  O  O64  1  0.51649000  0.26650000  0.25000000  1.0
  O  O65  1  0.48351000  0.73350000  0.75000000  1.0
  F  F66  1  0.57502000  0.52829000  0.08223000  1.0
  F  F67  1  0.61052000  0.15727000  0.41777000  1.0
  F  F68  1  0.42500000  0.47170000  0.91778000  1.0
  F  F69  1  0.38948000  0.84273000  0.58222000  1.0
