# generated using pymatgen
data_CdH16C15(NO)6
_symmetry_space_group_name_H-M   'P 1'
_cell_length_a   9.73818000
_cell_length_b   10.44120000
_cell_length_c   11.02470000
_cell_angle_alpha   67.52130000
_cell_angle_beta   80.33010000
_cell_angle_gamma   68.64880000
_symmetry_Int_Tables_number   1
_chemical_formula_structural   CdH16C15(NO)6
_chemical_formula_sum   'Cd2 H32 C30 N12 O12'
_cell_volume   964.17285489
_cell_formula_units_Z   2
loop_
 _symmetry_equiv_pos_site_id
 _symmetry_equiv_pos_as_xyz
  1  'x, y, z'
loop_
 _atom_site_type_symbol
 _atom_site_label
 _atom_site_symmetry_multiplicity
 _atom_site_fract_x
 _atom_site_fract_y
 _atom_site_fract_z
 _atom_site_occupancy
  Cd  Cd0  1  0.42732000  0.96092000  0.30000000  1.0
  Cd  Cd1  1  0.57268000  0.03907000  0.70000000  1.0
  H  H2  1  0.68841000  0.68431000  0.04426000  1.0
  H  H3  1  0.31160000  0.31568000  0.95574000  1.0
  H  H4  1  0.72600000  0.26049000  0.04361000  1.0
  H  H5  1  0.27399000  0.73951000  0.95639000  1.0
  H  H6  1  0.41416000  0.44782000  0.30802000  1.0
  H  H7  1  0.58584000  0.55218000  0.69198000  1.0
  H  H8  1  0.06522000  0.24620000  0.19062000  1.0
  H  H9  1  0.93479000  0.75381000  0.80938000  1.0
  H  H10  1  0.36281000  0.96895000  0.99894000  1.0
  H  H11  1  0.63719000  0.03105000  0.00106000  1.0
  H  H12  1  0.24053000  0.09152000  0.77897000  1.0
  H  H13  1  0.75947000  0.90848000  0.22103000  1.0
  H  H14  1  0.12810000  0.27778000  0.74713000  1.0
  H  H15  1  0.87190000  0.72222000  0.25287000  1.0
  H  H16  1  0.90626000  0.19089000  0.84319000  1.0
  H  H17  1  0.09374000  0.80911000  0.15680000  1.0
  H  H18  1  0.02177000  0.00868000  0.86052000  1.0
  H  H19  1  0.97823000  0.99132000  0.13947000  1.0
  H  H20  1  0.86535000  0.14244000  0.65986000  1.0
  H  H21  1  0.13465000  0.85756000  0.34014000  1.0
  H  H22  1  0.96499000  0.26758000  0.59813000  1.0
  H  H23  1  0.03501000  0.73242000  0.40187000  1.0
  H  H24  1  0.19055000  0.19806000  0.45125000  1.0
  H  H25  1  0.80946000  0.80195000  0.54876000  1.0
  H  H26  1  0.25094000  0.74820000  0.57112000  1.0
  H  H27  1  0.74907000  0.25180000  0.42887000  1.0
  H  H28  1  0.90692000  0.39429000  0.94622000  1.0
  H  H29  1  0.09308000  0.60571000  0.05378000  1.0
  H  H30  1  0.55668000  0.68820000  0.45532000  1.0
  H  H31  1  0.44332000  0.31179000  0.54469000  1.0
  H  H32  1  0.58701000  0.76595000  0.54324000  1.0
  H  H33  1  0.41299000  0.23405000  0.45676000  1.0
  C  C34  1  0.48649000  0.69632000  0.24114000  1.0
  C  C35  1  0.51351000  0.30368000  0.75886000  1.0
  C  C36  1  0.54716000  0.57647000  0.18360000  1.0
  C  C37  1  0.45284000  0.42353000  0.81640000  1.0
  C  C38  1  0.65515000  0.58719000  0.08272000  1.0
  C  C39  1  0.34486000  0.41281000  0.91728000  1.0
  C  C40  1  0.72198000  0.47388000  0.03218000  1.0
  C  C41  1  0.27802000  0.52612000  0.96782000  1.0
  C  C42  1  0.67740000  0.34951000  0.08240000  1.0
  C  C43  1  0.32259000  0.65048000  0.91761000  1.0
  C  C44  1  0.56674000  0.33965000  0.18155000  1.0
  C  C45  1  0.43325000  0.66035000  0.81845000  1.0
  C  C46  1  0.50161000  0.45301000  0.23254000  1.0
  C  C47  1  0.49838000  0.54699000  0.76746000  1.0
  C  C48  1  0.51770000  0.20824000  0.23091000  1.0
  C  C49  1  0.48229000  0.79177000  0.76909000  1.0
  C  C50  1  0.11745000  0.19481000  0.11852000  1.0
  C  C51  1  0.88255000  0.80520000  0.88147000  1.0
  C  C52  1  0.27005000  0.05241000  0.02379000  1.0
  C  C53  1  0.72995000  0.94759000  0.97621000  1.0
  C  C54  1  0.13899000  0.16372000  0.80954000  1.0
  C  C55  1  0.86101000  0.83628000  0.19046000  1.0
  C  C56  1  0.00458000  0.12504000  0.80209000  1.0
  C  C57  1  0.99541000  0.87496000  0.19791000  1.0
  C  C58  1  0.97185000  0.15497000  0.66171000  1.0
  C  C59  1  0.02815000  0.84503000  0.33829000  1.0
  C  C60  1  0.17978000  0.09019000  0.50123000  1.0
  C  C61  1  0.82023000  0.90982000  0.49877000  1.0
  C  C62  1  0.20800000  0.86218000  0.56472000  1.0
  C  C63  1  0.79200000  0.13782000  0.43528000  1.0
  N  N64  1  0.24591000  0.07983000  0.13633000  1.0
  N  N65  1  0.75409000  0.92017000  0.86367000  1.0
  N  N66  1  0.06078000  0.23827000  0.00233000  1.0
  N  N67  1  0.93922000  0.76173000  0.99767000  1.0
  N  N68  1  0.15954000  0.14683000  0.94314000  1.0
  N  N69  1  0.84046000  0.85317000  0.05686000  1.0
  N  N70  1  0.25978000  0.96858000  0.47502000  1.0
  N  N71  1  0.74023000  0.03142000  0.52498000  1.0
  N  N72  1  0.08419000  0.05731000  0.60160000  1.0
  N  N73  1  0.91581000  0.94269000  0.39840000  1.0
  N  N74  1  0.10056000  0.91175000  0.64358000  1.0
  N  N75  1  0.89945000  0.08825000  0.35642000  1.0
  O  O76  1  0.82701000  0.49094000  0.93417000  1.0
  O  O77  1  0.17299000  0.50906000  0.06584000  1.0
  O  O78  1  0.42138000  0.19511000  0.32551000  1.0
  O  O79  1  0.57861000  0.80490000  0.67449000  1.0
  O  O80  1  0.57205000  0.11026000  0.17756000  1.0
  O  O81  1  0.42796000  0.88974000  0.82245000  1.0
  O  O82  1  0.40514000  0.68011000  0.34485000  1.0
  O  O83  1  0.59486000  0.31990000  0.65514000  1.0
  O  O84  1  0.52629000  0.81061000  0.18118000  1.0
  O  O85  1  0.47371000  0.18939000  0.81882000  1.0
  O  O86  1  0.60316000  0.75813000  0.45332000  1.0
  O  O87  1  0.39685000  0.24186000  0.54668000  1.0
