# generated using pymatgen
data_NiH10C12(NO2)2
_symmetry_space_group_name_H-M   'P 1'
_cell_length_a   7.91194000
_cell_length_b   7.91194000
_cell_length_c   10.40928903
_cell_angle_alpha   112.32657575
_cell_angle_beta   112.32657575
_cell_angle_gamma   90.00070000
_symmetry_Int_Tables_number   1
_chemical_formula_structural   NiH10C12(NO2)2
_chemical_formula_sum   'Ni2 H20 C24 N4 O8'
_cell_volume   549.58525174
_cell_formula_units_Z   2
loop_
 _symmetry_equiv_pos_site_id
 _symmetry_equiv_pos_as_xyz
  1  'x, y, z'
loop_
 _atom_site_type_symbol
 _atom_site_label
 _atom_site_symmetry_multiplicity
 _atom_site_fract_x
 _atom_site_fract_y
 _atom_site_fract_z
 _atom_site_occupancy
  Ni  Ni0  1  0.00003000  0.99997000  0.00000000  1.0
  Ni  Ni1  1  0.24998000  0.75002000  0.50000000  1.0
  H  H2  1  0.62511000  0.94629000  0.75000000  1.0
  H  H3  1  0.19626000  0.87496000  0.24998000  1.0
  H  H4  1  0.12504000  0.80375000  0.75002000  1.0
  H  H5  1  0.05371000  0.37490000  0.25000000  1.0
  H  H6  1  0.97534000  0.59211000  0.89864000  1.0
  H  H7  1  0.84213000  0.67339000  0.39853000  1.0
  H  H8  1  0.92338000  0.30641000  0.89856000  1.0
  H  H9  1  0.55646000  0.72534000  0.39864000  1.0
  H  H10  1  0.32661000  0.15787000  0.60147000  1.0
  H  H11  1  0.69359000  0.07661000  0.10144000  1.0
  H  H12  1  0.27466000  0.44354000  0.60136000  1.0
  H  H13  1  0.40788000  0.02466000  0.10136000  1.0
  H  H14  1  0.19057000  0.35715000  0.90272000  1.0
  H  H15  1  0.60709000  0.46221000  0.40260000  1.0
  H  H16  1  0.71220000  0.54549000  0.90266000  1.0
  H  H17  1  0.79549000  0.94061000  0.40267000  1.0
  H  H18  1  0.53779000  0.39291000  0.59740000  1.0
  H  H19  1  0.45452000  0.28780000  0.09735000  1.0
  H  H20  1  0.05939000  0.20451000  0.59733000  1.0
  H  H21  1  0.64285000  0.80943000  0.09728000  1.0
  C  C22  1  0.43424000  0.56576000  0.00000000  1.0
  C  C23  1  0.81575000  0.31587000  0.49997000  1.0
  C  C24  1  0.56587000  0.43413000  0.00000000  1.0
  C  C25  1  0.68413000  0.18425000  0.50003000  1.0
  C  C26  1  0.62502000  0.80691000  0.74997000  1.0
  C  C27  1  0.05688000  0.87498000  0.24996000  1.0
  C  C28  1  0.12502000  0.94312000  0.75004000  1.0
  C  C29  1  0.19308000  0.37497000  0.25002000  1.0
  C  C30  1  0.12469000  0.63272000  0.94543000  1.0
  C  C31  1  0.88266000  0.57080000  0.44530000  1.0
  C  C32  1  0.82087000  0.31262000  0.94539000  1.0
  C  C33  1  0.56263000  0.87469000  0.44540000  1.0
  C  C34  1  0.42920000  0.11734000  0.55470000  1.0
  C  C35  1  0.68738000  0.17913000  0.05461000  1.0
  C  C36  1  0.12531000  0.43737000  0.55460000  1.0
  C  C37  1  0.36728000  0.87531000  0.05457000  1.0
  C  C38  1  0.24434000  0.50435000  0.94642000  1.0
  C  C39  1  0.75429000  0.45210000  0.44625000  1.0
  C  C40  1  0.70215000  0.44193000  0.94634000  1.0
  C  C41  1  0.69193000  0.99434000  0.44634000  1.0
  C  C42  1  0.54790000  0.24571000  0.55375000  1.0
  C  C43  1  0.55806000  0.29784000  0.05366000  1.0
  C  C44  1  0.00566000  0.30807000  0.55366000  1.0
  C  C45  1  0.49565000  0.75566000  0.05358000  1.0
  N  N46  1  0.18409000  0.81591000  0.00000000  1.0
  N  N47  1  0.06588000  0.56598000  0.49997000  1.0
  N  N48  1  0.81600000  0.18400000  0.00000000  1.0
  N  N49  1  0.43402000  0.93412000  0.50003000  1.0
  O  O50  1  0.77346000  0.77533000  0.83593000  1.0
  O  O51  1  0.02538000  0.81246000  0.33593000  1.0
  O  O52  1  0.06244000  0.06052000  0.83601000  1.0
  O  O53  1  0.31044000  0.52349000  0.33599000  1.0
  O  O54  1  0.18754000  0.97463000  0.66407000  1.0
  O  O55  1  0.93948000  0.93756000  0.16399000  1.0
  O  O56  1  0.47651000  0.68956000  0.66401000  1.0
  O  O57  1  0.22467000  0.22654000  0.16407000  1.0
