# generated using pymatgen
data_NaCoH18C24N5O4
_symmetry_space_group_name_H-M   'P 1'
_cell_length_a   8.49776000
_cell_length_b   11.60810000
_cell_length_c   11.78810000
_cell_angle_alpha   107.42790000
_cell_angle_beta   102.16820000
_cell_angle_gamma   90.60650000
_symmetry_Int_Tables_number   1
_chemical_formula_structural   NaCoH18C24N5O4
_chemical_formula_sum   'Na2 Co2 H36 C48 N10 O8'
_cell_volume   1081.11405006
_cell_formula_units_Z   2
loop_
 _symmetry_equiv_pos_site_id
 _symmetry_equiv_pos_as_xyz
  1  'x, y, z'
loop_
 _atom_site_type_symbol
 _atom_site_label
 _atom_site_symmetry_multiplicity
 _atom_site_fract_x
 _atom_site_fract_y
 _atom_site_fract_z
 _atom_site_occupancy
  Na  Na0  1  0.41244000  0.88212000  0.07252000  1.0
  Na  Na1  1  0.58756000  0.11789000  0.92748000  1.0
  Co  Co2  1  0.71719000  0.71977000  0.16750000  1.0
  Co  Co3  1  0.28280000  0.28023000  0.83250000  1.0
  H  H4  1  0.11754000  0.69661000  0.72336000  1.0
  H  H5  1  0.88246000  0.30339000  0.27664000  1.0
  H  H6  1  0.27346000  0.76520000  0.67611000  1.0
  H  H7  1  0.72654000  0.23482000  0.32390000  1.0
  H  H8  1  0.18313000  0.85480000  0.79412000  1.0
  H  H9  1  0.81686000  0.14520000  0.20588000  1.0
  H  H10  1  0.78454000  0.40318000  0.97086000  1.0
  H  H11  1  0.21546000  0.59682000  0.02914000  1.0
  H  H12  1  0.96651000  0.81099000  0.49678000  1.0
  H  H13  1  0.03351000  0.18901000  0.50322000  1.0
  H  H14  1  0.91087000  0.99146000  0.62748000  1.0
  H  H15  1  0.08914000  0.00855000  0.37252000  1.0
  H  H16  1  0.41149000  0.36240000  0.60898000  1.0
  H  H17  1  0.58850000  0.63760000  0.39102000  1.0
  H  H18  1  0.75513000  0.17198000  0.67164000  1.0
  H  H19  1  0.24487000  0.82802000  0.32837000  1.0
  H  H20  1  0.11440000  0.67968000  0.48474000  1.0
  H  H21  1  0.88558000  0.32030000  0.51527000  1.0
  H  H22  1  0.27597000  0.55435000  0.63820000  1.0
  H  H23  1  0.72401000  0.44566000  0.36180000  1.0
  H  H24  1  0.20488000  0.34628000  0.23334000  1.0
  H  H25  1  0.79510000  0.65370000  0.76666000  1.0
  H  H26  1  0.28797000  0.14918000  0.20673000  1.0
  H  H27  1  0.71205000  0.85084000  0.79327000  1.0
  H  H28  1  0.44800000  0.24387000  0.32315000  1.0
  H  H29  1  0.55202000  0.75614000  0.67686000  1.0
  H  H30  1  0.30128000  0.16029000  0.36443000  1.0
  H  H31  1  0.69872000  0.83971000  0.63557000  1.0
  H  H32  1  0.54477000  0.20858000  0.50733000  1.0
  H  H33  1  0.45523000  0.79141000  0.49267000  1.0
  H  H34  1  0.26759000  0.49775000  0.44035000  1.0
  H  H35  1  0.73238000  0.50223000  0.55965000  1.0
  H  H36  1  0.62473000  0.33474000  0.77801000  1.0
  H  H37  1  0.37528000  0.66527000  0.22199000  1.0
  H  H38  1  0.98596000  0.37382000  0.07153000  1.0
  H  H39  1  0.01404000  0.62618000  0.92847000  1.0
  C  C40  1  0.22108000  0.76477000  0.75382000  1.0
  C  C41  1  0.77892000  0.23524000  0.24618000  1.0
  C  C42  1  0.73671000  0.49241000  0.99419000  1.0
  C  C43  1  0.26329000  0.50759000  0.00581000  1.0
  C  C44  1  0.65996000  0.93695000  0.34316000  1.0
  C  C45  1  0.34005000  0.06306000  0.65684000  1.0
  C  C46  1  0.53190000  0.62188000  0.92177000  1.0
  C  C47  1  0.46810000  0.37812000  0.07824000  1.0
  C  C48  1  0.87650000  0.81634000  0.41751000  1.0
  C  C49  1  0.12350000  0.18366000  0.58249000  1.0
  C  C50  1  0.92454000  0.54344000  0.18574000  1.0
  C  C51  1  0.07546000  0.45657000  0.81425000  1.0
  C  C52  1  0.96088000  0.63058000  0.30266000  1.0
  C  C53  1  0.03911000  0.36942000  0.69734000  1.0
  C  C54  1  0.81601000  0.00607000  0.55602000  1.0
  C  C55  1  0.18400000  0.99393000  0.44398000  1.0
  C  C56  1  0.44690000  0.43431000  0.69574000  1.0
  C  C57  1  0.55309000  0.56569000  0.30426000  1.0
  C  C58  1  0.73101000  0.10755000  0.58026000  1.0
  C  C59  1  0.26899000  0.89245000  0.41974000  1.0
  C  C60  1  0.08350000  0.61291000  0.39462000  1.0
  C  C61  1  0.91649000  0.38708000  0.60538000  1.0
  C  C62  1  0.37071000  0.54386000  0.71167000  1.0
  C  C63  1  0.62928000  0.45615000  0.28833000  1.0
  C  C64  1  0.78382000  0.91903000  0.43772000  1.0
  C  C65  1  0.21619000  0.08097000  0.56227000  1.0
  C  C66  1  0.61113000  0.51216000  0.90267000  1.0
  C  C67  1  0.38887000  0.48785000  0.09732000  1.0
  C  C68  1  0.03319000  0.82081000  0.10515000  1.0
  C  C69  1  0.96680000  0.17919000  0.89486000  1.0
  C  C70  1  0.13424000  0.42462000  0.25357000  1.0
  C  C71  1  0.86575000  0.57537000  0.74643000  1.0
  C  C72  1  0.37002000  0.15906000  0.29475000  1.0
  C  C73  1  0.63000000  0.84094000  0.70525000  1.0
  C  C74  1  0.57571000  0.04490000  0.37100000  1.0
  C  C75  1  0.42429000  0.95510000  0.62900000  1.0
  C  C76  1  0.61076000  0.12776000  0.48683000  1.0
  C  C77  1  0.38925000  0.87224000  0.51317000  1.0
  C  C78  1  0.41080000  0.63538000  0.82224000  1.0
  C  C79  1  0.58919000  0.36463000  0.17776000  1.0
  C  C80  1  0.16955000  0.51010000  0.36978000  1.0
  C  C81  1  0.83043000  0.48989000  0.63022000  1.0
  C  C82  1  0.56367000  0.41820000  0.78946000  1.0
  C  C83  1  0.43633000  0.58180000  0.21054000  1.0
  C  C84  1  0.01246000  0.44100000  0.16145000  1.0
  C  C85  1  0.98754000  0.55900000  0.83854000  1.0
  C  C86  1  0.80051000  0.91015000  0.05499000  1.0
  C  C87  1  0.19950000  0.08985000  0.94501000  1.0
  N  N88  1  0.79720000  0.57138000  0.10222000  1.0
  N  N89  1  0.20280000  0.42862000  0.89778000  1.0
  N  N90  1  0.86345000  0.72945000  0.31329000  1.0
  N  N91  1  0.13655000  0.27055000  0.68671000  1.0
  N  N92  1  0.88167000  0.83684000  0.10608000  1.0
  N  N93  1  0.11834000  0.16315000  0.89392000  1.0
  N  N94  1  0.71512000  0.97313000  0.01259000  1.0
  N  N95  1  0.28489000  0.02687000  0.98741000  1.0
  N  N96  1  0.16899000  0.79843000  0.10868000  1.0
  N  N97  1  0.83102000  0.20157000  0.89132000  1.0
  O  O98  1  0.55953000  0.70990000  0.02463000  1.0
  O  O99  1  0.44046000  0.29011000  0.97537000  1.0
  O  O100  1  0.61718000  0.86122000  0.23295000  1.0
  O  O101  1  0.38283000  0.13879000  0.76705000  1.0
  O  O102  1  0.46238000  0.05566000  0.27388000  1.0
  O  O103  1  0.53764000  0.94435000  0.72612000  1.0
  O  O104  1  0.34038000  0.74291000  0.84903000  1.0
  O  O105  1  0.65961000  0.25709000  0.15098000  1.0
