# generated using pymatgen
data_CuH14C18(N3O)2
_symmetry_space_group_name_H-M   'P 1'
_cell_length_a   9.69304000
_cell_length_b   13.83130000
_cell_length_c   15.57390000
_cell_angle_alpha   78.04000000
_cell_angle_beta   89.99980000
_cell_angle_gamma   89.99940000
_symmetry_Int_Tables_number   1
_chemical_formula_structural   CuH14C18(N3O)2
_chemical_formula_sum   'Cu4 H56 C72 N24 O8'
_cell_volume   2042.62723097
_cell_formula_units_Z   4
loop_
 _symmetry_equiv_pos_site_id
 _symmetry_equiv_pos_as_xyz
  1  'x, y, z'
loop_
 _atom_site_type_symbol
 _atom_site_label
 _atom_site_symmetry_multiplicity
 _atom_site_fract_x
 _atom_site_fract_y
 _atom_site_fract_z
 _atom_site_occupancy
  Cu  Cu0  1  0.64166000  0.95973000  0.91642000  1.0
  Cu  Cu1  1  0.14166000  0.04027000  0.58358000  1.0
  Cu  Cu2  1  0.35834000  0.04027000  0.08358000  1.0
  Cu  Cu3  1  0.85834000  0.95973000  0.41642000  1.0
  H  H4  1  0.48132000  0.81996000  0.80510000  1.0
  H  H5  1  0.98132000  0.18004000  0.69489000  1.0
  H  H6  1  0.51869000  0.18004000  0.19490000  1.0
  H  H7  1  0.01868000  0.81996000  0.30510000  1.0
  H  H8  1  0.30665000  0.86322000  0.68419000  1.0
  H  H9  1  0.80666000  0.13678000  0.81581000  1.0
  H  H10  1  0.69335000  0.13678000  0.31581000  1.0
  H  H11  1  0.19335000  0.86322000  0.18419000  1.0
  H  H12  1  0.27311000  0.14610000  0.73584000  1.0
  H  H13  1  0.77312000  0.85390000  0.76416000  1.0
  H  H14  1  0.72689000  0.85390000  0.26416000  1.0
  H  H15  1  0.22689000  0.14610000  0.23584000  1.0
  H  H16  1  0.55350000  0.28520000  0.93656000  1.0
  H  H17  1  0.05351000  0.71480000  0.56343000  1.0
  H  H18  1  0.44650000  0.71480000  0.06344000  1.0
  H  H19  1  0.94648000  0.28520000  0.43657000  1.0
  H  H20  1  0.91891000  0.08328000  0.11387000  1.0
  H  H21  1  0.41892000  0.91672000  0.38612000  1.0
  H  H22  1  0.08108000  0.91672000  0.88613000  1.0
  H  H23  1  0.58108000  0.08328000  0.61387000  1.0
  H  H24  1  0.96696000  0.73407000  0.10371000  1.0
  H  H25  1  0.46697000  0.26593000  0.39629000  1.0
  H  H26  1  0.03303000  0.26594000  0.89631000  1.0
  H  H27  1  0.53303000  0.73406000  0.60370000  1.0
  H  H28  1  0.73489000  0.58146000  0.95021000  1.0
  H  H29  1  0.23488000  0.41854000  0.54979000  1.0
  H  H30  1  0.26512000  0.41854000  0.04980000  1.0
  H  H31  1  0.76511000  0.58146000  0.45020000  1.0
  H  H32  1  0.60508000  0.73662000  0.88792000  1.0
  H  H33  1  0.10507000  0.26338000  0.61207000  1.0
  H  H34  1  0.39494000  0.26338000  0.11208000  1.0
  H  H35  1  0.89494000  0.73662000  0.38793000  1.0
  H  H36  1  0.60697000  0.42235000  0.99746000  1.0
  H  H37  1  0.10697000  0.57765000  0.50253000  1.0
  H  H38  1  0.39302000  0.57765000  0.00254000  1.0
  H  H39  1  0.89301000  0.42234000  0.49746000  1.0
  H  H40  1  0.78078000  0.43284000  0.03289000  1.0
  H  H41  1  0.28079000  0.56716000  0.46711000  1.0
  H  H42  1  0.21921000  0.56716000  0.96712000  1.0
  H  H43  1  0.71920000  0.43284000  0.53289000  1.0
  H  H44  1  0.65150000  0.39068000  0.11068000  1.0
  H  H45  1  0.15151000  0.60932000  0.38932000  1.0
  H  H46  1  0.34848000  0.60932000  0.88932000  1.0
  H  H47  1  0.84847000  0.39068000  0.61068000  1.0
  H  H48  1  0.98668000  0.21858000  0.17600000  1.0
  H  H49  1  0.48668000  0.78141000  0.32399000  1.0
  H  H50  1  0.01332000  0.78142000  0.82399000  1.0
  H  H51  1  0.51332000  0.21858000  0.67602000  1.0
  H  H52  1  0.84305000  0.28631000  0.20142000  1.0
  H  H53  1  0.34305000  0.71369000  0.29858000  1.0
  H  H54  1  0.15695000  0.71370000  0.79858000  1.0
  H  H55  1  0.65695000  0.28630000  0.70143000  1.0
  H  H56  1  0.95296000  0.33928000  0.11422000  1.0
  H  H57  1  0.45297000  0.66071000  0.38577000  1.0
  H  H58  1  0.04703000  0.66072000  0.88578000  1.0
  H  H59  1  0.54703000  0.33928000  0.61423000  1.0
  C  C60  1  0.43558000  0.89326000  0.78947000  1.0
  C  C61  1  0.93558000  0.10674000  0.71052000  1.0
  C  C62  1  0.56443000  0.10674000  0.21053000  1.0
  C  C63  1  0.06442000  0.89326000  0.28947000  1.0
  C  C64  1  0.33744000  0.91671000  0.72297000  1.0
  C  C65  1  0.83744000  0.08328000  0.77704000  1.0
  C  C66  1  0.66257000  0.08329000  0.27704000  1.0
  C  C67  1  0.16256000  0.91672000  0.22296000  1.0
  C  C68  1  0.31987000  0.07287000  0.74982000  1.0
  C  C69  1  0.81988000  0.92712000  0.75018000  1.0
  C  C70  1  0.68014000  0.92713000  0.25018000  1.0
  C  C71  1  0.18013000  0.07287000  0.24983000  1.0
  C  C72  1  0.42115000  0.05163000  0.81431000  1.0
  C  C73  1  0.92115000  0.94837000  0.68569000  1.0
  C  C74  1  0.57886000  0.94838000  0.18569000  1.0
  C  C75  1  0.07886000  0.05162000  0.31431000  1.0
  C  C76  1  0.47240000  0.12929000  0.86104000  1.0
  C  C77  1  0.97240000  0.87071000  0.63896000  1.0
  C  C78  1  0.52761000  0.87071000  0.13896000  1.0
  C  C79  1  0.02760000  0.12929000  0.36105000  1.0
  C  C80  1  0.65361000  0.14402000  0.96783000  1.0
  C  C81  1  0.15361000  0.85598000  0.53216000  1.0
  C  C82  1  0.34639000  0.85598000  0.03216000  1.0
  C  C83  1  0.84639000  0.14402000  0.46784000  1.0
  C  C84  1  0.63350000  0.24211000  0.97617000  1.0
  C  C85  1  0.13351000  0.75790000  0.52382000  1.0
  C  C86  1  0.36650000  0.75790000  0.02382000  1.0
  C  C87  1  0.86649000  0.24210000  0.47618000  1.0
  C  C88  1  0.71325000  0.28318000  0.03443000  1.0
  C  C89  1  0.21326000  0.71682000  0.46556000  1.0
  C  C90  1  0.28674000  0.71682000  0.96557000  1.0
  C  C91  1  0.78673000  0.28318000  0.53444000  1.0
  C  C92  1  0.81788000  0.22607000  0.08431000  1.0
  C  C93  1  0.31789000  0.77393000  0.41568000  1.0
  C  C94  1  0.18211000  0.77394000  0.91569000  1.0
  C  C95  1  0.68210000  0.22606000  0.58432000  1.0
  C  C96  1  0.83971000  0.12849000  0.07543000  1.0
  C  C97  1  0.33972000  0.87151000  0.42456000  1.0
  C  C98  1  0.16029000  0.87152000  0.92457000  1.0
  C  C99  1  0.66028000  0.12848000  0.57544000  1.0
  C  C100  1  0.75828000  0.08585000  0.01869000  1.0
  C  C101  1  0.25829000  0.91415000  0.48130000  1.0
  C  C102  1  0.24171000  0.91416000  0.98131000  1.0
  C  C103  1  0.74171000  0.08584000  0.51870000  1.0
  C  C104  1  0.84332000  0.91488000  0.05151000  1.0
  C  C105  1  0.34332000  0.08512000  0.44849000  1.0
  C  C106  1  0.15667000  0.08513000  0.94849000  1.0
  C  C107  1  0.65667000  0.91487000  0.55151000  1.0
  C  C108  1  0.81479000  0.82054000  0.02121000  1.0
  C  C109  1  0.31479000  0.17946000  0.47879000  1.0
  C  C110  1  0.18521000  0.17947000  0.97879000  1.0
  C  C111  1  0.68521000  0.82053000  0.52121000  1.0
  C  C112  1  0.88596000  0.73284000  0.05539000  1.0
  C  C113  1  0.38596000  0.26716000  0.44461000  1.0
  C  C114  1  0.11404000  0.26717000  0.94462000  1.0
  C  C115  1  0.61405000  0.73284000  0.55539000  1.0
  C  C116  1  0.75885000  0.65013000  0.97110000  1.0
  C  C117  1  0.25884000  0.34987000  0.52890000  1.0
  C  C118  1  0.24117000  0.34988000  0.02890000  1.0
  C  C119  1  0.74116000  0.65013000  0.47110000  1.0
  C  C120  1  0.68697000  0.73638000  0.93576000  1.0
  C  C121  1  0.18697000  0.26362000  0.56423000  1.0
  C  C122  1  0.31304000  0.26362000  0.06424000  1.0
  C  C123  1  0.81303000  0.73637000  0.43577000  1.0
  C  C124  1  0.68654000  0.38755000  0.04394000  1.0
  C  C125  1  0.18654000  0.61245000  0.45605000  1.0
  C  C126  1  0.31345000  0.61245000  0.95606000  1.0
  C  C127  1  0.81345000  0.38755000  0.54394000  1.0
  C  C128  1  0.90462000  0.26935000  0.14693000  1.0
  C  C129  1  0.40463000  0.73065000  0.35307000  1.0
  C  C130  1  0.09537000  0.73066000  0.85307000  1.0
  C  C131  1  0.59537000  0.26934000  0.64694000  1.0
  N  N132  1  0.47822000  0.96022000  0.83425000  1.0
  N  N133  1  0.97822000  0.03977000  0.66574000  1.0
  N  N134  1  0.52179000  0.03978000  0.16575000  1.0
  N  N135  1  0.02178000  0.96022000  0.33426000  1.0
  N  N136  1  0.57887000  0.09472000  0.91395000  1.0
  N  N137  1  0.07888000  0.90528000  0.58604000  1.0
  N  N138  1  0.42113000  0.90528000  0.08604000  1.0
  N  N139  1  0.92112000  0.09472000  0.41396000  1.0
  N  N140  1  0.76557000  0.98911000  0.00704000  1.0
  N  N141  1  0.26557000  0.01089000  0.49295000  1.0
  N  N142  1  0.23443000  0.01089000  0.99296000  1.0
  N  N143  1  0.73443000  0.98911000  0.50704000  1.0
  N  N144  1  0.71558000  0.82155000  0.96017000  1.0
  N  N145  1  0.21558000  0.17845000  0.53982000  1.0
  N  N146  1  0.28443000  0.17846000  0.03983000  1.0
  N  N147  1  0.78443000  0.82155000  0.46018000  1.0
  N  N148  1  0.27991000  0.00634000  0.70338000  1.0
  N  N149  1  0.77992000  0.99366000  0.79661000  1.0
  N  N150  1  0.72009000  0.99366000  0.29661000  1.0
  N  N151  1  0.22009000  0.00634000  0.20339000  1.0
  N  N152  1  0.85920000  0.64771000  0.03086000  1.0
  N  N153  1  0.35920000  0.35229000  0.46914000  1.0
  N  N154  1  0.14080000  0.35229000  0.96915000  1.0
  N  N155  1  0.64080000  0.64771000  0.53085000  1.0
  O  O156  1  0.41732000  0.21307000  0.84711000  1.0
  O  O157  1  0.91734000  0.78693000  0.65288000  1.0
  O  O158  1  0.58268000  0.78693000  0.15288000  1.0
  O  O159  1  0.08267000  0.21307000  0.34712000  1.0
  O  O160  1  0.92744000  0.91617000  0.11239000  1.0
  O  O161  1  0.42745000  0.08383000  0.38761000  1.0
  O  O162  1  0.07256000  0.08384000  0.88762000  1.0
  O  O163  1  0.57255000  0.91616000  0.61239000  1.0
