# generated using pymatgen
data_CuH10C12N3ClO
_symmetry_space_group_name_H-M   'P 1'
_cell_length_a   7.33229000
_cell_length_b   12.00890000
_cell_length_c   15.33120000
_cell_angle_alpha   89.99880000
_cell_angle_beta   89.99920000
_cell_angle_gamma   74.67500000
_symmetry_Int_Tables_number   1
_chemical_formula_structural   CuH10C12N3ClO
_chemical_formula_sum   'Cu4 H40 C48 N12 Cl4 O4'
_cell_volume   1301.95271504
_cell_formula_units_Z   4
loop_
 _symmetry_equiv_pos_site_id
 _symmetry_equiv_pos_as_xyz
  1  'x, y, z'
loop_
 _atom_site_type_symbol
 _atom_site_label
 _atom_site_symmetry_multiplicity
 _atom_site_fract_x
 _atom_site_fract_y
 _atom_site_fract_z
 _atom_site_occupancy
  Cu  Cu0  1  0.41584000  0.45031000  0.66166000  1.0
  Cu  Cu1  1  0.91582000  0.45032000  0.83833000  1.0
  Cu  Cu2  1  0.58417000  0.54969000  0.33833000  1.0
  Cu  Cu3  1  0.08417000  0.54968000  0.16167000  1.0
  H  H4  1  0.61776000  0.23559000  0.77205000  1.0
  H  H5  1  0.11775000  0.23561000  0.72795000  1.0
  H  H6  1  0.38225000  0.76441000  0.22795000  1.0
  H  H7  1  0.88223000  0.76439000  0.27206000  1.0
  H  H8  1  0.64620000  0.02221000  0.75879000  1.0
  H  H9  1  0.14622000  0.02223000  0.74120000  1.0
  H  H10  1  0.35378000  0.97778000  0.24121000  1.0
  H  H11  1  0.85377000  0.97777000  0.25880000  1.0
  H  H12  1  0.49333000  0.95361000  0.62901000  1.0
  H  H13  1  0.99334000  0.95362000  0.87098000  1.0
  H  H14  1  0.50667000  0.04639000  0.37098000  1.0
  H  H15  1  0.00666000  0.04638000  0.12903000  1.0
  H  H16  1  0.32963000  0.09736000  0.51773000  1.0
  H  H17  1  0.82965000  0.09736000  0.98226000  1.0
  H  H18  1  0.67038000  0.90264000  0.48226000  1.0
  H  H19  1  0.17039000  0.90265000  0.01775000  1.0
  H  H20  1  0.23944000  0.30614000  0.47450000  1.0
  H  H21  1  0.73943000  0.30614000  0.02549000  1.0
  H  H22  1  0.76058000  0.69386000  0.52549000  1.0
  H  H23  1  0.26059000  0.69386000  0.97452000  1.0
  H  H24  1  0.17639000  0.49438000  0.42821000  1.0
  H  H25  1  0.67640000  0.49438000  0.07178000  1.0
  H  H26  1  0.82361000  0.50561000  0.57178000  1.0
  H  H27  1  0.32360000  0.50562000  0.92822000  1.0
  H  H28  1  0.08419000  0.68043000  0.38192000  1.0
  H  H29  1  0.58424000  0.68042000  0.11809000  1.0
  H  H30  1  0.91580000  0.31957000  0.61807000  1.0
  H  H31  1  0.41579000  0.31957000  0.88192000  1.0
  H  H32  1  0.05040000  0.89176000  0.39677000  1.0
  H  H33  1  0.55045000  0.89175000  0.10324000  1.0
  H  H34  1  0.94959000  0.10824000  0.60322000  1.0
  H  H35  1  0.44958000  0.10824000  0.89678000  1.0
  H  H36  1  0.16394000  0.96633000  0.53306000  1.0
  H  H37  1  0.66395000  0.96633000  0.96694000  1.0
  H  H38  1  0.83607000  0.03366000  0.46692000  1.0
  H  H39  1  0.33605000  0.03367000  0.03308000  1.0
  H  H40  1  0.31763000  0.82935000  0.65051000  1.0
  H  H41  1  0.81762000  0.82936000  0.84947000  1.0
  H  H42  1  0.68238000  0.17065000  0.34946000  1.0
  H  H43  1  0.18236000  0.17065000  0.15053000  1.0
  C  C44  1  0.55736000  0.19937000  0.71743000  1.0
  C  C45  1  0.05736000  0.19938000  0.78256000  1.0
  C  C46  1  0.44264000  0.80063000  0.28256000  1.0
  C  C47  1  0.94264000  0.80062000  0.21744000  1.0
  C  C48  1  0.57136000  0.08242000  0.70955000  1.0
  C  C49  1  0.07138000  0.08244000  0.79044000  1.0
  C  C50  1  0.42862000  0.91757000  0.29044000  1.0
  C  C51  1  0.92862000  0.91756000  0.20956000  1.0
  C  C52  1  0.48697000  0.04476000  0.63705000  1.0
  C  C53  1  0.98699000  0.04476000  0.86294000  1.0
  C  C54  1  0.51302000  0.95524000  0.36294000  1.0
  C  C55  1  0.01302000  0.95524000  0.13707000  1.0
  C  C56  1  0.39579000  0.12367000  0.57494000  1.0
  C  C57  1  0.89580000  0.12367000  0.92505000  1.0
  C  C58  1  0.60422000  0.87633000  0.42505000  1.0
  C  C59  1  0.10421000  0.87634000  0.07496000  1.0
  C  C60  1  0.39152000  0.24060000  0.58672000  1.0
  C  C61  1  0.89152000  0.24060000  0.91328000  1.0
  C  C62  1  0.60848000  0.75940000  0.41327000  1.0
  C  C63  1  0.10849000  0.75940000  0.08673000  1.0
  C  C64  1  0.23531000  0.51633000  0.48993000  1.0
  C  C65  1  0.73531000  0.51633000  0.01007000  1.0
  C  C66  1  0.76469000  0.48366000  0.51007000  1.0
  C  C67  1  0.26469000  0.48367000  0.98993000  1.0
  C  C68  1  0.22070000  0.63584000  0.50590000  1.0
  C  C69  1  0.72070000  0.63584000  0.99411000  1.0
  C  C70  1  0.77929000  0.36416000  0.49410000  1.0
  C  C71  1  0.27929000  0.36417000  0.00590000  1.0
  C  C72  1  0.13308000  0.71550000  0.44054000  1.0
  C  C73  1  0.63311000  0.71549000  0.05947000  1.0
  C  C74  1  0.86690000  0.28451000  0.55945000  1.0
  C  C75  1  0.36690000  0.28452000  0.94055000  1.0
  C  C76  1  0.11272000  0.83277000  0.44920000  1.0
  C  C77  1  0.61274000  0.83277000  0.05081000  1.0
  C  C78  1  0.88728000  0.16723000  0.55080000  1.0
  C  C79  1  0.38727000  0.16723000  0.94921000  1.0
  C  C80  1  0.17973000  0.87405000  0.52548000  1.0
  C  C81  1  0.67974000  0.87405000  0.97453000  1.0
  C  C82  1  0.82028000  0.12595000  0.47451000  1.0
  C  C83  1  0.32027000  0.12595000  0.02549000  1.0
  C  C84  1  0.26542000  0.79900000  0.59084000  1.0
  C  C85  1  0.76540000  0.79901000  0.90916000  1.0
  C  C86  1  0.73459000  0.20100000  0.40914000  1.0
  C  C87  1  0.23459000  0.20099000  0.09085000  1.0
  C  C88  1  0.29343000  0.67732000  0.58326000  1.0
  C  C89  1  0.79341000  0.67732000  0.91674000  1.0
  C  C90  1  0.70657000  0.32269000  0.41673000  1.0
  C  C91  1  0.20658000  0.32269000  0.08327000  1.0
  N  N92  1  0.46778000  0.27735000  0.65801000  1.0
  N  N93  1  0.96778000  0.27736000  0.84199000  1.0
  N  N94  1  0.53221000  0.72265000  0.34198000  1.0
  N  N95  1  0.03222000  0.72263000  0.15802000  1.0
  N  N96  1  0.31257000  0.32350000  0.52694000  1.0
  N  N97  1  0.81257000  0.32350000  0.97305000  1.0
  N  N98  1  0.68743000  0.67650000  0.47305000  1.0
  N  N99  1  0.18744000  0.67649000  0.02695000  1.0
  N  N100  1  0.31124000  0.43472000  0.54512000  1.0
  N  N101  1  0.81123000  0.43473000  0.95488000  1.0
  N  N102  1  0.68876000  0.56528000  0.45488000  1.0
  N  N103  1  0.18876000  0.56528000  0.04513000  1.0
  Cl  Cl104  1  0.54952000  0.46092000  0.79223000  1.0
  Cl  Cl105  1  0.04952000  0.46093000  0.70776000  1.0
  Cl  Cl106  1  0.45046000  0.53908000  0.20777000  1.0
  Cl  Cl107  1  0.95047000  0.53907000  0.29224000  1.0
  O  O108  1  0.38621000  0.61284000  0.64553000  1.0
  O  O109  1  0.88617000  0.61285000  0.85445000  1.0
  O  O110  1  0.61379000  0.38716000  0.35446000  1.0
  O  O111  1  0.11380000  0.38715000  0.14555000  1.0
