# generated using pymatgen
data_Cu3H14C15(BrN2)3
_symmetry_space_group_name_H-M   'P 1'
_cell_length_a   8.31917000
_cell_length_b   10.75100000
_cell_length_c   11.11010000
_cell_angle_alpha   81.16310000
_cell_angle_beta   85.96770000
_cell_angle_gamma   69.61780000
_symmetry_Int_Tables_number   1
_chemical_formula_structural   Cu3H14C15(BrN2)3
_chemical_formula_sum   'Cu6 H28 C30 Br6 N12'
_cell_volume   920.25801818
_cell_formula_units_Z   2
loop_
 _symmetry_equiv_pos_site_id
 _symmetry_equiv_pos_as_xyz
  1  'x, y, z'
loop_
 _atom_site_type_symbol
 _atom_site_label
 _atom_site_symmetry_multiplicity
 _atom_site_fract_x
 _atom_site_fract_y
 _atom_site_fract_z
 _atom_site_occupancy
  Cu  Cu0  1  0.66686000  0.51420000  0.19853000  1.0
  Cu  Cu1  1  0.33314000  0.48581000  0.80147000  1.0
  Cu  Cu2  1  0.48347000  0.63918000  0.46278000  1.0
  Cu  Cu3  1  0.51652000  0.36082000  0.53722000  1.0
  Cu  Cu4  1  0.35607000  0.57525000  0.10591000  1.0
  Cu  Cu5  1  0.64394000  0.42475000  0.89410000  1.0
  H  H6  1  0.55203000  0.78968000  0.02375000  1.0
  H  H7  1  0.44797000  0.21033000  0.97624000  1.0
  H  H8  1  0.58592000  0.99291000  0.89679000  1.0
  H  H9  1  0.41409000  0.00709000  0.10320000  1.0
  H  H10  1  0.86633000  0.02036000  0.86288000  1.0
  H  H11  1  0.13367000  0.97964000  0.13712000  1.0
  H  H12  1  0.13311000  0.84383000  0.94920000  1.0
  H  H13  1  0.86689000  0.15617000  0.05080000  1.0
  H  H14  1  0.86979000  0.14493000  0.44818000  1.0
  H  H15  1  0.13021000  0.85507000  0.55182000  1.0
  H  H16  1  0.04960000  0.94864000  0.34681000  1.0
  H  H17  1  0.95040000  0.05135000  0.65319000  1.0
  H  H18  1  0.91858000  0.81770000  0.24970000  1.0
  H  H19  1  0.08142000  0.18229000  0.75030000  1.0
  H  H20  1  0.59994000  0.87510000  0.24808000  1.0
  H  H21  1  0.40006000  0.12490000  0.75192000  1.0
  H  H22  1  0.21171000  0.34408000  0.17296000  1.0
  H  H23  1  0.78829000  0.65591000  0.82704000  1.0
  H  H24  1  0.00397000  0.35080000  0.23233000  1.0
  H  H25  1  0.99603000  0.64921000  0.76767000  1.0
  H  H26  1  0.03395000  0.50106000  0.38229000  1.0
  H  H27  1  0.96605000  0.49894000  0.61771000  1.0
  H  H28  1  0.24981000  0.46738000  0.33340000  1.0
  H  H29  1  0.75019000  0.53262000  0.66666667  1.0
  H  H30  1  0.19755000  0.32692000  0.52912000  1.0
  H  H31  1  0.80245000  0.67307000  0.47088000  1.0
  H  H32  1  0.10130000  0.24716000  0.44113000  1.0
  H  H33  1  0.89870000  0.75284000  0.55887000  1.0
  C  C34  1  0.98967000  0.71709000  0.03460000  1.0
  C  C35  1  0.01033000  0.28291000  0.96540000  1.0
  C  C36  1  0.82604000  0.70277000  0.05640000  1.0
  C  C37  1  0.17396000  0.29723000  0.94360000  1.0
  C  C38  1  0.67644000  0.80191000  0.00718000  1.0
  C  C39  1  0.32357000  0.19809000  0.99282000  1.0
  C  C40  1  0.69723000  0.91356000  0.93758000  1.0
  C  C41  1  0.30277000  0.08644000  0.06241000  1.0
  C  C42  1  0.85990000  0.92896000  0.91744000  1.0
  C  C43  1  0.14010000  0.07104000  0.08256000  1.0
  C  C44  1  0.00820000  0.83234000  0.96480000  1.0
  C  C45  1  0.99181000  0.16766000  0.03520000  1.0
  C  C46  1  0.55665000  0.04684000  0.34380000  1.0
  C  C47  1  0.44334000  0.95315000  0.65620000  1.0
  C  C48  1  0.63341000  0.12112000  0.40196000  1.0
  C  C49  1  0.36659000  0.87888000  0.59804000  1.0
  C  C50  1  0.81241000  0.08700000  0.40468000  1.0
  C  C51  1  0.18759000  0.91300000  0.59532000  1.0
  C  C52  1  0.91017000  0.97822000  0.34830000  1.0
  C  C53  1  0.08983000  0.02178000  0.65170000  1.0
  C  C54  1  0.83417000  0.90292000  0.29163000  1.0
  C  C55  1  0.16583000  0.09709000  0.70837000  1.0
  C  C56  1  0.65831000  0.93458000  0.28884000  1.0
  C  C57  1  0.34169000  0.06542000  0.71116000  1.0
  C  C58  1  0.09797000  0.40252000  0.22201000  1.0
  C  C59  1  0.90203000  0.59748000  0.77799000  1.0
  C  C60  1  0.14489000  0.42632000  0.34484000  1.0
  C  C61  1  0.85511000  0.57368000  0.65516000  1.0
  C  C62  1  0.19285000  0.30011000  0.43839000  1.0
  C  C63  1  0.80714000  0.69988000  0.56161000  1.0
  Br  Br64  1  0.38138000  0.72229000  0.24673000  1.0
  Br  Br65  1  0.61862000  0.27771000  0.75327000  1.0
  Br  Br66  1  0.73511000  0.44187000  0.42154000  1.0
  Br  Br67  1  0.26489000  0.55813000  0.57847000  1.0
  Br  Br68  1  0.57096000  0.35108000  0.12572000  1.0
  Br  Br69  1  0.42905000  0.64892000  0.87428000  1.0
  N  N70  1  0.84775000  0.58285000  0.12772000  1.0
  N  N71  1  0.15225000  0.41715000  0.87228000  1.0
  N  N72  1  0.01812000  0.52922000  0.14483000  1.0
  N  N73  1  0.98188000  0.47078000  0.85517000  1.0
  N  N74  1  0.10884000  0.60521000  0.09247000  1.0
  N  N75  1  0.89116000  0.39479000  0.90753000  1.0
  N  N76  1  0.50406000  0.22176000  0.44717000  1.0
  N  N77  1  0.49594000  0.77825000  0.55283000  1.0
  N  N78  1  0.36116000  0.20491000  0.41441000  1.0
  N  N79  1  0.63884000  0.79509000  0.58559000  1.0
  N  N80  1  0.38287000  0.10354000  0.35327000  1.0
  N  N81  1  0.61713000  0.89646000  0.64673000  1.0
