# generated using pymatgen
data_Hg2H9C19S4N13
_symmetry_space_group_name_H-M   'P 1'
_cell_length_a   6.78983000
_cell_length_b   9.07994000
_cell_length_c   22.46230000
_cell_angle_alpha   88.14410000
_cell_angle_beta   85.01340000
_cell_angle_gamma   68.03790000
_symmetry_Int_Tables_number   1
_chemical_formula_structural   Hg2H9C19S4N13
_chemical_formula_sum   'Hg4 H18 C38 S8 N26'
_cell_volume   1279.47267893
_cell_formula_units_Z   2
loop_
 _symmetry_equiv_pos_site_id
 _symmetry_equiv_pos_as_xyz
  1  'x, y, z'
loop_
 _atom_site_type_symbol
 _atom_site_label
 _atom_site_symmetry_multiplicity
 _atom_site_fract_x
 _atom_site_fract_y
 _atom_site_fract_z
 _atom_site_occupancy
  Hg  Hg0  1  0.94035000  0.65405000  0.11714000  1.0
  Hg  Hg1  1  0.40579000  0.65438000  0.38298000  1.0
  Hg  Hg2  1  0.05967000  0.34596000  0.88286000  1.0
  Hg  Hg3  1  0.59421000  0.34562000  0.61701000  1.0
  H  H4  1  0.75123000  0.95224000  0.02044000  1.0
  H  H5  1  0.29625000  0.95295000  0.47963000  1.0
  H  H6  1  0.24878000  0.04777000  0.97955000  1.0
  H  H7  1  0.70376000  0.04705000  0.52037000  1.0
  H  H8  1  0.72104000  0.23583000  0.00139000  1.0
  H  H9  1  0.04253000  0.23648000  0.49861000  1.0
  H  H10  1  0.27895000  0.76420000  0.99861000  1.0
  H  H11  1  0.95745000  0.76351000  0.50140000  1.0
  H  H12  1  0.80245000  0.37875000  0.08530000  1.0
  H  H13  1  0.81842000  0.37914000  0.41462000  1.0
  H  H14  1  0.19754000  0.62127000  0.91470000  1.0
  H  H15  1  0.18155000  0.62084000  0.58539000  1.0
  H  H16  1  0.13391000  0.24718000  0.19300000  1.0
  H  H17  1  0.62032000  0.24704000  0.30692000  1.0
  H  H18  1  0.86607000  0.75282000  0.80699000  1.0
  H  H19  1  0.37967000  0.75296000  0.69307000  1.0
  H  H20  1  0.45599000  0.08948000  0.24991000  1.0
  H  H21  1  0.54400000  0.91052000  0.75008000  1.0
  C  C22  1  0.44280000  0.82396000  0.12095000  1.0
  C  C23  1  0.73359000  0.82403000  0.37920000  1.0
  C  C24  1  0.55725000  0.17597000  0.87907000  1.0
  C  C25  1  0.26642000  0.17596000  0.62080000  1.0
  C  C26  1  0.24286000  0.39487000  0.02553000  1.0
  C  C27  1  0.36242000  0.39483000  0.47438000  1.0
  C  C28  1  0.75715000  0.60514000  0.97447000  1.0
  C  C29  1  0.63757000  0.60519000  0.52563000  1.0
  C  C30  1  0.78643000  0.02159000  0.05383000  1.0
  C  C31  1  0.19173000  0.02214000  0.44621000  1.0
  C  C32  1  0.21357000  0.97843000  0.94617000  1.0
  C  C33  1  0.80827000  0.97785000  0.55379000  1.0
  C  C34  1  0.76883000  0.17784000  0.04380000  1.0
  C  C35  1  0.05284000  0.17838000  0.45620000  1.0
  C  C36  1  0.23116000  0.82218000  0.95620000  1.0
  C  C37  1  0.94715000  0.82161000  0.54380000  1.0
  C  C38  1  0.81467000  0.25564000  0.09004000  1.0
  C  C39  1  0.92935000  0.25604000  0.40994000  1.0
  C  C40  1  0.18532000  0.74437000  0.90996000  1.0
  C  C41  1  0.07063000  0.74395000  0.59007000  1.0
  C  C42  1  0.89363000  0.03312000  0.14720000  1.0
  C  C43  1  0.07330000  0.03339000  0.35283000  1.0
  C  C44  1  0.10637000  0.96689000  0.85280000  1.0
  C  C45  1  0.92670000  0.96660000  0.64717000  1.0
  C  C46  1  0.97667000  0.94800000  0.20318000  1.0
  C  C47  1  0.07566000  0.94812000  0.29685000  1.0
  C  C48  1  0.02333000  0.05201000  0.79682000  1.0
  C  C49  1  0.92434000  0.05188000  0.70315000  1.0
  C  C50  1  0.14393000  0.71324000  0.25001000  1.0
  C  C51  1  0.85607000  0.28677000  0.74999000  1.0
  C  C52  1  0.23292000  0.53553000  0.25000000  1.0
  C  C53  1  0.76707000  0.46447000  0.74999000  1.0
  C  C54  1  0.21600000  0.30473000  0.21822000  1.0
  C  C55  1  0.48070000  0.30466000  0.28172000  1.0
  C  C56  1  0.78400000  0.69528000  0.78177000  1.0
  C  C57  1  0.51930000  0.69534000  0.71827000  1.0
  C  C58  1  0.39126000  0.21893000  0.24995000  1.0
  C  C59  1  0.60873000  0.78108000  0.75005000  1.0
  S  S60  1  0.58591000  0.67746000  0.16407000  1.0
  S  S61  1  0.73688000  0.67763000  0.33603000  1.0
  S  S62  1  0.41417000  0.32246000  0.83594000  1.0
  S  S63  1  0.26312000  0.32236000  0.66397000  1.0
  S  S64  1  0.30333000  0.50845000  0.07115000  1.0
  S  S65  1  0.18850000  0.50851000  0.42875000  1.0
  S  S66  1  0.69669000  0.49157000  0.92885000  1.0
  S  S67  1  0.81149000  0.49150000  0.57124000  1.0
  N  N68  1  0.33517000  0.92830000  0.09168000  1.0
  N  N69  1  0.73701000  0.92822000  0.40854000  1.0
  N  N70  1  0.66489000  0.07163000  0.90835000  1.0
  N  N71  1  0.26300000  0.07177000  0.59146000  1.0
  N  N72  1  0.20862000  0.31022000  0.99270000  1.0
  N  N73  1  0.48120000  0.31000000  0.50719000  1.0
  N  N74  1  0.79138000  0.68979000  0.00730000  1.0
  N  N75  1  0.51878000  0.69002000  0.49282000  1.0
  N  N76  1  0.85207000  0.94857000  0.10539000  1.0
  N  N77  1  0.19934000  0.94898000  0.39466000  1.0
  N  N78  1  0.14793000  0.05144000  0.89460000  1.0
  N  N79  1  0.80067000  0.05102000  0.60534000  1.0
  N  N80  1  0.87384000  0.18511000  0.14241000  1.0
  N  N81  1  0.94098000  0.18537000  0.35758000  1.0
  N  N82  1  0.12616000  0.81491000  0.85759000  1.0
  N  N83  1  0.05901000  0.81462000  0.64243000  1.0
  N  N84  1  0.98332000  0.03335000  0.25002000  1.0
  N  N85  1  0.01669000  0.96665000  0.74998000  1.0
  N  N86  1  0.04430000  0.78874000  0.20267000  1.0
  N  N87  1  0.16780000  0.78889000  0.29735000  1.0
  N  N88  1  0.95569000  0.21127000  0.79733000  1.0
  N  N89  1  0.83220000  0.21111000  0.70265000  1.0
  N  N90  1  0.13788000  0.46416000  0.21758000  1.0
  N  N91  1  0.39933000  0.46411000  0.28242000  1.0
  N  N92  1  0.86211000  0.53585000  0.78241000  1.0
  N  N93  1  0.60066000  0.53589000  0.71758000  1.0
