# generated using pymatgen
data_Ce2H18C14S(NO9)2
_symmetry_space_group_name_H-M   'P 1'
_cell_length_a   6.76269000
_cell_length_b   13.66240000
_cell_length_c   14.63590000
_cell_angle_alpha   117.75100000
_cell_angle_beta   91.48420000
_cell_angle_gamma   90.00170000
_symmetry_Int_Tables_number   1
_chemical_formula_structural   Ce2H18C14S(NO9)2
_chemical_formula_sum   'Ce4 H36 C28 S2 N4 O36'
_cell_volume   1196.22490382
_cell_formula_units_Z   2
loop_
 _symmetry_equiv_pos_site_id
 _symmetry_equiv_pos_as_xyz
  1  'x, y, z'
loop_
 _atom_site_type_symbol
 _atom_site_label
 _atom_site_symmetry_multiplicity
 _atom_site_fract_x
 _atom_site_fract_y
 _atom_site_fract_z
 _atom_site_occupancy
  Ce  Ce0  1  0.47055000  0.70473000  0.79132000  1.0
  Ce  Ce1  1  0.01999000  0.91542000  0.20750000  1.0
  Ce  Ce2  1  0.52185000  0.29334000  0.20816000  1.0
  Ce  Ce3  1  0.97212000  0.08620000  0.79164000  1.0
  H  H4  1  0.47116000  0.96060000  0.98099000  1.0
  H  H5  1  0.32143000  0.95342000  0.89836000  1.0
  H  H6  1  0.83485000  0.55862000  0.66453000  1.0
  H  H7  1  0.91423000  0.68070000  0.74528000  1.0
  H  H8  1  0.22498000  0.58127000  0.86789000  1.0
  H  H9  1  0.08762000  0.68659000  0.92480000  1.0
  H  H10  1  0.64683000  0.97092000  0.54918000  1.0
  H  H11  1  0.57915000  0.68969000  0.26616000  1.0
  H  H12  1  0.58453000  0.65261000  0.54282000  1.0
  H  H13  1  0.20154000  0.94217000  0.02003000  1.0
  H  H14  1  0.14889000  0.06153000  0.10399000  1.0
  H  H15  1  0.66130000  0.89456000  0.33656000  1.0
  H  H16  1  0.57803000  0.93192000  0.25337000  1.0
  H  H17  1  0.26658000  0.71763000  0.13340000  1.0
  H  H18  1  0.40506000  0.76051000  0.07234000  1.0
  H  H19  1  0.85042000  0.42328000  0.45180000  1.0
  H  H20  1  0.92152000  0.42398000  0.73458000  1.0
  H  H21  1  0.91236000  0.11113000  0.45772000  1.0
  H  H22  1  0.70314000  0.07887000  0.01988000  1.0
  H  H23  1  0.65442000  0.04655000  0.10645000  1.0
  H  H24  1  0.16253000  0.44219000  0.33720000  1.0
  H  H25  1  0.08005000  0.32123000  0.25543000  1.0
  H  H26  1  0.76816000  0.41691000  0.13244000  1.0
  H  H27  1  0.90542000  0.31228000  0.07242000  1.0
  H  H28  1  0.34934000  0.02860000  0.45160000  1.0
  H  H29  1  0.42125000  0.31019000  0.73414000  1.0
  H  H30  1  0.41187000  0.34639000  0.45701000  1.0
  H  H31  1  0.96679000  0.01415000  0.97818000  1.0
  H  H32  1  0.81462000  0.94381000  0.89418000  1.0
  H  H33  1  0.33615000  0.10649000  0.66551000  1.0
  H  H34  1  0.41734000  0.06564000  0.74647000  1.0
  H  H35  1  0.72551000  0.28548000  0.86719000  1.0
  H  H36  1  0.58789000  0.23752000  0.92453000  1.0
  H  H37  1  0.14634000  0.57812000  0.54890000  1.0
  H  H38  1  0.07919000  0.57610000  0.26546000  1.0
  H  H39  1  0.08435000  0.88961000  0.54165000  1.0
  C  C40  1  0.61744000  0.87703000  0.67678000  1.0
  C  C41  1  0.60959000  0.81995000  0.56177000  1.0
  C  C42  1  0.62258000  0.88161000  0.50781000  1.0
  C  C43  1  0.58741000  0.72476000  0.35008000  1.0
  C  C44  1  0.57989000  0.65590000  0.39699000  1.0
  C  C45  1  0.59006000  0.70454000  0.50457000  1.0
  C  C46  1  0.56159000  0.53324000  0.33148000  1.0
  C  C47  1  0.87754000  0.20228000  0.32401000  1.0
  C  C48  1  0.88753000  0.25972000  0.43901000  1.0
  C  C49  1  0.87527000  0.37525000  0.49313000  1.0
  C  C50  1  0.91223000  0.37554000  0.65066000  1.0
  C  C51  1  0.91894000  0.25986000  0.60350000  1.0
  C  C52  1  0.90749000  0.20122000  0.49596000  1.0
  C  C53  1  0.93695000  0.20241000  0.66870000  1.0
  C  C54  1  0.37762000  0.12202000  0.32359000  1.0
  C  C55  1  0.38690000  0.17927000  0.43861000  1.0
  C  C56  1  0.37438000  0.11785000  0.49283000  1.0
  C  C57  1  0.41180000  0.27485000  0.65022000  1.0
  C  C58  1  0.41824000  0.34341000  0.60296000  1.0
  C  C59  1  0.40700000  0.29460000  0.49543000  1.0
  C  C60  1  0.43576000  0.46593000  0.66812000  1.0
  C  C61  1  0.11757000  0.79961000  0.67607000  1.0
  C  C62  1  0.10955000  0.74149000  0.56106000  1.0
  C  C63  1  0.12231000  0.62600000  0.50736000  1.0
  C  C64  1  0.08733000  0.62496000  0.34936000  1.0
  C  C65  1  0.07967000  0.74063000  0.39601000  1.0
  C  C66  1  0.08997000  0.79954000  0.50359000  1.0
  C  C67  1  0.06119000  0.79776000  0.33034000  1.0
  S  S68  1  0.74408000  0.80153000  0.99927000  1.0
  S  S69  1  0.24453000  0.19706000  0.00015000  1.0
  N  N70  1  0.60990000  0.83480000  0.40445000  1.0
  N  N71  1  0.88911000  0.43149000  0.59648000  1.0
  N  N72  1  0.38864000  0.16484000  0.59619000  1.0
  N  N73  1  0.10971000  0.56948000  0.40402000  1.0
  O  O74  1  0.57924000  0.47048000  0.37398000  1.0
  O  O75  1  0.52798000  0.49430000  0.23420000  1.0
  O  O76  1  0.56673000  0.82270000  0.72307000  1.0
  O  O77  1  0.67215000  0.97898000  0.72455000  1.0
  O  O78  1  0.37217000  0.90821000  0.93055000  1.0
  O  O79  1  0.79262000  0.63757000  0.71491000  1.0
  O  O80  1  0.17911000  0.64839000  0.86683000  1.0
  O  O81  1  0.57141000  0.72381000  0.97328000  1.0
  O  O82  1  0.77097000  0.81787000  0.90641000  1.0
  O  O83  1  0.91766000  0.09722000  0.62617000  1.0
  O  O84  1  0.97148000  0.26022000  0.76590000  1.0
  O  O85  1  0.92623000  0.10141000  0.27729000  1.0
  O  O86  1  0.82335000  0.25731000  0.27703000  1.0
  O  O87  1  0.09971000  0.98413000  0.07210000  1.0
  O  O88  1  0.70068000  0.92300000  0.28558000  1.0
  O  O89  1  0.31311000  0.78369000  0.13049000  1.0
  O  O90  1  0.92711000  0.75570000  0.02350000  1.0
  O  O91  1  0.70547000  0.90741000  0.09309000  1.0
  O  O92  1  0.41538000  0.52872000  0.62568000  1.0
  O  O93  1  0.47097000  0.50511000  0.76526000  1.0
  O  O94  1  0.43042000  0.17588000  0.27715000  1.0
  O  O95  1  0.32022000  0.02070000  0.27638000  1.0
  O  O96  1  0.60418000  0.09093000  0.07374000  1.0
  O  O97  1  0.20269000  0.36272000  0.28703000  1.0
  O  O98  1  0.81330000  0.34812000  0.13036000  1.0
  O  O99  1  0.42694000  0.26730000  0.02335000  1.0
  O  O100  1  0.20712000  0.18630000  0.09486000  1.0
  O  O101  1  0.07802000  0.90299000  0.37284000  1.0
  O  O102  1  0.02818000  0.73960000  0.23304000  1.0
  O  O103  1  0.06761000  0.90026000  0.72186000  1.0
  O  O104  1  0.17144000  0.74563000  0.72427000  1.0
  O  O105  1  0.86997000  0.02002000  0.92848000  1.0
  O  O106  1  0.29513000  0.07905000  0.71694000  1.0
  O  O107  1  0.67965000  0.21755000  0.86665000  1.0
  O  O108  1  0.07124000  0.24792000  0.97354000  1.0
  O  O109  1  0.27123000  0.08738000  0.90802000  1.0
