# generated using pymatgen
data_ZnH9C17(NO)4
_symmetry_space_group_name_H-M   'P 1'
_cell_length_a   10.08390000
_cell_length_b   10.37910000
_cell_length_c   13.46510000
_cell_angle_alpha   93.87770000
_cell_angle_beta   89.99930000
_cell_angle_gamma   90.00000000
_symmetry_Int_Tables_number   1
_chemical_formula_structural   ZnH9C17(NO)4
_chemical_formula_sum   'Zn4 H36 C68 N16 O16'
_cell_volume   1406.05538721
_cell_formula_units_Z   4
loop_
 _symmetry_equiv_pos_site_id
 _symmetry_equiv_pos_as_xyz
  1  'x, y, z'
loop_
 _atom_site_type_symbol
 _atom_site_label
 _atom_site_symmetry_multiplicity
 _atom_site_fract_x
 _atom_site_fract_y
 _atom_site_fract_z
 _atom_site_occupancy
  Zn  Zn0  1  0.88267000  0.82878000  0.68803000  1.0
  Zn  Zn1  1  0.38267000  0.17121000  0.81200000  1.0
  Zn  Zn2  1  0.11732000  0.17122000  0.31199000  1.0
  Zn  Zn3  1  0.61733000  0.82879000  0.18801000  1.0
  H  H4  1  0.61345000  0.69884000  0.62605000  1.0
  H  H5  1  0.11345000  0.30115000  0.87399000  1.0
  H  H6  1  0.38656000  0.30115000  0.37396000  1.0
  H  H7  1  0.88655000  0.69885000  0.12601000  1.0
  H  H8  1  0.53247000  0.47296000  0.57912000  1.0
  H  H9  1  0.03247000  0.52704000  0.92087000  1.0
  H  H10  1  0.46753000  0.52704000  0.42086000  1.0
  H  H11  1  0.96753000  0.47297000  0.07911000  1.0
  H  H12  1  0.69614000  0.29324000  0.56018000  1.0
  H  H13  1  0.19613000  0.70676000  0.93978000  1.0
  H  H14  1  0.30386000  0.70675000  0.43980000  1.0
  H  H15  1  0.80387000  0.29325000  0.06019000  1.0
  H  H16  1  0.93510000  0.22131000  0.56756000  1.0
  H  H17  1  0.43508000  0.77869000  0.93240000  1.0
  H  H18  1  0.06491000  0.77869000  0.43244000  1.0
  H  H19  1  0.56492000  0.22131000  0.06757000  1.0
  H  H20  1  0.17202000  0.27716000  0.60068000  1.0
  H  H21  1  0.67201000  0.72284000  0.89929000  1.0
  H  H22  1  0.82798000  0.72284000  0.39932000  1.0
  H  H23  1  0.32799000  0.27716000  0.10069000  1.0
  H  H24  1  0.34278000  0.44156000  0.64596000  1.0
  H  H25  1  0.84277000  0.55845000  0.85403000  1.0
  H  H26  1  0.65723000  0.55846000  0.35403000  1.0
  H  H27  1  0.15723000  0.44156000  0.14595000  1.0
  H  H28  1  0.40015000  0.67961000  0.67777000  1.0
  H  H29  1  0.90017000  0.32039000  0.82223000  1.0
  H  H30  1  0.59984000  0.32040000  0.32223000  1.0
  H  H31  1  0.09984000  0.67962000  0.17774000  1.0
  H  H32  1  0.21836000  0.84114000  0.68272000  1.0
  H  H33  1  0.71839000  0.15886000  0.81730000  1.0
  H  H34  1  0.78163000  0.15886000  0.31729000  1.0
  H  H35  1  0.28163000  0.84115000  0.18271000  1.0
  H  H36  1  0.60240000  0.91279000  0.85301000  1.0
  H  H37  1  0.10238000  0.08721000  0.64701000  1.0
  H  H38  1  0.39760000  0.08721000  0.14700000  1.0
  H  H39  1  0.89760000  0.91279000  0.35300000  1.0
  C  C40  1  0.68140000  0.61696000  0.62018000  1.0
  C  C41  1  0.18140000  0.38303000  0.87985000  1.0
  C  C42  1  0.31860000  0.38303000  0.37982000  1.0
  C  C43  1  0.81860000  0.61697000  0.12015000  1.0
  C  C44  1  0.63723000  0.49100000  0.59339000  1.0
  C  C45  1  0.13723000  0.50900000  0.90661000  1.0
  C  C46  1  0.36277000  0.50900000  0.40660000  1.0
  C  C47  1  0.86277000  0.49101000  0.09337000  1.0
  C  C48  1  0.72800000  0.39106000  0.58358000  1.0
  C  C49  1  0.22799000  0.60894000  0.91640000  1.0
  C  C50  1  0.27200000  0.60894000  0.41640000  1.0
  C  C51  1  0.77201000  0.39107000  0.08358000  1.0
  C  C52  1  0.86364000  0.41731000  0.60075000  1.0
  C  C53  1  0.36364000  0.58269000  0.89924000  1.0
  C  C54  1  0.13636000  0.58269000  0.39924000  1.0
  C  C55  1  0.63637000  0.41731000  0.10074000  1.0
  C  C56  1  0.96427000  0.31984000  0.59136000  1.0
  C  C57  1  0.46426000  0.68017000  0.90861000  1.0
  C  C58  1  0.03574000  0.68016000  0.40863000  1.0
  C  C59  1  0.53575000  0.31984000  0.09137000  1.0
  C  C60  1  0.09443000  0.35017000  0.60892000  1.0
  C  C61  1  0.59442000  0.64984000  0.89105000  1.0
  C  C62  1  0.90557000  0.64984000  0.39108000  1.0
  C  C63  1  0.40559000  0.35017000  0.10893000  1.0
  C  C64  1  0.13389000  0.48066000  0.63484000  1.0
  C  C65  1  0.63388000  0.51934000  0.86515000  1.0
  C  C66  1  0.86612000  0.51934000  0.36516000  1.0
  C  C67  1  0.36612000  0.48066000  0.13484000  1.0
  C  C68  1  0.26765000  0.51741000  0.64966000  1.0
  C  C69  1  0.76765000  0.48259000  0.85033000  1.0
  C  C70  1  0.73235000  0.48260000  0.35033000  1.0
  C  C71  1  0.23236000  0.51742000  0.14966000  1.0
  C  C72  1  0.29829000  0.64661000  0.66753000  1.0
  C  C73  1  0.79830000  0.35339000  0.83247000  1.0
  C  C74  1  0.70170000  0.35340000  0.33247000  1.0
  C  C75  1  0.20170000  0.64661000  0.16752000  1.0
  C  C76  1  0.19567000  0.73864000  0.67191000  1.0
  C  C77  1  0.69568000  0.26136000  0.82811000  1.0
  C  C78  1  0.80432000  0.26136000  0.32811000  1.0
  C  C79  1  0.30433000  0.73865000  0.17189000  1.0
  C  C80  1  0.03709000  0.58005000  0.64267000  1.0
  C  C81  1  0.53710000  0.41995000  0.85733000  1.0
  C  C82  1  0.96291000  0.41995000  0.35733000  1.0
  C  C83  1  0.46291000  0.58005000  0.14266000  1.0
  C  C84  1  0.89953000  0.54729000  0.62769000  1.0
  C  C85  1  0.39952000  0.45270000  0.87232000  1.0
  C  C86  1  0.10048000  0.45270000  0.37231000  1.0
  C  C87  1  0.60048000  0.54730000  0.12767000  1.0
  C  C88  1  0.47645000  0.16332000  0.60668000  1.0
  C  C89  1  0.97646000  0.83666000  0.89335000  1.0
  C  C90  1  0.52354000  0.83668000  0.39333000  1.0
  C  C91  1  0.02354000  0.16333000  0.10667000  1.0
  C  C92  1  0.55080000  0.06271000  0.65480000  1.0
  C  C93  1  0.05080000  0.93727000  0.84524000  1.0
  C  C94  1  0.44920000  0.93728000  0.34522000  1.0
  C  C95  1  0.94919000  0.06273000  0.15478000  1.0
  C  C96  1  0.66591000  0.99188000  0.63062000  1.0
  C  C97  1  0.16591000  0.00810000  0.86941000  1.0
  C  C98  1  0.33409000  0.00812000  0.36940000  1.0
  C  C99  1  0.83409000  0.99189000  0.13060000  1.0
  C  C100  1  0.60261000  0.94894000  0.77940000  1.0
  C  C101  1  0.10259000  0.05107000  0.72064000  1.0
  C  C102  1  0.39740000  0.05106000  0.22062000  1.0
  C  C103  1  0.89739000  0.94894000  0.27938000  1.0
  C  C104  1  0.75711000  0.98599000  0.54516000  1.0
  C  C105  1  0.25710000  0.01401000  0.95486000  1.0
  C  C106  1  0.24289000  0.01401000  0.45485000  1.0
  C  C107  1  0.74290000  0.98599000  0.04515000  1.0
  N  N108  1  0.80872000  0.64360000  0.63761000  1.0
  N  N109  1  0.30873000  0.35639000  0.86241000  1.0
  N  N110  1  0.19128000  0.35640000  0.36240000  1.0
  N  N111  1  0.69128000  0.64360000  0.13759000  1.0
  N  N112  1  0.06860000  0.70616000  0.66082000  1.0
  N  N113  1  0.56861000  0.29384000  0.83920000  1.0
  N  N114  1  0.93139000  0.29384000  0.33920000  1.0
  N  N115  1  0.43139000  0.70616000  0.16080000  1.0
  N  N116  1  0.51265000  0.03330000  0.74810000  1.0
  N  N117  1  0.01265000  0.96668000  0.75194000  1.0
  N  N118  1  0.48734000  0.96669000  0.25192000  1.0
  N  N119  1  0.98734000  0.03331000  0.24808000  1.0
  N  N120  1  0.69672000  0.92142000  0.70949000  1.0
  N  N121  1  0.19671000  0.07857000  0.79054000  1.0
  N  N122  1  0.30328000  0.07858000  0.29052000  1.0
  N  N123  1  0.80328000  0.92143000  0.20947000  1.0
  O  O124  1  0.38962000  0.22669000  0.66122000  1.0
  O  O125  1  0.88962000  0.77329000  0.83880000  1.0
  O  O126  1  0.61039000  0.77330000  0.33879000  1.0
  O  O127  1  0.11038000  0.22669000  0.16121000  1.0
  O  O128  1  0.73827000  0.05381000  0.47239000  1.0
  O  O129  1  0.23827000  0.94620000  0.02763000  1.0
  O  O130  1  0.26173000  0.94619000  0.52762000  1.0
  O  O131  1  0.76175000  0.05381000  0.97238000  1.0
  O  O132  1  0.49768000  0.18972000  0.51816000  1.0
  O  O133  1  0.99769000  0.81026000  0.98187000  1.0
  O  O134  1  0.50232000  0.81027000  0.48185000  1.0
  O  O135  1  0.00232000  0.18973000  0.01815000  1.0
  O  O136  1  0.85888000  0.91064000  0.54963000  1.0
  O  O137  1  0.35888000  0.08935000  0.95039000  1.0
  O  O138  1  0.14112000  0.08936000  0.45039000  1.0
  O  O139  1  0.64112000  0.91065000  0.04961000  1.0
