# generated using pymatgen
data_ZnH30C26N7O8
_symmetry_space_group_name_H-M   'P 1'
_cell_length_a   9.23405000
_cell_length_b   18.32440000
_cell_length_c   19.39180000
_cell_angle_alpha   91.18540000
_cell_angle_beta   90.94380000
_cell_angle_gamma   91.00230000
_symmetry_Int_Tables_number   1
_chemical_formula_structural   ZnH30C26N7O8
_chemical_formula_sum   'Zn2 H60 C52 N14 O16'
_cell_volume   3279.58667102
_cell_formula_units_Z   2
loop_
 _symmetry_equiv_pos_site_id
 _symmetry_equiv_pos_as_xyz
  1  'x, y, z'
loop_
 _atom_site_type_symbol
 _atom_site_label
 _atom_site_symmetry_multiplicity
 _atom_site_fract_x
 _atom_site_fract_y
 _atom_site_fract_z
 _atom_site_occupancy
  Zn  Zn0  1  0.52024000  0.42306000  0.49690000  1.0
  Zn  Zn1  1  0.53256000  0.58352000  0.50373000  1.0
  H  H2  1  0.31732000  0.48048000  0.07376000  1.0
  H  H3  1  0.51189000  0.29157000  0.73338000  1.0
  H  H4  1  0.61762000  0.27810000  0.65758000  1.0
  H  H5  1  0.45433000  0.32791000  0.65293000  1.0
  H  H6  1  0.22634000  0.60446000  0.72497000  1.0
  H  H7  1  0.32315000  0.71260000  0.68318000  1.0
  H  H8  1  0.49512000  0.67175000  0.67428000  1.0
  H  H9  1  0.43484000  0.69834000  0.75790000  1.0
  H  H10  1  0.37769000  0.35721000  0.28125000  1.0
  H  H11  1  0.63462000  0.30078000  0.26251000  1.0
  H  H12  1  0.52945000  0.27518000  0.33510000  1.0
  H  H13  1  0.74920000  0.50766000  0.92682000  1.0
  H  H14  1  0.66739000  0.34368000  0.34501000  1.0
  H  H15  1  0.69354000  0.66464000  0.18199000  1.0
  H  H16  1  0.60068000  0.71273000  0.08485000  1.0
  H  H17  1  0.44464000  0.67212000  0.12315000  1.0
  H  H18  1  0.53283000  0.62693000  0.05390000  1.0
  H  H19  1  0.68418000  0.34763000  0.80323000  1.0
  H  H20  1  0.58357000  0.36208000  0.94504000  1.0
  H  H21  1  0.63568000  0.28396000  0.89677000  1.0
  H  H22  1  0.46161000  0.32254000  0.88218000  1.0
  H  H23  1  0.28541000  0.62938000  0.82324000  1.0
  H  H24  1  0.28874000  0.47864000  0.94595000  1.0
  H  H25  1  0.48538000  0.62364000  0.94297000  1.0
  H  H26  1  0.35860000  0.69191000  0.92288000  1.0
  H  H27  1  0.51770000  0.68180000  0.87223000  1.0
  H  H28  1  0.44942000  0.33490000  0.19065000  1.0
  H  H29  1  0.52749000  0.28079000  0.09243000  1.0
  H  H30  1  0.68453000  0.33054000  0.12362000  1.0
  H  H31  1  0.57540000  0.36546000  0.05567000  1.0
  H  H32  1  0.28592000  0.36218000  0.43558000  1.0
  H  H33  1  0.67552000  0.66344000  0.39506000  1.0
  H  H34  1  0.75355000  0.35587000  0.53521000  1.0
  H  H35  1  0.77720000  0.51232000  0.05469000  1.0
  H  H36  1  0.26767000  0.63362000  0.53931000  1.0
  H  H37  1  0.22685000  0.21009000  0.39964000  1.0
  H  H38  1  0.75766000  0.81461000  0.41241000  1.0
  H  H39  1  0.80414000  0.20252000  0.54740000  1.0
  H  H40  1  0.18977000  0.78780000  0.57238000  1.0
  H  H41  1  0.57397000  0.12423000  0.62580000  1.0
  H  H42  1  0.77553000  0.10796000  0.68513000  1.0
  H  H43  1  0.83250000  0.05587000  0.61280000  1.0
  H  H44  1  0.74943000  0.01205000  0.68476000  1.0
  H  H45  1  0.21112000  0.87483000  0.45126000  1.0
  H  H46  1  0.74118000  0.65624000  0.27733000  1.0
  H  H47  1  0.12366000  0.91371000  0.34222000  1.0
  H  H48  1  0.31766000  0.91971000  0.33955000  1.0
  H  H49  1  0.21436000  0.99932000  0.35603000  1.0
  H  H50  1  0.11537000  0.02185000  0.47365000  1.0
  H  H51  1  0.01351000  0.12749000  0.51933000  1.0
  H  H52  1  0.18609000  0.16978000  0.53431000  1.0
  H  H53  1  0.12602000  0.09962000  0.58978000  1.0
  H  H54  1  0.75464000  0.94012000  0.59501000  1.0
  H  H55  1  0.68460000  0.84974000  0.67330000  1.0
  H  H56  1  0.50470000  0.85130000  0.63985000  1.0
  H  H57  1  0.48721000  0.69684000  0.23794000  1.0
  H  H58  1  0.57217000  0.92643000  0.69119000  1.0
  H  H59  1  0.57043000  0.74201000  0.31135000  1.0
  H  H60  1  0.44040000  0.67035000  0.32290000  1.0
  H  H61  1  0.73712000  0.37752000  0.71069000  1.0
  C  C62  1  0.48912000  0.50089000  0.62863000  1.0
  C  C63  1  0.36499000  0.80081000  0.52479000  1.0
  C  C64  1  0.47566000  0.15536000  0.50422000  1.0
  C  C65  1  0.46999000  0.84588000  0.49547000  1.0
  C  C66  1  0.54550000  0.03695000  0.56334000  1.0
  C  C67  1  0.33937000  0.96262000  0.47751000  1.0
  C  C68  1  0.32233000  0.03779000  0.49510000  1.0
  C  C69  1  0.55872000  0.96166000  0.55039000  1.0
  C  C70  1  0.46009000  0.92630000  0.50322000  1.0
  C  C71  1  0.44765000  0.07931000  0.52043000  1.0
  C  C72  1  0.80369000  0.49878000  0.51378000  1.0
  C  C73  1  0.55933000  0.50803000  0.37234000  1.0
  C  C74  1  0.24083000  0.49779000  0.48686000  1.0
  C  C75  1  0.95773000  0.49294000  0.50495000  1.0
  C  C76  1  0.08710000  0.49218000  0.49506000  1.0
  C  C77  1  0.60878000  0.56713000  0.25850000  1.0
  C  C78  1  0.56301000  0.43980000  0.73784000  1.0
  C  C79  1  0.41197000  0.54802000  0.74479000  1.0
  C  C80  1  0.52203000  0.43998000  0.26042000  1.0
  C  C81  1  0.60686000  0.56408000  0.18525000  1.0
  C  C82  1  0.56892000  0.43753000  0.81100000  1.0
  C  C83  1  0.42173000  0.54692000  0.81777000  1.0
  C  C84  1  0.39705000  0.27471000  0.46085000  1.0
  C  C85  1  0.52174000  0.43703000  0.18723000  1.0
  C  C86  1  0.56157000  0.49924000  0.14961000  1.0
  C  C87  1  0.50171000  0.49219000  0.85109000  1.0
  C  C88  1  0.56593000  0.50510000  0.29535000  1.0
  C  C89  1  0.48590000  0.49549000  0.70580000  1.0
  C  C90  1  0.41196000  0.48700000  0.04140000  1.0
  C  C91  1  0.65423000  0.50230000  0.95918000  1.0
  C  C92  1  0.39601000  0.48534000  0.96983000  1.0
  C  C93  1  0.67015000  0.50436000  0.03084000  1.0
  C  C94  1  0.51699000  0.49296000  0.92751000  1.0
  C  C95  1  0.59030000  0.73448000  0.46096000  1.0
  C  C96  1  0.54906000  0.49684000  0.07306000  1.0
  C  C97  1  0.52970000  0.68913000  0.29072000  1.0
  C  C98  1  0.54980000  0.31714000  0.68539000  1.0
  C  C99  1  0.39957000  0.67509000  0.70704000  1.0
  C  C100  1  0.58239000  0.32144000  0.30997000  1.0
  C  C101  1  0.55122000  0.66084000  0.10038000  1.0
  C  C102  1  0.57685000  0.33539000  0.89401000  1.0
  C  C103  1  0.43281000  0.65202000  0.90054000  1.0
  C  C104  1  0.57215000  0.33569000  0.10396000  1.0
  C  C105  1  0.74775000  0.06032000  0.65195000  1.0
  C  C106  1  0.61820000  0.27104000  0.51541000  1.0
  C  C107  1  0.22050000  0.94052000  0.36554000  1.0
  C  C108  1  0.12569000  0.11779000  0.53573000  1.0
  C  C109  1  0.60160000  0.88523000  0.65141000  1.0
  C  C110  1  0.37753000  0.72464000  0.52243000  1.0
  C  C111  1  0.38329000  0.19854000  0.46161000  1.0
  C  C112  1  0.58418000  0.81073000  0.46187000  1.0
  C  C113  1  0.60755000  0.19540000  0.52100000  1.0
  N  N114  1  0.51030000  0.31228000  0.49005000  1.0
  N  N115  1  0.47796000  0.37120000  0.15407000  1.0
  N  N116  1  0.60509000  0.07167000  0.62161000  1.0
  N  N117  1  0.22216000  0.92858000  0.44016000  1.0
  N  N118  1  0.18478000  0.06309000  0.48978000  1.0
  N  N119  1  0.65544000  0.91633000  0.58771000  1.0
  N  N120  1  0.49199000  0.69243000  0.49355000  1.0
  N  N121  1  0.64605000  0.63486000  0.29482000  1.0
  N  N122  1  0.63197000  0.38548000  0.69674000  1.0
  N  N123  1  0.33124000  0.60246000  0.70976000  1.0
  N  N124  1  0.47537000  0.37796000  0.29784000  1.0
  N  N125  1  0.65122000  0.62615000  0.14868000  1.0
  N  N126  1  0.64439000  0.38014000  0.84127000  1.0
  N  N127  1  0.34847000  0.60072000  0.85621000  1.0
  O  O128  1  0.44478000  0.44598000  0.59220000  1.0
  O  O129  1  0.70479000  0.70351000  0.42864000  1.0
  O  O130  1  0.74765000  0.30091000  0.53662000  1.0
  O  O131  1  0.26941000  0.68727000  0.55249000  1.0
  O  O132  1  0.27975000  0.16839000  0.41774000  1.0
  O  O133  1  0.68795000  0.85032000  0.42910000  1.0
  O  O134  1  0.73326000  0.16209000  0.54178000  1.0
  O  O135  1  0.24835000  0.82980000  0.55799000  1.0
  O  O136  1  0.50713000  0.56509000  0.40059000  1.0
  O  O137  1  0.60367000  0.45334000  0.40553000  1.0
  O  O138  1  0.53975000  0.56024000  0.60480000  1.0
  O  O139  1  0.73437000  0.44235000  0.53438000  1.0
  O  O140  1  0.30243000  0.55631000  0.50905000  1.0
  O  O141  1  0.30785000  0.44504000  0.45872000  1.0
  O  O142  1  0.75149000  0.56000000  0.49966000  1.0
  O  O143  1  0.29034000  0.30824000  0.42522000  1.0
