# generated using pymatgen
data_Zn2H29C52Br3(NO4)2
_symmetry_space_group_name_H-M   'P 1'
_cell_length_a   13.61490000
_cell_length_b   18.31350190
_cell_length_c   19.64670000
_cell_angle_alpha   91.11641674
_cell_angle_beta   91.98360000
_cell_angle_gamma   111.81796397
_symmetry_Int_Tables_number   1
_chemical_formula_structural   Zn2H29C52Br3(NO4)2
_chemical_formula_sum   'Zn2 H29 C52 Br3 N2 O8'
_cell_volume   4542.25824415
_cell_formula_units_Z   1
loop_
 _symmetry_equiv_pos_site_id
 _symmetry_equiv_pos_as_xyz
  1  'x, y, z'
loop_
 _atom_site_type_symbol
 _atom_site_label
 _atom_site_symmetry_multiplicity
 _atom_site_fract_x
 _atom_site_fract_y
 _atom_site_fract_z
 _atom_site_occupancy
  Zn  Zn0  1  0.93741000  0.41807000  0.49849000  1.0
  Zn  Zn1  1  0.06858000  0.58047000  0.50853000  1.0
  H  H2  1  0.83758000  0.68414000  0.55913000  1.0
  H  H3  1  0.08737000  0.62779000  0.16185000  1.0
  H  H4  1  0.91500000  0.37711000  0.15655000  1.0
  H  H5  1  0.92226000  0.37937000  0.28365000  1.0
  H  H6  1  0.02454000  0.39333000  0.06386000  1.0
  H  H7  1  0.01717000  0.39064000  0.93825000  1.0
  H  H8  1  0.95522000  0.60482000  0.94115000  1.0
  H  H9  1  0.96422000  0.60805000  0.06683000  1.0
  H  H10  1  0.05688000  0.62197000  0.84737000  1.0
  H  H11  1  0.05467000  0.61833000  0.72046000  1.0
  H  H12  1  0.90636000  0.36683000  0.71654000  1.0
  H  H13  1  0.48312000  0.65081000  0.60227000  1.0
  H  H14  1  0.90519000  0.36917000  0.84345000  1.0
  H  H15  1  0.71807000  0.35102000  0.54244000  1.0
  H  H16  1  0.56615000  0.22075000  0.53778000  1.0
  H  H17  1  0.75983000  0.12793000  0.42119000  1.0
  H  H18  1  0.67959000  0.03533000  0.51959000  1.0
  H  H19  1  0.54925000  0.89922000  0.52588000  1.0
  H  H20  1  0.30538000  0.97443000  0.44376000  1.0
  H  H21  1  0.25084000  0.83882000  0.39643000  1.0
  H  H22  1  0.40135000  0.83130000  0.59221000  1.0
  H  H23  1  0.65281000  0.45918000  0.46848000  1.0
  H  H24  1  0.16006000  0.32944000  0.42305000  1.0
  H  H25  1  0.31466000  0.30928000  0.37328000  1.0
  H  H26  1  0.30703000  0.55193000  0.57243000  1.0
  H  H27  1  0.90387000  0.26220000  0.43180000  1.0
  H  H28  1  0.67091000  0.70240000  0.59161000  1.0
  H  H29  1  0.12166000  0.70313000  0.41647000  1.0
  H  H30  1  0.09330000  0.62878000  0.28883000  1.0
  C  C31  1  0.98471000  0.49095000  0.63485000  1.0
  C  C32  1  0.45253000  0.47048000  0.47793000  1.0
  C  C33  1  0.36109000  0.48252000  0.50357000  1.0
  C  C34  1  0.55777000  0.52488000  0.50230000  1.0
  C  C35  1  0.56690000  0.59341000  0.54262000  1.0
  C  C36  1  0.47428000  0.60125000  0.56755000  1.0
  C  C37  1  0.37653000  0.54656000  0.55111000  1.0
  C  C38  1  0.65313000  0.51335000  0.49182000  1.0
  C  C39  1  0.75942000  0.64062000  0.54487000  1.0
  C  C40  1  0.25606000  0.43204000  0.48237000  1.0
  C  C41  1  0.05385000  0.57400000  0.25926000  1.0
  C  C42  1  0.15889000  0.44843000  0.49940000  1.0
  C  C43  1  0.04971000  0.57320000  0.18837000  1.0
  C  C44  1  0.00018000  0.50237000  0.15008000  1.0
  C  C45  1  0.95518000  0.43240000  0.18539000  1.0
  C  C46  1  0.95860000  0.43328000  0.25620000  1.0
  C  C47  1  0.00797000  0.50409000  0.29397000  1.0
  C  C48  1  0.00781000  0.43934000  0.03707000  1.0
  C  C49  1  0.00336000  0.43773000  0.96621000  1.0
  C  C50  1  0.98539000  0.49742000  0.92997000  1.0
  C  C51  1  0.97230000  0.55891000  0.96784000  1.0
  C  C52  1  0.97740000  0.56075000  0.03875000  1.0
  C  C53  1  0.01054000  0.50411000  0.37026000  1.0
  C  C54  1  0.99521000  0.50098000  0.07490000  1.0
  C  C55  1  0.02241000  0.56580000  0.81898000  1.0
  C  C56  1  0.02224000  0.56419000  0.74820000  1.0
  C  C57  1  0.98125000  0.49239000  0.71093000  1.0
  C  C58  1  0.93905000  0.42232000  0.74595000  1.0
  C  C59  1  0.93955000  0.42403000  0.81679000  1.0
  C  C60  1  0.98192000  0.49573000  0.85476000  1.0
  C  C61  1  0.72307000  0.29948000  0.51643000  1.0
  C  C62  1  0.63919000  0.22713000  0.51318000  1.0
  C  C63  1  0.65089000  0.16296000  0.47930000  1.0
  C  C64  1  0.84932000  0.55245000  0.50191000  1.0
  C  C65  1  0.74742000  0.17559000  0.44902000  1.0
  C  C66  1  0.82744000  0.24978000  0.45428000  1.0
  C  C67  1  0.59726000  0.02153000  0.50279000  1.0
  C  C68  1  0.52382000  0.94529000  0.50704000  1.0
  C  C69  1  0.41747000  0.92717000  0.48604000  1.0
  C  C70  1  0.38749000  0.98704000  0.46013000  1.0
  C  C71  1  0.46164000  0.06363000  0.45709000  1.0
  C  C72  1  0.56817000  0.08289000  0.47886000  1.0
  C  C73  1  0.25670000  0.81007000  0.44358000  1.0
  C  C74  1  0.18454000  0.73491000  0.45414000  1.0
  C  C75  1  0.66769000  0.65064000  0.56167000  1.0
  C  C76  1  0.26496000  0.73043000  0.55814000  1.0
  C  C77  1  0.34163000  0.80534000  0.55140000  1.0
  C  C78  1  0.33812000  0.84705000  0.49304000  1.0
  C  C79  1  0.75150000  0.56955000  0.51194000  1.0
  C  C80  1  0.24059000  0.36815000  0.43839000  1.0
  C  C81  1  0.32709000  0.35654000  0.41106000  1.0
  C  C82  1  0.42986000  0.40720000  0.42903000  1.0
  Br  Br83  1  0.41462000  0.14099000  0.41993000  1.0
  Br  Br84  1  0.27016000  0.67837000  0.63974000  1.0
  Br  Br85  1  0.53289000  0.38514000  0.37640000  1.0
  N  N86  1  0.81563000  0.31040000  0.48777000  1.0
  N  N87  1  0.18773000  0.69492000  0.51092000  1.0
  O  O88  1  0.93931000  0.42500000  0.60291000  1.0
  O  O89  1  0.03398000  0.55650000  0.60779000  1.0
  O  O90  1  0.07200000  0.38968000  0.50188000  1.0
  O  O91  1  0.16959000  0.52040000  0.50646000  1.0
  O  O92  1  0.96499000  0.43791000  0.39722000  1.0
  O  O93  1  0.05775000  0.56973000  0.40249000  1.0
  O  O94  1  0.83696000  0.48018000  0.49480000  1.0
  O  O95  1  0.93734000  0.61082000  0.50269000  1.0
