# generated using pymatgen
data_HgH10C9(NCl)2
_symmetry_space_group_name_H-M   'P 1'
_cell_length_a   8.89375000
_cell_length_b   8.89376000
_cell_length_c   17.57250000
_cell_angle_alpha   90.95060000
_cell_angle_beta   90.95090000
_cell_angle_gamma   118.39900000
_symmetry_Int_Tables_number   1
_chemical_formula_structural   HgH10C9(NCl)2
_chemical_formula_sum   'Hg4 H40 C36 N8 Cl8'
_cell_volume   1222.05016570
_cell_formula_units_Z   4
loop_
 _symmetry_equiv_pos_site_id
 _symmetry_equiv_pos_as_xyz
  1  'x, y, z'
loop_
 _atom_site_type_symbol
 _atom_site_label
 _atom_site_symmetry_multiplicity
 _atom_site_fract_x
 _atom_site_fract_y
 _atom_site_fract_z
 _atom_site_occupancy
  Hg  Hg0  1  0.10304000  0.56336000  0.59930000  1.0
  Hg  Hg1  1  0.43664000  0.89696000  0.90070000  1.0
  Hg  Hg2  1  0.89697000  0.43664000  0.40070000  1.0
  Hg  Hg3  1  0.56336000  0.10304000  0.09930000  1.0
  H  H4  1  0.03732000  0.81370000  0.48869000  1.0
  H  H5  1  0.18629000  0.96267000  0.01131000  1.0
  H  H6  1  0.96268000  0.18630000  0.51131000  1.0
  H  H7  1  0.81370000  0.03732000  0.98869000  1.0
  H  H8  1  0.18073000  0.12113000  0.44978000  1.0
  H  H9  1  0.87887000  0.81927000  0.05022000  1.0
  H  H10  1  0.81927000  0.87888000  0.55023000  1.0
  H  H11  1  0.12114000  0.18073000  0.94978000  1.0
  H  H12  1  0.46570000  0.32484000  0.51111000  1.0
  H  H13  1  0.67516000  0.53430000  0.98889000  1.0
  H  H14  1  0.53430000  0.67516000  0.48889000  1.0
  H  H15  1  0.32485000  0.46571000  0.01111000  1.0
  H  H16  1  0.59621000  0.21224000  0.60661000  1.0
  H  H17  1  0.78776000  0.40379000  0.89340000  1.0
  H  H18  1  0.40379000  0.78776000  0.39340000  1.0
  H  H19  1  0.21224000  0.59622000  0.10660000  1.0
  H  H20  1  0.58143000  0.97965000  0.68132000  1.0
  H  H21  1  0.02035000  0.41856000  0.81869000  1.0
  H  H22  1  0.41857000  0.02035000  0.31868000  1.0
  H  H23  1  0.97965000  0.58144000  0.18131000  1.0
  H  H24  1  0.56713000  0.76972000  0.75596000  1.0
  H  H25  1  0.23027000  0.43287000  0.74404000  1.0
  H  H26  1  0.43287000  0.23028000  0.24404000  1.0
  H  H27  1  0.76973000  0.56713000  0.25596000  1.0
  H  H28  1  0.43854000  0.47467000  0.63710000  1.0
  H  H29  1  0.52532000  0.56146000  0.86290000  1.0
  H  H30  1  0.56146000  0.52532000  0.36290000  1.0
  H  H31  1  0.47468000  0.43855000  0.13710000  1.0
  H  H32  1  0.63197000  0.66857000  0.63432000  1.0
  H  H33  1  0.33143000  0.36803000  0.86567000  1.0
  H  H34  1  0.36803000  0.33143000  0.36568000  1.0
  H  H35  1  0.66857000  0.63197000  0.13433000  1.0
  H  H36  1  0.68480000  0.43716000  0.68639000  1.0
  H  H37  1  0.56284000  0.31520000  0.81361000  1.0
  H  H38  1  0.31520000  0.56284000  0.31361000  1.0
  H  H39  1  0.43716000  0.68480000  0.18639000  1.0
  H  H40  1  0.73586000  0.60145000  0.75537000  1.0
  H  H41  1  0.39855000  0.26414000  0.74463000  1.0
  H  H42  1  0.26414000  0.39855000  0.24463000  1.0
  H  H43  1  0.60146000  0.73586000  0.25537000  1.0
  C  C44  1  0.15982000  0.90779000  0.51386000  1.0
  C  C45  1  0.09221000  0.84017000  0.98614000  1.0
  C  C46  1  0.84018000  0.09221000  0.48614000  1.0
  C  C47  1  0.90779000  0.15983000  0.01386000  1.0
  C  C48  1  0.24119000  0.07827000  0.49236000  1.0
  C  C49  1  0.92173000  0.75881000  0.00764000  1.0
  C  C50  1  0.75882000  0.92173000  0.50764000  1.0
  C  C51  1  0.07827000  0.24118000  0.99236000  1.0
  C  C52  1  0.39817000  0.19098000  0.52651000  1.0
  C  C53  1  0.80902000  0.60182000  0.97349000  1.0
  C  C54  1  0.60182000  0.80902000  0.47350000  1.0
  C  C55  1  0.19098000  0.39818000  0.02650000  1.0
  C  C56  1  0.47065000  0.12936000  0.58046000  1.0
  C  C57  1  0.87063000  0.52934000  0.91954000  1.0
  C  C58  1  0.52935000  0.87064000  0.41954000  1.0
  C  C59  1  0.12937000  0.47066000  0.08046000  1.0
  C  C60  1  0.38144000  0.95767000  0.59989000  1.0
  C  C61  1  0.04232000  0.61855000  0.90011000  1.0
  C  C62  1  0.61855000  0.04233000  0.40011000  1.0
  C  C63  1  0.95768000  0.38145000  0.09989000  1.0
  C  C64  1  0.45607000  0.88880000  0.65569000  1.0
  C  C65  1  0.11119000  0.54393000  0.84431000  1.0
  C  C66  1  0.54393000  0.11119000  0.34431000  1.0
  C  C67  1  0.88881000  0.45608000  0.15568000  1.0
  C  C68  1  0.46366000  0.66367000  0.72243000  1.0
  C  C69  1  0.33632000  0.53633000  0.77757000  1.0
  C  C70  1  0.53634000  0.33632000  0.27757000  1.0
  C  C71  1  0.66368000  0.46367000  0.22243000  1.0
  C  C72  1  0.54120000  0.57501000  0.67307000  1.0
  C  C73  1  0.42499000  0.45880000  0.82693000  1.0
  C  C74  1  0.45880000  0.42499000  0.32693000  1.0
  C  C75  1  0.57501000  0.54120000  0.17308000  1.0
  C  C76  1  0.62850000  0.49805000  0.72255000  1.0
  C  C77  1  0.50195000  0.37150000  0.77745000  1.0
  C  C78  1  0.37150000  0.50195000  0.27745000  1.0
  C  C79  1  0.49805000  0.62850000  0.22255000  1.0
  N  N80  1  0.22779000  0.85053000  0.56703000  1.0
  N  N81  1  0.14947000  0.77220000  0.93297000  1.0
  N  N82  1  0.77221000  0.14947000  0.43297000  1.0
  N  N83  1  0.85053000  0.22780000  0.06703000  1.0
  N  N84  1  0.37900000  0.73081000  0.67245000  1.0
  N  N85  1  0.26918000  0.62099000  0.82755000  1.0
  N  N86  1  0.62099000  0.26918000  0.32755000  1.0
  N  N87  1  0.73082000  0.37901000  0.17245000  1.0
  Cl  Cl88  1  0.93016000  0.30376000  0.66766000  1.0
  Cl  Cl89  1  0.69623000  0.06983000  0.83234000  1.0
  Cl  Cl90  1  0.06983000  0.69624000  0.33234000  1.0
  Cl  Cl91  1  0.30377000  0.93017000  0.16766000  1.0
  Cl  Cl92  1  0.20163000  0.46294000  0.47593000  1.0
  Cl  Cl93  1  0.53707000  0.79837000  0.02407000  1.0
  Cl  Cl94  1  0.79837000  0.53706000  0.52407000  1.0
  Cl  Cl95  1  0.46294000  0.20163000  0.97593000  1.0
