# generated using pymatgen
data_CdH6C9O7
_symmetry_space_group_name_H-M   'P 1'
_cell_length_a   6.95500000
_cell_length_b   7.04336000
_cell_length_c   10.16460000
_cell_angle_alpha   83.72680000
_cell_angle_beta   86.44250000
_cell_angle_gamma   69.12580000
_symmetry_Int_Tables_number   1
_chemical_formula_structural   CdH6C9O7
_chemical_formula_sum   'Cd2 H12 C18 O14'
_cell_volume   462.31824975
_cell_formula_units_Z   2
loop_
 _symmetry_equiv_pos_site_id
 _symmetry_equiv_pos_as_xyz
  1  'x, y, z'
loop_
 _atom_site_type_symbol
 _atom_site_label
 _atom_site_symmetry_multiplicity
 _atom_site_fract_x
 _atom_site_fract_y
 _atom_site_fract_z
 _atom_site_occupancy
  Cd  Cd0  1  0.23436000  0.73317000  0.45619000  1.0
  Cd  Cd1  1  0.76564000  0.26683000  0.54381000  1.0
  H  H2  1  0.13077000  0.42342000  0.33247000  1.0
  H  H3  1  0.86923000  0.57658000  0.66753000  1.0
  H  H4  1  0.38612000  0.33954000  0.34198000  1.0
  H  H5  1  0.61388000  0.66047000  0.65802000  1.0
  H  H6  1  0.26875000  0.58735000  0.19745000  1.0
  H  H7  1  0.73125000  0.41265000  0.80255000  1.0
  H  H8  1  0.28493000  0.78824000  0.87749000  1.0
  H  H9  1  0.71507000  0.21176000  0.12251000  1.0
  H  H10  1  0.20749000  0.26103000  0.13159000  1.0
  H  H11  1  0.79252000  0.73897000  0.86842000  1.0
  H  H12  1  0.20772000  0.50291000  0.93407000  1.0
  H  H13  1  0.79228000  0.49709000  0.06593000  1.0
  C  C14  1  0.23979000  0.28349000  0.79376000  1.0
  C  C15  1  0.76020000  0.71652000  0.20624000  1.0
  C  C16  1  0.26203000  0.08041000  0.77833000  1.0
  C  C17  1  0.73797000  0.91959000  0.22167000  1.0
  C  C18  1  0.26822000  0.94472000  0.89017000  1.0
  C  C19  1  0.73178000  0.05528000  0.10983000  1.0
  C  C20  1  0.24664000  0.01002000  0.01732000  1.0
  C  C21  1  0.75336000  0.98997000  0.98268000  1.0
  C  C22  1  0.22418000  0.21195000  0.03228000  1.0
  C  C23  1  0.77582000  0.78805000  0.96773000  1.0
  C  C24  1  0.22233000  0.34693000  0.92116000  1.0
  C  C25  1  0.77767000  0.65307000  0.07884000  1.0
  C  C26  1  0.24487000  0.43081000  0.67629000  1.0
  C  C27  1  0.75513000  0.56919000  0.32371000  1.0
  C  C28  1  0.25694000  0.00899000  0.64564000  1.0
  C  C29  1  0.74306000  0.99102000  0.35436000  1.0
  C  C30  1  0.24681000  0.86825000  0.13665000  1.0
  C  C31  1  0.75320000  0.13175000  0.86334000  1.0
  O  O32  1  0.40611000  0.39509000  0.60440000  1.0
  O  O33  1  0.59388000  0.60491000  0.39560000  1.0
  O  O34  1  0.08749000  0.59286000  0.65400000  1.0
  O  O35  1  0.91251000  0.40714000  0.34600000  1.0
  O  O36  1  0.12473000  0.12014000  0.56303000  1.0
  O  O37  1  0.87528000  0.87986000  0.43697000  1.0
  O  O38  1  0.22432000  0.92632000  0.25012000  1.0
  O  O39  1  0.77568000  0.07368000  0.74988000  1.0
  O  O40  1  0.25927000  0.46206000  0.32211000  1.0
  O  O41  1  0.74073000  0.53794000  0.67789000  1.0
  O  O42  1  0.38012000  0.83067000  0.62265000  1.0
  O  O43  1  0.61989000  0.16933000  0.37735000  1.0
  O  O44  1  0.27156000  0.68112000  0.11078000  1.0
  O  O45  1  0.72844000  0.31888000  0.88921000  1.0
