# generated using pymatgen
data_CoH26C30(N2O3)2
_symmetry_space_group_name_H-M   'P 1'
_cell_length_a   8.59961000
_cell_length_b   8.74533000
_cell_length_c   8.87686000
_cell_angle_alpha   68.58510000
_cell_angle_beta   86.55260000
_cell_angle_gamma   80.21930000
_symmetry_Int_Tables_number   1
_chemical_formula_structural   CoH26C30(N2O3)2
_chemical_formula_sum   'Co1 H26 C30 N4 O6'
_cell_volume   612.47184035
_cell_formula_units_Z   1
loop_
 _symmetry_equiv_pos_site_id
 _symmetry_equiv_pos_as_xyz
  1  'x, y, z'
loop_
 _atom_site_type_symbol
 _atom_site_label
 _atom_site_symmetry_multiplicity
 _atom_site_fract_x
 _atom_site_fract_y
 _atom_site_fract_z
 _atom_site_occupancy
  Co  Co0  1  0.50001000  0.50000000  1.00000000  1.0
  H  H1  1  0.74001000  0.61521000  0.85660000  1.0
  H  H2  1  0.26000000  0.38480000  0.14340000  1.0
  H  H3  1  0.60202000  0.72574000  0.74104000  1.0
  H  H4  1  0.39799000  0.27427000  0.25896000  1.0
  H  H5  1  0.29241000  0.74860000  0.71397000  1.0
  H  H6  1  0.70759000  0.25140000  0.28602000  1.0
  H  H7  1  0.22518000  0.37937000  0.41080000  1.0
  H  H8  1  0.77482000  0.62064000  0.58919000  1.0
  H  H9  1  0.36387000  0.08353000  0.51115000  1.0
  H  H10  1  0.63612000  0.91647000  0.48884000  1.0
  H  H11  1  0.53673000  0.97623000  0.75543000  1.0
  H  H12  1  0.46327000  0.02377000  0.24456000  1.0
  H  H13  1  0.56499000  0.15392000  0.91172000  1.0
  H  H14  1  0.43501000  0.84608000  0.08827000  1.0
  H  H15  1  0.07220000  0.63056000  0.43411000  1.0
  H  H16  1  0.92780000  0.36943000  0.56590000  1.0
  H  H17  1  0.22842000  0.73787000  0.33588000  1.0
  H  H18  1  0.77156000  0.26213000  0.66412000  1.0
  H  H19  1  0.16447000  0.02483000  0.25497000  1.0
  H  H20  1  0.83552000  0.97516000  0.74504000  1.0
  H  H21  1  0.02603000  0.27848000  0.29482000  1.0
  H  H22  1  0.97396000  0.72152000  0.70519000  1.0
  H  H23  1  0.72577000  0.01609000  0.10192000  1.0
  H  H24  1  0.27423000  0.98391000  0.89809000  1.0
  H  H25  1  0.11352000  0.25921000  0.86045000  1.0
  H  H26  1  0.88647000  0.74079000  0.13955000  1.0
  C  C27  1  0.32207000  0.62841000  0.70152000  1.0
  C  C28  1  0.67793000  0.37159000  0.29848000  1.0
  C  C29  1  0.32407000  0.42847000  0.60456000  1.0
  C  C30  1  0.67594000  0.57154000  0.39543000  1.0
  C  C31  1  0.30121000  0.32982000  0.51734000  1.0
  C  C32  1  0.69879000  0.67018000  0.48266000  1.0
  C  C33  1  0.38044000  0.16647000  0.57360000  1.0
  C  C34  1  0.61956000  0.83353000  0.42639000  1.0
  C  C35  1  0.47714000  0.10499000  0.71245000  1.0
  C  C36  1  0.52286000  0.89501000  0.28754000  1.0
  C  C37  1  0.49534000  0.20310000  0.80157000  1.0
  C  C38  1  0.50467000  0.79690000  0.19843000  1.0
  C  C39  1  0.41899000  0.36821000  0.74585000  1.0
  C  C40  1  0.58102000  0.63179000  0.25415000  1.0
  C  C41  1  0.15948000  0.70324000  0.44809000  1.0
  C  C42  1  0.84051000  0.29676000  0.55191000  1.0
  C  C43  1  0.07820000  0.85623000  0.47674000  1.0
  C  C44  1  0.92179000  0.14376000  0.52327000  1.0
  C  C45  1  0.09249000  0.01344000  0.36271000  1.0
  C  C46  1  0.90751000  0.98656000  0.63730000  1.0
  C  C47  1  0.01461000  0.15655000  0.38539000  1.0
  C  C48  1  0.98538000  0.84344000  0.61462000  1.0
  C  C49  1  0.80925000  0.32440000  0.94820000  1.0
  C  C50  1  0.19075000  0.67561000  0.05180000  1.0
  C  C51  1  0.90794000  0.15677000  0.97686000  1.0
  C  C52  1  0.09206000  0.84323000  0.02314000  1.0
  C  C53  1  0.84586000  0.00930000  0.05648000  1.0
  C  C54  1  0.15414000  0.99070000  0.94352000  1.0
  C  C55  1  0.06389000  0.14551000  0.92086000  1.0
  C  C56  1  0.93611000  0.85449000  0.07914000  1.0
  N  N57  1  0.41393000  0.49736000  0.80435000  1.0
  N  N58  1  0.58608000  0.50264000  0.19564000  1.0
  N  N59  1  0.26418000  0.59260000  0.58113000  1.0
  N  N60  1  0.73582000  0.40741000  0.41887000  1.0
  O  O61  1  0.86611000  0.45459000  0.86724000  1.0
  O  O62  1  0.13389000  0.54541000  0.13276000  1.0
  O  O63  1  0.64447000  0.70465000  0.84740000  1.0
  O  O64  1  0.35553000  0.29535000  0.15259000  1.0
  O  O65  1  0.66901000  0.31997000  0.00900000  1.0
  O  O66  1  0.33099000  0.68003000  0.99100000  1.0
