# generated using pymatgen
data_CoPH8C8N3O4
_symmetry_space_group_name_H-M   'P 1'
_cell_length_a   7.12994000
_cell_length_b   10.95880000
_cell_length_c   12.86550000
_cell_angle_alpha   72.19300000
_cell_angle_beta   89.99970000
_cell_angle_gamma   89.99970000
_symmetry_Int_Tables_number   1
_chemical_formula_structural   CoPH8C8N3O4
_chemical_formula_sum   'Co4 P4 H32 C32 N12 O16'
_cell_volume   957.09374654
_cell_formula_units_Z   4
loop_
 _symmetry_equiv_pos_site_id
 _symmetry_equiv_pos_as_xyz
  1  'x, y, z'
loop_
 _atom_site_type_symbol
 _atom_site_label
 _atom_site_symmetry_multiplicity
 _atom_site_fract_x
 _atom_site_fract_y
 _atom_site_fract_z
 _atom_site_occupancy
  Co  Co0  1  0.04878000  0.98957000  0.79614000  1.0
  Co  Co1  1  0.54874000  0.01041000  0.70387000  1.0
  Co  Co2  1  0.95124000  0.01030000  0.20390000  1.0
  Co  Co3  1  0.45126000  0.98971000  0.29609000  1.0
  P  P4  1  0.21125000  0.20103000  0.57379000  1.0
  P  P5  1  0.71124000  0.79897000  0.92621000  1.0
  P  P6  1  0.78900000  0.79909000  0.42602000  1.0
  P  P7  1  0.28901000  0.20092000  0.07398000  1.0
  H  H8  1  0.07772000  0.29669000  0.74604000  1.0
  H  H9  1  0.57773000  0.70330000  0.75396000  1.0
  H  H10  1  0.92229000  0.70326000  0.25379000  1.0
  H  H11  1  0.42229000  0.29675000  0.24622000  1.0
  H  H12  1  0.08573000  0.51018000  0.77397000  1.0
  H  H13  1  0.58573000  0.48982000  0.72603000  1.0
  H  H14  1  0.91436000  0.48975000  0.22599000  1.0
  H  H15  1  0.41437000  0.51026000  0.27401000  1.0
  H  H16  1  0.31217000  0.67407000  0.45024000  1.0
  H  H17  1  0.81216000  0.32592000  0.04976000  1.0
  H  H18  1  0.68768000  0.32606000  0.54969000  1.0
  H  H19  1  0.18769000  0.67394000  0.95031000  1.0
  H  H20  1  0.29637000  0.45834000  0.42236000  1.0
  H  H21  1  0.79636000  0.54166000  0.07764000  1.0
  H  H22  1  0.70368000  0.54181000  0.57751000  1.0
  H  H23  1  0.20368000  0.45819000  0.92250000  1.0
  H  H24  1  0.48683000  0.79692000  0.55904000  1.0
  H  H25  1  0.98684000  0.20308000  0.94095000  1.0
  H  H26  1  0.51336000  0.20298000  0.44129000  1.0
  H  H27  1  0.01335000  0.79701000  0.05873000  1.0
  H  H28  1  0.98079000  0.72204000  0.74163000  1.0
  H  H29  1  0.48079000  0.27794000  0.75838000  1.0
  H  H30  1  0.01871000  0.27784000  0.25807000  1.0
  H  H31  1  0.51873000  0.72217000  0.24192000  1.0
  H  H32  1  0.37333000  0.95629000  0.89211000  1.0
  H  H33  1  0.87331000  0.04374000  0.60789000  1.0
  H  H34  1  0.62707000  0.04372000  0.10785000  1.0
  H  H35  1  0.12708000  0.95626000  0.39216000  1.0
  H  H36  1  0.27744000  0.08396000  0.91914000  1.0
  H  H37  1  0.77744000  0.91608000  0.58085000  1.0
  H  H38  1  0.72271000  0.91588000  0.08098000  1.0
  H  H39  1  0.22271000  0.08409000  0.41903000  1.0
  C  C40  1  0.18685000  0.36290000  0.58219000  1.0
  C  C41  1  0.68684000  0.63710000  0.91781000  1.0
  C  C42  1  0.81329000  0.63716000  0.41769000  1.0
  C  C43  1  0.31329000  0.36284000  0.08231000  1.0
  C  C44  1  0.12537000  0.37940000  0.68047000  1.0
  C  C45  1  0.62537000  0.62060000  0.81954000  1.0
  C  C46  1  0.87467000  0.62059000  0.31942000  1.0
  C  C47  1  0.37467000  0.37941000  0.18058000  1.0
  C  C48  1  0.13109000  0.49885000  0.69666000  1.0
  C  C49  1  0.63109000  0.50115000  0.80335000  1.0
  C  C50  1  0.86894000  0.50112000  0.30328000  1.0
  C  C51  1  0.36894000  0.49889000  0.19672000  1.0
  C  C52  1  0.20131000  0.60396000  0.61432000  1.0
  C  C53  1  0.70131000  0.39603000  0.88568000  1.0
  C  C54  1  0.79868000  0.39603000  0.38562000  1.0
  C  C55  1  0.29868000  0.60397000  0.11438000  1.0
  C  C56  1  0.25974000  0.59112000  0.51457000  1.0
  C  C57  1  0.75973000  0.40888000  0.98544000  1.0
  C  C58  1  0.74025000  0.40894000  0.48535000  1.0
  C  C59  1  0.24024000  0.59106000  0.01465000  1.0
  C  C60  1  0.25155000  0.47032000  0.49953000  1.0
  C  C61  1  0.75154000  0.52968000  0.00047000  1.0
  C  C62  1  0.74852000  0.52977000  0.50036000  1.0
  C  C63  1  0.24852000  0.47023000  0.99964000  1.0
  C  C64  1  0.37052000  0.80484000  0.61121000  1.0
  C  C65  1  0.87053000  0.19516000  0.88879000  1.0
  C  C66  1  0.62930000  0.19516000  0.38885000  1.0
  C  C67  1  0.12929000  0.80483000  0.11116000  1.0
  C  C68  1  0.11329000  0.76381000  0.70778000  1.0
  C  C69  1  0.61329000  0.23618000  0.79223000  1.0
  C  C70  1  0.88624000  0.23615000  0.29204000  1.0
  C  C71  1  0.38625000  0.76386000  0.20795000  1.0
  N  N72  1  0.19170000  0.86524000  0.72429000  1.0
  N  N73  1  0.69170000  0.13475000  0.77572000  1.0
  N  N74  1  0.80761000  0.13478000  0.27554000  1.0
  N  N75  1  0.30762000  0.86523000  0.22445000  1.0
  N  N76  1  0.35524000  0.89048000  0.66390000  1.0
  N  N77  1  0.85524000  0.10951000  0.83610000  1.0
  N  N78  1  0.64428000  0.10958000  0.33608000  1.0
  N  N79  1  0.14428000  0.89043000  0.16392000  1.0
  N  N80  1  0.22176000  0.72214000  0.63772000  1.0
  N  N81  1  0.72176000  0.27785000  0.86228000  1.0
  N  N82  1  0.77810000  0.27783000  0.36224000  1.0
  N  N83  1  0.27810000  0.72217000  0.13776000  1.0
  O  O84  1  0.40618000  0.16467000  0.62749000  1.0
  O  O85  1  0.90614000  0.83533000  0.87248000  1.0
  O  O86  1  0.59463000  0.83564000  0.37167000  1.0
  O  O87  1  0.09465000  0.16436000  0.12835000  1.0
  O  O88  1  0.05243000  0.11918000  0.64404000  1.0
  O  O89  1  0.55241000  0.88082000  0.85597000  1.0
  O  O90  1  0.94836000  0.88081000  0.35624000  1.0
  O  O91  1  0.44839000  0.11920000  0.14375000  1.0
  O  O92  1  0.25580000  0.00661000  0.89119000  1.0
  O  O93  1  0.75576000  0.99346000  0.60876000  1.0
  O  O94  1  0.74454000  0.99329000  0.10883000  1.0
  O  O95  1  0.24457000  0.00667000  0.39120000  1.0
  O  O96  1  0.20457000  0.20545000  0.45436000  1.0
  O  O97  1  0.70459000  0.79454000  0.04564000  1.0
  O  O98  1  0.79469000  0.79464000  0.54548000  1.0
  O  O99  1  0.29467000  0.20537000  0.95452000  1.0
