# generated using pymatgen
data_SbH8C4N2Cl3O2
_symmetry_space_group_name_H-M   'P 1'
_cell_length_a   7.12812000
_cell_length_b   8.82141000
_cell_length_c   10.29085012
_cell_angle_alpha   70.39678031
_cell_angle_beta   71.35285732
_cell_angle_gamma   71.27000000
_symmetry_Int_Tables_number   1
_chemical_formula_structural   SbH8C4N2Cl3O2
_chemical_formula_sum   'Sb2 H16 C8 N4 Cl6 O4'
_cell_volume   560.76405831
_cell_formula_units_Z   2
loop_
 _symmetry_equiv_pos_site_id
 _symmetry_equiv_pos_as_xyz
  1  'x, y, z'
loop_
 _atom_site_type_symbol
 _atom_site_label
 _atom_site_symmetry_multiplicity
 _atom_site_fract_x
 _atom_site_fract_y
 _atom_site_fract_z
 _atom_site_occupancy
  Sb  Sb0  1  0.01387000  0.83897000  0.68699000  1.0
  Sb  Sb1  1  0.98611000  0.16103000  0.31303000  1.0
  H  H2  1  0.23740000  0.16900000  0.58432000  1.0
  H  H3  1  0.76260000  0.83098000  0.41566000  1.0
  H  H4  1  0.26366000  0.33743000  0.70482000  1.0
  H  H5  1  0.73631000  0.66258000  0.29516000  1.0
  H  H6  1  0.52411000  0.32083000  0.60896000  1.0
  H  H7  1  0.47590000  0.67919000  0.39099000  1.0
  H  H8  1  0.45924000  0.16825000  0.76996000  1.0
  H  H9  1  0.54076000  0.83175000  0.23003000  1.0
  H  H10  1  0.76687000  0.19829000  0.06448000  1.0
  H  H11  1  0.23316000  0.80172000  0.93551000  1.0
  H  H12  1  0.75736000  0.44388000  0.85734000  1.0
  H  H13  1  0.24268000  0.55616000  0.14268000  1.0
  H  H14  1  0.56874000  0.34185000  0.87467000  1.0
  H  H15  1  0.43125000  0.65818000  0.12533000  1.0
  H  H16  1  0.80967000  0.30631000  0.74901000  1.0
  H  H17  1  0.19040000  0.69371000  0.25095000  1.0
  C  C18  1  0.53114000  0.04649000  0.53699000  1.0
  C  C19  1  0.46881000  0.95350000  0.46302000  1.0
  C  C20  1  0.40848000  0.25096000  0.67431000  1.0
  C  C21  1  0.59150000  0.74902000  0.32565000  1.0
  C  C22  1  0.96561000  0.06116000  0.93411000  1.0
  C  C23  1  0.03435000  0.93888000  0.06589000  1.0
  C  C24  1  0.73343000  0.32841000  0.85401000  1.0
  C  C25  1  0.26667000  0.67153000  0.14605000  1.0
  N  N26  1  0.38014000  0.15538000  0.59465000  1.0
  N  N27  1  0.61986000  0.84460000  0.40534000  1.0
  N  N28  1  0.81671000  0.19087000  0.96119000  1.0
  N  N29  1  0.18330000  0.80913000  0.03883000  1.0
  Cl  Cl30  1  0.02023000  0.63755000  0.56890000  1.0
  Cl  Cl31  1  0.97975000  0.36245000  0.43112000  1.0
  Cl  Cl32  1  0.32789000  0.66521000  0.75786000  1.0
  Cl  Cl33  1  0.67209000  0.33479000  0.24216000  1.0
  Cl  Cl34  1  0.78242000  0.73418000  0.90811000  1.0
  Cl  Cl35  1  0.21755000  0.26584000  0.09191000  1.0
  O  O36  1  0.71525000  0.01904000  0.54001000  1.0
  O  O37  1  0.28472000  0.98092000  0.46000000  1.0
  O  O38  1  0.04928000  0.03642000  0.81270000  1.0
  O  O39  1  0.95073000  0.96357000  0.18732000  1.0
