# generated using pymatgen
data_Cu3H10C12(IN2)3
_symmetry_space_group_name_H-M   'P 1'
_cell_length_a   6.70967000
_cell_length_b   15.23820000
_cell_length_c   17.48890000
_cell_angle_alpha   89.99980000
_cell_angle_beta   89.99990000
_cell_angle_gamma   89.99990000
_symmetry_Int_Tables_number   1
_chemical_formula_structural   Cu3H10C12(IN2)3
_chemical_formula_sum   'Cu12 H40 C48 I12 N24'
_cell_volume   1788.12273382
_cell_formula_units_Z   4
loop_
 _symmetry_equiv_pos_site_id
 _symmetry_equiv_pos_as_xyz
  1  'x, y, z'
loop_
 _atom_site_type_symbol
 _atom_site_label
 _atom_site_symmetry_multiplicity
 _atom_site_fract_x
 _atom_site_fract_y
 _atom_site_fract_z
 _atom_site_occupancy
  Cu  Cu0  1  0.25518000  0.01030000  0.25000000  1.0
  Cu  Cu1  1  0.75518000  0.48970000  0.75000000  1.0
  Cu  Cu2  1  0.74483000  0.98970000  0.75000000  1.0
  Cu  Cu3  1  0.24482000  0.51030000  0.25000000  1.0
  Cu  Cu4  1  0.20021000  0.13332000  0.34847000  1.0
  Cu  Cu5  1  0.70021000  0.36668000  0.65153000  1.0
  Cu  Cu6  1  0.79979000  0.86668000  0.84847000  1.0
  Cu  Cu7  1  0.29979000  0.63332000  0.15153000  1.0
  Cu  Cu8  1  0.79979000  0.86668000  0.65153000  1.0
  Cu  Cu9  1  0.29979000  0.63332000  0.34847000  1.0
  Cu  Cu10  1  0.20021000  0.13332000  0.15153000  1.0
  Cu  Cu11  1  0.70021000  0.36668000  0.84847000  1.0
  H  H12  1  0.61163000  0.20154000  0.57055000  1.0
  H  H13  1  0.11163000  0.29847000  0.42945000  1.0
  H  H14  1  0.38837000  0.79846000  0.07055000  1.0
  H  H15  1  0.88837000  0.70154000  0.92945000  1.0
  H  H16  1  0.38837000  0.79846000  0.42945000  1.0
  H  H17  1  0.88838000  0.70154000  0.57055000  1.0
  H  H18  1  0.61163000  0.20153000  0.92945000  1.0
  H  H19  1  0.11163000  0.29846000  0.07055000  1.0
  H  H20  1  0.56974000  0.15420000  0.43549000  1.0
  H  H21  1  0.06974000  0.34580000  0.56451000  1.0
  H  H22  1  0.43026000  0.84580000  0.93549000  1.0
  H  H23  1  0.93026000  0.65420000  0.06451000  1.0
  H  H24  1  0.43026000  0.84580000  0.56451000  1.0
  H  H25  1  0.93026000  0.65420000  0.43549000  1.0
  H  H26  1  0.56974000  0.15420000  0.06451000  1.0
  H  H27  1  0.06974000  0.34580000  0.93549000  1.0
  H  H28  1  0.57794000  0.42947000  0.37204000  1.0
  H  H29  1  0.07795000  0.07053000  0.62796000  1.0
  H  H30  1  0.42206000  0.57052000  0.87204000  1.0
  H  H31  1  0.92206000  0.92948000  0.12796000  1.0
  H  H32  1  0.42206000  0.57053000  0.62796000  1.0
  H  H33  1  0.92205000  0.92947000  0.37204000  1.0
  H  H34  1  0.57795000  0.42947000  0.12796000  1.0
  H  H35  1  0.07794000  0.07052000  0.87204000  1.0
  H  H36  1  0.64318000  0.46400000  0.50821000  1.0
  H  H37  1  0.14319000  0.03600000  0.49179000  1.0
  H  H38  1  0.35682000  0.53600000  0.00821000  1.0
  H  H39  1  0.85681000  0.96400000  0.99179000  1.0
  H  H40  1  0.35681000  0.53600000  0.49179000  1.0
  H  H41  1  0.85681000  0.96400000  0.50821000  1.0
  H  H42  1  0.64319000  0.46400000  0.99179000  1.0
  H  H43  1  0.14319000  0.03600000  0.00821000  1.0
  H  H44  1  0.82038000  0.38064000  0.29732000  1.0
  H  H45  1  0.32039000  0.11936000  0.70269000  1.0
  H  H46  1  0.17961000  0.61936000  0.79732000  1.0
  H  H47  1  0.67961000  0.88064000  0.20269000  1.0
  H  H48  1  0.17962000  0.61936000  0.70269000  1.0
  H  H49  1  0.67961000  0.88064000  0.29732000  1.0
  H  H50  1  0.82039000  0.38064000  0.20269000  1.0
  H  H51  1  0.32039000  0.11936000  0.79731000  1.0
  C  C52  1  0.52669000  0.26518000  0.31287000  1.0
  C  C53  1  0.02669000  0.23482000  0.68713000  1.0
  C  C54  1  0.47332000  0.73482000  0.81287000  1.0
  C  C55  1  0.97331000  0.76518000  0.18713000  1.0
  C  C56  1  0.47332000  0.73482000  0.68713000  1.0
  C  C57  1  0.97331000  0.76518000  0.31287000  1.0
  C  C58  1  0.52669000  0.26518000  0.18713000  1.0
  C  C59  1  0.02669000  0.23482000  0.81287000  1.0
  C  C60  1  0.60512000  0.25012000  0.52478000  1.0
  C  C61  1  0.10512000  0.24989000  0.47522000  1.0
  C  C62  1  0.39488000  0.74988000  0.02478000  1.0
  C  C63  1  0.89488000  0.75012000  0.97522000  1.0
  C  C64  1  0.39488000  0.74989000  0.47522000  1.0
  C  C65  1  0.89488000  0.75011000  0.52478000  1.0
  C  C66  1  0.60512000  0.25011000  0.97522000  1.0
  C  C67  1  0.10513000  0.24988000  0.02478000  1.0
  C  C68  1  0.58105000  0.22380000  0.44937000  1.0
  C  C69  1  0.08105000  0.27621000  0.55063000  1.0
  C  C70  1  0.41895000  0.77620000  0.94937000  1.0
  C  C71  1  0.91895000  0.72380000  0.05063000  1.0
  C  C72  1  0.41895000  0.77620000  0.55063000  1.0
  C  C73  1  0.91896000  0.72380000  0.44937000  1.0
  C  C74  1  0.58104000  0.22379000  0.05063000  1.0
  C  C75  1  0.08104000  0.27620000  0.94937000  1.0
  C  C76  1  0.57020000  0.28799000  0.39196000  1.0
  C  C77  1  0.07021000  0.21202000  0.60804000  1.0
  C  C78  1  0.42980000  0.71201000  0.89196000  1.0
  C  C79  1  0.92980000  0.78799000  0.10804000  1.0
  C  C80  1  0.42980000  0.71201000  0.60804000  1.0
  C  C81  1  0.92980000  0.78799000  0.39196000  1.0
  C  C82  1  0.57021000  0.28799000  0.10804000  1.0
  C  C83  1  0.07020000  0.21201000  0.89196000  1.0
  C  C84  1  0.59051000  0.37621000  0.41347000  1.0
  C  C85  1  0.09052000  0.12379000  0.58652000  1.0
  C  C86  1  0.40949000  0.62379000  0.91347000  1.0
  C  C87  1  0.90948000  0.87621000  0.08653000  1.0
  C  C88  1  0.40948000  0.62379000  0.58653000  1.0
  C  C89  1  0.90948000  0.87621000  0.41347000  1.0
  C  C90  1  0.59053000  0.37621000  0.08653000  1.0
  C  C91  1  0.09052000  0.12379000  0.91347000  1.0
  C  C92  1  0.62016000  0.39645000  0.48993000  1.0
  C  C93  1  0.12016000  0.10356000  0.51007000  1.0
  C  C94  1  0.37984000  0.60355000  0.98993000  1.0
  C  C95  1  0.87984000  0.89645000  0.01007000  1.0
  C  C96  1  0.37984000  0.60356000  0.51007000  1.0
  C  C97  1  0.87984000  0.89644000  0.48993000  1.0
  C  C98  1  0.62016000  0.39644000  0.01007000  1.0
  C  C99  1  0.12016000  0.10355000  0.98993000  1.0
  I  I100  1  0.91035000  0.08884000  0.25000000  1.0
  I  I101  1  0.41035000  0.41116000  0.75000000  1.0
  I  I102  1  0.08965000  0.91116000  0.75000000  1.0
  I  I103  1  0.58965000  0.58884000  0.25000000  1.0
  I  I104  1  0.41593000  0.97805000  0.37711000  1.0
  I  I105  1  0.91593000  0.52195000  0.62289000  1.0
  I  I106  1  0.58407000  0.02195000  0.87711000  1.0
  I  I107  1  0.08407000  0.47805000  0.12289000  1.0
  I  I108  1  0.58407000  0.02195000  0.62289000  1.0
  I  I109  1  0.08406000  0.47805000  0.37711000  1.0
  I  I110  1  0.41593000  0.97805000  0.12289000  1.0
  I  I111  1  0.91593000  0.52195000  0.87711000  1.0
  N  N112  1  0.38279000  0.21074000  0.28904000  1.0
  N  N113  1  0.88279000  0.28926000  0.71096000  1.0
  N  N114  1  0.61722000  0.78926000  0.78904000  1.0
  N  N115  1  0.11721000  0.71073000  0.21096000  1.0
  N  N116  1  0.61722000  0.78926000  0.71096000  1.0
  N  N117  1  0.11721000  0.71073000  0.28904000  1.0
  N  N118  1  0.38279000  0.21074000  0.21096000  1.0
  N  N119  1  0.88279000  0.28927000  0.78904000  1.0
  N  N120  1  0.61817000  0.30070000  0.25000000  1.0
  N  N121  1  0.11817000  0.19930000  0.75000000  1.0
  N  N122  1  0.38183000  0.69930000  0.75000000  1.0
  N  N123  1  0.88183000  0.80070000  0.25000000  1.0
  N  N124  1  0.80484000  0.34118000  0.25000000  1.0
  N  N125  1  0.30484000  0.15882000  0.75000000  1.0
  N  N126  1  0.19517000  0.65882000  0.75000000  1.0
  N  N127  1  0.69516000  0.84118000  0.25000000  1.0
  N  N128  1  0.62583000  0.33526000  0.54566000  1.0
  N  N129  1  0.12584000  0.16475000  0.45434000  1.0
  N  N130  1  0.37416000  0.66474000  0.04566000  1.0
  N  N131  1  0.87416000  0.83525000  0.95434000  1.0
  N  N132  1  0.37416000  0.66475000  0.45434000  1.0
  N  N133  1  0.87417000  0.83526000  0.54566000  1.0
  N  N134  1  0.62583000  0.33525000  0.95434000  1.0
  N  N135  1  0.12583000  0.16475000  0.04566000  1.0
