# generated using pymatgen
data_CdH11C11NO5
_symmetry_space_group_name_H-M   'P 1'
_cell_length_a   7.44091000
_cell_length_b   9.78202000
_cell_length_c   9.92504000
_cell_angle_alpha   118.30000000
_cell_angle_beta   102.92500000
_cell_angle_gamma   91.47370000
_symmetry_Int_Tables_number   1
_chemical_formula_structural   CdH11C11NO5
_chemical_formula_sum   'Cd2 H22 C22 N2 O10'
_cell_volume   612.60375952
_cell_formula_units_Z   2
loop_
 _symmetry_equiv_pos_site_id
 _symmetry_equiv_pos_as_xyz
  1  'x, y, z'
loop_
 _atom_site_type_symbol
 _atom_site_label
 _atom_site_symmetry_multiplicity
 _atom_site_fract_x
 _atom_site_fract_y
 _atom_site_fract_z
 _atom_site_occupancy
  Cd  Cd0  1  0.73612000  0.97283000  0.48136000  1.0
  Cd  Cd1  1  0.26388000  0.02717000  0.51864000  1.0
  H  H2  1  0.43705000  0.18514000  0.89561000  1.0
  H  H3  1  0.56295000  0.81486000  0.10438000  1.0
  H  H4  1  0.31671000  0.21347000  0.12299000  1.0
  H  H5  1  0.68329000  0.78653000  0.87701000  1.0
  H  H6  1  0.76407000  0.28662000  0.76796000  1.0
  H  H7  1  0.23593000  0.71338000  0.23204000  1.0
  H  H8  1  0.33842000  0.49358000  0.02026000  1.0
  H  H9  1  0.66158000  0.50642000  0.97974000  1.0
  H  H10  1  0.93914000  0.14022000  0.32974000  1.0
  H  H11  1  0.06086000  0.85978000  0.67026000  1.0
  H  H12  1  0.61360000  0.41084000  0.45400000  1.0
  H  H13  1  0.38640000  0.58916000  0.54600000  1.0
  H  H14  1  0.60437000  0.44450000  0.28983000  1.0
  H  H15  1  0.39563000  0.55550000  0.71017000  1.0
  H  H16  1  0.77169000  0.56486000  0.47353000  1.0
  H  H17  1  0.22832000  0.43514000  0.52647000  1.0
  H  H18  1  0.02899000  0.25755000  0.21867000  1.0
  H  H19  1  0.97101000  0.74245000  0.78133000  1.0
  H  H20  1  0.01095000  0.46158000  0.29616000  1.0
  H  H21  1  0.98905000  0.53842000  0.70384000  1.0
  H  H22  1  0.83712000  0.31912000  0.12601000  1.0
  H  H23  1  0.16288000  0.68088000  0.87399000  1.0
  C  C24  1  0.63312000  0.96290000  0.73284000  1.0
  C  C25  1  0.36688000  0.03710000  0.26716000  1.0
  C  C26  1  0.56710000  0.98389000  0.87248000  1.0
  C  C27  1  0.43290000  0.01611000  0.12752000  1.0
  C  C28  1  0.46395000  0.10460000  0.94221000  1.0
  C  C29  1  0.53605000  0.89540000  0.05778000  1.0
  C  C30  1  0.39673000  0.12004000  0.06808000  1.0
  C  C31  1  0.60327000  0.87996000  0.93192000  1.0
  C  C32  1  0.12242000  0.24721000  0.75217000  1.0
  C  C33  1  0.87758000  0.75279000  0.24783000  1.0
  C  C34  1  0.05809000  0.37555000  0.88085000  1.0
  C  C35  1  0.94191000  0.62445000  0.11915000  1.0
  C  C36  1  0.86729000  0.37965000  0.86944000  1.0
  C  C37  1  0.13271000  0.62035000  0.13056000  1.0
  C  C38  1  0.19016000  0.49648000  0.01209000  1.0
  C  C39  1  0.80984000  0.50352000  0.98791000  1.0
  C  C40  1  0.84030000  0.21928000  0.37975000  1.0
  C  C41  1  0.15970000  0.78072000  0.62025000  1.0
  C  C42  1  0.69618000  0.44501000  0.39338000  1.0
  C  C43  1  0.30382000  0.55499000  0.60662000  1.0
  C  C44  1  0.93168000  0.34312000  0.23950000  1.0
  C  C45  1  0.06832000  0.65688000  0.76050000  1.0
  N  N46  1  0.82537000  0.33326000  0.34194000  1.0
  N  N47  1  0.17464000  0.66674000  0.65806000  1.0
  O  O48  1  0.73819000  0.86374000  0.67750000  1.0
  O  O49  1  0.26182000  0.13626000  0.32250000  1.0
  O  O50  1  0.57832000  0.05277000  0.67292000  1.0
  O  O51  1  0.42168000  0.94723000  0.32708000  1.0
  O  O52  1  0.03020000  0.10766000  0.67479000  1.0
  O  O53  1  0.96980000  0.89235000  0.32521000  1.0
  O  O54  1  0.27209000  0.27919000  0.72369000  1.0
  O  O55  1  0.72791000  0.72081000  0.27631000  1.0
  O  O56  1  0.75043000  0.20167000  0.46551000  1.0
  O  O57  1  0.24957000  0.79833000  0.53449000  1.0
