# generated using pymatgen
data_CuH14C10IN4
_symmetry_space_group_name_H-M   'P 1'
_cell_length_a   6.82669000
_cell_length_b   11.23012749
_cell_length_c   11.23001397
_cell_angle_alpha   69.36179564
_cell_angle_beta   72.31906337
_cell_angle_gamma   72.31824800
_symmetry_Int_Tables_number   1
_chemical_formula_structural   CuH14C10IN4
_chemical_formula_sum   'Cu2 H28 C20 I2 N8'
_cell_volume   748.72528062
_cell_formula_units_Z   2
loop_
 _symmetry_equiv_pos_site_id
 _symmetry_equiv_pos_as_xyz
  1  'x, y, z'
loop_
 _atom_site_type_symbol
 _atom_site_label
 _atom_site_symmetry_multiplicity
 _atom_site_fract_x
 _atom_site_fract_y
 _atom_site_fract_z
 _atom_site_occupancy
  Cu  Cu0  1  0.57859000  0.41252000  0.08745000  1.0
  Cu  Cu1  1  0.07858000  0.58746000  0.91251000  1.0
  H  H2  1  0.47582000  0.09147000  0.12883000  1.0
  H  H3  1  0.55779000  0.12352000  0.24662000  1.0
  H  H4  1  0.67230000  0.97218000  0.20825000  1.0
  H  H5  1  0.29674000  0.24523000  0.73977000  1.0
  H  H6  1  0.32630000  0.07233000  0.78622000  1.0
  H  H7  1  0.41777000  0.14415000  0.87096000  1.0
  H  H8  1  0.99488000  0.37016000  0.90435000  1.0
  H  H9  1  0.69654000  0.90838000  0.87097000  1.0
  H  H10  1  0.92864000  0.87675000  0.75328000  1.0
  H  H11  1  0.85290000  0.02787000  0.79213000  1.0
  H  H12  1  0.28259000  0.75451000  0.26031000  1.0
  H  H13  1  0.18561000  0.92741000  0.21400000  1.0
  H  H14  1  0.43330000  0.85571000  0.12897000  1.0
  H  H15  1  0.26983000  0.62970000  0.09566000  1.0
  H  H16  1  0.97582000  0.62884000  0.59147000  1.0
  H  H17  1  0.05779000  0.74663000  0.62352000  1.0
  H  H18  1  0.17227000  0.70826000  0.47218000  1.0
  H  H19  1  0.79674000  0.23977000  0.74524000  1.0
  H  H20  1  0.82631000  0.28621000  0.57234000  1.0
  H  H21  1  0.91777000  0.37096000  0.64416000  1.0
  H  H22  1  0.49486000  0.40435000  0.87017000  1.0
  H  H23  1  0.19654000  0.37098000  0.40838000  1.0
  H  H24  1  0.42866000  0.25328000  0.37674000  1.0
  H  H25  1  0.35293000  0.29213000  0.52787000  1.0
  H  H26  1  0.78261000  0.76030000  0.25452000  1.0
  H  H27  1  0.68562000  0.71399000  0.42742000  1.0
  H  H28  1  0.93331000  0.62896000  0.35572000  1.0
  H  H29  1  0.76984000  0.59566000  0.12970000  1.0
  C  C30  1  0.61372000  0.07712000  0.16759000  1.0
  C  C31  1  0.78484000  0.13470000  0.06580000  1.0
  C  C32  1  0.97171000  0.06948000  0.99554000  1.0
  C  C33  1  0.08218000  0.16639000  0.91518000  1.0
  C  C34  1  0.29120000  0.15689000  0.82289000  1.0
  C  C35  1  0.85877000  0.92288000  0.83250000  1.0
  C  C36  1  0.98541000  0.86515000  0.93445000  1.0
  C  C37  1  0.03665000  0.93032000  0.00486000  1.0
  C  C38  1  0.16389000  0.83343000  0.08509000  1.0
  C  C39  1  0.27151000  0.84290000  0.17724000  1.0
  C  C40  1  0.11370000  0.66760000  0.57712000  1.0
  C  C41  1  0.28484000  0.56580000  0.63470000  1.0
  C  C42  1  0.47169000  0.49555000  0.56949000  1.0
  C  C43  1  0.58218000  0.41518000  0.66639000  1.0
  C  C44  1  0.79120000  0.32289000  0.65690000  1.0
  C  C45  1  0.35879000  0.33251000  0.42287000  1.0
  C  C46  1  0.48541000  0.43446000  0.36515000  1.0
  C  C47  1  0.53667000  0.50486000  0.43031000  1.0
  C  C48  1  0.66390000  0.58508000  0.33343000  1.0
  C  C49  1  0.77153000  0.67723000  0.34291000  1.0
  I  I50  1  0.69384000  0.61414000  0.88581000  1.0
  I  I51  1  0.19385000  0.38581000  0.11413000  1.0
  N  N52  1  0.78130000  0.26310000  0.02976000  1.0
  N  N53  1  0.96110000  0.27954000  0.93803000  1.0
  N  N54  1  0.07436000  0.73679000  0.97034000  1.0
  N  N55  1  0.17900000  0.72031000  0.06205000  1.0
  N  N56  1  0.28130000  0.52976000  0.76310000  1.0
  N  N57  1  0.46110000  0.43803000  0.77954000  1.0
  N  N58  1  0.57437000  0.47034000  0.23679000  1.0
  N  N59  1  0.67902000  0.56205000  0.22031000  1.0
