# generated using pymatgen
data_MnH22C26(N2O3)2
_symmetry_space_group_name_H-M   'P 1'
_cell_length_a   5.09187000
_cell_length_b   7.34712000
_cell_length_c   14.62180000
_cell_angle_alpha   81.51770000
_cell_angle_beta   89.19230000
_cell_angle_gamma   85.28000000
_symmetry_Int_Tables_number   1
_chemical_formula_structural   MnH22C26(N2O3)2
_chemical_formula_sum   'Mn1 H22 C26 N4 O6'
_cell_volume   539.19070119
_cell_formula_units_Z   1
loop_
 _symmetry_equiv_pos_site_id
 _symmetry_equiv_pos_as_xyz
  1  'x, y, z'
loop_
 _atom_site_type_symbol
 _atom_site_label
 _atom_site_symmetry_multiplicity
 _atom_site_fract_x
 _atom_site_fract_y
 _atom_site_fract_z
 _atom_site_occupancy
  Mn  Mn0  1  0.50000000  0.50000000  0.49999000  1.0
  H  H1  1  0.88606000  0.54650000  0.94631000  1.0
  H  H2  1  0.11394000  0.45352000  0.05369000  1.0
  H  H3  1  0.93240000  0.86378000  0.87335000  1.0
  H  H4  1  0.06760000  0.13623000  0.12665000  1.0
  H  H5  1  0.31153000  0.81605000  0.68136000  1.0
  H  H6  1  0.68844000  0.18398000  0.31863000  1.0
  H  H7  1  0.25230000  0.50434000  0.76084000  1.0
  H  H8  1  0.74764000  0.49566000  0.23916000  1.0
  H  H9  1  0.68982000  0.07230000  0.99549000  1.0
  H  H10  1  0.31014000  0.92770000  0.00452000  1.0
  H  H11  1  0.72439000  0.28776000  0.03356000  1.0
  H  H12  1  0.27558000  0.71227000  0.96644000  1.0
  H  H13  1  0.93246000  0.22111000  0.94395000  1.0
  H  H14  1  0.06753000  0.77891000  0.05605000  1.0
  H  H15  1  0.02987000  0.09988000  0.79005000  1.0
  H  H16  1  0.97012000  0.90012000  0.20995000  1.0
  H  H17  1  0.95885000  0.42214000  0.66550000  1.0
  H  H18  1  0.04116000  0.57785000  0.33449000  1.0
  H  H19  1  0.33206000  0.10021000  0.63289000  1.0
  H  H20  1  0.66795000  0.89982000  0.36711000  1.0
  H  H21  1  0.70882000  0.07478000  0.48606000  1.0
  H  H22  1  0.29127000  0.92516000  0.51396000  1.0
  C  C23  1  0.56309000  0.50186000  0.85961000  1.0
  C  C24  1  0.43693000  0.49816000  0.14038000  1.0
  C  C25  1  0.75616000  0.60565000  0.88928000  1.0
  C  C26  1  0.24385000  0.39436000  0.11072000  1.0
  C  C27  1  0.78509000  0.78521000  0.84755000  1.0
  C  C28  1  0.21493000  0.21476000  0.15244000  1.0
  C  C29  1  0.62571000  0.86330000  0.77220000  1.0
  C  C30  1  0.37426000  0.13670000  0.22779000  1.0
  C  C31  1  0.43178000  0.76133000  0.74154000  1.0
  C  C32  1  0.56818000  0.23866000  0.25846000  1.0
  C  C33  1  0.40000000  0.58405000  0.78562000  1.0
  C  C34  1  0.60002000  0.41594000  0.21438000  1.0
  C  C35  1  0.53034000  0.30896000  0.90311000  1.0
  C  C36  1  0.46967000  0.69106000  0.09689000  1.0
  C  C37  1  0.73206000  0.21558000  0.97268000  1.0
  C  C38  1  0.26794000  0.78441000  0.02733000  1.0
  C  C39  1  0.87453000  0.14645000  0.74036000  1.0
  C  C40  1  0.12546000  0.85359000  0.25963000  1.0
  C  C41  1  0.83582000  0.30737000  0.68015000  1.0
  C  C42  1  0.16417000  0.69264000  0.31985000  1.0
  C  C43  1  0.50978000  0.14516000  0.65884000  1.0
  C  C44  1  0.49018000  0.85483000  0.34116000  1.0
  C  C45  1  0.02413000  0.26325000  0.46094000  1.0
  C  C46  1  0.97591000  0.73672000  0.53906000  1.0
  C  C47  1  0.92272000  0.07801000  0.48759000  1.0
  C  C48  1  0.07736000  0.92195000  0.51243000  1.0
  N  N49  1  0.66575000  0.04209000  0.72648000  1.0
  N  N50  1  0.33418000  0.95794000  0.27351000  1.0
  N  N51  1  0.60802000  0.30508000  0.62973000  1.0
  N  N52  1  0.39201000  0.69490000  0.37029000  1.0
  O  O53  1  0.34024000  0.22759000  0.88277000  1.0
  O  O54  1  0.65979000  0.77242000  0.11723000  1.0
  O  O55  1  0.85103000  0.39632000  0.43422000  1.0
  O  O56  1  0.14897000  0.60363000  0.56578000  1.0
  O  O57  1  0.27123000  0.27860000  0.46415000  1.0
  O  O58  1  0.72880000  0.72139000  0.53584000  1.0
