# generated using pymatgen
data_K2H6C6S2O9
_symmetry_space_group_name_H-M   'P 1'
_cell_length_a   7.31209000
_cell_length_b   11.49230000
_cell_length_c   14.73140000
_cell_angle_alpha   89.99990000
_cell_angle_beta   78.97300000
_cell_angle_gamma   89.99990000
_symmetry_Int_Tables_number   1
_chemical_formula_structural   K2H6C6S2O9
_chemical_formula_sum   'K8 H24 C24 S8 O36'
_cell_volume   1215.06426918
_cell_formula_units_Z   4
loop_
 _symmetry_equiv_pos_site_id
 _symmetry_equiv_pos_as_xyz
  1  'x, y, z'
loop_
 _atom_site_type_symbol
 _atom_site_label
 _atom_site_symmetry_multiplicity
 _atom_site_fract_x
 _atom_site_fract_y
 _atom_site_fract_z
 _atom_site_occupancy
  K  K0  1  0.65624000  0.86702000  0.50079000  1.0
  K  K1  1  0.34376000  0.36701000  0.99921000  1.0
  K  K2  1  0.34376000  0.13298000  0.49921000  1.0
  K  K3  1  0.65624000  0.63298000  0.00079000  1.0
  K  K4  1  0.92939000  0.97445000  0.72055000  1.0
  K  K5  1  0.07061000  0.47445000  0.77945000  1.0
  K  K6  1  0.07061000  0.02555000  0.27946000  1.0
  K  K7  1  0.92938000  0.52555000  0.22054000  1.0
  H  H8  1  0.03558000  0.69544000  0.62238000  1.0
  H  H9  1  0.96442000  0.19544000  0.87762000  1.0
  H  H10  1  0.96442000  0.30456000  0.37762000  1.0
  H  H11  1  0.03558000  0.80456000  0.12238000  1.0
  H  H12  1  0.48804000  0.34054000  0.34723000  1.0
  H  H13  1  0.51196000  0.84054000  0.15278000  1.0
  H  H14  1  0.51196000  0.65946000  0.65277000  1.0
  H  H15  1  0.48803000  0.15946000  0.84722000  1.0
  H  H16  1  0.75830000  0.71526000  0.79623000  1.0
  H  H17  1  0.24170000  0.21526000  0.70377000  1.0
  H  H18  1  0.24170000  0.28474000  0.20377000  1.0
  H  H19  1  0.75830000  0.78474000  0.29623000  1.0
  H  H20  1  0.92141000  0.73729000  0.84647000  1.0
  H  H21  1  0.07859000  0.23729000  0.65353000  1.0
  H  H22  1  0.07859000  0.26271000  0.15354000  1.0
  H  H23  1  0.92141000  0.76271000  0.34647000  1.0
  H  H24  1  0.23569000  0.41650000  0.56887000  1.0
  H  H25  1  0.76431000  0.91650000  0.93113000  1.0
  H  H26  1  0.76431000  0.58350000  0.43113000  1.0
  H  H27  1  0.23569000  0.08350000  0.06887000  1.0
  H  H28  1  0.31473000  0.71493000  0.31944000  1.0
  H  H29  1  0.68527000  0.21493000  0.18056000  1.0
  H  H30  1  0.68527000  0.28507000  0.68056000  1.0
  H  H31  1  0.31473000  0.78507000  0.81944000  1.0
  C  C32  1  0.20388000  0.67868000  0.46320000  1.0
  C  C33  1  0.79612000  0.17868000  0.03680000  1.0
  C  C34  1  0.79612000  0.32132000  0.53680000  1.0
  C  C35  1  0.20388000  0.82132000  0.96320000  1.0
  C  C36  1  0.17768000  0.59317000  0.53396000  1.0
  C  C37  1  0.82232000  0.09318000  0.96604000  1.0
  C  C38  1  0.82233000  0.40683000  0.46604000  1.0
  C  C39  1  0.17768000  0.90683000  0.03396000  1.0
  C  C40  1  0.24918000  0.48157000  0.51402000  1.0
  C  C41  1  0.75082000  0.98157000  0.98599000  1.0
  C  C42  1  0.75082000  0.51843000  0.48599000  1.0
  C  C43  1  0.24918000  0.01843000  0.01401000  1.0
  C  C44  1  0.34026000  0.45217000  0.42509000  1.0
  C  C45  1  0.65975000  0.95217000  0.07491000  1.0
  C  C46  1  0.65975000  0.54783000  0.57491000  1.0
  C  C47  1  0.34025000  0.04783000  0.92509000  1.0
  C  C48  1  0.35868000  0.53616000  0.35320000  1.0
  C  C49  1  0.64132000  0.03615000  0.14680000  1.0
  C  C50  1  0.64132000  0.46384000  0.64680000  1.0
  C  C51  1  0.35868000  0.96385000  0.85320000  1.0
  C  C52  1  0.29357000  0.64879000  0.37361000  1.0
  C  C53  1  0.70642000  0.14880000  0.12639000  1.0
  C  C54  1  0.70643000  0.35121000  0.62639000  1.0
  C  C55  1  0.29357000  0.85121000  0.87361000  1.0
  S  S56  1  0.45586000  0.49501000  0.23793000  1.0
  S  S57  1  0.54414000  0.99503000  0.26208000  1.0
  S  S58  1  0.54414000  0.50498000  0.76208000  1.0
  S  S59  1  0.45586000  0.00498000  0.73792000  1.0
  S  S60  1  0.13205000  0.82423000  0.48591000  1.0
  S  S61  1  0.86796000  0.32423000  0.01409000  1.0
  S  S62  1  0.86795000  0.17577000  0.51409000  1.0
  S  S63  1  0.13205000  0.67577000  0.98591000  1.0
  O  O64  1  0.99885000  0.82077000  0.57587000  1.0
  O  O65  1  0.00116000  0.32077000  0.92413000  1.0
  O  O66  1  0.00116000  0.17923000  0.42413000  1.0
  O  O67  1  0.99884000  0.67923000  0.07587000  1.0
  O  O68  1  0.03617000  0.86072000  0.41108000  1.0
  O  O69  1  0.96383000  0.36072000  0.08892000  1.0
  O  O70  1  0.96383000  0.13928000  0.58892000  1.0
  O  O71  1  0.03617000  0.63928000  0.91108000  1.0
  O  O72  1  0.29625000  0.89547000  0.48953000  1.0
  O  O73  1  0.70375000  0.39547000  0.01046000  1.0
  O  O74  1  0.70375000  0.10453000  0.51046000  1.0
  O  O75  1  0.29625000  0.60453000  0.98954000  1.0
  O  O76  1  0.58947000  0.40088000  0.24873000  1.0
  O  O77  1  0.41053000  0.90088000  0.25128000  1.0
  O  O78  1  0.41052000  0.59912000  0.75127000  1.0
  O  O79  1  0.58948000  0.09912000  0.74872000  1.0
  O  O80  1  0.54648000  0.59713000  0.18991000  1.0
  O  O81  1  0.45353000  0.09712000  0.31009000  1.0
  O  O82  1  0.45352000  0.40288000  0.81009000  1.0
  O  O83  1  0.54648000  0.90288000  0.68991000  1.0
  O  O84  1  0.30083000  0.45002000  0.19660000  1.0
  O  O85  1  0.69918000  0.95001000  0.30340000  1.0
  O  O86  1  0.69917000  0.54999000  0.80340000  1.0
  O  O87  1  0.30083000  0.04999000  0.69660000  1.0
  O  O88  1  0.08707000  0.61442000  0.62148000  1.0
  O  O89  1  0.91292000  0.11442000  0.87852000  1.0
  O  O90  1  0.91293000  0.38558000  0.37852000  1.0
  O  O91  1  0.08707000  0.88558000  0.12148000  1.0
  O  O92  1  0.40826000  0.34275000  0.41098000  1.0
  O  O93  1  0.59173000  0.84275000  0.08902000  1.0
  O  O94  1  0.59174000  0.65725000  0.58902000  1.0
  O  O95  1  0.40826000  0.15725000  0.91098000  1.0
  O  O96  1  0.83057000  0.77883000  0.81674000  1.0
  O  O97  1  0.16942000  0.27883000  0.68326000  1.0
  O  O98  1  0.16942000  0.22117000  0.18326000  1.0
  O  O99  1  0.83057000  0.72117000  0.31674000  1.0
