# generated using pymatgen
data_Ag2Mo4H15C11(NO5)3
_symmetry_space_group_name_H-M   'P 1'
_cell_length_a   9.81109000
_cell_length_b   10.56000000
_cell_length_c   11.99010000
_cell_angle_alpha   80.57620000
_cell_angle_beta   82.16240000
_cell_angle_gamma   85.69490000
_symmetry_Int_Tables_number   1
_chemical_formula_structural   Ag2Mo4H15C11(NO5)3
_chemical_formula_sum   'Ag4 Mo8 H30 C22 N6 O30'
_cell_volume   1212.25400500
_cell_formula_units_Z   2
loop_
 _symmetry_equiv_pos_site_id
 _symmetry_equiv_pos_as_xyz
  1  'x, y, z'
loop_
 _atom_site_type_symbol
 _atom_site_label
 _atom_site_symmetry_multiplicity
 _atom_site_fract_x
 _atom_site_fract_y
 _atom_site_fract_z
 _atom_site_occupancy
  Ag  Ag0  1  0.04906000  0.35112000  0.97995000  1.0
  Ag  Ag1  1  0.95094000  0.64889000  0.02005000  1.0
  Ag  Ag2  1  0.93828000  0.67917000  0.30799000  1.0
  Ag  Ag3  1  0.06173000  0.32083000  0.69201000  1.0
  Mo  Mo4  1  0.33059000  0.54304000  0.81955000  1.0
  Mo  Mo5  1  0.66941000  0.45696000  0.18045000  1.0
  Mo  Mo6  1  0.41676000  0.23197000  0.86450000  1.0
  Mo  Mo7  1  0.58324000  0.76803000  0.13550000  1.0
  Mo  Mo8  1  0.65487000  0.43977000  0.91922000  1.0
  Mo  Mo9  1  0.34513000  0.56023000  0.08078000  1.0
  Mo  Mo10  1  0.57763000  0.74185000  0.86343000  1.0
  Mo  Mo11  1  0.42237000  0.25816000  0.13657000  1.0
  H  H12  1  0.70423000  0.09810000  0.28349000  1.0
  H  H13  1  0.29576000  0.90190000  0.71651000  1.0
  H  H14  1  0.86003000  0.03190000  0.33878000  1.0
  H  H15  1  0.13997000  0.96810000  0.66121000  1.0
  H  H16  1  0.79523000  0.96179000  0.23209000  1.0
  H  H17  1  0.20477000  0.03820000  0.76791000  1.0
  H  H18  1  0.82158000  0.77278000  0.52409000  1.0
  H  H19  1  0.17842000  0.22722000  0.47591000  1.0
  H  H20  1  0.14135000  0.23769000  0.29306000  1.0
  H  H21  1  0.85865000  0.76231000  0.70694000  1.0
  H  H22  1  0.28975000  0.90811000  0.00556000  1.0
  H  H23  1  0.71024000  0.09189000  0.99444000  1.0
  H  H24  1  0.30565000  0.98726000  0.12229000  1.0
  H  H25  1  0.69435000  0.01274000  0.87771000  1.0
  H  H26  1  0.18029000  0.04809000  0.02921000  1.0
  H  H27  1  0.81971000  0.95192000  0.97078000  1.0
  H  H28  1  0.60407000  0.70391000  0.41278000  1.0
  H  H29  1  0.39593000  0.29608000  0.58723000  1.0
  H  H30  1  0.59986000  0.69798000  0.56197000  1.0
  H  H31  1  0.40014000  0.30202000  0.43803000  1.0
  H  H32  1  0.57464000  0.47579000  0.62866000  1.0
  H  H33  1  0.42536000  0.52420000  0.37134000  1.0
  H  H34  1  0.67814000  0.25106000  0.64440000  1.0
  H  H35  1  0.32185000  0.74894000  0.35560000  1.0
  H  H36  1  0.89268000  0.20497000  0.51156000  1.0
  H  H37  1  0.10732000  0.79503000  0.48844000  1.0
  H  H38  1  0.99052000  0.40108000  0.25814000  1.0
  H  H39  1  0.00948000  0.59892000  0.74187000  1.0
  H  H40  1  0.09921000  0.45189000  0.34666000  1.0
  H  H41  1  0.90079000  0.54811000  0.65334000  1.0
  C  C42  1  0.88560000  0.13758000  0.17466000  1.0
  C  C43  1  0.11440000  0.86242000  0.82533000  1.0
  C  C44  1  0.80713000  0.05262000  0.26233000  1.0
  C  C45  1  0.19287000  0.94739000  0.73767000  1.0
  C  C46  1  0.13380000  0.87888000  0.14135000  1.0
  C  C47  1  0.86620000  0.12112000  0.85865000  1.0
  C  C48  1  0.23182000  0.96040000  0.07040000  1.0
  C  C49  1  0.76817000  0.03961000  0.92960000  1.0
  C  C50  1  0.66796000  0.68618000  0.48294000  1.0
  C  C51  1  0.33205000  0.31381000  0.51706000  1.0
  C  C52  1  0.72823000  0.54876000  0.49269000  1.0
  C  C53  1  0.27178000  0.45123000  0.50731000  1.0
  C  C54  1  0.66621000  0.45203000  0.57241000  1.0
  C  C55  1  0.33379000  0.54797000  0.42759000  1.0
  C  C56  1  0.72460000  0.32704000  0.58115000  1.0
  C  C57  1  0.27540000  0.67296000  0.41885000  1.0
  C  C58  1  0.84376000  0.30116000  0.50911000  1.0
  C  C59  1  0.15624000  0.69884000  0.49090000  1.0
  C  C60  1  0.89967000  0.40104000  0.42935000  1.0
  C  C61  1  0.10033000  0.59896000  0.57065000  1.0
  C  C62  1  0.02307000  0.38057000  0.34400000  1.0
  C  C63  1  0.97693000  0.61943000  0.65601000  1.0
  N  N64  1  0.94757000  0.20636000  0.10314000  1.0
  N  N65  1  0.05244000  0.79364000  0.89686000  1.0
  N  N66  1  0.05423000  0.81266000  0.19859000  1.0
  N  N67  1  0.94577000  0.18734000  0.80141000  1.0
  N  N68  1  0.84331000  0.52246000  0.42257000  1.0
  N  N69  1  0.15669000  0.47754000  0.57743000  1.0
  O  O70  1  0.15831000  0.50721000  0.86550000  1.0
  O  O71  1  0.84169000  0.49279000  0.13449000  1.0
  O  O72  1  0.24100000  0.20810000  0.89530000  1.0
  O  O73  1  0.75900000  0.79190000  0.10470000  1.0
  O  O74  1  0.82795000  0.46214000  0.88644000  1.0
  O  O75  1  0.17205000  0.53786000  0.11356000  1.0
  O  O76  1  0.75331000  0.76034000  0.83029000  1.0
  O  O77  1  0.24669000  0.23967000  0.16971000  1.0
  O  O78  1  0.32915000  0.65144000  0.69764000  1.0
  O  O79  1  0.67085000  0.34857000  0.30236000  1.0
  O  O80  1  0.47991000  0.12194000  0.77870000  1.0
  O  O81  1  0.52009000  0.87806000  0.22130000  1.0
  O  O82  1  0.62430000  0.30863000  0.85288000  1.0
  O  O83  1  0.37570000  0.69138000  0.14712000  1.0
  O  O84  1  0.50517000  0.83721000  0.75592000  1.0
  O  O85  1  0.49483000  0.16279000  0.24408000  1.0
  O  O86  1  0.39888000  0.39136000  0.76100000  1.0
  O  O87  1  0.60112000  0.60864000  0.23900000  1.0
  O  O88  1  0.35244000  0.66063000  0.92789000  1.0
  O  O89  1  0.64756000  0.33937000  0.07211000  1.0
  O  O90  1  0.46724000  0.16336000  0.01358000  1.0
  O  O91  1  0.53276000  0.83664000  0.98642000  1.0
  O  O92  1  0.57134000  0.57192000  0.81170000  1.0
  O  O93  1  0.42866000  0.42808000  0.18830000  1.0
  O  O94  1  0.40533000  0.41726000  0.97944000  1.0
  O  O95  1  0.59467000  0.58274000  0.02056000  1.0
  O  O96  1  0.76970000  0.77998000  0.45692000  1.0
  O  O97  1  0.23031000  0.22002000  0.54308000  1.0
  O  O98  1  0.08190000  0.25220000  0.36475000  1.0
  O  O99  1  0.91810000  0.74779000  0.63525000  1.0
