# generated using pymatgen
data_ZnH6C9(N2O)2
_symmetry_space_group_name_H-M   'P 1'
_cell_length_a   4.81488000
_cell_length_b   10.49300000
_cell_length_c   18.83020000
_cell_angle_alpha   90.00000000
_cell_angle_beta   90.00000000
_cell_angle_gamma   90.00000000
_symmetry_Int_Tables_number   1
_chemical_formula_structural   ZnH6C9(N2O)2
_chemical_formula_sum   'Zn4 H24 C36 N16 O8'
_cell_volume   951.34945437
_cell_formula_units_Z   4
loop_
 _symmetry_equiv_pos_site_id
 _symmetry_equiv_pos_as_xyz
  1  'x, y, z'
loop_
 _atom_site_type_symbol
 _atom_site_label
 _atom_site_symmetry_multiplicity
 _atom_site_fract_x
 _atom_site_fract_y
 _atom_site_fract_z
 _atom_site_occupancy
  Zn  Zn0  1  0.81219000  0.60943000  0.83096000  1.0
  Zn  Zn1  1  0.31219000  0.39057000  0.16904000  1.0
  Zn  Zn2  1  0.31219000  0.89057000  0.33096000  1.0
  Zn  Zn3  1  0.81219000  0.10943000  0.66904000  1.0
  H  H4  1  0.13532000  0.83398000  0.48126000  1.0
  H  H5  1  0.63532000  0.16602000  0.51874000  1.0
  H  H6  1  0.63532000  0.66602000  0.98126000  1.0
  H  H7  1  0.13532000  0.33398000  0.01874000  1.0
  H  H8  1  0.01269000  0.69526000  0.44072000  1.0
  H  H9  1  0.51269000  0.30474000  0.55928000  1.0
  H  H10  1  0.51269000  0.80474000  0.94072000  1.0
  H  H11  1  0.01269000  0.19526000  0.05928000  1.0
  H  H12  1  0.01701000  0.88054000  0.59832000  1.0
  H  H13  1  0.51701000  0.11946000  0.40168000  1.0
  H  H14  1  0.51701000  0.61946000  0.09832000  1.0
  H  H15  1  0.01701000  0.38054000  0.90168000  1.0
  H  H16  1  0.39556000  0.65980000  0.70937000  1.0
  H  H17  1  0.89556000  0.34020000  0.29063000  1.0
  H  H18  1  0.89556000  0.84020000  0.20937000  1.0
  H  H19  1  0.39556000  0.15980000  0.79063000  1.0
  H  H20  1  0.27450000  0.55285000  0.59740000  1.0
  H  H21  1  0.77450000  0.44715000  0.40260000  1.0
  H  H22  1  0.77450000  0.94715000  0.09740000  1.0
  H  H23  1  0.27450000  0.05285000  0.90260000  1.0
  H  H24  1  0.52217000  0.60771000  0.48476000  1.0
  H  H25  1  0.02217000  0.39229000  0.51524000  1.0
  H  H26  1  0.02217000  0.89229000  0.98476000  1.0
  H  H27  1  0.52218000  0.10771000  0.01524000  1.0
  C  C28  1  0.78692000  0.85797000  0.41241000  1.0
  C  C29  1  0.28692000  0.14203000  0.58759000  1.0
  C  C30  1  0.28692000  0.64203000  0.91241000  1.0
  C  C31  1  0.78692000  0.35797000  0.08759000  1.0
  C  C32  1  0.94344000  0.78269000  0.46816000  1.0
  C  C33  1  0.44345000  0.21731000  0.53184000  1.0
  C  C34  1  0.44345000  0.71731000  0.96816000  1.0
  C  C35  1  0.94345000  0.28269000  0.03184000  1.0
  C  C36  1  0.78328000  0.74966000  0.53411000  1.0
  C  C37  1  0.28328000  0.25034000  0.46589000  1.0
  C  C38  1  0.28328000  0.75034000  0.03411000  1.0
  C  C39  1  0.78328000  0.24966000  0.96589000  1.0
  C  C40  1  0.84969000  0.81055000  0.59769000  1.0
  C  C41  1  0.34969000  0.18945000  0.40231000  1.0
  C  C42  1  0.34969000  0.68945000  0.09769000  1.0
  C  C43  1  0.84969000  0.31055000  0.90231000  1.0
  C  C44  1  0.71457000  0.77821000  0.66130000  1.0
  C  C45  1  0.21457000  0.22179000  0.33870000  1.0
  C  C46  1  0.21457000  0.72179000  0.16130000  1.0
  C  C47  1  0.71457000  0.27821000  0.83870000  1.0
  C  C48  1  0.50609000  0.68508000  0.66085000  1.0
  C  C49  1  0.00609000  0.31492000  0.33915000  1.0
  C  C50  1  0.00609000  0.81492000  0.16085000  1.0
  C  C51  1  0.50609000  0.18508000  0.83915000  1.0
  C  C52  1  0.43777000  0.62465000  0.59717000  1.0
  C  C53  1  0.93777000  0.37535000  0.40283000  1.0
  C  C54  1  0.93777000  0.87535000  0.09717000  1.0
  C  C55  1  0.43777000  0.12465000  0.90283000  1.0
  C  C56  1  0.57583000  0.65576000  0.53434000  1.0
  C  C57  1  0.07583000  0.34423000  0.46566000  1.0
  C  C58  1  0.07583000  0.84423000  0.03434000  1.0
  C  C59  1  0.57583000  0.15576000  0.96566000  1.0
  C  C60  1  0.81062000  0.83931000  0.72664000  1.0
  C  C61  1  0.31062000  0.16069000  0.27336000  1.0
  C  C62  1  0.31062000  0.66069000  0.22664000  1.0
  C  C63  1  0.81062000  0.33931000  0.77336000  1.0
  N  N64  1  0.86702000  0.78299000  0.78919000  1.0
  N  N65  1  0.36702000  0.21701000  0.21081000  1.0
  N  N66  1  0.36702000  0.71701000  0.28919000  1.0
  N  N67  1  0.86702000  0.28299000  0.71081000  1.0
  N  N68  1  0.97540000  0.87424000  0.83263000  1.0
  N  N69  1  0.47540000  0.12576000  0.16737000  1.0
  N  N70  1  0.47540000  0.62576000  0.33263000  1.0
  N  N71  1  0.97540000  0.37424000  0.66737000  1.0
  N  N72  1  0.98432000  0.98143000  0.79843000  1.0
  N  N73  1  0.48433000  0.01857000  0.20157000  1.0
  N  N74  1  0.48433000  0.51857000  0.29844000  1.0
  N  N75  1  0.98432000  0.48143000  0.70157000  1.0
  N  N76  1  0.88178000  0.96304000  0.73223000  1.0
  N  N77  1  0.38178000  0.03696000  0.26777000  1.0
  N  N78  1  0.38178000  0.53696000  0.23223000  1.0
  N  N79  1  0.88178000  0.46304000  0.76777000  1.0
  O  O80  1  0.91331000  0.89853000  0.35720000  1.0
  O  O81  1  0.41331000  0.10147000  0.64280000  1.0
  O  O82  1  0.41331000  0.60147000  0.85720000  1.0
  O  O83  1  0.91331000  0.39853000  0.14280000  1.0
  O  O84  1  0.52713000  0.87604000  0.42067000  1.0
  O  O85  1  0.02714000  0.12396000  0.57933000  1.0
  O  O86  1  0.02713000  0.62396000  0.92067000  1.0
  O  O87  1  0.52713000  0.37604000  0.07933000  1.0
