# generated using pymatgen
data_Cu2H9C14N5O
_symmetry_space_group_name_H-M   'P 1'
_cell_length_a   7.24095000
_cell_length_b   20.34770000
_cell_length_c   21.52900000
_cell_angle_alpha   90.00050000
_cell_angle_beta   90.00070000
_cell_angle_gamma   89.99980000
_symmetry_Int_Tables_number   1
_chemical_formula_structural   Cu2H9C14N5O
_chemical_formula_sum   'Cu16 H72 C112 N40 O8'
_cell_volume   3172.01134707
_cell_formula_units_Z   8
loop_
 _symmetry_equiv_pos_site_id
 _symmetry_equiv_pos_as_xyz
  1  'x, y, z'
loop_
 _atom_site_type_symbol
 _atom_site_label
 _atom_site_symmetry_multiplicity
 _atom_site_fract_x
 _atom_site_fract_y
 _atom_site_fract_z
 _atom_site_occupancy
  Cu  Cu0  1  0.41881000  0.32678000  0.41308000  1.0
  Cu  Cu1  1  0.58125000  0.32680000  0.08693000  1.0
  Cu  Cu2  1  0.41873000  0.17316000  0.58699000  1.0
  Cu  Cu3  1  0.58129000  0.17316000  0.91302000  1.0
  Cu  Cu4  1  0.58125000  0.67321000  0.58695000  1.0
  Cu  Cu5  1  0.41873000  0.67320000  0.91307000  1.0
  Cu  Cu6  1  0.58126000  0.82683000  0.41305000  1.0
  Cu  Cu7  1  0.41873000  0.82684000  0.08697000  1.0
  Cu  Cu8  1  0.50001000  0.50000000  0.49999000  1.0
  Cu  Cu9  1  0.49997000  0.50000000  0.00000000  1.0
  Cu  Cu10  1  0.49994000  0.99999000  0.49997000  1.0
  Cu  Cu11  1  0.50003000  0.00001000  0.00001000  1.0
  Cu  Cu12  1  0.99999000  0.82377000  0.25001000  1.0
  Cu  Cu13  1  0.00002000  0.67626000  0.75002000  1.0
  Cu  Cu14  1  0.99997000  0.17622000  0.75001000  1.0
  Cu  Cu15  1  0.00001000  0.32376000  0.25001000  1.0
  H  H16  1  0.77603000  0.28991000  0.46485000  1.0
  H  H17  1  0.07844000  0.34640000  0.48684000  1.0
  H  H18  1  0.88569000  0.50828000  0.37474000  1.0
  H  H19  1  0.59426000  0.44333000  0.35496000  1.0
  H  H20  1  0.54779000  0.62815000  0.43634000  1.0
  H  H21  1  0.56119000  0.70546000  0.35036000  1.0
  H  H22  1  0.39409000  0.78700000  0.28442000  1.0
  H  H23  1  0.88558000  0.71180000  0.33498000  1.0
  H  H24  1  0.02992000  0.62428000  0.40040000  1.0
  H  H25  1  0.22404000  0.28992000  0.03515000  1.0
  H  H26  1  0.92162000  0.34638000  0.01317000  1.0
  H  H27  1  0.11430000  0.50829000  0.12526000  1.0
  H  H28  1  0.40574000  0.44336000  0.14503000  1.0
  H  H29  1  0.45221000  0.62814000  0.06365000  1.0
  H  H30  1  0.43881000  0.70546000  0.14963000  1.0
  H  H31  1  0.60590000  0.78699000  0.21558000  1.0
  H  H32  1  0.11441000  0.71179000  0.16502000  1.0
  H  H33  1  0.97008000  0.62428000  0.09959000  1.0
  H  H34  1  0.77588000  0.21006000  0.53512000  1.0
  H  H35  1  0.07831000  0.15360000  0.51312000  1.0
  H  H36  1  0.88574000  0.99172000  0.62525000  1.0
  H  H37  1  0.59428000  0.05665000  0.64505000  1.0
  H  H38  1  0.54779000  0.87186000  0.56364000  1.0
  H  H39  1  0.56118000  0.79455000  0.64964000  1.0
  H  H40  1  0.39407000  0.71303000  0.71558000  1.0
  H  H41  1  0.88557000  0.78822000  0.66500000  1.0
  H  H42  1  0.02991000  0.87573000  0.59957000  1.0
  H  H43  1  0.22417000  0.21007000  0.96487000  1.0
  H  H44  1  0.92173000  0.15363000  0.98686000  1.0
  H  H45  1  0.11424000  0.99173000  0.87475000  1.0
  H  H46  1  0.40572000  0.05663000  0.85495000  1.0
  H  H47  1  0.45220000  0.87187000  0.93635000  1.0
  H  H48  1  0.43883000  0.79455000  0.85037000  1.0
  H  H49  1  0.60594000  0.71302000  0.78443000  1.0
  H  H50  1  0.11443000  0.78821000  0.83501000  1.0
  H  H51  1  0.97010000  0.87573000  0.90043000  1.0
  H  H52  1  0.22410000  0.71007000  0.53512000  1.0
  H  H53  1  0.92168000  0.65362000  0.51313000  1.0
  H  H54  1  0.11424000  0.49172000  0.62525000  1.0
  H  H55  1  0.40569000  0.55665000  0.64504000  1.0
  H  H56  1  0.45220000  0.37186000  0.56365000  1.0
  H  H57  1  0.43881000  0.29455000  0.64963000  1.0
  H  H58  1  0.60590000  0.21302000  0.71557000  1.0
  H  H59  1  0.11441000  0.28820000  0.66500000  1.0
  H  H60  1  0.97009000  0.37572000  0.59958000  1.0
  H  H61  1  0.77587000  0.71007000  0.96488000  1.0
  H  H62  1  0.07830000  0.65363000  0.98687000  1.0
  H  H63  1  0.88574000  0.49173000  0.87475000  1.0
  H  H64  1  0.59427000  0.55665000  0.85496000  1.0
  H  H65  1  0.54780000  0.37187000  0.93634000  1.0
  H  H66  1  0.56118000  0.29454000  0.85037000  1.0
  H  H67  1  0.39408000  0.21301000  0.78443000  1.0
  H  H68  1  0.88557000  0.28820000  0.83501000  1.0
  H  H69  1  0.02991000  0.37573000  0.90042000  1.0
  H  H70  1  0.22409000  0.78992000  0.46483000  1.0
  H  H71  1  0.92164000  0.84636000  0.48681000  1.0
  H  H72  1  0.11426000  0.00828000  0.37474000  1.0
  H  H73  1  0.40572000  0.94337000  0.35495000  1.0
  H  H74  1  0.45221000  0.12814000  0.43635000  1.0
  H  H75  1  0.43883000  0.20546000  0.35037000  1.0
  H  H76  1  0.60593000  0.28698000  0.28443000  1.0
  H  H77  1  0.11443000  0.21178000  0.33499000  1.0
  H  H78  1  0.97011000  0.12427000  0.40042000  1.0
  H  H79  1  0.77589000  0.78993000  0.03517000  1.0
  H  H80  1  0.07833000  0.84636000  0.01318000  1.0
  H  H81  1  0.88574000  0.00829000  0.12526000  1.0
  H  H82  1  0.59428000  0.94338000  0.14505000  1.0
  H  H83  1  0.54779000  0.12814000  0.06365000  1.0
  H  H84  1  0.56118000  0.20546000  0.14964000  1.0
  H  H85  1  0.39409000  0.28698000  0.21558000  1.0
  H  H86  1  0.88558000  0.21179000  0.16502000  1.0
  H  H87  1  0.02990000  0.12428000  0.09959000  1.0
  C  C88  1  0.38399000  0.27041000  0.47800000  1.0
  C  C89  1  0.80734000  0.33837000  0.44606000  1.0
  C  C90  1  0.97228000  0.37021000  0.45886000  1.0
  C  C91  1  0.00116000  0.43316000  0.43429000  1.0
  C  C92  1  0.86512000  0.46022000  0.39574000  1.0
  C  C93  1  0.70427000  0.42482000  0.38487000  1.0
  C  C94  1  0.17241000  0.46934000  0.44943000  1.0
  C  C95  1  0.41182000  0.61196000  0.42039000  1.0
  C  C96  1  0.30929000  0.65697000  0.38067000  1.0
  C  C97  1  0.41100000  0.70418000  0.34726000  1.0
  C  C98  1  0.31883000  0.74964000  0.31040000  1.0
  C  C99  1  0.03538000  0.70752000  0.33859000  1.0
  C  C100  1  0.11542000  0.65921000  0.37531000  1.0
  C  C101  1  0.80882000  0.85450000  0.30155000  1.0
  C  C102  1  0.61617000  0.27041000  0.02200000  1.0
  C  C103  1  0.19272000  0.33838000  0.05394000  1.0
  C  C104  1  0.02776000  0.37021000  0.04114000  1.0
  C  C105  1  0.99883000  0.43315000  0.06571000  1.0
  C  C106  1  0.13487000  0.46022000  0.10425000  1.0
  C  C107  1  0.29576000  0.42483000  0.11512000  1.0
  C  C108  1  0.82756000  0.46932000  0.05058000  1.0
  C  C109  1  0.58818000  0.61196000  0.07960000  1.0
  C  C110  1  0.69071000  0.65696000  0.11932000  1.0
  C  C111  1  0.58900000  0.70417000  0.15274000  1.0
  C  C112  1  0.68117000  0.74964000  0.18961000  1.0
  C  C113  1  0.96462000  0.70752000  0.16142000  1.0
  C  C114  1  0.88458000  0.65920000  0.12469000  1.0
  C  C115  1  0.19115000  0.85450000  0.19846000  1.0
  C  C116  1  0.38398000  0.22958000  0.52200000  1.0
  C  C117  1  0.80725000  0.16162000  0.55392000  1.0
  C  C118  1  0.97219000  0.12979000  0.54111000  1.0
  C  C119  1  0.00112000  0.06684000  0.56568000  1.0
  C  C120  1  0.86512000  0.03978000  0.60425000  1.0
  C  C121  1  0.70426000  0.07517000  0.61513000  1.0
  C  C122  1  0.17235000  0.03066000  0.55053000  1.0
  C  C123  1  0.41180000  0.88804000  0.57959000  1.0
  C  C124  1  0.30929000  0.84304000  0.61931000  1.0
  C  C125  1  0.41100000  0.79584000  0.65273000  1.0
  C  C126  1  0.31883000  0.75038000  0.68960000  1.0
  C  C127  1  0.03538000  0.79249000  0.66140000  1.0
  C  C128  1  0.11541000  0.84080000  0.62467000  1.0
  C  C129  1  0.80889000  0.64552000  0.69845000  1.0
  C  C130  1  0.61619000  0.22959000  0.97798000  1.0
  C  C131  1  0.19279000  0.16162000  0.94607000  1.0
  C  C132  1  0.02782000  0.12980000  0.95888000  1.0
  C  C133  1  0.99886000  0.06686000  0.93431000  1.0
  C  C134  1  0.13486000  0.03979000  0.89575000  1.0
  C  C135  1  0.29575000  0.07516000  0.88487000  1.0
  C  C136  1  0.82762000  0.03068000  0.94946000  1.0
  C  C137  1  0.58820000  0.88805000  0.92040000  1.0
  C  C138  1  0.69072000  0.84304000  0.88069000  1.0
  C  C139  1  0.58901000  0.79583000  0.84727000  1.0
  C  C140  1  0.68118000  0.75037000  0.81041000  1.0
  C  C141  1  0.96463000  0.79248000  0.83860000  1.0
  C  C142  1  0.88460000  0.84080000  0.87533000  1.0
  C  C143  1  0.19117000  0.64551000  0.80156000  1.0
  C  C144  1  0.61625000  0.72960000  0.52200000  1.0
  C  C145  1  0.19275000  0.66162000  0.55392000  1.0
  C  C146  1  0.02779000  0.62979000  0.54111000  1.0
  C  C147  1  0.99883000  0.56685000  0.56568000  1.0
  C  C148  1  0.13484000  0.53979000  0.60424000  1.0
  C  C149  1  0.29572000  0.57518000  0.61512000  1.0
  C  C150  1  0.82760000  0.53067000  0.55054000  1.0
  C  C151  1  0.58819000  0.38805000  0.57959000  1.0
  C  C152  1  0.69072000  0.34304000  0.61931000  1.0
  C  C153  1  0.58900000  0.29583000  0.65273000  1.0
  C  C154  1  0.68117000  0.25037000  0.68960000  1.0
  C  C155  1  0.96463000  0.29248000  0.66140000  1.0
  C  C156  1  0.88459000  0.34079000  0.62467000  1.0
  C  C157  1  0.19113000  0.14550000  0.69845000  1.0
  C  C158  1  0.38369000  0.72959000  0.97801000  1.0
  C  C159  1  0.80723000  0.66163000  0.94608000  1.0
  C  C160  1  0.97219000  0.62980000  0.95888000  1.0
  C  C161  1  0.00114000  0.56685000  0.93431000  1.0
  C  C162  1  0.86512000  0.53979000  0.89575000  1.0
  C  C163  1  0.70425000  0.57518000  0.88488000  1.0
  C  C164  1  0.17238000  0.53067000  0.94945000  1.0
  C  C165  1  0.41180000  0.38805000  0.92040000  1.0
  C  C166  1  0.30928000  0.34304000  0.88068000  1.0
  C  C167  1  0.41099000  0.29583000  0.84727000  1.0
  C  C168  1  0.31881000  0.25036000  0.81040000  1.0
  C  C169  1  0.03537000  0.29248000  0.83860000  1.0
  C  C170  1  0.11540000  0.34080000  0.87532000  1.0
  C  C171  1  0.80886000  0.14549000  0.80154000  1.0
  C  C172  1  0.61626000  0.77041000  0.47799000  1.0
  C  C173  1  0.19273000  0.83837000  0.44604000  1.0
  C  C174  1  0.02776000  0.87019000  0.45884000  1.0
  C  C175  1  0.99881000  0.93313000  0.43428000  1.0
  C  C176  1  0.13484000  0.96021000  0.39574000  1.0
  C  C177  1  0.29574000  0.92483000  0.38486000  1.0
  C  C178  1  0.82754000  0.96931000  0.44941000  1.0
  C  C179  1  0.58819000  0.11195000  0.42040000  1.0
  C  C180  1  0.69071000  0.15696000  0.38068000  1.0
  C  C181  1  0.58901000  0.20417000  0.34727000  1.0
  C  C182  1  0.68117000  0.24963000  0.31040000  1.0
  C  C183  1  0.96462000  0.20751000  0.33859000  1.0
  C  C184  1  0.88459000  0.15920000  0.37532000  1.0
  C  C185  1  0.19119000  0.35451000  0.30155000  1.0
  C  C186  1  0.38370000  0.77040000  0.02204000  1.0
  C  C187  1  0.80725000  0.83837000  0.05396000  1.0
  C  C188  1  0.97222000  0.87020000  0.04115000  1.0
  C  C189  1  0.00118000  0.93314000  0.06572000  1.0
  C  C190  1  0.86514000  0.96022000  0.10426000  1.0
  C  C191  1  0.70425000  0.92484000  0.11514000  1.0
  C  C192  1  0.17243000  0.96931000  0.05058000  1.0
  C  C193  1  0.41181000  0.11195000  0.07961000  1.0
  C  C194  1  0.30929000  0.15696000  0.11932000  1.0
  C  C195  1  0.41100000  0.20417000  0.15274000  1.0
  C  C196  1  0.31884000  0.24963000  0.18960000  1.0
  C  C197  1  0.03538000  0.20752000  0.16142000  1.0
  C  C198  1  0.11541000  0.15920000  0.12468000  1.0
  C  C199  1  0.80883000  0.35451000  0.19845000  1.0
  N  N200  1  0.67384000  0.36535000  0.41056000  1.0
  N  N201  1  0.19688000  0.52757000  0.42256000  1.0
  N  N202  1  0.36108000  0.55416000  0.44048000  1.0
  N  N203  1  0.13364000  0.75203000  0.30601000  1.0
  N  N204  1  0.69553000  0.86118000  0.34048000  1.0
  N  N205  1  0.32623000  0.36536000  0.08943000  1.0
  N  N206  1  0.80312000  0.52757000  0.07744000  1.0
  N  N207  1  0.63891000  0.55416000  0.05951000  1.0
  N  N208  1  0.86635000  0.75202000  0.19400000  1.0
  N  N209  1  0.30447000  0.86118000  0.15953000  1.0
  N  N210  1  0.67378000  0.13464000  0.58942000  1.0
  N  N211  1  0.19686000  0.97243000  0.57742000  1.0
  N  N212  1  0.36105000  0.94583000  0.55949000  1.0
  N  N213  1  0.13364000  0.74799000  0.69399000  1.0
  N  N214  1  0.69560000  0.63886000  0.65950000  1.0
  N  N215  1  0.32625000  0.13463000  0.91058000  1.0
  N  N216  1  0.80316000  0.97243000  0.92259000  1.0
  N  N217  1  0.63895000  0.94584000  0.94051000  1.0
  N  N218  1  0.86637000  0.74798000  0.80602000  1.0
  N  N219  1  0.30442000  0.63884000  0.84050000  1.0
  N  N220  1  0.32622000  0.63464000  0.58942000  1.0
  N  N221  1  0.80314000  0.47243000  0.57742000  1.0
  N  N222  1  0.63893000  0.44584000  0.55949000  1.0
  N  N223  1  0.86636000  0.24798000  0.69399000  1.0
  N  N224  1  0.30443000  0.13884000  0.65950000  1.0
  N  N225  1  0.67375000  0.63464000  0.91058000  1.0
  N  N226  1  0.19684000  0.47244000  0.92258000  1.0
  N  N227  1  0.36105000  0.44584000  0.94050000  1.0
  N  N228  1  0.13362000  0.24797000  0.80602000  1.0
  N  N229  1  0.69559000  0.13881000  0.84049000  1.0
  N  N230  1  0.32622000  0.86536000  0.41055000  1.0
  N  N231  1  0.80310000  0.02755000  0.42256000  1.0
  N  N232  1  0.63890000  0.05415000  0.44048000  1.0
  N  N233  1  0.86636000  0.25202000  0.30600000  1.0
  N  N234  1  0.30448000  0.36117000  0.34048000  1.0
  N  N235  1  0.67377000  0.86537000  0.08945000  1.0
  N  N236  1  0.19689000  0.02756000  0.07744000  1.0
  N  N237  1  0.36109000  0.05416000  0.05951000  1.0
  N  N238  1  0.13366000  0.25202000  0.19400000  1.0
  N  N239  1  0.69554000  0.36116000  0.15952000  1.0
  O  O240  1  0.28693000  0.44253000  0.48827000  1.0
  O  O241  1  0.71299000  0.44250000  0.01176000  1.0
  O  O242  1  0.28682000  0.05745000  0.51166000  1.0
  O  O243  1  0.71310000  0.05748000  0.98830000  1.0
  O  O244  1  0.71309000  0.55747000  0.51169000  1.0
  O  O245  1  0.28692000  0.55748000  0.98829000  1.0
  O  O246  1  0.71296000  0.94249000  0.48823000  1.0
  O  O247  1  0.28700000  0.94250000  0.01176000  1.0
