# generated using pymatgen
data_Cu3H49C47(N2O5)2
_symmetry_space_group_name_H-M   'P 1'
_cell_length_a   12.79440000
_cell_length_b   16.34130000
_cell_length_c   30.05360000
_cell_angle_alpha   90.00340000
_cell_angle_beta   90.00230000
_cell_angle_gamma   71.91800000
_symmetry_Int_Tables_number   1
_chemical_formula_structural   Cu3H49C47(N2O5)2
_chemical_formula_sum   'Cu12 H196 C188 N16 O40'
_cell_volume   5973.19796269
_cell_formula_units_Z   4
loop_
 _symmetry_equiv_pos_site_id
 _symmetry_equiv_pos_as_xyz
  1  'x, y, z'
loop_
 _atom_site_type_symbol
 _atom_site_label
 _atom_site_symmetry_multiplicity
 _atom_site_fract_x
 _atom_site_fract_y
 _atom_site_fract_z
 _atom_site_occupancy
  Cu  Cu0  1  0.51727000  0.26462000  0.34499000  1.0
  Cu  Cu1  1  0.48274000  0.23535000  0.84499000  1.0
  Cu  Cu2  1  0.48272000  0.73538000  0.65502000  1.0
  Cu  Cu3  1  0.51727000  0.76466000  0.15500000  1.0
  Cu  Cu4  1  0.39076000  0.64062000  0.11525000  1.0
  Cu  Cu5  1  0.60927000  0.85939000  0.61525000  1.0
  Cu  Cu6  1  0.60924000  0.35940000  0.88475000  1.0
  Cu  Cu7  1  0.39073000  0.14061000  0.38476000  1.0
  Cu  Cu8  1  0.43838000  0.28594000  0.94048000  1.0
  Cu  Cu9  1  0.56163000  0.21404000  0.44049000  1.0
  Cu  Cu10  1  0.56164000  0.71406000  0.05952000  1.0
  Cu  Cu11  1  0.43839000  0.78596000  0.55951000  1.0
  H  H12  1  0.62576000  0.39390000  0.31514000  1.0
  H  H13  1  0.37422000  0.10607000  0.81514000  1.0
  H  H14  1  0.37424000  0.60609000  0.68487000  1.0
  H  H15  1  0.62579000  0.89393000  0.18486000  1.0
  H  H16  1  0.72342000  0.41541000  0.24581000  1.0
  H  H17  1  0.27655000  0.08458000  0.74580000  1.0
  H  H18  1  0.27657000  0.58460000  0.75420000  1.0
  H  H19  1  0.72346000  0.91542000  0.25421000  1.0
  H  H20  1  0.70752000  0.16910000  0.20056000  1.0
  H  H21  1  0.29246000  0.33091000  0.70054000  1.0
  H  H22  1  0.29248000  0.83090000  0.79945000  1.0
  H  H23  1  0.70751000  0.66909000  0.29945000  1.0
  H  H24  1  0.60706000  0.15926000  0.27124000  1.0
  H  H25  1  0.39293000  0.34073000  0.77124000  1.0
  H  H26  1  0.39294000  0.84073000  0.72877000  1.0
  H  H27  1  0.60707000  0.65927000  0.22876000  1.0
  H  H28  1  0.04354000  0.25817000  0.20390000  1.0
  H  H29  1  0.95646000  0.24183000  0.70389000  1.0
  H  H30  1  0.95646000  0.74182000  0.79610000  1.0
  H  H31  1  0.04354000  0.75817000  0.29611000  1.0
  H  H32  1  0.94178000  0.22600000  0.23315000  1.0
  H  H33  1  0.05823000  0.27400000  0.73315000  1.0
  H  H34  1  0.05822000  0.77400000  0.76685000  1.0
  H  H35  1  0.94177000  0.72600000  0.26686000  1.0
  H  H36  1  0.93525000  0.33525000  0.23191000  1.0
  H  H37  1  0.06475000  0.16475000  0.73191000  1.0
  H  H38  1  0.06475000  0.66475000  0.76809000  1.0
  H  H39  1  0.93525000  0.83525000  0.26809000  1.0
  H  H40  1  0.85872000  0.30981000  0.01757000  1.0
  H  H41  1  0.14128000  0.19018000  0.51757000  1.0
  H  H42  1  0.14128000  0.69018000  0.98242000  1.0
  H  H43  1  0.85872000  0.80982000  0.48243000  1.0
  H  H44  1  0.97433000  0.22492000  0.03657000  1.0
  H  H45  1  0.02567000  0.27507000  0.53657000  1.0
  H  H46  1  0.02567000  0.77507000  0.96343000  1.0
  H  H47  1  0.97433000  0.72493000  0.46343000  1.0
  H  H48  1  0.97310000  0.33228000  0.04216000  1.0
  H  H49  1  0.02690000  0.16772000  0.54216000  1.0
  H  H50  1  0.02690000  0.66771000  0.95783000  1.0
  H  H51  1  0.97309000  0.83228000  0.45785000  1.0
  H  H52  1  0.55557000  0.31988000  0.17109000  1.0
  H  H53  1  0.44443000  0.18011000  0.67109000  1.0
  H  H54  1  0.44443000  0.68012000  0.82891000  1.0
  H  H55  1  0.55557000  0.81989000  0.32891000  1.0
  H  H56  1  0.54623000  0.31211000  0.11241000  1.0
  H  H57  1  0.45377000  0.18789000  0.61242000  1.0
  H  H58  1  0.45377000  0.68788000  0.88759000  1.0
  H  H59  1  0.54623000  0.81211000  0.38759000  1.0
  H  H60  1  0.54765000  0.40953000  0.13720000  1.0
  H  H61  1  0.45235000  0.09047000  0.63721000  1.0
  H  H62  1  0.45234000  0.59047000  0.86280000  1.0
  H  H63  1  0.54765000  0.90953000  0.36280000  1.0
  H  H64  1  0.49146000  0.42529000  0.98245000  1.0
  H  H65  1  0.50853000  0.07468000  0.48246000  1.0
  H  H66  1  0.50855000  0.57470000  0.01754000  1.0
  H  H67  1  0.49149000  0.92531000  0.51755000  1.0
  H  H68  1  0.60423000  0.16038000  0.99121000  1.0
  H  H69  1  0.39577000  0.33961000  0.49121000  1.0
  H  H70  1  0.39578000  0.83962000  0.00879000  1.0
  H  H71  1  0.60424000  0.66038000  0.50879000  1.0
  H  H72  1  0.73685000  0.16462000  0.05206000  1.0
  H  H73  1  0.26314000  0.33538000  0.55206000  1.0
  H  H74  1  0.26315000  0.83538000  0.94794000  1.0
  H  H75  1  0.73685000  0.66462000  0.44794000  1.0
  H  H76  1  0.61690000  0.44198000  0.04506000  1.0
  H  H77  1  0.38308000  0.05801000  0.54507000  1.0
  H  H78  1  0.38310000  0.55801000  0.95493000  1.0
  H  H79  1  0.61693000  0.94198000  0.45494000  1.0
  H  H80  1  0.45201000  0.15212000  0.11584000  1.0
  H  H81  1  0.54800000  0.34789000  0.61584000  1.0
  H  H82  1  0.54799000  0.84788000  0.88416000  1.0
  H  H83  1  0.45200000  0.65211000  0.38416000  1.0
  H  H84  1  0.43322000  0.25112000  0.14389000  1.0
  H  H85  1  0.56678000  0.24889000  0.64388000  1.0
  H  H86  1  0.56678000  0.74888000  0.85612000  1.0
  H  H87  1  0.43322000  0.75111000  0.35612000  1.0
  H  H88  1  0.42872000  0.24853000  0.08509000  1.0
  H  H89  1  0.57128000  0.25148000  0.58509000  1.0
  H  H90  1  0.57128000  0.75147000  0.91491000  1.0
  H  H91  1  0.42871000  0.74851000  0.41491000  1.0
  H  H92  1  0.13135000  0.05138000  0.11489000  1.0
  H  H93  1  0.86865000  0.44862000  0.61489000  1.0
  H  H94  1  0.86865000  0.94862000  0.88512000  1.0
  H  H95  1  0.13134000  0.55138000  0.38511000  1.0
  H  H96  1  0.99763000  0.12754000  0.10894000  1.0
  H  H97  1  0.00238000  0.37246000  0.60894000  1.0
  H  H98  1  0.00237000  0.87246000  0.89106000  1.0
  H  H99  1  0.99762000  0.62754000  0.39106000  1.0
  H  H100  1  0.05621000  0.10099000  0.16215000  1.0
  H  H101  1  0.94380000  0.39902000  0.66215000  1.0
  H  H102  1  0.94379000  0.89901000  0.83785000  1.0
  H  H103  1  0.05620000  0.60099000  0.33785000  1.0
  H  H104  1  0.06420000  0.47826000  0.11495000  1.0
  H  H105  1  0.93579000  0.02173000  0.61495000  1.0
  H  H106  1  0.93579000  0.52173000  0.88505000  1.0
  H  H107  1  0.06420000  0.97826000  0.38505000  1.0
  H  H108  1  0.97944000  0.44549000  0.15326000  1.0
  H  H109  1  0.02057000  0.05450000  0.65326000  1.0
  H  H110  1  0.02056000  0.55451000  0.84674000  1.0
  H  H111  1  0.97943000  0.94549000  0.34674000  1.0
  H  H112  1  0.95602000  0.44076000  0.09580000  1.0
  H  H113  1  0.04397000  0.05924000  0.59579000  1.0
  H  H114  1  0.04398000  0.55923000  0.90420000  1.0
  H  H115  1  0.95603000  0.94076000  0.40421000  1.0
  H  H116  1  0.33058000  0.53365000  0.04550000  1.0
  H  H117  1  0.66944000  0.96635000  0.54550000  1.0
  H  H118  1  0.66941000  0.46635000  0.95449000  1.0
  H  H119  1  0.33056000  0.03364000  0.45451000  1.0
  H  H120  1  0.26721000  0.40346000  0.04283000  1.0
  H  H121  1  0.73281000  0.09655000  0.54282000  1.0
  H  H122  1  0.73279000  0.59654000  0.95717000  1.0
  H  H123  1  0.26719000  0.90344000  0.45718000  1.0
  H  H124  1  0.26672000  0.40645000  0.18669000  1.0
  H  H125  1  0.73328000  0.09357000  0.68670000  1.0
  H  H126  1  0.73329000  0.59355000  0.81330000  1.0
  H  H127  1  0.26671000  0.90643000  0.31330000  1.0
  H  H128  1  0.33950000  0.53270000  0.18293000  1.0
  H  H129  1  0.66050000  0.96732000  0.68293000  1.0
  H  H130  1  0.66050000  0.46730000  0.81707000  1.0
  H  H131  1  0.33950000  0.03268000  0.31707000  1.0
  H  H132  1  0.49876000  0.91051000  0.07424000  1.0
  H  H133  1  0.50124000  0.58950000  0.57424000  1.0
  H  H134  1  0.50124000  0.08949000  0.92576000  1.0
  H  H135  1  0.49876000  0.41049000  0.42576000  1.0
  H  H136  1  0.38006000  0.06069000  0.05931000  1.0
  H  H137  1  0.61994000  0.43933000  0.55931000  1.0
  H  H138  1  0.61994000  0.93931000  0.94069000  1.0
  H  H139  1  0.38006000  0.56067000  0.44069000  1.0
  H  H140  1  0.26663000  0.07110000  0.19550000  1.0
  H  H141  1  0.73337000  0.42891000  0.69550000  1.0
  H  H142  1  0.73337000  0.92889000  0.80451000  1.0
  H  H143  1  0.26663000  0.57108000  0.30450000  1.0
  H  H144  1  0.38966000  0.91978000  0.20449000  1.0
  H  H145  1  0.61034000  0.58023000  0.70450000  1.0
  H  H146  1  0.61034000  0.08021000  0.79551000  1.0
  H  H147  1  0.38965000  0.41976000  0.29550000  1.0
  H  H148  1  0.15789000  0.27569000  0.02545000  1.0
  H  H149  1  0.84216000  0.22431000  0.52545000  1.0
  H  H150  1  0.84213000  0.72431000  0.97455000  1.0
  H  H151  1  0.15785000  0.77570000  0.47455000  1.0
  H  H152  1  0.21244000  0.16134000  0.03259000  1.0
  H  H153  1  0.78755000  0.33866000  0.53259000  1.0
  H  H154  1  0.78756000  0.83866000  0.96741000  1.0
  H  H155  1  0.21245000  0.66134000  0.46741000  1.0
  H  H156  1  0.15712000  0.20551000  0.98047000  1.0
  H  H157  1  0.84287000  0.29450000  0.48047000  1.0
  H  H158  1  0.84289000  0.79450000  0.01953000  1.0
  H  H159  1  0.15714000  0.70550000  0.51953000  1.0
  H  H160  1  0.05917000  0.87431000  0.06704000  1.0
  H  H161  1  0.94079000  0.62569000  0.56706000  1.0
  H  H162  1  0.94080000  0.12569000  0.93295000  1.0
  H  H163  1  0.05917000  0.37431000  0.43295000  1.0
  H  H164  1  0.09104000  0.77096000  0.04030000  1.0
  H  H165  1  0.90895000  0.72905000  0.54029000  1.0
  H  H166  1  0.90894000  0.22905000  0.95970000  1.0
  H  H167  1  0.09105000  0.27095000  0.45970000  1.0
  H  H168  1  0.02498000  0.78835000  0.09306000  1.0
  H  H169  1  0.97501000  0.71164000  0.59307000  1.0
  H  H170  1  0.97502000  0.21165000  0.90694000  1.0
  H  H171  1  0.02499000  0.28835000  0.40693000  1.0
  H  H172  1  0.29826000  0.29275000  0.22763000  1.0
  H  H173  1  0.70178000  0.20722000  0.72761000  1.0
  H  H174  1  0.70175000  0.70724000  0.77237000  1.0
  H  H175  1  0.29824000  0.79279000  0.27239000  1.0
  H  H176  1  0.18512000  0.30924000  0.26497000  1.0
  H  H177  1  0.81490000  0.19074000  0.76498000  1.0
  H  H178  1  0.81488000  0.69075000  0.73503000  1.0
  H  H179  1  0.18511000  0.80927000  0.23502000  1.0
  H  H180  1  0.23832000  0.20856000  0.23724000  1.0
  H  H181  1  0.76166000  0.29144000  0.73726000  1.0
  H  H182  1  0.76168000  0.79143000  0.76276000  1.0
  H  H183  1  0.23835000  0.70857000  0.26274000  1.0
  H  H184  1  0.77473000  0.25069000  0.35719000  1.0
  H  H185  1  0.22528000  0.24932000  0.85718000  1.0
  H  H186  1  0.22526000  0.74930000  0.64281000  1.0
  H  H187  1  0.77471000  0.75067000  0.14282000  1.0
  H  H188  1  0.79080000  0.22786000  0.41511000  1.0
  H  H189  1  0.20918000  0.27213000  0.91511000  1.0
  H  H190  1  0.20919000  0.77213000  0.58489000  1.0
  H  H191  1  0.79082000  0.72786000  0.08489000  1.0
  H  H192  1  0.70976000  0.33290000  0.39689000  1.0
  H  H193  1  0.29023000  0.16707000  0.89690000  1.0
  H  H194  1  0.29024000  0.66710000  0.60311000  1.0
  H  H195  1  0.70976000  0.83294000  0.10310000  1.0
  H  H196  1  0.71010000  0.50679000  0.17961000  1.0
  H  H197  1  0.28988000  0.99321000  0.67962000  1.0
  H  H198  1  0.28991000  0.49321000  0.82039000  1.0
  H  H199  1  0.71012000  0.00679000  0.32038000  1.0
  H  H200  1  0.78293000  0.46648000  0.12908000  1.0
  H  H201  1  0.21708000  0.03352000  0.62908000  1.0
  H  H202  1  0.21709000  0.53352000  0.87092000  1.0
  H  H203  1  0.78293000  0.96649000  0.37092000  1.0
  H  H204  1  0.75653000  0.57647000  0.14419000  1.0
  H  H205  1  0.24352000  0.92351000  0.64418000  1.0
  H  H206  1  0.24351000  0.42353000  0.85582000  1.0
  H  H207  1  0.75650000  0.07649000  0.35582000  1.0
  C  C208  1  0.64657000  0.34572000  0.28879000  1.0
  C  C209  1  0.35341000  0.15427000  0.78879000  1.0
  C  C210  1  0.35343000  0.65427000  0.71122000  1.0
  C  C211  1  0.64659000  0.84573000  0.21121000  1.0
  C  C212  1  0.70097000  0.35684000  0.25029000  1.0
  C  C213  1  0.29902000  0.14314000  0.75029000  1.0
  C  C214  1  0.29903000  0.64315000  0.74971000  1.0
  C  C215  1  0.70099000  0.85686000  0.24971000  1.0
  C  C216  1  0.72283000  0.29378000  0.21712000  1.0
  C  C217  1  0.27717000  0.20622000  0.71713000  1.0
  C  C218  1  0.27716000  0.70622000  0.78288000  1.0
  C  C219  1  0.72283000  0.79378000  0.28287000  1.0
  C  C220  1  0.69131000  0.22015000  0.22536000  1.0
  C  C221  1  0.30868000  0.27985000  0.72536000  1.0
  C  C222  1  0.30868000  0.77984000  0.77464000  1.0
  C  C223  1  0.69131000  0.72015000  0.27464000  1.0
  C  C224  1  0.63635000  0.21392000  0.26429000  1.0
  C  C225  1  0.36363000  0.28608000  0.76430000  1.0
  C  C226  1  0.36364000  0.78608000  0.73571000  1.0
  C  C227  1  0.63637000  0.71392000  0.23570000  1.0
  C  C228  1  0.95578000  0.27616000  0.21175000  1.0
  C  C229  1  0.04422000  0.22384000  0.71174000  1.0
  C  C230  1  0.04422000  0.72384000  0.78825000  1.0
  C  C231  1  0.95578000  0.77616000  0.28826000  1.0
  C  C232  1  0.77298000  0.30151000  0.17345000  1.0
  C  C233  1  0.22702000  0.19848000  0.67346000  1.0
  C  C234  1  0.22702000  0.69849000  0.82655000  1.0
  C  C235  1  0.77297000  0.80151000  0.32655000  1.0
  C  C236  1  0.88662000  0.28905000  0.17018000  1.0
  C  C237  1  0.11338000  0.21094000  0.67018000  1.0
  C  C238  1  0.11338000  0.71095000  0.82982000  1.0
  C  C239  1  0.88661000  0.78906000  0.32982000  1.0
  C  C240  1  0.93357000  0.28747000  0.12774000  1.0
  C  C241  1  0.06643000  0.21253000  0.62773000  1.0
  C  C242  1  0.06643000  0.71252000  0.87226000  1.0
  C  C243  1  0.93357000  0.78747000  0.37227000  1.0
  C  C244  1  0.86855000  0.29529000  0.08908000  1.0
  C  C245  1  0.13145000  0.20471000  0.58907000  1.0
  C  C246  1  0.13145000  0.70471000  0.91092000  1.0
  C  C247  1  0.86855000  0.79529000  0.41093000  1.0
  C  C248  1  0.75568000  0.30671000  0.09327000  1.0
  C  C249  1  0.24432000  0.19328000  0.59326000  1.0
  C  C250  1  0.24432000  0.69329000  0.90673000  1.0
  C  C251  1  0.75568000  0.80671000  0.40674000  1.0
  C  C252  1  0.70577000  0.31384000  0.13546000  1.0
  C  C253  1  0.29422000  0.18616000  0.63546000  1.0
  C  C254  1  0.29423000  0.68616000  0.86454000  1.0
  C  C255  1  0.70577000  0.81384000  0.36454000  1.0
  C  C256  1  0.92063000  0.29048000  0.04393000  1.0
  C  C257  1  0.07936000  0.20952000  0.54393000  1.0
  C  C258  1  0.07937000  0.70952000  0.95607000  1.0
  C  C259  1  0.92063000  0.79048000  0.45607000  1.0
  C  C260  1  0.58272000  0.33904000  0.13933000  1.0
  C  C261  1  0.41727000  0.16096000  0.63933000  1.0
  C  C262  1  0.41728000  0.66096000  0.86067000  1.0
  C  C263  1  0.58272000  0.83903000  0.36068000  1.0
  C  C264  1  0.54742000  0.37025000  0.99960000  1.0
  C  C265  1  0.45257000  0.12974000  0.49961000  1.0
  C  C266  1  0.45259000  0.62974000  0.00039000  1.0
  C  C267  1  0.54743000  0.87026000  0.50040000  1.0
  C  C268  1  0.61150000  0.22094000  0.00371000  1.0
  C  C269  1  0.38850000  0.27905000  0.50370000  1.0
  C  C270  1  0.38851000  0.77905000  0.99629000  1.0
  C  C271  1  0.61150000  0.72095000  0.49630000  1.0
  C  C272  1  0.68414000  0.22428000  0.03753000  1.0
  C  C273  1  0.31586000  0.27572000  0.53753000  1.0
  C  C274  1  0.31586000  0.77572000  0.96247000  1.0
  C  C275  1  0.68414000  0.72427000  0.46247000  1.0
  C  C276  1  0.68670000  0.30417000  0.05364000  1.0
  C  C277  1  0.31329000  0.19583000  0.55363000  1.0
  C  C278  1  0.31330000  0.69583000  0.94636000  1.0
  C  C279  1  0.68671000  0.80416000  0.44637000  1.0
  C  C280  1  0.61744000  0.37846000  0.03349000  1.0
  C  C281  1  0.38256000  0.12153000  0.53348000  1.0
  C  C282  1  0.38256000  0.62154000  0.96651000  1.0
  C  C283  1  0.61745000  0.87846000  0.46652000  1.0
  C  C284  1  0.21250000  0.32203000  0.11679000  1.0
  C  C285  1  0.78750000  0.17798000  0.61680000  1.0
  C  C286  1  0.78750000  0.67797000  0.88321000  1.0
  C  C287  1  0.21250000  0.82202000  0.38321000  1.0
  C  C288  1  0.28375000  0.23675000  0.11751000  1.0
  C  C289  1  0.71625000  0.26326000  0.61752000  1.0
  C  C290  1  0.71624000  0.76325000  0.88249000  1.0
  C  C291  1  0.28375000  0.73674000  0.38248000  1.0
  C  C292  1  0.23899000  0.16867000  0.12169000  1.0
  C  C293  1  0.76101000  0.33133000  0.62169000  1.0
  C  C294  1  0.76101000  0.83132000  0.87831000  1.0
  C  C295  1  0.23898000  0.66867000  0.37831000  1.0
  C  C296  1  0.12423000  0.18500000  0.12401000  1.0
  C  C297  1  0.87577000  0.31501000  0.62401000  1.0
  C  C298  1  0.87577000  0.81500000  0.87599000  1.0
  C  C299  1  0.12423000  0.68499000  0.37599000  1.0
  C  C300  1  0.05468000  0.27066000  0.12331000  1.0
  C  C301  1  0.94532000  0.22935000  0.62331000  1.0
  C  C302  1  0.94532000  0.72934000  0.87669000  1.0
  C  C303  1  0.05468000  0.77065000  0.37669000  1.0
  C  C304  1  0.09797000  0.33985000  0.11998000  1.0
  C  C305  1  0.90203000  0.16015000  0.61998000  1.0
  C  C306  1  0.90203000  0.66015000  0.88002000  1.0
  C  C307  1  0.09797000  0.83984000  0.38002000  1.0
  C  C308  1  0.40584000  0.22074000  0.11548000  1.0
  C  C309  1  0.59416000  0.27927000  0.61548000  1.0
  C  C310  1  0.59416000  0.77926000  0.88452000  1.0
  C  C311  1  0.40584000  0.72073000  0.38452000  1.0
  C  C312  1  0.07539000  0.11224000  0.12737000  1.0
  C  C313  1  0.92461000  0.38776000  0.62737000  1.0
  C  C314  1  0.92461000  0.88775000  0.87263000  1.0
  C  C315  1  0.07538000  0.61224000  0.37263000  1.0
  C  C316  1  0.02127000  0.43084000  0.12088000  1.0
  C  C317  1  0.97873000  0.06916000  0.62088000  1.0
  C  C318  1  0.97873000  0.56916000  0.87911000  1.0
  C  C319  1  0.02127000  0.93084000  0.37912000  1.0
  C  C320  1  0.31775000  0.50196000  0.07600000  1.0
  C  C321  1  0.68224000  0.99805000  0.57600000  1.0
  C  C322  1  0.68224000  0.49804000  0.92400000  1.0
  C  C323  1  0.31775000  0.00195000  0.42400000  1.0
  C  C324  1  0.28050000  0.43042000  0.07481000  1.0
  C  C325  1  0.71951000  0.06958000  0.57481000  1.0
  C  C326  1  0.71949000  0.56958000  0.92519000  1.0
  C  C327  1  0.28049000  0.93041000  0.42519000  1.0
  C  C328  1  0.25959000  0.39478000  0.11502000  1.0
  C  C329  1  0.74041000  0.10522000  0.61502000  1.0
  C  C330  1  0.74041000  0.60522000  0.88498000  1.0
  C  C331  1  0.25959000  0.89477000  0.38498000  1.0
  C  C332  1  0.28197000  0.43157000  0.15457000  1.0
  C  C333  1  0.71803000  0.06844000  0.65458000  1.0
  C  C334  1  0.71803000  0.56843000  0.84542000  1.0
  C  C335  1  0.28196000  0.93156000  0.34542000  1.0
  C  C336  1  0.32195000  0.50144000  0.15309000  1.0
  C  C337  1  0.67804000  0.99857000  0.65309000  1.0
  C  C338  1  0.67805000  0.49856000  0.84690000  1.0
  C  C339  1  0.32196000  0.00143000  0.34691000  1.0
  C  C340  1  0.44605000  0.94820000  0.10048000  1.0
  C  C341  1  0.55396000  0.55181000  0.60048000  1.0
  C  C342  1  0.55395000  0.05180000  0.89952000  1.0
  C  C343  1  0.44604000  0.44819000  0.39952000  1.0
  C  C344  1  0.37903000  0.03218000  0.09216000  1.0
  C  C345  1  0.62098000  0.46782000  0.59216000  1.0
  C  C346  1  0.62097000  0.96782000  0.90784000  1.0
  C  C347  1  0.37902000  0.53217000  0.40784000  1.0
  C  C348  1  0.31258000  0.07873000  0.12656000  1.0
  C  C349  1  0.68743000  0.42128000  0.62657000  1.0
  C  C350  1  0.68742000  0.92127000  0.87344000  1.0
  C  C351  1  0.31257000  0.57872000  0.37343000  1.0
  C  C352  1  0.31694000  0.03772000  0.16775000  1.0
  C  C353  1  0.68306000  0.46230000  0.66776000  1.0
  C  C354  1  0.68306000  0.96228000  0.83225000  1.0
  C  C355  1  0.31694000  0.53770000  0.33224000  1.0
  C  C356  1  0.38601000  0.95407000  0.17310000  1.0
  C  C357  1  0.61400000  0.54594000  0.67310000  1.0
  C  C358  1  0.61399000  0.04593000  0.82690000  1.0
  C  C359  1  0.38599000  0.45405000  0.32690000  1.0
  C  C360  1  0.20421000  0.21488000  0.00965000  1.0
  C  C361  1  0.79581000  0.28511000  0.50966000  1.0
  C  C362  1  0.79579000  0.78512000  0.99034000  1.0
  C  C363  1  0.20420000  0.71489000  0.49034000  1.0
  C  C364  1  0.31542000  0.21689000  0.99324000  1.0
  C  C365  1  0.68460000  0.28309000  0.49324000  1.0
  C  C366  1  0.68460000  0.78310000  0.00676000  1.0
  C  C367  1  0.31541000  0.71690000  0.50676000  1.0
  C  C368  1  0.08635000  0.80440000  0.07210000  1.0
  C  C369  1  0.91363000  0.69562000  0.57209000  1.0
  C  C370  1  0.91364000  0.19561000  0.92790000  1.0
  C  C371  1  0.08635000  0.30439000  0.42791000  1.0
  C  C372  1  0.19588000  0.77764000  0.09722000  1.0
  C  C373  1  0.80410000  0.72238000  0.59722000  1.0
  C  C374  1  0.80412000  0.22239000  0.90277000  1.0
  C  C375  1  0.19589000  0.27764000  0.40278000  1.0
  C  C376  1  0.26056000  0.26177000  0.25250000  1.0
  C  C377  1  0.73945000  0.23820000  0.75250000  1.0
  C  C378  1  0.73944000  0.73823000  0.74750000  1.0
  C  C379  1  0.26056000  0.76180000  0.24750000  1.0
  C  C380  1  0.33640000  0.22994000  0.29215000  1.0
  C  C381  1  0.66359000  0.27003000  0.79215000  1.0
  C  C382  1  0.66360000  0.77005000  0.70785000  1.0
  C  C383  1  0.33641000  0.72998000  0.20784000  1.0
  C  C384  1  0.73233000  0.26325000  0.38961000  1.0
  C  C385  1  0.26766000  0.23673000  0.88961000  1.0
  C  C386  1  0.26767000  0.73675000  0.61039000  1.0
  C  C387  1  0.73235000  0.76328000  0.11039000  1.0
  C  C388  1  0.72350000  0.52184000  0.14496000  1.0
  C  C389  1  0.27650000  0.97816000  0.64497000  1.0
  C  C390  1  0.27651000  0.47817000  0.85503000  1.0
  C  C391  1  0.72351000  0.02184000  0.35503000  1.0
  C  C392  1  0.61699000  0.54916000  0.11887000  1.0
  C  C393  1  0.38302000  0.95088000  0.61889000  1.0
  C  C394  1  0.38302000  0.45087000  0.88112000  1.0
  C  C395  1  0.61699000  0.04914000  0.38112000  1.0
  N  N396  1  0.61362000  0.27622000  0.29542000  1.0
  N  N397  1  0.38636000  0.22378000  0.79543000  1.0
  N  N398  1  0.38638000  0.72378000  0.70458000  1.0
  N  N399  1  0.61364000  0.77622000  0.20457000  1.0
  N  N400  1  0.54343000  0.29307000  0.98559000  1.0
  N  N401  1  0.45656000  0.20692000  0.48559000  1.0
  N  N402  1  0.45658000  0.70693000  0.01441000  1.0
  N  N403  1  0.54345000  0.79308000  0.51442000  1.0
  N  N404  1  0.33816000  0.53676000  0.11433000  1.0
  N  N405  1  0.66183000  0.96324000  0.61433000  1.0
  N  N406  1  0.66184000  0.46324000  0.88567000  1.0
  N  N407  1  0.33816000  0.03676000  0.38568000  1.0
  N  N408  1  0.45027000  0.90959000  0.14028000  1.0
  N  N409  1  0.54975000  0.59041000  0.64028000  1.0
  N  N410  1  0.54973000  0.09041000  0.85972000  1.0
  N  N411  1  0.45025000  0.40958000  0.35972000  1.0
  O  O412  1  0.40478000  0.27224000  0.29897000  1.0
  O  O413  1  0.59525000  0.22770000  0.79897000  1.0
  O  O414  1  0.59522000  0.72775000  0.70103000  1.0
  O  O415  1  0.40475000  0.77231000  0.20103000  1.0
  O  O416  1  0.32593000  0.16796000  0.31421000  1.0
  O  O417  1  0.67400000  0.33203000  0.81420000  1.0
  O  O418  1  0.67407000  0.83204000  0.68580000  1.0
  O  O419  1  0.32600000  0.66798000  0.18579000  1.0
  O  O420  1  0.64010000  0.23296000  0.38891000  1.0
  O  O421  1  0.35988000  0.26702000  0.88892000  1.0
  O  O422  1  0.35990000  0.76704000  0.61109000  1.0
  O  O423  1  0.64012000  0.73298000  0.11107000  1.0
  O  O424  1  0.45696000  0.22472000  0.39429000  1.0
  O  O425  1  0.54303000  0.27526000  0.89428000  1.0
  O  O426  1  0.54304000  0.77529000  0.60572000  1.0
  O  O427  1  0.45697000  0.72476000  0.10571000  1.0
  O  O428  1  0.52889000  0.57024000  0.14311000  1.0
  O  O429  1  0.47111000  0.92978000  0.64313000  1.0
  O  O430  1  0.47112000  0.42979000  0.85689000  1.0
  O  O431  1  0.52889000  0.07023000  0.35688000  1.0
  O  O432  1  0.61927000  0.55247000  0.07717000  1.0
  O  O433  1  0.38078000  0.94758000  0.57719000  1.0
  O  O434  1  0.38076000  0.44755000  0.92282000  1.0
  O  O435  1  0.61925000  0.05244000  0.42282000  1.0
  O  O436  1  0.26076000  0.70226000  0.08355000  1.0
  O  O437  1  0.73922000  0.79775000  0.58356000  1.0
  O  O438  1  0.73924000  0.29777000  0.91644000  1.0
  O  O439  1  0.26076000  0.20228000  0.41644000  1.0
  O  O440  1  0.31656000  0.29314000  0.98060000  1.0
  O  O441  1  0.68347000  0.20684000  0.48060000  1.0
  O  O442  1  0.68347000  0.70685000  0.01940000  1.0
  O  O443  1  0.31655000  0.79315000  0.51939000  1.0
  O  O444  1  0.21290000  0.82369000  0.12705000  1.0
  O  O445  1  0.78705000  0.67634000  0.62705000  1.0
  O  O446  1  0.78708000  0.17635000  0.87295000  1.0
  O  O447  1  0.21293000  0.32370000  0.37295000  1.0
  O  O448  1  0.39529000  0.14965000  0.99034000  1.0
  O  O449  1  0.60472000  0.35033000  0.49032000  1.0
  O  O450  1  0.60472000  0.85034000  0.00967000  1.0
  O  O451  1  0.39528000  0.64966000  0.50968000  1.0
