# generated using pymatgen
data_CoH10C13N4O3
_symmetry_space_group_name_H-M   'P 1'
_cell_length_a   6.80727000
_cell_length_b   9.36041000
_cell_length_c   9.50715000
_cell_angle_alpha   94.21490000
_cell_angle_beta   93.34270000
_cell_angle_gamma   93.18410000
_symmetry_Int_Tables_number   1
_chemical_formula_structural   CoH10C13N4O3
_chemical_formula_sum   'Co2 H20 C26 N8 O6'
_cell_volume   602.02825818
_cell_formula_units_Z   2
loop_
 _symmetry_equiv_pos_site_id
 _symmetry_equiv_pos_as_xyz
  1  'x, y, z'
loop_
 _atom_site_type_symbol
 _atom_site_label
 _atom_site_symmetry_multiplicity
 _atom_site_fract_x
 _atom_site_fract_y
 _atom_site_fract_z
 _atom_site_occupancy
  Co  Co0  1  0.00000000  0.50000000  0.00000000  1.0
  Co  Co1  1  0.50000000  0.50000000  0.00000000  1.0
  H  H2  1  0.11822000  0.03149000  0.15471000  1.0
  H  H3  1  0.88177000  0.96851000  0.84530000  1.0
  H  H4  1  0.24584000  0.91620000  0.58119000  1.0
  H  H5  1  0.75416000  0.08380000  0.41881000  1.0
  H  H6  1  0.39187000  0.34514000  0.46486000  1.0
  H  H7  1  0.60812000  0.65486000  0.53515000  1.0
  H  H8  1  0.37246000  0.97880000  0.78373000  1.0
  H  H9  1  0.62755000  0.02121000  0.21627000  1.0
  H  H10  1  0.47531000  0.16107000  0.02261000  1.0
  H  H11  1  0.52470000  0.83893000  0.97739000  1.0
  H  H12  1  0.40458000  0.41312000  0.67793000  1.0
  H  H13  1  0.59542000  0.58688000  0.32208000  1.0
  H  H14  1  0.10017000  0.81350000  0.08892000  1.0
  H  H15  1  0.89983000  0.18650000  0.91108000  1.0
  H  H16  1  0.02693000  0.46667000  0.34099000  1.0
  H  H17  1  0.97307000  0.53334000  0.65901000  1.0
  H  H18  1  0.12581000  0.71079000  0.51855000  1.0
  H  H19  1  0.87418000  0.28921000  0.48145000  1.0
  H  H20  1  0.24828000  0.57709000  0.84435000  1.0
  H  H21  1  0.75173000  0.42291000  0.15565000  1.0
  C  C22  1  0.25841000  0.30662000  0.19158000  1.0
  C  C23  1  0.74159000  0.69338000  0.80842000  1.0
  C  C24  1  0.17870000  0.05750000  0.26250000  1.0
  C  C25  1  0.82128000  0.94250000  0.73751000  1.0
  C  C26  1  0.18538000  0.95465000  0.36192000  1.0
  C  C27  1  0.81462000  0.04536000  0.63808000  1.0
  C  C28  1  0.24853000  0.99467000  0.50265000  1.0
  C  C29  1  0.75147000  0.00533000  0.49735000  1.0
  C  C30  1  0.31527000  0.13685000  0.54168000  1.0
  C  C31  1  0.68472000  0.86315000  0.45832000  1.0
  C  C32  1  0.32830000  0.23649000  0.43934000  1.0
  C  C33  1  0.67169000  0.76351000  0.56066000  1.0
  C  C34  1  0.25522000  0.19723000  0.30095000  1.0
  C  C35  1  0.74477000  0.80277000  0.69905000  1.0
  C  C36  1  0.39094000  0.09457000  0.79738000  1.0
  C  C37  1  0.60907000  0.90543000  0.20263000  1.0
  C  C38  1  0.44146000  0.18562000  0.91481000  1.0
  C  C39  1  0.55855000  0.81438000  0.08519000  1.0
  C  C40  1  0.40612000  0.32053000  0.73930000  1.0
  C  C41  1  0.59387000  0.67947000  0.26070000  1.0
  C  C42  1  0.09198000  0.75385000  0.18162000  1.0
  C  C43  1  0.90802000  0.24615000  0.81837000  1.0
  C  C44  1  0.05519000  0.57647000  0.31557000  1.0
  C  C45  1  0.94481000  0.42353000  0.68443000  1.0
  C  C46  1  0.10647000  0.69611000  0.40465000  1.0
  C  C47  1  0.89353000  0.30389000  0.59535000  1.0
  N  N48  1  0.44776000  0.32614000  0.87755000  1.0
  N  N49  1  0.55224000  0.67386000  0.12245000  1.0
  N  N50  1  0.36943000  0.18084000  0.68488000  1.0
  N  N51  1  0.63057000  0.81916000  0.31512000  1.0
  N  N52  1  0.04756000  0.61389000  0.17698000  1.0
  N  N53  1  0.95245000  0.38611000  0.82301000  1.0
  N  N54  1  0.12887000  0.80944000  0.31897000  1.0
  N  N55  1  0.87112000  0.19056000  0.68102000  1.0
  O  O56  1  0.41117000  0.39180000  0.19698000  1.0
  O  O57  1  0.58884000  0.60820000  0.80302000  1.0
  O  O58  1  0.10840000  0.30235000  0.10577000  1.0
  O  O59  1  0.89161000  0.69765000  0.89423000  1.0
  O  O60  1  0.25068000  0.57625000  0.94679000  1.0
  O  O61  1  0.74932000  0.42374000  0.05321000  1.0
