# generated using pymatgen
data_DyCuH15C25(N3O4)2
_symmetry_space_group_name_H-M   'P 1'
_cell_length_a   7.60621000
_cell_length_b   12.17090000
_cell_length_c   14.09250000
_cell_angle_alpha   69.31850000
_cell_angle_beta   87.55860000
_cell_angle_gamma   82.64620000
_symmetry_Int_Tables_number   1
_chemical_formula_structural   DyCuH15C25(N3O4)2
_chemical_formula_sum   'Dy2 Cu2 H30 C50 N12 O16'
_cell_volume   1210.48977998
_cell_formula_units_Z   2
loop_
 _symmetry_equiv_pos_site_id
 _symmetry_equiv_pos_as_xyz
  1  'x, y, z'
loop_
 _atom_site_type_symbol
 _atom_site_label
 _atom_site_symmetry_multiplicity
 _atom_site_fract_x
 _atom_site_fract_y
 _atom_site_fract_z
 _atom_site_occupancy
  Dy  Dy0  1  0.70632000  0.91206000  0.15231000  1.0
  Dy  Dy1  1  0.29368000  0.08794000  0.84768000  1.0
  Cu  Cu2  1  0.78792000  0.35533000  0.30225000  1.0
  Cu  Cu3  1  0.21208000  0.64467000  0.69775000  1.0
  H  H4  1  0.86800000  0.60058000  0.15114000  1.0
  H  H5  1  0.13199000  0.39942000  0.84886000  1.0
  H  H6  1  0.67003000  0.22216000  0.14170000  1.0
  H  H7  1  0.32993000  0.77785000  0.85831000  1.0
  H  H8  1  0.60148000  0.38578000  0.81837000  1.0
  H  H9  1  0.39852000  0.61422000  0.18163000  1.0
  H  H10  1  0.69641000  0.57457000  0.81852000  1.0
  H  H11  1  0.30359000  0.42543000  0.18148000  1.0
  H  H12  1  0.36778000  0.77749000  0.47815000  1.0
  H  H13  1  0.63224000  0.22252000  0.52185000  1.0
  H  H14  1  0.01522000  0.85418000  0.76275000  1.0
  H  H15  1  0.98480000  0.14582000  0.23726000  1.0
  H  H16  1  0.19420000  0.19546000  0.46733000  1.0
  H  H17  1  0.80580000  0.80455000  0.53267000  1.0
  H  H18  1  0.38615000  0.15225000  0.33138000  1.0
  H  H19  1  0.61385000  0.84775000  0.66861000  1.0
  H  H20  1  0.11438000  0.53126000  0.26379000  1.0
  H  H21  1  0.88562000  0.46874000  0.73621000  1.0
  H  H22  1  0.30677000  0.36484000  0.38815000  1.0
  H  H23  1  0.69324000  0.63516000  0.61185000  1.0
  H  H24  1  0.40917000  0.38940000  0.73117000  1.0
  H  H25  1  0.59082000  0.61059000  0.26883000  1.0
  H  H26  1  0.06064000  0.72789000  0.46659000  1.0
  H  H27  1  0.93936000  0.27211000  0.53342000  1.0
  H  H28  1  0.81284000  0.67393000  0.96392000  1.0
  H  H29  1  0.18716000  0.32607000  0.03608000  1.0
  H  H30  1  0.04672000  0.06952000  0.66039000  1.0
  H  H31  1  0.95329000  0.93048000  0.33962000  1.0
  H  H32  1  0.42830000  0.29031000  0.60709000  1.0
  H  H33  1  0.57170000  0.70969000  0.39291000  1.0
  C  C34  1  0.82449000  0.54671000  0.11111000  1.0
  C  C35  1  0.17550000  0.45329000  0.88889000  1.0
  C  C36  1  0.74142000  0.50180000  0.98148000  1.0
  C  C37  1  0.25858000  0.49821000  0.01852000  1.0
  C  C38  1  0.73534000  0.40339000  0.07310000  1.0
  C  C39  1  0.26465000  0.59661000  0.92690000  1.0
  C  C40  1  0.67925000  0.29837000  0.07237000  1.0
  C  C41  1  0.32074000  0.70164000  0.92763000  1.0
  C  C42  1  0.62928000  0.29483000  0.97889000  1.0
  C  C43  1  0.37072000  0.70517000  0.02110000  1.0
  C  C44  1  0.63771000  0.39393000  0.88903000  1.0
  C  C45  1  0.36230000  0.60606000  0.11096000  1.0
  C  C46  1  0.69289000  0.49853000  0.88836000  1.0
  C  C47  1  0.30712000  0.50147000  0.11164000  1.0
  C  C48  1  0.55982000  0.18755000  0.97151000  1.0
  C  C49  1  0.44017000  0.81245000  0.02849000  1.0
  C  C50  1  0.03286000  0.03141000  0.03465000  1.0
  C  C51  1  0.96713000  0.96858000  0.96532000  1.0
  C  C52  1  0.49494000  0.94388000  0.31304000  1.0
  C  C53  1  0.50506000  0.05612000  0.68697000  1.0
  C  C54  1  0.38363000  0.96406000  0.39613000  1.0
  C  C55  1  0.61638000  0.03594000  0.60387000  1.0
  C  C56  1  0.33029000  0.86767000  0.47587000  1.0
  C  C57  1  0.66973000  0.13233000  0.52413000  1.0
  C  C58  1  0.23019000  0.89065000  0.55321000  1.0
  C  C59  1  0.76983000  0.10935000  0.44679000  1.0
  C  C60  1  0.07835000  0.88394000  0.68903000  1.0
  C  C61  1  0.92166000  0.11606000  0.31098000  1.0
  C  C62  1  0.17882000  0.00863000  0.54833000  1.0
  C  C63  1  0.82119000  0.99137000  0.45167000  1.0
  C  C64  1  0.23212000  0.10538000  0.46924000  1.0
  C  C65  1  0.76789000  0.89462000  0.53076000  1.0
  C  C66  1  0.33659000  0.08111000  0.39412000  1.0
  C  C67  1  0.66341000  0.91889000  0.60588000  1.0
  C  C68  1  0.95871000  0.73335000  0.28349000  1.0
  C  C69  1  0.04128000  0.26664000  0.71651000  1.0
  C  C70  1  0.07986000  0.63893000  0.35714000  1.0
  C  C71  1  0.92014000  0.36107000  0.64286000  1.0
  C  C72  1  0.14848000  0.53641000  0.33611000  1.0
  C  C73  1  0.85152000  0.46359000  0.66390000  1.0
  C  C74  1  0.25374000  0.44321000  0.40533000  1.0
  C  C75  1  0.74627000  0.55679000  0.59467000  1.0
  C  C76  1  0.28644000  0.45394000  0.49843000  1.0
  C  C77  1  0.71357000  0.54606000  0.50157000  1.0
  C  C78  1  0.35758000  0.43341000  0.65469000  1.0
  C  C79  1  0.64242000  0.56659000  0.34531000  1.0
  C  C80  1  0.21898000  0.55680000  0.52042000  1.0
  C  C81  1  0.78103000  0.44320000  0.47958000  1.0
  C  C82  1  0.11576000  0.64990000  0.44970000  1.0
  C  C83  1  0.88425000  0.35010000  0.55030000  1.0
  N  N84  1  0.79942000  0.58940000  0.00890000  1.0
  N  N85  1  0.20058000  0.41060000  0.99110000  1.0
  N  N86  1  0.78834000  0.43554000  0.15304000  1.0
  N  N87  1  0.21164000  0.56447000  0.84696000  1.0
  N  N88  1  0.07985000  0.99995000  0.63415000  1.0
  N  N89  1  0.92017000  0.00005000  0.36585000  1.0
  N  N90  1  0.16541000  0.81421000  0.64329000  1.0
  N  N91  1  0.83460000  0.18578000  0.35672000  1.0
  N  N92  1  0.26735000  0.54105000  0.61949000  1.0
  N  N93  1  0.73267000  0.45895000  0.38051000  1.0
  N  N94  1  0.37421000  0.37893000  0.58525000  1.0
  N  N95  1  0.62580000  0.62107000  0.41475000  1.0
  O  O96  1  0.47116000  0.20232000  0.89179000  1.0
  O  O97  1  0.52878000  0.79769000  0.10823000  1.0
  O  O98  1  0.58934000  0.08930000  0.04329000  1.0
  O  O99  1  0.41067000  0.91070000  0.95670000  1.0
  O  O100  1  0.95496000  0.01428000  0.11927000  1.0
  O  O101  1  0.04503000  0.98571000  0.88071000  1.0
  O  O102  1  0.15766000  0.09393000  0.00125000  1.0
  O  O103  1  0.84233000  0.90606000  0.99873000  1.0
  O  O104  1  0.57411000  0.02689000  0.25198000  1.0
  O  O105  1  0.42590000  0.97311000  0.74802000  1.0
  O  O106  1  0.51084000  0.84190000  0.30268000  1.0
  O  O107  1  0.48917000  0.15810000  0.69733000  1.0
  O  O108  1  0.89324000  0.82413000  0.30531000  1.0
  O  O109  1  0.10675000  0.17587000  0.69469000  1.0
  O  O110  1  0.91217000  0.72413000  0.20105000  1.0
  O  O111  1  0.08781000  0.27586000  0.79896000  1.0
