# generated using pymatgen
data_NdH15C7SN2O7
_symmetry_space_group_name_H-M   'P 1'
_cell_length_a   8.09509000
_cell_length_b   8.59484000
_cell_length_c   11.56060000
_cell_angle_alpha   99.97480000
_cell_angle_beta   92.49150000
_cell_angle_gamma   117.34200000
_symmetry_Int_Tables_number   1
_chemical_formula_structural   NdH15C7SN2O7
_chemical_formula_sum   'Nd2 H30 C14 S2 N4 O14'
_cell_volume   696.68719165
_cell_formula_units_Z   2
loop_
 _symmetry_equiv_pos_site_id
 _symmetry_equiv_pos_as_xyz
  1  'x, y, z'
loop_
 _atom_site_type_symbol
 _atom_site_label
 _atom_site_symmetry_multiplicity
 _atom_site_fract_x
 _atom_site_fract_y
 _atom_site_fract_z
 _atom_site_occupancy
  Nd  Nd0  1  0.78655000  0.07415000  0.98790000  1.0
  Nd  Nd1  1  0.21346000  0.92585000  0.01210000  1.0
  H  H2  1  0.09734000  0.46689000  0.11465000  1.0
  H  H3  1  0.90266000  0.53311000  0.88535000  1.0
  H  H4  1  0.18035000  0.32810000  0.10792000  1.0
  H  H5  1  0.81965000  0.67190000  0.89208000  1.0
  H  H6  1  0.19462000  0.47655000  0.88850000  1.0
  H  H7  1  0.80538000  0.52345000  0.11149000  1.0
  H  H8  1  0.32414000  0.46988000  0.76813000  1.0
  H  H9  1  0.67586000  0.53012000  0.23187000  1.0
  H  H10  1  0.37745000  0.41464000  0.90068000  1.0
  H  H11  1  0.62255000  0.58536000  0.09932000  1.0
  H  H12  1  0.72669000  0.40348000  0.68939000  1.0
  H  H13  1  0.27330000  0.59652000  0.31061000  1.0
  H  H14  1  0.51655000  0.19053000  0.65472000  1.0
  H  H15  1  0.48345000  0.80947000  0.34528000  1.0
  H  H16  1  0.72506000  0.21323000  0.59858000  1.0
  H  H17  1  0.27494000  0.78677000  0.40142000  1.0
  H  H18  1  0.07955000  0.06470000  0.35471000  1.0
  H  H19  1  0.92046000  0.93531000  0.64529000  1.0
  H  H20  1  0.84334000  0.93185000  0.37958000  1.0
  H  H21  1  0.15666000  0.06815000  0.62042000  1.0
  H  H22  1  0.96905000  0.82837000  0.30704000  1.0
  H  H23  1  0.03095000  0.17164000  0.69296000  1.0
  H  H24  1  0.07277000  0.63933000  0.60330000  1.0
  H  H25  1  0.92723000  0.36067000  0.39669000  1.0
  H  H26  1  0.27579000  0.82023000  0.68951000  1.0
  H  H27  1  0.72421000  0.17977000  0.31048000  1.0
  H  H28  1  0.56319000  0.83012000  0.66932000  1.0
  H  H29  1  0.43681000  0.16988000  0.33068000  1.0
  H  H30  1  0.57744000  0.64727000  0.57999000  1.0
  H  H31  1  0.42256000  0.35273000  0.42001000  1.0
  C  C32  1  0.47722000  0.69409000  0.91030000  1.0
  C  C33  1  0.52278000  0.30591000  0.08970000  1.0
  C  C34  1  0.33301000  0.50204000  0.86534000  1.0
  C  C35  1  0.66699000  0.49796000  0.13466000  1.0
  C  C36  1  0.72357000  0.20231000  0.78089000  1.0
  C  C37  1  0.27644000  0.79769000  0.21911000  1.0
  C  C38  1  0.67028000  0.25802000  0.67563000  1.0
  C  C39  1  0.32972000  0.74198000  0.32437000  1.0
  C  C40  1  0.87872000  0.96385000  0.20028000  1.0
  C  C41  1  0.12128000  0.03614000  0.79972000  1.0
  C  C42  1  0.94471000  0.94508000  0.31752000  1.0
  C  C43  1  0.05529000  0.05492000  0.68248000  1.0
  C  C44  1  0.31064000  0.61406000  0.59046000  1.0
  C  C45  1  0.68936000  0.38594000  0.40954000  1.0
  S  S46  1  0.19645000  0.40067000  0.50531000  1.0
  S  S47  1  0.80355000  0.59934000  0.49469000  1.0
  N  N48  1  0.21251000  0.69451000  0.63596000  1.0
  N  N49  1  0.78749000  0.30549000  0.36403000  1.0
  N  N50  1  0.49773000  0.70218000  0.61753000  1.0
  N  N51  1  0.50227000  0.29782000  0.38247000  1.0
  O  O52  1  0.65167000  0.74155000  0.91187000  1.0
  O  O53  1  0.34833000  0.25845000  0.08813000  1.0
  O  O54  1  0.42863000  0.81498000  0.94718000  1.0
  O  O55  1  0.57137000  0.18502000  0.05282000  1.0
  O  O56  1  0.65764000  0.03549000  0.78066000  1.0
  O  O57  1  0.34236000  0.96451000  0.21934000  1.0
  O  O58  1  0.83582000  0.31871000  0.87223000  1.0
  O  O59  1  0.16418000  0.68129000  0.12777000  1.0
  O  O60  1  0.96956000  0.95862000  0.11186000  1.0
  O  O61  1  0.03044000  0.04138000  0.88814000  1.0
  O  O62  1  0.73668000  0.98891000  0.18678000  1.0
  O  O63  1  0.26332000  0.01109000  0.81322000  1.0
  O  O64  1  0.06184000  0.33625000  0.10523000  1.0
  O  O65  1  0.93816000  0.66375000  0.89477000  1.0
