# generated using pymatgen
data_ZnH8(C3O2)2
_symmetry_space_group_name_H-M   'P 1'
_cell_length_a   4.80007000
_cell_length_b   9.28922000
_cell_length_c   16.13850000
_cell_angle_alpha   90.14900000
_cell_angle_beta   90.00000000
_cell_angle_gamma   90.00000000
_symmetry_Int_Tables_number   1
_chemical_formula_structural   ZnH8(C3O2)2
_chemical_formula_sum   'Zn4 H32 C24 O16'
_cell_volume   719.59563019
_cell_formula_units_Z   4
loop_
 _symmetry_equiv_pos_site_id
 _symmetry_equiv_pos_as_xyz
  1  'x, y, z'
loop_
 _atom_site_type_symbol
 _atom_site_label
 _atom_site_symmetry_multiplicity
 _atom_site_fract_x
 _atom_site_fract_y
 _atom_site_fract_z
 _atom_site_occupancy
  Zn  Zn0  1  0.46226000  0.21793000  0.24629000  1.0
  Zn  Zn1  1  0.46226000  0.28207000  0.75371000  1.0
  Zn  Zn2  1  0.53774000  0.78207000  0.75371000  1.0
  Zn  Zn3  1  0.53774000  0.71793000  0.24629000  1.0
  H  H4  1  0.64656000  0.62039000  0.42554000  1.0
  H  H5  1  0.64656000  0.87961000  0.57446000  1.0
  H  H6  1  0.35344000  0.37961000  0.57446000  1.0
  H  H7  1  0.35344000  0.12039000  0.42554000  1.0
  H  H8  1  0.94577000  0.59930000  0.36474000  1.0
  H  H9  1  0.94577000  0.90070000  0.63526000  1.0
  H  H10  1  0.05423000  0.40070000  0.63526000  1.0
  H  H11  1  0.05423000  0.09930000  0.36474000  1.0
  H  H12  1  0.76833000  0.38564000  0.50058000  1.0
  H  H13  1  0.76833000  0.11436000  0.49942000  1.0
  H  H14  1  0.23167000  0.61436000  0.49942000  1.0
  H  H15  1  0.23167000  0.88564000  0.50058000  1.0
  H  H16  1  0.07477000  0.37481000  0.44146000  1.0
  H  H17  1  0.07477000  0.12519000  0.55854000  1.0
  H  H18  1  0.92523000  0.62519000  0.55853000  1.0
  H  H19  1  0.92523000  0.87481000  0.44146000  1.0
  H  H20  1  0.24934000  0.31093000  0.06422000  1.0
  H  H21  1  0.24935000  0.18907000  0.93578000  1.0
  H  H22  1  0.75065000  0.68907000  0.93578000  1.0
  H  H23  1  0.75066000  0.81093000  0.06422000  1.0
  H  H24  1  0.21994000  0.45816000  0.13020000  1.0
  H  H25  1  0.21994000  0.04184000  0.86980000  1.0
  H  H26  1  0.78006000  0.54183000  0.86980000  1.0
  H  H27  1  0.78006000  0.95816000  0.13020000  1.0
  H  H28  1  0.76556000  0.52923000  0.06298000  1.0
  H  H29  1  0.76556000  0.97077000  0.93702000  1.0
  H  H30  1  0.23444000  0.47077000  0.93702000  1.0
  H  H31  1  0.23444000  0.02923000  0.06298000  1.0
  H  H32  1  0.78298000  0.37813000  0.99763000  1.0
  H  H33  1  0.78298000  0.12187000  0.00237000  1.0
  H  H34  1  0.21702000  0.62187000  0.00237000  1.0
  H  H35  1  0.21702000  0.87813000  0.99763000  1.0
  C  C36  1  0.62466000  0.45059000  0.33806000  1.0
  C  C37  1  0.62466000  0.04941000  0.66194000  1.0
  C  C38  1  0.37534000  0.54941000  0.66194000  1.0
  C  C39  1  0.37534000  0.95059000  0.33806000  1.0
  C  C40  1  0.78855000  0.53814000  0.40000000  1.0
  C  C41  1  0.78855000  0.96186000  0.60000000  1.0
  C  C42  1  0.21145000  0.46186000  0.60000000  1.0
  C  C43  1  0.21145000  0.03814000  0.40000000  1.0
  C  C44  1  0.92574000  0.45155000  0.46880000  1.0
  C  C45  1  0.92574000  0.04845000  0.53120000  1.0
  C  C46  1  0.07426000  0.54845000  0.53120000  1.0
  C  C47  1  0.07426000  0.95155000  0.46880000  1.0
  C  C48  1  0.93824000  0.29010000  0.15678000  1.0
  C  C49  1  0.93825000  0.20989000  0.84322000  1.0
  C  C50  1  0.06175000  0.70990000  0.84322000  1.0
  C  C51  1  0.06176000  0.79011000  0.15678000  1.0
  C  C52  1  0.09386000  0.38062000  0.09455000  1.0
  C  C53  1  0.09386000  0.11938000  0.90545000  1.0
  C  C54  1  0.90614000  0.61938000  0.90545000  1.0
  C  C55  1  0.90614000  0.88062000  0.09455000  1.0
  C  C56  1  0.91268000  0.45707000  0.03087000  1.0
  C  C57  1  0.91268000  0.04293000  0.96913000  1.0
  C  C58  1  0.08731000  0.54293000  0.96913000  1.0
  C  C59  1  0.08732000  0.95707000  0.03087000  1.0
  O  O60  1  0.60102000  0.31498000  0.34863000  1.0
  O  O61  1  0.60102000  0.18502000  0.65137000  1.0
  O  O62  1  0.39897000  0.68502000  0.65137000  1.0
  O  O63  1  0.39898000  0.81498000  0.34863000  1.0
  O  O64  1  0.51270000  0.51109000  0.27508000  1.0
  O  O65  1  0.51270000  0.98891000  0.72492000  1.0
  O  O66  1  0.48730000  0.48891000  0.72492000  1.0
  O  O67  1  0.48730000  0.01109000  0.27508000  1.0
  O  O68  1  0.67689000  0.27099000  0.14638000  1.0
  O  O69  1  0.67689000  0.22901000  0.85362000  1.0
  O  O70  1  0.32311000  0.72901000  0.85362000  1.0
  O  O71  1  0.32311000  0.77099000  0.14638000  1.0
  O  O72  1  0.06334000  0.23523000  0.21903000  1.0
  O  O73  1  0.06335000  0.26477000  0.78097000  1.0
  O  O74  1  0.93665000  0.76477000  0.78097000  1.0
  O  O75  1  0.93665000  0.73523000  0.21903000  1.0
