# generated using pymatgen
data_ZnH3C7(N2O)3
_symmetry_space_group_name_H-M   'P 1'
_cell_length_a   6.90027000
_cell_length_b   8.52741000
_cell_length_c   16.57480000
_cell_angle_alpha   90.00020000
_cell_angle_beta   90.00070000
_cell_angle_gamma   66.14300000
_symmetry_Int_Tables_number   1
_chemical_formula_structural   ZnH3C7(N2O)3
_chemical_formula_sum   'Zn4 H12 C28 N24 O12'
_cell_volume   891.95441899
_cell_formula_units_Z   4
loop_
 _symmetry_equiv_pos_site_id
 _symmetry_equiv_pos_as_xyz
  1  'x, y, z'
loop_
 _atom_site_type_symbol
 _atom_site_label
 _atom_site_symmetry_multiplicity
 _atom_site_fract_x
 _atom_site_fract_y
 _atom_site_fract_z
 _atom_site_occupancy
  Zn  Zn0  1  0.92785000  0.14432000  0.10169000  1.0
  Zn  Zn1  1  0.57215000  0.85568000  0.60169000  1.0
  Zn  Zn2  1  0.42785000  0.14432000  0.39831000  1.0
  Zn  Zn3  1  0.07215000  0.85568000  0.89831000  1.0
  H  H4  1  0.76269000  0.47449000  0.22708000  1.0
  H  H5  1  0.73731000  0.52551000  0.72708000  1.0
  H  H6  1  0.26269000  0.47449000  0.27292000  1.0
  H  H7  1  0.23731000  0.52551000  0.77292000  1.0
  H  H8  1  0.60421000  0.79111000  0.20851000  1.0
  H  H9  1  0.89579000  0.20889000  0.70851000  1.0
  H  H10  1  0.10422000  0.79111000  0.29149000  1.0
  H  H11  1  0.39579000  0.20889000  0.79149000  1.0
  H  H12  1  0.54700000  0.90613000  0.06439000  1.0
  H  H13  1  0.95300000  0.09387000  0.56439000  1.0
  H  H14  1  0.04701000  0.90613000  0.43561000  1.0
  H  H15  1  0.45300000  0.09387000  0.93561000  1.0
  C  C16  1  0.81459000  0.37098000  0.96256000  1.0
  C  C17  1  0.68541000  0.62902000  0.46256000  1.0
  C  C18  1  0.31459000  0.37098000  0.53744000  1.0
  C  C19  1  0.18541000  0.62902000  0.03745000  1.0
  C  C20  1  0.75244000  0.49535000  0.02886000  1.0
  C  C21  1  0.74757000  0.50465000  0.52886000  1.0
  C  C22  1  0.25244000  0.49535000  0.47114000  1.0
  C  C23  1  0.24756000  0.50465000  0.97114000  1.0
  C  C24  1  0.73462000  0.53067000  0.16674000  1.0
  C  C25  1  0.76537000  0.46933000  0.66674000  1.0
  C  C26  1  0.23463000  0.53067000  0.33326000  1.0
  C  C27  1  0.26538000  0.46933000  0.83326000  1.0
  C  C28  1  0.64601000  0.70774000  0.15589000  1.0
  C  C29  1  0.85399000  0.29226000  0.65589000  1.0
  C  C30  1  0.14601000  0.70774000  0.34411000  1.0
  C  C31  1  0.35399000  0.29226000  0.84411000  1.0
  C  C32  1  0.61573000  0.76858000  0.07679000  1.0
  C  C33  1  0.88427000  0.23141000  0.57679000  1.0
  C  C34  1  0.11574000  0.76859000  0.42321000  1.0
  C  C35  1  0.38427000  0.23142000  0.92321000  1.0
  C  C36  1  0.74974000  0.13918000  0.28266000  1.0
  C  C37  1  0.75027000  0.86082000  0.78266000  1.0
  C  C38  1  0.61119000  0.13912000  0.21736000  1.0
  C  C39  1  0.88880000  0.86089000  0.71736000  1.0
  C  C40  1  0.25027000  0.86082000  0.71734000  1.0
  C  C41  1  0.24973000  0.13917000  0.21733000  1.0
  C  C42  1  0.38880000  0.86089000  0.78264000  1.0
  C  C43  1  0.11120000  0.13911000  0.28265000  1.0
  N  N44  1  0.89875000  0.20257000  0.98013000  1.0
  N  N45  1  0.60126000  0.79743000  0.48013000  1.0
  N  N46  1  0.39874000  0.20257000  0.51987000  1.0
  N  N47  1  0.10125000  0.79743000  0.01987000  1.0
  N  N48  1  0.93865000  0.12272000  0.90910000  1.0
  N  N49  1  0.56136000  0.87728000  0.40910000  1.0
  N  N50  1  0.43864000  0.12272000  0.59090000  1.0
  N  N51  1  0.06135000  0.87728000  0.09090000  1.0
  N  N52  1  0.88122000  0.23764000  0.85020000  1.0
  N  N53  1  0.61879000  0.76236000  0.35020000  1.0
  N  N54  1  0.38121000  0.23764000  0.64980000  1.0
  N  N55  1  0.11878000  0.76236000  0.14980000  1.0
  N  N56  1  0.80234000  0.39550000  0.88210000  1.0
  N  N57  1  0.69767000  0.60450000  0.38210000  1.0
  N  N58  1  0.30233000  0.39550000  0.61790000  1.0
  N  N59  1  0.19767000  0.60450000  0.11790000  1.0
  N  N60  1  0.78830000  0.42349000  0.10347000  1.0
  N  N61  1  0.71170000  0.57651000  0.60347000  1.0
  N  N62  1  0.28831000  0.42349000  0.39653000  1.0
  N  N63  1  0.21170000  0.57651000  0.89654000  1.0
  N  N64  1  0.66878000  0.66268000  0.01279000  1.0
  N  N65  1  0.83122000  0.33731000  0.51279000  1.0
  N  N66  1  0.16878000  0.66269000  0.48721000  1.0
  N  N67  1  0.33122000  0.33732000  0.98721000  1.0
  O  O68  1  0.71892000  0.13627000  0.35753000  1.0
  O  O69  1  0.78109000  0.86374000  0.85753000  1.0
  O  O70  1  0.64494000  0.13618000  0.14249000  1.0
  O  O71  1  0.85505000  0.86383000  0.64248000  1.0
  O  O72  1  0.28108000  0.86373000  0.64246000  1.0
  O  O73  1  0.21892000  0.13626000  0.14247000  1.0
  O  O74  1  0.35505000  0.86382000  0.85752000  1.0
  O  O75  1  0.14495000  0.13617000  0.35751000  1.0
  O  O76  1  0.42971000  0.14064000  0.25130000  1.0
  O  O77  1  0.07029000  0.85937000  0.75130000  1.0
  O  O78  1  0.92971000  0.14064000  0.24870000  1.0
  O  O79  1  0.57029000  0.85936000  0.74870000  1.0
