# generated using pymatgen
data_Zn4H8C24(SO4)5
_symmetry_space_group_name_H-M   'P 1'
_cell_length_a   19.64060000
_cell_length_b   19.71460000
_cell_length_c   33.22490000
_cell_angle_alpha   79.09170000
_cell_angle_beta   79.34090000
_cell_angle_gamma   64.02490000
_symmetry_Int_Tables_number   1
_chemical_formula_structural   Zn4H8C24(SO4)5
_chemical_formula_sum   'Zn16 H32 C96 S20 O80'
_cell_volume   11280.18281792
_cell_formula_units_Z   4
loop_
 _symmetry_equiv_pos_site_id
 _symmetry_equiv_pos_as_xyz
  1  'x, y, z'
loop_
 _atom_site_type_symbol
 _atom_site_label
 _atom_site_symmetry_multiplicity
 _atom_site_fract_x
 _atom_site_fract_y
 _atom_site_fract_z
 _atom_site_occupancy
  Zn  Zn0  1  0.05546000  0.39899000  0.47938000  1.0
  Zn  Zn1  1  0.98671000  0.48085000  0.56092000  1.0
  Zn  Zn2  1  0.05638000  0.56205000  0.48057000  1.0
  Zn  Zn3  1  0.90149000  0.55765000  0.47978000  1.0
  Zn  Zn4  1  0.69049000  0.35149000  0.27244000  1.0
  Zn  Zn5  1  0.68848000  0.19182000  0.26679000  1.0
  Zn  Zn6  1  0.77074000  0.26803000  0.19100000  1.0
  Zn  Zn7  1  0.84769000  0.19843000  0.27277000  1.0
  Zn  Zn8  1  0.26872000  0.76471000  0.68855000  1.0
  Zn  Zn9  1  0.35071000  0.69620000  0.77004000  1.0
  Zn  Zn10  1  0.19077000  0.84592000  0.77039000  1.0
  Zn  Zn11  1  0.19070000  0.68745000  0.76647000  1.0
  Zn  Zn12  1  0.55850000  0.06200000  0.98273000  1.0
  Zn  Zn13  1  0.40126000  0.05512000  0.97734000  1.0
  Zn  Zn14  1  0.55497000  0.90126000  0.97831000  1.0
  Zn  Zn15  1  0.48300000  0.98443000  0.06054000  1.0
  H  H16  1  0.95209000  0.25589000  0.35056000  1.0
  H  H17  1  0.74115000  0.45683000  0.35308000  1.0
  H  H18  1  0.99896000  0.30719000  0.39785000  1.0
  H  H19  1  0.09337000  0.59957000  0.69821000  1.0
  H  H20  1  0.20583000  0.69834000  0.59718000  1.0
  H  H21  1  0.04584000  0.55573000  0.64751000  1.0
  H  H22  1  0.55601000  0.04826000  0.15323000  1.0
  H  H23  1  0.64912000  0.15699000  0.04750000  1.0
  H  H24  1  0.60793000  0.09668000  0.19935000  1.0
  H  H25  1  0.49741000  0.79348000  0.89913000  1.0
  H  H26  1  0.29739000  0.00520000  0.89749000  1.0
  H  H27  1  0.44378000  0.74959000  0.85159000  1.0
  H  H28  1  0.84310000  0.57620000  0.40093000  1.0
  H  H29  1  0.07057000  0.68547000  0.51181000  1.0
  H  H30  1  0.79415000  0.18189000  0.12224000  1.0
  H  H31  1  0.17695000  0.90666000  0.84778000  1.0
  H  H32  1  0.32445000  0.53987000  0.40182000  1.0
  H  H33  1  0.42243000  0.20847000  0.35360000  1.0
  H  H34  1  0.75782000  0.54110000  0.68509000  1.0
  H  H35  1  0.49815000  0.70146000  0.56475000  1.0
  H  H36  1  0.04401000  0.25287000  0.68513000  1.0
  H  H37  1  0.20866000  0.99312000  0.56665000  1.0
  H  H38  1  0.74479000  0.81375000  0.38389000  1.0
  H  H39  1  0.00230000  0.93672000  0.36302000  1.0
  H  H40  1  0.70616000  0.49308000  0.06584000  1.0
  H  H41  1  0.54098000  0.75363000  0.18436000  1.0
  H  H42  1  0.15038000  0.07533000  0.22055000  1.0
  H  H43  1  0.10213000  0.16954000  0.03010000  1.0
  H  H44  1  0.50744000  0.43408000  0.86410000  1.0
  H  H45  1  0.24533000  0.31782000  0.88511000  1.0
  H  H46  1  0.92106000  0.70713000  0.85343000  1.0
  H  H47  1  0.82826000  0.03861000  0.89916000  1.0
  C  C48  1  0.06157000  0.31457000  0.56272000  1.0
  C  C49  1  0.06528000  0.57474000  0.56722000  1.0
  C  C50  1  0.18114000  0.43959000  0.43844000  1.0
  C  C51  1  0.93487000  0.68694000  0.43800000  1.0
  C  C52  1  0.93262000  0.43623000  0.42867000  1.0
  C  C53  1  0.82029000  0.55968000  0.56287000  1.0
  C  C54  1  0.56450000  0.31038000  0.31264000  1.0
  C  C55  1  0.68760000  0.17745000  0.18047000  1.0
  C  C56  1  0.68704000  0.43342000  0.18821000  1.0
  C  C57  1  0.93648000  0.19056000  0.19030000  1.0
  C  C58  1  0.81562000  0.32383000  0.32020000  1.0
  C  C59  1  0.81125000  0.06751000  0.30962000  1.0
  C  C60  1  0.43567000  0.68699000  0.68707000  1.0
  C  C61  1  0.31410000  0.81830000  0.82053000  1.0
  C  C62  1  0.19166000  0.93151000  0.68873000  1.0
  C  C63  1  0.06368000  0.80805000  0.81025000  1.0
  C  C64  1  0.18112000  0.67883000  0.68026000  1.0
  C  C65  1  0.31475000  0.56836000  0.81218000  1.0
  C  C66  1  0.43662000  0.18478000  0.93802000  1.0
  C  C67  1  0.43111000  0.92959000  0.92994000  1.0
  C  C68  1  0.68305000  0.94009000  0.93888000  1.0
  C  C69  1  0.56127000  0.81700000  0.06201000  1.0
  C  C70  1  0.56922000  0.07073000  0.06938000  1.0
  C  C71  1  0.31595000  0.06077000  0.06064000  1.0
  C  C72  1  0.89755000  0.41064000  0.40156000  1.0
  C  C73  1  0.84416000  0.35346000  0.34871000  1.0
  C  C74  1  0.82389000  0.45281000  0.38880000  1.0
  C  C75  1  0.91673000  0.31093000  0.36144000  1.0
  C  C76  1  0.79793000  0.42407000  0.36265000  1.0
  C  C77  1  0.94262000  0.33950000  0.38761000  1.0
  C  C78  1  0.09814000  0.60273000  0.59423000  1.0
  C  C79  1  0.15205000  0.65184000  0.65073000  1.0
  C  C80  1  0.14391000  0.64337000  0.58008000  1.0
  C  C81  1  0.10716000  0.61148000  0.66510000  1.0
  C  C82  1  0.17035000  0.66743000  0.60827000  1.0
  C  C83  1  0.08083000  0.58730000  0.63697000  1.0
  C  C84  1  0.30215000  0.45455000  0.40149000  1.0
  C  C85  1  0.44376000  0.29525000  0.35027000  1.0
  C  C86  1  0.25556000  0.41556000  0.41393000  1.0
  C  C87  1  0.49007000  0.33431000  0.33736000  1.0
  C  C88  1  0.37523000  0.33935000  0.37365000  1.0
  C  C89  1  0.37093000  0.41034000  0.37819000  1.0
  C  C90  1  0.72891000  0.57562000  0.63047000  1.0
  C  C91  1  0.52733000  0.66965000  0.61946000  1.0
  C  C92  1  0.74611000  0.58330000  0.58760000  1.0
  C  C93  1  0.51001000  0.66219000  0.66234000  1.0
  C  C94  1  0.60743000  0.63757000  0.60794000  1.0
  C  C95  1  0.64892000  0.60696000  0.64201000  1.0
  C  C96  1  0.07790000  0.22373000  0.63071000  1.0
  C  C97  1  0.17608000  0.02265000  0.62108000  1.0
  C  C98  1  0.08642000  0.24066000  0.58781000  1.0
  C  C99  1  0.16771000  0.00581000  0.66398000  1.0
  C  C100  1  0.14348000  0.10235000  0.60908000  1.0
  C  C101  1  0.11100000  0.14399000  0.64280000  1.0
  C  C102  1  0.84158000  0.80244000  0.39538000  1.0
  C  C103  1  0.90454000  0.95097000  0.35184000  1.0
  C  C104  1  0.90979000  0.76070000  0.41290000  1.0
  C  C105  1  0.83656000  0.99294000  0.33418000  1.0
  C  C106  1  0.90636000  0.88115000  0.37382000  1.0
  C  C107  1  0.84009000  0.87173000  0.37274000  1.0
  C  C108  1  0.65807000  0.15317000  0.14976000  1.0
  C  C109  1  0.59966000  0.09926000  0.09758000  1.0
  C  C110  1  0.66928000  0.17022000  0.10635000  1.0
  C  C111  1  0.58781000  0.08242000  0.14041000  1.0
  C  C112  1  0.64028000  0.14331000  0.08081000  1.0
  C  C113  1  0.61673000  0.10929000  0.16594000  1.0
  C  C114  1  0.67316000  0.52401000  0.12004000  1.0
  C  C115  1  0.57630000  0.72531000  0.12984000  1.0
  C  C116  1  0.66336000  0.50721000  0.16293000  1.0
  C  C117  1  0.58567000  0.74270000  0.08702000  1.0
  C  C118  1  0.60815000  0.64551000  0.14170000  1.0
  C  C119  1  0.64104000  0.60389000  0.10800000  1.0
  C  C120  1  0.08344000  0.12406000  0.17868000  1.0
  C  C121  1  0.16887000  0.12403000  0.07234000  1.0
  C  C122  1  0.01089000  0.16378000  0.16575000  1.0
  C  C123  1  0.24147000  0.08538000  0.08532000  1.0
  C  C124  1  0.11122000  0.13800000  0.10657000  1.0
  C  C125  1  0.14098000  0.10963000  0.14448000  1.0
  C  C126  1  0.34073000  0.85164000  0.84810000  1.0
  C  C127  1  0.40059000  0.90180000  0.90140000  1.0
  C  C128  1  0.29951000  0.92462000  0.86130000  1.0
  C  C129  1  0.44205000  0.82978000  0.88839000  1.0
  C  C130  1  0.32951000  0.94891000  0.88764000  1.0
  C  C131  1  0.41217000  0.80549000  0.86204000  1.0
  C  C132  1  0.40827000  0.45056000  0.85407000  1.0
  C  C133  1  0.34371000  0.30253000  0.89603000  1.0
  C  C134  1  0.34007000  0.49387000  0.83681000  1.0
  C  C135  1  0.41183000  0.25936000  0.91339000  1.0
  C  C136  1  0.34273000  0.37227000  0.87431000  1.0
  C  C137  1  0.40947000  0.38064000  0.87564000  1.0
  C  C138  1  0.94344000  0.79343000  0.84943000  1.0
  C  C139  1  0.80465000  0.95348000  0.90104000  1.0
  C  C140  1  0.98999000  0.83206000  0.83562000  1.0
  C  C141  1  0.75764000  0.91520000  0.91428000  1.0
  C  C142  1  0.87249000  0.90883000  0.87727000  1.0
  C  C143  1  0.87582000  0.83796000  0.87327000  1.0
  S  S144  1  0.29561000  0.32571000  0.39725000  1.0
  S  S145  1  0.44996000  0.42432000  0.35379000  1.0
  S  S146  1  0.66504000  0.62781000  0.56160000  1.0
  S  S147  1  0.59111000  0.61641000  0.68833000  1.0
  S  S148  1  0.13469000  0.15954000  0.56247000  1.0
  S  S149  1  0.12060000  0.08680000  0.68944000  1.0
  S  S150  1  0.97161000  0.80564000  0.40174000  1.0
  S  S151  1  0.77536000  0.94726000  0.34450000  1.0
  S  S152  1  0.61572000  0.58836000  0.18829000  1.0
  S  S153  1  0.63338000  0.66164000  0.06154000  1.0
  S  S154  1  0.01313000  0.18288000  0.11210000  1.0
  S  S155  1  0.23918000  0.06610000  0.13896000  1.0
  S  S156  1  0.27804000  0.44913000  0.84677000  1.0
  S  S157  1  0.47407000  0.30384000  0.90329000  1.0
  S  S158  1  0.95130000  0.92218000  0.85186000  1.0
  S  S159  1  0.79638000  0.82511000  0.89806000  1.0
  S  S160  1  0.75528000  0.54194000  0.40605000  1.0
  S  S161  1  0.17722000  0.66314000  0.52676000  1.0
  S  S162  1  0.71480000  0.23092000  0.07990000  1.0
  S  S163  1  0.21015000  0.99445000  0.84423000  1.0
  O  O164  1  0.00086000  0.49813000  0.50034000  1.0
  O  O165  1  0.07936000  0.31363000  0.52350000  1.0
  O  O166  1  0.04765000  0.52006000  0.58330000  1.0
  O  O167  1  0.15443000  0.50407000  0.45181000  1.0
  O  O168  1  0.02463000  0.37324000  0.58161000  1.0
  O  O169  1  0.14929000  0.39311000  0.44432000  1.0
  O  O170  1  0.05481000  0.60796000  0.53019000  1.0
  O  O171  1  0.00357000  0.65862000  0.44721000  1.0
  O  O172  1  0.90767000  0.50776000  0.43081000  1.0
  O  O173  1  0.88742000  0.65680000  0.44882000  1.0
  O  O174  1  0.98702000  0.38493000  0.44733000  1.0
  O  O175  1  0.87944000  0.53252000  0.58184000  1.0
  O  O176  1  0.81869000  0.56923000  0.52360000  1.0
  O  O177  1  0.74824000  0.25265000  0.25106000  1.0
  O  O178  1  0.59362000  0.35913000  0.30453000  1.0
  O  O179  1  0.65434000  0.17834000  0.21707000  1.0
  O  O180  1  0.72146000  0.37425000  0.16947000  1.0
  O  O181  1  0.59377000  0.24399000  0.30137000  1.0
  O  O182  1  0.67075000  0.43524000  0.22740000  1.0
  O  O183  1  0.74532000  0.19403000  0.16889000  1.0
  O  O184  1  0.87888000  0.22669000  0.16963000  1.0
  O  O185  1  0.86056000  0.25874000  0.30919000  1.0
  O  O186  1  0.93439000  0.17652000  0.22951000  1.0
  O  O187  1  0.74944000  0.36617000  0.30949000  1.0
  O  O188  1  0.74693000  0.09146000  0.29538000  1.0
  O  O189  1  0.85452000  0.10203000  0.30466000  1.0
  O  O190  1  0.25073000  0.74812000  0.74917000  1.0
  O  O191  1  0.37679000  0.72090000  0.66785000  1.0
  O  O192  1  0.36509000  0.76508000  0.80131000  1.0
  O  O193  1  0.17674000  0.93208000  0.72808000  1.0
  O  O194  1  0.43671000  0.67203000  0.72641000  1.0
  O  O195  1  0.22453000  0.87328000  0.66937000  1.0
  O  O196  1  0.24216000  0.84326000  0.81851000  1.0
  O  O197  1  0.09224000  0.85738000  0.80138000  1.0
  O  O198  1  0.16440000  0.66172000  0.71863000  1.0
  O  O199  1  0.09329000  0.74160000  0.79908000  1.0
  O  O200  1  0.21995000  0.71665000  0.66416000  1.0
  O  O201  1  0.35840000  0.60289000  0.80601000  1.0
  O  O202  1  0.24964000  0.59217000  0.79900000  1.0
  O  O203  1  0.49986000  0.99998000  0.99988000  1.0
  O  O204  1  0.50276000  0.15896000  0.95029000  1.0
  O  O205  1  0.38846000  0.99543000  0.94047000  1.0
  O  O206  1  0.65252000  0.89248000  0.94629000  1.0
  O  O207  1  0.39128000  0.15221000  0.94510000  1.0
  O  O208  1  0.65518000  0.00594000  0.95059000  1.0
  O  O209  1  0.49663000  0.88519000  0.94111000  1.0
  O  O210  1  0.57629000  0.81587000  0.02275000  1.0
  O  O211  1  0.53164000  0.03192000  0.08640000  1.0
  O  O212  1  0.52760000  0.87572000  0.08104000  1.0
  O  O213  1  0.58374000  0.08790000  0.03084000  1.0
  O  O214  1  0.31673000  0.07398000  0.02153000  1.0
  O  O215  1  0.37402000  0.02790000  0.08106000  1.0
  O  O216  1  0.79532000  0.59764000  0.38706000  1.0
  O  O217  1  0.68907000  0.56809000  0.38499000  1.0
  O  O218  1  0.74844000  0.53288000  0.45048000  1.0
  O  O219  1  0.09980000  0.71785000  0.50775000  1.0
  O  O220  1  0.21824000  0.70889000  0.52468000  1.0
  O  O221  1  0.21259000  0.59259000  0.50907000  1.0
  O  O222  1  0.79981000  0.18448000  0.09127000  1.0
  O  O223  1  0.71928000  0.23100000  0.03627000  1.0
  O  O224  1  0.67864000  0.30129000  0.09778000  1.0
  O  O225  1  0.15429000  0.95412000  0.86194000  1.0
  O  O226  1  0.18419000  0.05903000  0.86620000  1.0
  O  O227  1  0.21934000  0.00363000  0.79976000  1.0
  O  O228  1  0.28207000  0.52522000  0.41057000  1.0
  O  O229  1  0.46289000  0.22446000  0.34119000  1.0
  O  O230  1  0.78276000  0.54211000  0.65689000  1.0
  O  O231  1  0.47362000  0.70352000  0.59309000  1.0
  O  O232  1  0.04242000  0.27749000  0.65674000  1.0
  O  O233  1  0.21095000  0.96880000  0.59508000  1.0
  O  O234  1  0.78576000  0.77805000  0.39998000  1.0
  O  O235  1  0.96073000  0.97479000  0.34802000  1.0
  O  O236  1  0.70936000  0.46984000  0.09444000  1.0
  O  O237  1  0.54101000  0.77875000  0.15612000  1.0
  O  O238  1  0.09574000  0.10292000  0.21889000  1.0
  O  O239  1  0.15676000  0.14515000  0.03218000  1.0
  O  O240  1  0.46514000  0.47353000  0.85016000  1.0
  O  O241  1  0.28693000  0.27953000  0.89999000  1.0
  O  O242  1  0.96165000  0.72269000  0.84061000  1.0
  O  O243  1  0.78633000  0.02401000  0.91004000  1.0
