# generated using pymatgen
data_NiH14C9(N3O4)2
_symmetry_space_group_name_H-M   'P 1'
_cell_length_a   7.76192000
_cell_length_b   8.64621000
_cell_length_c   11.34910000
_cell_angle_alpha   104.91700000
_cell_angle_beta   103.45000000
_cell_angle_gamma   107.31000000
_symmetry_Int_Tables_number   1
_chemical_formula_structural   NiH14C9(N3O4)2
_chemical_formula_sum   'Ni2 H28 C18 N12 O16'
_cell_volume   662.01172553
_cell_formula_units_Z   2
loop_
 _symmetry_equiv_pos_site_id
 _symmetry_equiv_pos_as_xyz
  1  'x, y, z'
loop_
 _atom_site_type_symbol
 _atom_site_label
 _atom_site_symmetry_multiplicity
 _atom_site_fract_x
 _atom_site_fract_y
 _atom_site_fract_z
 _atom_site_occupancy
  Ni  Ni0  1  0.77626000  0.47078000  0.46383000  1.0
  Ni  Ni1  1  0.22374000  0.52922000  0.53617000  1.0
  H  H2  1  0.90592000  0.90746000  0.38069000  1.0
  H  H3  1  0.09407000  0.09254000  0.61931000  1.0
  H  H4  1  0.09099000  0.90757000  0.31500000  1.0
  H  H5  1  0.90901000  0.09243000  0.68499000  1.0
  H  H6  1  0.35353000  0.96989000  0.11398000  1.0
  H  H7  1  0.64647000  0.03011000  0.88602000  1.0
  H  H8  1  0.17705000  0.05830000  0.09670000  1.0
  H  H9  1  0.82295000  0.94170000  0.90330000  1.0
  H  H10  1  0.52111000  0.12384000  0.63063000  1.0
  H  H11  1  0.47889000  0.87617000  0.36937000  1.0
  H  H12  1  0.73791000  0.30396000  0.67226000  1.0
  H  H13  1  0.26209000  0.69604000  0.32774000  1.0
  H  H14  1  0.73726000  0.60016000  0.24989000  1.0
  H  H15  1  0.26274000  0.39984000  0.75012000  1.0
  H  H16  1  0.12572000  0.81303000  0.84930000  1.0
  H  H17  1  0.87428000  0.18697000  0.15070000  1.0
  H  H18  1  0.49756000  0.23493000  0.83357000  1.0
  H  H19  1  0.50244000  0.76507000  0.16643000  1.0
  H  H20  1  0.62799000  0.40294000  0.04152000  1.0
  H  H21  1  0.37201000  0.59706000  0.95848000  1.0
  H  H22  1  0.61867000  0.26079000  0.22034000  1.0
  H  H23  1  0.38133000  0.73921000  0.77966000  1.0
  H  H24  1  0.72227000  0.18266000  0.32152000  1.0
  H  H25  1  0.27773000  0.81734000  0.67848000  1.0
  H  H26  1  0.83095000  0.61103000  0.71402000  1.0
  H  H27  1  0.16905000  0.38897000  0.28598000  1.0
  H  H28  1  0.70166000  0.67517000  0.61931000  1.0
  H  H29  1  0.29834000  0.32483000  0.38069000  1.0
  C  C30  1  0.86139000  0.64698000  0.11540000  1.0
  C  C31  1  0.13860000  0.35302000  0.88460000  1.0
  C  C32  1  0.98712000  0.71985000  0.96593000  1.0
  C  C33  1  0.01288000  0.28015000  0.03407000  1.0
  C  C34  1  0.72741000  0.46646000  0.89506000  1.0
  C  C35  1  0.27259000  0.53354000  0.10494000  1.0
  C  C36  1  0.98334000  0.82778000  0.34518000  1.0
  C  C37  1  0.01666000  0.17222000  0.65482000  1.0
  C  C38  1  0.08714000  0.78578000  0.45751000  1.0
  C  C39  1  0.91286000  0.21422000  0.54249000  1.0
  C  C40  1  0.25293000  0.99512000  0.04265000  1.0
  C  C41  1  0.74707000  0.00488000  0.95735000  1.0
  C  C42  1  0.36897000  0.12141000  0.99237000  1.0
  C  C43  1  0.63104000  0.87859000  0.00763000  1.0
  C  C44  1  0.59112000  0.26555000  0.67408000  1.0
  C  C45  1  0.40888000  0.73445000  0.32591000  1.0
  C  C46  1  0.48345000  0.33717000  0.58563000  1.0
  C  C47  1  0.51655000  0.66282000  0.41437000  1.0
  N  N48  1  0.99585000  0.75828000  0.09057000  1.0
  N  N49  1  0.00414000  0.24172000  0.90943000  1.0
  N  N50  1  0.85556000  0.57701000  0.86446000  1.0
  N  N51  1  0.14444000  0.42299000  0.13554000  1.0
  N  N52  1  0.72709000  0.49803000  0.01967000  1.0
  N  N53  1  0.27291000  0.50197000  0.98033000  1.0
  N  N54  1  0.85255000  0.67663000  0.23434000  1.0
  N  N55  1  0.14745000  0.32337000  0.76566000  1.0
  N  N56  1  0.11783000  0.83577000  0.94057000  1.0
  N  N57  1  0.88217000  0.16422000  0.05943000  1.0
  N  N58  1  0.59438000  0.31916000  0.80590000  1.0
  N  N59  1  0.40562000  0.68085000  0.19410000  1.0
  O  O60  1  0.03908000  0.62260000  0.44404000  1.0
  O  O61  1  0.96091000  0.37740000  0.55596000  1.0
  O  O62  1  0.21403000  0.90788000  0.55325000  1.0
  O  O63  1  0.78597000  0.09212000  0.44675000  1.0
  O  O64  1  0.48949000  0.26442000  0.08130000  1.0
  O  O65  1  0.51051000  0.73558000  0.91870000  1.0
  O  O66  1  0.34421000  0.08231000  0.87338000  1.0
  O  O67  1  0.65579000  0.91769000  0.12662000  1.0
  O  O68  1  0.50344000  0.31434000  0.47467000  1.0
  O  O69  1  0.49656000  0.68566000  0.52533000  1.0
  O  O70  1  0.37842000  0.41118000  0.62601000  1.0
  O  O71  1  0.62158000  0.58882000  0.37399000  1.0
  O  O72  1  0.73261000  0.28565000  0.29570000  1.0
  O  O73  1  0.26740000  0.71435000  0.70429000  1.0
  O  O74  1  0.82222000  0.65261000  0.63876000  1.0
  O  O75  1  0.17778000  0.34739000  0.36124000  1.0
