# generated using pymatgen
data_CuH18C18N2(ClO2)2
_symmetry_space_group_name_H-M   'P 1'
_cell_length_a   4.90760000
_cell_length_b   10.68710000
_cell_length_c   16.74180000
_cell_angle_alpha   90.00030000
_cell_angle_beta   90.00020000
_cell_angle_gamma   85.19000000
_symmetry_Int_Tables_number   1
_chemical_formula_structural   CuH18C18N2(ClO2)2
_chemical_formula_sum   'Cu2 H36 C36 N4 Cl4 O8'
_cell_volume   874.98175987
_cell_formula_units_Z   2
loop_
 _symmetry_equiv_pos_site_id
 _symmetry_equiv_pos_as_xyz
  1  'x, y, z'
loop_
 _atom_site_type_symbol
 _atom_site_label
 _atom_site_symmetry_multiplicity
 _atom_site_fract_x
 _atom_site_fract_y
 _atom_site_fract_z
 _atom_site_occupancy
  Cu  Cu0  1  0.50000000  0.50000000  0.50000000  1.0
  Cu  Cu1  1  0.00000000  0.00000000  0.00000000  1.0
  H  H2  1  0.97997000  0.66685000  0.48519000  1.0
  H  H3  1  0.52003000  0.83315000  0.98519000  1.0
  H  H4  1  0.02004000  0.33315000  0.51481000  1.0
  H  H5  1  0.47996000  0.16685000  0.01481000  1.0
  H  H6  1  0.10526000  0.88752000  0.51610000  1.0
  H  H7  1  0.39475000  0.61249000  0.01610000  1.0
  H  H8  1  0.89474000  0.11249000  0.48390000  1.0
  H  H9  1  0.60524000  0.38751000  0.98390000  1.0
  H  H10  1  0.31317000  0.06577000  0.58187000  1.0
  H  H11  1  0.18684000  0.43423000  0.08187000  1.0
  H  H12  1  0.68683000  0.93423000  0.41813000  1.0
  H  H13  1  0.81316000  0.56576000  0.91813000  1.0
  H  H14  1  0.87959000  0.80413000  0.70584000  1.0
  H  H15  1  0.62042000  0.69588000  0.20584000  1.0
  H  H16  1  0.12042000  0.19588000  0.29416000  1.0
  H  H17  1  0.37957000  0.30412000  0.79416000  1.0
  H  H18  1  0.83688000  0.58797000  0.70053000  1.0
  H  H19  1  0.66312000  0.91203000  0.20053000  1.0
  H  H20  1  0.16312000  0.41203000  0.29947000  1.0
  H  H21  1  0.33687000  0.08797000  0.79947000  1.0
  H  H22  1  0.68190000  0.30045000  0.61235000  1.0
  H  H23  1  0.81810000  0.19955000  0.11235000  1.0
  H  H24  1  0.31810000  0.69955000  0.38765000  1.0
  H  H25  1  0.18190000  0.80045000  0.88765000  1.0
  H  H26  1  0.74188000  0.37475000  0.70512000  1.0
  H  H27  1  0.75812000  0.12525000  0.20512000  1.0
  H  H28  1  0.25812000  0.62525000  0.29488000  1.0
  H  H29  1  0.24188000  0.87475000  0.79488000  1.0
  H  H30  1  0.80351000  0.57109000  0.34325000  1.0
  H  H31  1  0.69649000  0.92890000  0.84325000  1.0
  H  H32  1  0.19650000  0.42890000  0.65675000  1.0
  H  H33  1  0.30350000  0.07110000  0.15675000  1.0
  H  H34  1  0.84099000  0.73485000  0.33400000  1.0
  H  H35  1  0.65901000  0.76515000  0.83400000  1.0
  H  H36  1  0.15901000  0.26515000  0.66600000  1.0
  H  H37  1  0.34099000  0.23485000  0.16600000  1.0
  C  C38  1  0.37570000  0.74338000  0.57141000  1.0
  C  C39  1  0.12431000  0.75662000  0.07141000  1.0
  C  C40  1  0.62430000  0.25662000  0.42859000  1.0
  C  C41  1  0.87568000  0.24338000  0.92859000  1.0
  C  C42  1  0.27400000  0.86986000  0.55803000  1.0
  C  C43  1  0.22601000  0.63014000  0.05803000  1.0
  C  C44  1  0.72600000  0.13014000  0.44197000  1.0
  C  C45  1  0.77398000  0.36985000  0.94197000  1.0
  C  C46  1  0.38833000  0.96907000  0.59509000  1.0
  C  C47  1  0.11169000  0.53093000  0.09509000  1.0
  C  C48  1  0.61168000  0.03093000  0.40491000  1.0
  C  C49  1  0.88830000  0.46906000  0.90492000  1.0
  C  C50  1  0.60678000  0.94460000  0.64858000  1.0
  C  C51  1  0.89323000  0.55540000  0.14857000  1.0
  C  C52  1  0.39323000  0.05540000  0.35142000  1.0
  C  C53  1  0.10676000  0.44460000  0.85143000  1.0
  C  C54  1  0.70916000  0.82262000  0.66460000  1.0
  C  C55  1  0.79085000  0.67738000  0.16459000  1.0
  C  C56  1  0.29084000  0.17738000  0.33540000  1.0
  C  C57  1  0.20915000  0.32262000  0.83541000  1.0
  C  C58  1  0.59869000  0.72101000  0.62625000  1.0
  C  C59  1  0.90132000  0.77900000  0.12625000  1.0
  C  C60  1  0.40132000  0.27900000  0.37375000  1.0
  C  C61  1  0.09867000  0.22100000  0.87375000  1.0
  C  C62  1  0.71121000  0.59631000  0.64602000  1.0
  C  C63  1  0.78880000  0.90370000  0.14602000  1.0
  C  C64  1  0.28880000  0.40370000  0.35398000  1.0
  C  C65  1  0.21119000  0.09630000  0.85398000  1.0
  C  C66  1  0.78689000  0.37544000  0.64058000  1.0
  C  C67  1  0.71311000  0.12456000  0.14058000  1.0
  C  C68  1  0.21311000  0.62456000  0.35942000  1.0
  C  C69  1  0.28689000  0.87544000  0.85942000  1.0
  C  C70  1  0.09541000  0.35001000  0.63071000  1.0
  C  C71  1  0.40459000  0.14999000  0.13072000  1.0
  C  C72  1  0.90459000  0.64999000  0.36928000  1.0
  C  C73  1  0.59541000  0.85001000  0.86928000  1.0
  N  N74  1  0.67487000  0.49522000  0.60614000  1.0
  N  N75  1  0.82513000  0.00479000  0.10614000  1.0
  N  N76  1  0.32513000  0.50479000  0.39386000  1.0
  N  N77  1  0.17487000  0.99521000  0.89386000  1.0
  Cl  Cl78  1  0.75460000  0.06880000  0.69428000  1.0
  Cl  Cl79  1  0.74542000  0.43120000  0.19428000  1.0
  Cl  Cl80  1  0.24541000  0.93120000  0.30572000  1.0
  Cl  Cl81  1  0.25458000  0.56880000  0.80573000  1.0
  O  O82  1  0.81535000  0.66814000  0.44949000  1.0
  O  O83  1  0.68465000  0.83186000  0.94949000  1.0
  O  O84  1  0.18465000  0.33186000  0.55051000  1.0
  O  O85  1  0.31535000  0.16814000  0.05051000  1.0
  O  O86  1  0.26400000  0.65094000  0.53567000  1.0
  O  O87  1  0.23601000  0.84906000  0.03567000  1.0
  O  O88  1  0.73600000  0.34906000  0.46433000  1.0
  O  O89  1  0.76399000  0.15093000  0.96433000  1.0
