# generated using pymatgen
data_Cu3H16C12N4Cl3
_symmetry_space_group_name_H-M   'P 1'
_cell_length_a   7.11382000
_cell_length_b   9.22201000
_cell_length_c   12.77210000
_cell_angle_alpha   83.12370000
_cell_angle_beta   85.06680000
_cell_angle_gamma   81.78960000
_symmetry_Int_Tables_number   1
_chemical_formula_structural   Cu3H16C12N4Cl3
_chemical_formula_sum   'Cu6 H32 C24 N8 Cl6'
_cell_volume   821.31755777
_cell_formula_units_Z   2
loop_
 _symmetry_equiv_pos_site_id
 _symmetry_equiv_pos_as_xyz
  1  'x, y, z'
loop_
 _atom_site_type_symbol
 _atom_site_label
 _atom_site_symmetry_multiplicity
 _atom_site_fract_x
 _atom_site_fract_y
 _atom_site_fract_z
 _atom_site_occupancy
  Cu  Cu0  1  0.75478000  0.56042000  0.23615000  1.0
  Cu  Cu1  1  0.24522000  0.43959000  0.76385000  1.0
  Cu  Cu2  1  0.79391000  0.22648000  0.16610000  1.0
  Cu  Cu3  1  0.20609000  0.77352000  0.83389000  1.0
  Cu  Cu4  1  0.83160000  0.22660000  0.36443000  1.0
  Cu  Cu5  1  0.16840000  0.77340000  0.63557000  1.0
  H  H6  1  0.28786000  0.59086000  0.46634000  1.0
  H  H7  1  0.71214000  0.40914000  0.53366000  1.0
  H  H8  1  0.13569000  0.50983000  0.31705000  1.0
  H  H9  1  0.86431000  0.49018000  0.68295000  1.0
  H  H10  1  0.52504000  0.73051000  0.33085000  1.0
  H  H11  1  0.47495000  0.26950000  0.66916000  1.0
  H  H12  1  0.48118000  0.77830000  0.46338000  1.0
  H  H13  1  0.51882000  0.22171000  0.53662000  1.0
  H  H14  1  0.56257000  0.90785000  0.36106000  1.0
  H  H15  1  0.43743000  0.09216000  0.63895000  1.0
  H  H16  1  0.84102000  0.92127000  0.61770000  1.0
  H  H17  1  0.15898000  0.07873000  0.38231000  1.0
  H  H18  1  0.70527000  0.99386000  0.50735000  1.0
  H  H19  1  0.29473000  0.00614000  0.49265000  1.0
  H  H20  1  0.62560000  0.85113000  0.59962000  1.0
  H  H21  1  0.37439000  0.14887000  0.40038000  1.0
  H  H22  1  0.38370000  0.51223000  0.18153000  1.0
  H  H23  1  0.61631000  0.48775000  0.81846000  1.0
  H  H24  1  0.18188000  0.58945000  0.02838000  1.0
  H  H25  1  0.81814000  0.41054000  0.97161000  1.0
  H  H26  1  0.47690000  0.92603000  0.81166000  1.0
  H  H27  1  0.52310000  0.07398000  0.18834000  1.0
  H  H28  1  0.71838000  0.84264000  0.82182000  1.0
  H  H29  1  0.28162000  0.15737000  0.17818000  1.0
  H  H30  1  0.63135000  0.99431000  0.89255000  1.0
  H  H31  1  0.36864000  0.00569000  0.10745000  1.0
  H  H32  1  0.89044000  0.76399000  0.12173000  1.0
  H  H33  1  0.10955000  0.23601000  0.87827000  1.0
  H  H34  1  0.78257000  0.93500000  0.05990000  1.0
  H  H35  1  0.21742000  0.06500000  0.94011000  1.0
  H  H36  1  0.91393000  0.80449000  0.98086000  1.0
  H  H37  1  0.08606000  0.19551000  0.01914000  1.0
  C  C38  1  0.77529000  0.73283000  0.41119000  1.0
  C  C39  1  0.22471000  0.26717000  0.58881000  1.0
  C  C40  1  0.86179000  0.78179000  0.49370000  1.0
  C  C41  1  0.13821000  0.21821000  0.50630000  1.0
  C  C42  1  0.14159000  0.63388000  0.44939000  1.0
  C  C43  1  0.85841000  0.36612000  0.55061000  1.0
  C  C44  1  0.05804000  0.58852000  0.36769000  1.0
  C  C45  1  0.94197000  0.41149000  0.63231000  1.0
  C  C46  1  0.57397000  0.79005000  0.39045000  1.0
  C  C47  1  0.42603000  0.20995000  0.60955000  1.0
  C  C48  1  0.75285000  0.89307000  0.55883000  1.0
  C  C49  1  0.24715000  0.10693000  0.44118000  1.0
  C  C50  1  0.53011000  0.78981000  0.95614000  1.0
  C  C51  1  0.46989000  0.21019000  0.04385000  1.0
  C  C52  1  0.64096000  0.74874000  0.04416000  1.0
  C  C53  1  0.35905000  0.25126000  0.95584000  1.0
  C  C54  1  0.42347000  0.59378000  0.11760000  1.0
  C  C55  1  0.57654000  0.40620000  0.88240000  1.0
  C  C56  1  0.31304000  0.63593000  0.03299000  1.0
  C  C57  1  0.68697000  0.36405000  0.96700000  1.0
  C  C58  1  0.59158000  0.89473000  0.86568000  1.0
  C  C59  1  0.40842000  0.10528000  0.13432000  1.0
  C  C60  1  0.81689000  0.81631000  0.05206000  1.0
  C  C61  1  0.18311000  0.18370000  0.94794000  1.0
  N  N62  1  0.87395000  0.63605000  0.34856000  1.0
  N  N63  1  0.12605000  0.36395000  0.65144000  1.0
  N  N64  1  0.04446000  0.73016000  0.51346000  1.0
  N  N65  1  0.95553000  0.26984000  0.48654000  1.0
  N  N66  1  0.36617000  0.73239000  0.95091000  1.0
  N  N67  1  0.63384000  0.26760000  0.04909000  1.0
  N  N68  1  0.58917000  0.64779000  0.12389000  1.0
  N  N69  1  0.41084000  0.35220000  0.87610000  1.0
  Cl  Cl70  1  0.00850000  0.39851000  0.16395000  1.0
  Cl  Cl71  1  0.99151000  0.60149000  0.83605000  1.0
  Cl  Cl72  1  0.90033000  0.02681000  0.27240000  1.0
  Cl  Cl73  1  0.09967000  0.97319000  0.72760000  1.0
  Cl  Cl74  1  0.55515000  0.38356000  0.34045000  1.0
  Cl  Cl75  1  0.44485000  0.61644000  0.65955000  1.0
