# generated using pymatgen
data_CuH4C2(N4O)2
_symmetry_space_group_name_H-M   'P 1'
_cell_length_a   7.37264000
_cell_length_b   7.40528000
_cell_length_c   7.40905000
_cell_angle_alpha   117.65400000
_cell_angle_beta   93.55760000
_cell_angle_gamma   107.56000000
_symmetry_Int_Tables_number   1
_chemical_formula_structural   CuH4C2(N4O)2
_chemical_formula_sum   'Cu2 H8 C4 N16 O4'
_cell_volume   331.67876216
_cell_formula_units_Z   2
loop_
 _symmetry_equiv_pos_site_id
 _symmetry_equiv_pos_as_xyz
  1  'x, y, z'
loop_
 _atom_site_type_symbol
 _atom_site_label
 _atom_site_symmetry_multiplicity
 _atom_site_fract_x
 _atom_site_fract_y
 _atom_site_fract_z
 _atom_site_occupancy
  Cu  Cu0  1  0.17779000  0.72397000  0.95010000  1.0
  Cu  Cu1  1  0.82221000  0.27603000  0.04990000  1.0
  H  H2  1  0.07064000  0.36626000  0.57482000  1.0
  H  H3  1  0.92936000  0.63374000  0.42518000  1.0
  H  H4  1  0.31071000  0.46497000  0.66272000  1.0
  H  H5  1  0.68929000  0.53504000  0.33728000  1.0
  H  H6  1  0.19589000  0.98590000  0.33915000  1.0
  H  H7  1  0.80411000  0.01410000  0.66085000  1.0
  H  H8  1  0.21560000  0.13134000  0.22252000  1.0
  H  H9  1  0.78440000  0.86866000  0.77748000  1.0
  C  C10  1  0.60133000  0.86805000  0.26322000  1.0
  C  C11  1  0.39867000  0.13195000  0.73678000  1.0
  C  C12  1  0.44309000  0.68039000  0.23939000  1.0
  C  C13  1  0.55691000  0.31962000  0.76061000  1.0
  N  N14  1  0.85290000  0.16386000  0.38877000  1.0
  N  N15  1  0.14711000  0.83614000  0.61123000  1.0
  N  N16  1  0.45381000  0.55160000  0.31707000  1.0
  N  N17  1  0.54619000  0.44840000  0.68293000  1.0
  N  N18  1  0.75290000  0.01232000  0.43228000  1.0
  N  N19  1  0.24710000  0.98768000  0.56772000  1.0
  N  N20  1  0.15472000  0.43666000  0.14383000  1.0
  N  N21  1  0.84528000  0.56334000  0.85617000  1.0
  N  N22  1  0.60577000  0.92559000  0.11612000  1.0
  N  N23  1  0.39423000  0.07441000  0.88388000  1.0
  N  N24  1  0.76376000  0.10967000  0.19957000  1.0
  N  N25  1  0.23624000  0.89033000  0.80043000  1.0
  N  N26  1  0.27159000  0.40101000  0.25474000  1.0
  N  N27  1  0.72841000  0.59899000  0.74526000  1.0
  N  N28  1  0.25849000  0.61102000  0.13105000  1.0
  N  N29  1  0.74151000  0.38898000  0.86895000  1.0
  O  O30  1  0.18244000  0.45439000  0.70259000  1.0
  O  O31  1  0.81756000  0.54561000  0.29741000  1.0
  O  O32  1  0.16377000  0.97976000  0.20126000  1.0
  O  O33  1  0.83622000  0.02024000  0.79874000  1.0
