# generated using pymatgen
data_AlH9C16O5
_symmetry_space_group_name_H-M   'P 1'
_cell_length_a   6.65055000
_cell_length_b   20.22220000
_cell_length_c   22.96210000
_cell_angle_alpha   86.40200000
_cell_angle_beta   89.48410000
_cell_angle_gamma   89.09030000
_symmetry_Int_Tables_number   1
_chemical_formula_structural   AlH9C16O5
_chemical_formula_sum   'Al4 H36 C64 O20'
_cell_volume   3081.56951079
_cell_formula_units_Z   4
loop_
 _symmetry_equiv_pos_site_id
 _symmetry_equiv_pos_as_xyz
  1  'x, y, z'
loop_
 _atom_site_type_symbol
 _atom_site_label
 _atom_site_symmetry_multiplicity
 _atom_site_fract_x
 _atom_site_fract_y
 _atom_site_fract_z
 _atom_site_occupancy
  Al  Al0  1  0.79259000  0.24872000  0.75083000  1.0
  Al  Al1  1  0.20741000  0.75128000  0.24917000  1.0
  Al  Al2  1  0.29287000  0.25018000  0.74903000  1.0
  Al  Al3  1  0.70714000  0.74982000  0.25097000  1.0
  H  H4  1  0.69068000  0.45918000  0.95463000  1.0
  H  H5  1  0.30933000  0.54082000  0.04537000  1.0
  H  H6  1  0.19998000  0.04903000  0.54755000  1.0
  H  H7  1  0.80001000  0.95097000  0.45246000  1.0
  H  H8  1  0.66357000  0.53955000  0.03274000  1.0
  H  H9  1  0.33643000  0.46045000  0.96725000  1.0
  H  H10  1  0.15639000  0.96983000  0.46949000  1.0
  H  H11  1  0.84359000  0.03015000  0.53051000  1.0
  H  H12  1  0.74950000  0.34310000  0.58595000  1.0
  H  H13  1  0.25051000  0.65690000  0.41406000  1.0
  H  H14  1  0.80789000  0.14942000  0.92044000  1.0
  H  H15  1  0.19211000  0.85058000  0.07956000  1.0
  H  H16  1  0.30249000  0.42492000  0.64068000  1.0
  H  H17  1  0.69753000  0.57508000  0.35932000  1.0
  H  H18  1  0.25628000  0.08094000  0.85207000  1.0
  H  H19  1  0.74372000  0.91906000  0.14793000  1.0
  H  H20  1  0.41719000  0.61184000  0.50419000  1.0
  H  H21  1  0.58280000  0.38817000  0.49582000  1.0
  H  H22  1  0.05961000  0.90002000  0.98606000  1.0
  H  H23  1  0.94038000  0.09998000  0.01394000  1.0
  H  H24  1  0.59354000  0.56956000  0.58584000  1.0
  H  H25  1  0.43272000  0.53843000  0.64332000  1.0
  H  H26  1  0.57617000  0.48296000  0.60254000  1.0
  H  H27  1  0.40644000  0.43045000  0.41418000  1.0
  H  H28  1  0.42382000  0.51705000  0.39747000  1.0
  H  H29  1  0.56725000  0.46158000  0.35669000  1.0
  H  H30  1  0.91553000  0.94637000  0.90048000  1.0
  H  H31  1  0.96026000  0.03170000  0.88350000  1.0
  H  H32  1  0.09867000  0.97134000  0.84676000  1.0
  H  H33  1  0.08447000  0.05363000  0.09952000  1.0
  H  H34  1  0.90134000  0.02866000  0.15324000  1.0
  H  H35  1  0.03973000  0.96831000  0.11650000  1.0
  H  H36  1  0.54162000  0.33715000  0.75326000  1.0
  H  H37  1  0.45837000  0.66285000  0.24674000  1.0
  H  H38  1  0.04800000  0.16260000  0.74293000  1.0
  H  H39  1  0.95200000  0.83740000  0.25706000  1.0
  C  C40  1  0.54782000  0.16774000  0.83065000  1.0
  C  C41  1  0.45219000  0.83226000  0.16934000  1.0
  C  C42  1  0.03133000  0.33095000  0.66879000  1.0
  C  C43  1  0.96867000  0.66905000  0.33121000  1.0
  C  C44  1  0.54234000  0.17285000  0.67353000  1.0
  C  C45  1  0.45767000  0.82715000  0.32647000  1.0
  C  C46  1  0.04500000  0.32592000  0.82642000  1.0
  C  C47  1  0.95499000  0.67407000  0.17358000  1.0
  C  C48  1  0.81013000  0.52193000  0.01819000  1.0
  C  C49  1  0.18988000  0.47807000  0.98180000  1.0
  C  C50  1  0.30610000  0.98329000  0.48305000  1.0
  C  C51  1  0.69388000  0.01671000  0.51695000  1.0
  C  C52  1  0.98494000  0.54527000  0.04414000  1.0
  C  C53  1  0.01507000  0.45473000  0.95585000  1.0
  C  C54  1  0.47583000  0.95545000  0.45587000  1.0
  C  C55  1  0.52416000  0.04454000  0.54413000  1.0
  C  C56  1  0.17502000  0.52262000  0.02519000  1.0
  C  C57  1  0.82500000  0.47738000  0.97480000  1.0
  C  C58  1  0.66991000  0.97285000  0.47360000  1.0
  C  C59  1  0.33008000  0.02714000  0.52640000  1.0
  C  C60  1  0.97135000  0.59052000  0.08864000  1.0
  C  C61  1  0.02866000  0.40947000  0.91135000  1.0
  C  C62  1  0.45628000  0.91078000  0.41131000  1.0
  C  C63  1  0.54373000  0.08921000  0.58870000  1.0
  C  C64  1  0.03701000  0.37083000  0.87273000  1.0
  C  C65  1  0.96299000  0.62916000  0.12727000  1.0
  C  C66  1  0.54835000  0.12775000  0.62737000  1.0
  C  C67  1  0.45164000  0.87225000  0.37263000  1.0
  C  C68  1  0.86677000  0.37985000  0.57862000  1.0
  C  C69  1  0.13323000  0.62016000  0.42139000  1.0
  C  C70  1  0.68188000  0.11551000  0.92459000  1.0
  C  C71  1  0.31812000  0.88449000  0.07541000  1.0
  C  C72  1  0.02722000  0.38003000  0.61756000  1.0
  C  C73  1  0.97279000  0.61997000  0.38244000  1.0
  C  C74  1  0.53338000  0.11883000  0.88179000  1.0
  C  C75  1  0.46662000  0.88117000  0.11821000  1.0
  C  C76  1  0.17918000  0.42692000  0.60974000  1.0
  C  C77  1  0.82084000  0.57308000  0.39026000  1.0
  C  C78  1  0.36998000  0.07588000  0.88591000  1.0
  C  C79  1  0.63001000  0.92412000  0.11409000  1.0
  C  C80  1  0.17084000  0.47620000  0.56392000  1.0
  C  C81  1  0.82918000  0.52380000  0.43608000  1.0
  C  C82  1  0.35394000  0.02723000  0.93190000  1.0
  C  C83  1  0.64606000  0.97277000  0.06810000  1.0
  C  C84  1  0.00761000  0.47571000  0.52364000  1.0
  C  C85  1  0.99240000  0.52429000  0.47636000  1.0
  C  C86  1  0.50501000  0.02401000  0.97612000  1.0
  C  C87  1  0.49498000  0.97599000  0.02388000  1.0
  C  C88  1  0.85644000  0.42633000  0.53078000  1.0
  C  C89  1  0.14356000  0.57368000  0.46922000  1.0
  C  C90  1  0.66861000  0.06920000  0.97255000  1.0
  C  C91  1  0.33138000  0.93080000  0.02745000  1.0
  C  C92  1  0.32035000  0.52738000  0.55656000  1.0
  C  C93  1  0.67965000  0.47262000  0.44344000  1.0
  C  C94  1  0.19080000  0.98061000  0.93582000  1.0
  C  C95  1  0.80920000  0.01940000  0.06418000  1.0
  C  C96  1  0.30374000  0.57351000  0.51051000  1.0
  C  C97  1  0.69625000  0.42650000  0.48949000  1.0
  C  C98  1  0.18354000  0.93488000  0.98236000  1.0
  C  C99  1  0.81646000  0.06512000  0.01764000  1.0
  C  C100  1  0.48949000  0.52979000  0.59920000  1.0
  C  C101  1  0.51051000  0.47023000  0.40081000  1.0
  C  C102  1  0.03314000  0.98254000  0.88930000  1.0
  C  C103  1  0.96686000  0.01746000  0.11070000  1.0
  O  O104  1  0.37076000  0.19849000  0.68420000  1.0
  O  O105  1  0.62924000  0.80151000  0.31579000  1.0
  O  O106  1  0.87865000  0.31480000  0.80198000  1.0
  O  O107  1  0.12136000  0.68520000  0.19802000  1.0
  O  O108  1  0.71875000  0.19300000  0.81851000  1.0
  O  O109  1  0.28124000  0.80700000  0.18149000  1.0
  O  O110  1  0.19843000  0.32011000  0.69495000  1.0
  O  O111  1  0.80157000  0.67989000  0.30505000  1.0
  O  O112  1  0.70659000  0.18226000  0.69970000  1.0
  O  O113  1  0.29341000  0.81773000  0.30030000  1.0
  O  O114  1  0.21713000  0.30217000  0.81377000  1.0
  O  O115  1  0.78287000  0.69782000  0.18623000  1.0
  O  O116  1  0.86467000  0.30423000  0.68331000  1.0
  O  O117  1  0.13533000  0.69576000  0.31668000  1.0
  O  O118  1  0.38683000  0.17987000  0.80189000  1.0
  O  O119  1  0.61318000  0.82012000  0.19811000  1.0
  O  O120  1  0.54165000  0.28997000  0.74837000  1.0
  O  O121  1  0.45835000  0.71003000  0.25163000  1.0
  O  O122  1  0.04524000  0.20890000  0.75140000  1.0
  O  O123  1  0.95476000  0.79110000  0.24859000  1.0
