# generated using pymatgen
data_Gd2Cu3H30C24(NO4)6
_symmetry_space_group_name_H-M   'P 1'
_cell_length_a   13.39130000
_cell_length_b   13.39130000
_cell_length_c   14.42610000
_cell_angle_alpha   89.99990000
_cell_angle_beta   90.00010000
_cell_angle_gamma   60.00000000
_symmetry_Int_Tables_number   1
_chemical_formula_structural   Gd2Cu3H30C24(NO4)6
_chemical_formula_sum   'Gd4 Cu6 H60 C48 N12 O48'
_cell_volume   2240.39734324
_cell_formula_units_Z   2
loop_
 _symmetry_equiv_pos_site_id
 _symmetry_equiv_pos_as_xyz
  1  'x, y, z'
loop_
 _atom_site_type_symbol
 _atom_site_label
 _atom_site_symmetry_multiplicity
 _atom_site_fract_x
 _atom_site_fract_y
 _atom_site_fract_z
 _atom_site_occupancy
  Gd  Gd0  1  0.66666667  0.66666667  0.66809000  1.0
  Gd  Gd1  1  0.33333333  0.33333333  0.83191000  1.0
  Gd  Gd2  1  0.33333333  0.33333333  0.33191000  1.0
  Gd  Gd3  1  0.66666667  0.66666667  0.16809000  1.0
  Cu  Cu4  1  0.50000000  0.00000000  0.50000000  1.0
  Cu  Cu5  1  0.00000000  0.50000000  0.50000000  1.0
  Cu  Cu6  1  0.50000000  0.50000000  0.50000000  1.0
  Cu  Cu7  1  0.50000000  0.50000000  0.00000000  1.0
  Cu  Cu8  1  0.00000000  0.50000000  0.00000000  1.0
  Cu  Cu9  1  0.50000000  0.00000000  1.00000000  1.0
  H  H10  1  0.73944000  0.97342000  0.55384000  1.0
  H  H11  1  0.97342000  0.28714000  0.55385000  1.0
  H  H12  1  0.28714000  0.73944000  0.55385000  1.0
  H  H13  1  0.26057000  0.71285000  0.94616000  1.0
  H  H14  1  0.02658000  0.26056000  0.94615000  1.0
  H  H15  1  0.71286000  0.02657000  0.94616000  1.0
  H  H16  1  0.26056000  0.02658000  0.44616000  1.0
  H  H17  1  0.02658000  0.71286000  0.44616000  1.0
  H  H18  1  0.71286000  0.26056000  0.44615000  1.0
  H  H19  1  0.73944000  0.28714000  0.05384000  1.0
  H  H20  1  0.97343000  0.73943000  0.05384000  1.0
  H  H21  1  0.28714000  0.97342000  0.05384000  1.0
  H  H22  1  0.83120000  0.86415000  0.47396000  1.0
  H  H23  1  0.86416000  0.30465000  0.47396000  1.0
  H  H24  1  0.30465000  0.83120000  0.47396000  1.0
  H  H25  1  0.16881000  0.69534000  0.02604000  1.0
  H  H26  1  0.13585000  0.16880000  0.02604000  1.0
  H  H27  1  0.69535000  0.13584000  0.02604000  1.0
  H  H28  1  0.16880000  0.13585000  0.52604000  1.0
  H  H29  1  0.13585000  0.69534000  0.52604000  1.0
  H  H30  1  0.69535000  0.16881000  0.52604000  1.0
  H  H31  1  0.83119000  0.30466000  0.97396000  1.0
  H  H32  1  0.86416000  0.83119000  0.97396000  1.0
  H  H33  1  0.30465000  0.86416000  0.97396000  1.0
  H  H34  1  0.74049000  0.79689000  0.36853000  1.0
  H  H35  1  0.79689000  0.46262000  0.36853000  1.0
  H  H36  1  0.46262000  0.74049000  0.36853000  1.0
  H  H37  1  0.25951000  0.53737000  0.13147000  1.0
  H  H38  1  0.20312000  0.25950000  0.13147000  1.0
  H  H39  1  0.53738000  0.20311000  0.13147000  1.0
  H  H40  1  0.25951000  0.20311000  0.63147000  1.0
  H  H41  1  0.20311000  0.53738000  0.63147000  1.0
  H  H42  1  0.53738000  0.25951000  0.63147000  1.0
  H  H43  1  0.74049000  0.46262000  0.86852000  1.0
  H  H44  1  0.79689000  0.74049000  0.86852000  1.0
  H  H45  1  0.46262000  0.79689000  0.86853000  1.0
  H  H46  1  0.68758000  0.91655000  0.29485000  1.0
  H  H47  1  0.91655000  0.39587000  0.29486000  1.0
  H  H48  1  0.39587000  0.68757000  0.29486000  1.0
  H  H49  1  0.31242000  0.60413000  0.20515000  1.0
  H  H50  1  0.08345000  0.31242000  0.20515000  1.0
  H  H51  1  0.60413000  0.08345000  0.20515000  1.0
  H  H52  1  0.31242000  0.08344000  0.70515000  1.0
  H  H53  1  0.08345000  0.60413000  0.70514000  1.0
  H  H54  1  0.60413000  0.31242000  0.70514000  1.0
  H  H55  1  0.68758000  0.39587000  0.79485000  1.0
  H  H56  1  0.91655000  0.68758000  0.79485000  1.0
  H  H57  1  0.39587000  0.91655000  0.79485000  1.0
  H  H58  1  0.63899000  0.03783000  0.41672000  1.0
  H  H59  1  0.03783000  0.32318000  0.41672000  1.0
  H  H60  1  0.32318000  0.63899000  0.41672000  1.0
  H  H61  1  0.36101000  0.67682000  0.08328000  1.0
  H  H62  1  0.96217000  0.36102000  0.08328000  1.0
  H  H63  1  0.67682000  0.96217000  0.08329000  1.0
  H  H64  1  0.36101000  0.96217000  0.58328000  1.0
  H  H65  1  0.96217000  0.67682000  0.58328000  1.0
  H  H66  1  0.67682000  0.36101000  0.58328000  1.0
  H  H67  1  0.63899000  0.32318000  0.91672000  1.0
  H  H68  1  0.03783000  0.63899000  0.91671000  1.0
  H  H69  1  0.32318000  0.03783000  0.91672000  1.0
  C  C70  1  0.73699000  0.81683000  0.56814000  1.0
  C  C71  1  0.81683000  0.44618000  0.56815000  1.0
  C  C72  1  0.44618000  0.73699000  0.56815000  1.0
  C  C73  1  0.26301000  0.55382000  0.93185000  1.0
  C  C74  1  0.18317000  0.26301000  0.93185000  1.0
  C  C75  1  0.55382000  0.18317000  0.93185000  1.0
  C  C76  1  0.26301000  0.18317000  0.43185000  1.0
  C  C77  1  0.18317000  0.55382000  0.43185000  1.0
  C  C78  1  0.55382000  0.26301000  0.43185000  1.0
  C  C79  1  0.73699000  0.44618000  0.06815000  1.0
  C  C80  1  0.81683000  0.73699000  0.06815000  1.0
  C  C81  1  0.44618000  0.81683000  0.06815000  1.0
  C  C82  1  0.74554000  0.90571000  0.50719000  1.0
  C  C83  1  0.90571000  0.34875000  0.50719000  1.0
  C  C84  1  0.34875000  0.74554000  0.50719000  1.0
  C  C85  1  0.25446000  0.65124000  0.99281000  1.0
  C  C86  1  0.09429000  0.25446000  0.99281000  1.0
  C  C87  1  0.65125000  0.09429000  0.99281000  1.0
  C  C88  1  0.25445000  0.09430000  0.49281000  1.0
  C  C89  1  0.09429000  0.65125000  0.49281000  1.0
  C  C90  1  0.65125000  0.25446000  0.49280000  1.0
  C  C91  1  0.74554000  0.34876000  0.00719000  1.0
  C  C92  1  0.90571000  0.74554000  0.00719000  1.0
  C  C93  1  0.34875000  0.90571000  0.00719000  1.0
  C  C94  1  0.66715000  0.88434000  0.35801000  1.0
  C  C95  1  0.88434000  0.44851000  0.35801000  1.0
  C  C96  1  0.44851000  0.66715000  0.35801000  1.0
  C  C97  1  0.33285000  0.55149000  0.14199000  1.0
  C  C98  1  0.11566000  0.33285000  0.14199000  1.0
  C  C99  1  0.55149000  0.11566000  0.14199000  1.0
  C  C100  1  0.33285000  0.11566000  0.64199000  1.0
  C  C101  1  0.11566000  0.55149000  0.64199000  1.0
  C  C102  1  0.55149000  0.33285000  0.64199000  1.0
  C  C103  1  0.66715000  0.44851000  0.85801000  1.0
  C  C104  1  0.88434000  0.66715000  0.85801000  1.0
  C  C105  1  0.44851000  0.88434000  0.85801000  1.0
  C  C106  1  0.56142000  0.87298000  0.33931000  1.0
  C  C107  1  0.87298000  0.56560000  0.33931000  1.0
  C  C108  1  0.56560000  0.56141000  0.33931000  1.0
  C  C109  1  0.43858000  0.43440000  0.16070000  1.0
  C  C110  1  0.12703000  0.43857000  0.16070000  1.0
  C  C111  1  0.43440000  0.12702000  0.16070000  1.0
  C  C112  1  0.43858000  0.12701000  0.66069000  1.0
  C  C113  1  0.12701000  0.43441000  0.66069000  1.0
  C  C114  1  0.43440000  0.43859000  0.66069000  1.0
  C  C115  1  0.56142000  0.56560000  0.83930000  1.0
  C  C116  1  0.87298000  0.56142000  0.83930000  1.0
  C  C117  1  0.56560000  0.87298000  0.83930000  1.0
  N  N118  1  0.65209000  0.95830000  0.43874000  1.0
  N  N119  1  0.95829000  0.38962000  0.43874000  1.0
  N  N120  1  0.38961000  0.65210000  0.43874000  1.0
  N  N121  1  0.34791000  0.61038000  0.06126000  1.0
  N  N122  1  0.04171000  0.34791000  0.06126000  1.0
  N  N123  1  0.61039000  0.04170000  0.06126000  1.0
  N  N124  1  0.34791000  0.04170000  0.56126000  1.0
  N  N125  1  0.04171000  0.61038000  0.56126000  1.0
  N  N126  1  0.61039000  0.34790000  0.56126000  1.0
  N  N127  1  0.65209000  0.38962000  0.93874000  1.0
  N  N128  1  0.95829000  0.65209000  0.93874000  1.0
  N  N129  1  0.38962000  0.95829000  0.93874000  1.0
  O  O130  1  0.64547000  0.80959000  0.56061000  1.0
  O  O131  1  0.80959000  0.54494000  0.56061000  1.0
  O  O132  1  0.54494000  0.64547000  0.56061000  1.0
  O  O133  1  0.35453000  0.45506000  0.93939000  1.0
  O  O134  1  0.19041000  0.35453000  0.93939000  1.0
  O  O135  1  0.45506000  0.19041000  0.93939000  1.0
  O  O136  1  0.35453000  0.19041000  0.43939000  1.0
  O  O137  1  0.19041000  0.45506000  0.43939000  1.0
  O  O138  1  0.45506000  0.35453000  0.43939000  1.0
  O  O139  1  0.64547000  0.54494000  0.06061000  1.0
  O  O140  1  0.80959000  0.64547000  0.06061000  1.0
  O  O141  1  0.54494000  0.80959000  0.06061000  1.0
  O  O142  1  0.81753000  0.75630000  0.62391000  1.0
  O  O143  1  0.75629000  0.42618000  0.62391000  1.0
  O  O144  1  0.42618000  0.81753000  0.62391000  1.0
  O  O145  1  0.18247000  0.57383000  0.87609000  1.0
  O  O146  1  0.24371000  0.18247000  0.87609000  1.0
  O  O147  1  0.57382000  0.24371000  0.87609000  1.0
  O  O148  1  0.18247000  0.24370000  0.37609000  1.0
  O  O149  1  0.24370000  0.57383000  0.37609000  1.0
  O  O150  1  0.57382000  0.18247000  0.37609000  1.0
  O  O151  1  0.81753000  0.42618000  0.12391000  1.0
  O  O152  1  0.75630000  0.81752000  0.12391000  1.0
  O  O153  1  0.42618000  0.75629000  0.12391000  1.0
  O  O154  1  0.47550000  0.92142000  0.39446000  1.0
  O  O155  1  0.92141000  0.60308000  0.39446000  1.0
  O  O156  1  0.60308000  0.47551000  0.39446000  1.0
  O  O157  1  0.52450000  0.39691000  0.10554000  1.0
  O  O158  1  0.07860000  0.52449000  0.10554000  1.0
  O  O159  1  0.39692000  0.07858000  0.10554000  1.0
  O  O160  1  0.52450000  0.07858000  0.60554000  1.0
  O  O161  1  0.07859000  0.39691000  0.60554000  1.0
  O  O162  1  0.39692000  0.52449000  0.60554000  1.0
  O  O163  1  0.47550000  0.60309000  0.89446000  1.0
  O  O164  1  0.92141000  0.47551000  0.89446000  1.0
  O  O165  1  0.60309000  0.92141000  0.89446000  1.0
  O  O166  1  0.56262000  0.81454000  0.27020000  1.0
  O  O167  1  0.81454000  0.62284000  0.27020000  1.0
  O  O168  1  0.62284000  0.56262000  0.27020000  1.0
  O  O169  1  0.43738000  0.37716000  0.22980000  1.0
  O  O170  1  0.18546000  0.43738000  0.22980000  1.0
  O  O171  1  0.37716000  0.18546000  0.22980000  1.0
  O  O172  1  0.43738000  0.18546000  0.72980000  1.0
  O  O173  1  0.18546000  0.37716000  0.72980000  1.0
  O  O174  1  0.37716000  0.43738000  0.72980000  1.0
  O  O175  1  0.56262000  0.62284000  0.77020000  1.0
  O  O176  1  0.81454000  0.56262000  0.77020000  1.0
  O  O177  1  0.62284000  0.81454000  0.77020000  1.0
