# generated using pymatgen
data_Zr3H35C36O19
_symmetry_space_group_name_H-M   'P 1'
_cell_length_a   14.68152542
_cell_length_b   14.72910000
_cell_length_c   14.74320000
_cell_angle_alpha   119.42020000
_cell_angle_beta   90.65985267
_cell_angle_gamma   119.59183270
_symmetry_Int_Tables_number   1
_chemical_formula_structural   Zr3H35C36O19
_chemical_formula_sum   'Zr6 H70 C72 O38'
_cell_volume   2274.86744518
_cell_formula_units_Z   2
loop_
 _symmetry_equiv_pos_site_id
 _symmetry_equiv_pos_as_xyz
  1  'x, y, z'
loop_
 _atom_site_type_symbol
 _atom_site_label
 _atom_site_symmetry_multiplicity
 _atom_site_fract_x
 _atom_site_fract_y
 _atom_site_fract_z
 _atom_site_occupancy
  Zr  Zr0  1  0.11508000  0.23924000  0.62128000  1.0
  Zr  Zr1  1  0.88118000  0.76308000  0.38364000  1.0
  Zr  Zr2  1  0.87506000  0.99843000  0.61750000  1.0
  Zr  Zr3  1  0.12049000  0.00561000  0.38862000  1.0
  Zr  Zr4  1  0.87719000  0.99708000  0.37730000  1.0
  Zr  Zr5  1  0.11642000  0.00135000  0.62607000  1.0
  H  H6  1  0.90328000  0.18976000  0.59011000  1.0
  H  H7  1  0.90928000  0.81459000  0.22032000  1.0
  H  H8  1  0.90322000  0.81209000  0.59681000  1.0
  H  H9  1  0.28041000  0.19133000  0.60278000  1.0
  H  H10  1  0.76939000  0.47952000  0.55104000  1.0
  H  H11  1  0.81435000  0.57997000  0.50452000  1.0
  H  H12  1  0.73268000  0.41417000  0.40806000  1.0
  H  H13  1  0.26834000  0.58171000  0.58281000  1.0
  H  H14  1  0.19288000  0.41680000  0.48166000  1.0
  H  H15  1  0.24207000  0.52420000  0.44196000  1.0
  H  H16  1  0.73527000  0.30462000  0.48771000  1.0
  H  H17  1  0.75455000  0.19911000  0.37590000  1.0
  H  H18  1  0.80871000  0.24836000  0.51049000  1.0
  H  H19  1  0.23422000  0.66538000  0.43900000  1.0
  H  H20  1  0.20163000  0.77667000  0.51596000  1.0
  H  H21  1  0.27604000  0.75069000  0.58396000  1.0
  H  H22  1  0.58825000  0.32144000  0.98429000  1.0
  H  H23  1  0.70741000  0.48034000  0.07118000  1.0
  H  H24  1  0.61673000  0.41089000  0.12897000  1.0
  H  H25  1  0.37865000  0.58727000  0.87666000  1.0
  H  H26  1  0.28165000  0.51541000  0.92894000  1.0
  H  H27  1  0.40029000  0.67458000  0.02003000  1.0
  H  H28  1  0.42755000  0.23967000  0.00203000  1.0
  H  H29  1  0.29934000  0.19259000  0.92706000  1.0
  H  H30  1  0.39015000  0.16943000  0.85767000  1.0
  H  H31  1  0.59415000  0.82554000  0.15056000  1.0
  H  H32  1  0.68948000  0.80619000  0.08672000  1.0
  H  H33  1  0.56308000  0.75703000  0.00655000  1.0
  H  H34  1  0.17907000  0.31790000  0.08668000  1.0
  H  H35  1  0.10395000  0.23264000  0.94532000  1.0
  H  H36  1  0.04401000  0.28035000  0.04745000  1.0
  H  H37  1  0.93005000  0.70624000  0.92464000  1.0
  H  H38  1  0.94374000  0.78635000  0.06523000  1.0
  H  H39  1  0.81792000  0.71152000  0.96369000  1.0
  H  H40  1  0.07862000  0.22744000  0.28617000  1.0
  H  H41  1  0.18741000  0.30714000  0.24561000  1.0
  H  H42  1  0.06279000  0.29642000  0.22268000  1.0
  H  H43  1  0.82729000  0.68493000  0.78291000  1.0
  H  H44  1  0.86305000  0.77077000  0.72303000  1.0
  H  H45  1  0.95637000  0.74131000  0.75970000  1.0
  H  H46  1  0.55891000  0.79279000  0.30351000  1.0
  H  H47  1  0.42697000  0.68973000  0.30378000  1.0
  H  H48  1  0.43632000  0.75294000  0.22635000  1.0
  H  H49  1  0.58359000  0.29442000  0.72098000  1.0
  H  H50  1  0.43751000  0.21148000  0.66927000  1.0
  H  H51  1  0.49592000  0.19111000  0.75671000  1.0
  H  H52  1  0.26913000  0.68611000  0.28406000  1.0
  H  H53  1  0.21028000  0.77346000  0.33706000  1.0
  H  H54  1  0.28112000  0.78474000  0.24280000  1.0
  H  H55  1  0.70461000  0.19454000  0.74945000  1.0
  H  H56  1  0.77447000  0.20794000  0.65586000  1.0
  H  H57  1  0.71703000  0.29520000  0.71047000  1.0
  H  H58  1  0.69835000  0.81260000  0.73528000  1.0
  H  H59  1  0.61143000  0.82381000  0.66493000  1.0
  H  H60  1  0.56636000  0.77038000  0.75046000  1.0
  H  H61  1  0.40158000  0.23344000  0.23351000  1.0
  H  H62  1  0.37571000  0.17997000  0.32063000  1.0
  H  H63  1  0.27745000  0.19112000  0.26721000  1.0
  H  H64  1  0.40148000  0.59365000  0.72683000  1.0
  H  H65  1  0.42354000  0.48156000  0.71389000  1.0
  H  H66  1  0.53873000  0.64033000  0.77492000  1.0
  H  H67  1  0.44708000  0.37152000  0.21978000  1.0
  H  H68  1  0.57074000  0.52586000  0.28406000  1.0
  H  H69  1  0.57765000  0.40193000  0.26481000  1.0
  H  H70  1  0.89884000  0.52213000  0.18947000  1.0
  H  H71  1  0.87857000  0.20352000  0.87649000  1.0
  H  H72  1  0.17946000  0.86159000  0.19627000  1.0
  H  H73  1  0.26104000  0.94221000  0.05340000  1.0
  H  H74  1  0.15617000  0.76157000  0.78664000  1.0
  H  H75  1  0.99697000  0.46143000  0.66557000  1.0
  C  C76  1  0.00027000  0.29685000  0.48523000  1.0
  C  C77  1  0.69834000  0.69209000  0.19098000  1.0
  C  C78  1  0.00373000  0.69760000  0.50166000  1.0
  C  C79  1  0.28919000  0.30401000  0.81850000  1.0
  C  C80  1  0.98686000  0.30277000  0.79839000  1.0
  C  C81  1  0.30410000  0.30528000  0.50358000  1.0
  C  C82  1  0.01525000  0.70223000  0.19989000  1.0
  C  C83  1  0.68566000  0.69636000  0.49306000  1.0
  C  C84  1  0.68734000  0.99004000  0.48961000  1.0
  C  C85  1  0.99481000  0.00382000  0.80896000  1.0
  C  C86  1  0.29851000  0.99340000  0.50456000  1.0
  C  C87  1  0.00354000  0.00599000  0.19979000  1.0
  C  C88  1  0.00335000  0.59347000  0.49685000  1.0
  C  C89  1  0.00046000  0.39804000  0.48421000  1.0
  C  C90  1  0.90341000  0.49279000  0.48635000  1.0
  C  C91  1  0.10017000  0.49886000  0.49523000  1.0
  C  C92  1  0.90122000  0.39217000  0.47782000  1.0
  C  C93  1  0.10143000  0.59771000  0.50087000  1.0
  C  C94  1  0.59957000  0.59201000  0.08672000  1.0
  C  C95  1  0.38822000  0.40450000  0.92281000  1.0
  C  C96  1  0.55297000  0.46149000  0.03885000  1.0
  C  C97  1  0.43545000  0.53491000  0.96943000  1.0
  C  C98  1  0.44342000  0.36830000  0.96320000  1.0
  C  C99  1  0.54448000  0.62828000  0.04628000  1.0
  C  C100  1  0.99606000  0.00436000  0.91086000  1.0
  C  C101  1  0.00320000  0.00567000  0.09793000  1.0
  C  C102  1  0.04582000  0.12110000  0.01401000  1.0
  C  C103  1  0.95559000  0.88902000  0.99466000  1.0
  C  C104  1  0.04746000  0.12131000  0.10958000  1.0
  C  C105  1  0.95017000  0.88814000  0.89895000  1.0
  C  C106  1  0.58592000  0.99074000  0.49131000  1.0
  C  C107  1  0.39859000  0.99032000  0.50123000  1.0
  C  C108  1  0.48594000  0.88748000  0.40242000  1.0
  C  C109  1  0.49868000  0.09393000  0.59020000  1.0
  C  C110  1  0.39023000  0.88733000  0.40758000  1.0
  C  C111  1  0.59429000  0.09401000  0.58538000  1.0
  C  C112  1  0.97614000  0.39979000  0.88861000  1.0
  C  C113  1  0.02547000  0.52334000  0.90914000  1.0
  C  C114  1  0.93435000  0.37696000  0.96491000  1.0
  C  C115  1  0.03402000  0.53836000  0.82144000  1.0
  C  C116  1  0.10138000  0.65921000  0.84360000  1.0
  C  C117  1  0.01485000  0.60604000  0.09781000  1.0
  C  C118  1  0.94588000  0.47907000  0.06609000  1.0
  C  C119  1  0.06657000  0.63239000  0.02120000  1.0
  C  C120  1  0.14694000  0.75257000  0.04135000  1.0
  C  C121  1  0.16242000  0.76402000  0.95320000  1.0
  C  C122  1  0.58076000  0.59804000  0.49274000  1.0
  C  C123  1  0.40483000  0.40511000  0.50128000  1.0
  C  C124  1  0.55531000  0.63011000  0.59232000  1.0
  C  C125  1  0.42786000  0.37359000  0.40059000  1.0
  C  C126  1  0.47074000  0.53144000  0.59767000  1.0
  C  C127  1  0.51388000  0.47206000  0.39600000  1.0
  C  C128  1  0.80041000  0.49246000  0.48790000  1.0
  C  C129  1  0.20532000  0.50419000  0.49988000  1.0
  C  C130  1  0.79476000  0.28123000  0.46286000  1.0
  C  C131  1  0.20784000  0.70335000  0.51015000  1.0
  C  C132  1  0.61964000  0.41647000  0.05745000  1.0
  C  C133  1  0.37055000  0.57997000  0.94717000  1.0
  C  C134  1  0.38740000  0.23551000  0.93558000  1.0
  C  C135  1  0.60064000  0.76134000  0.07454000  1.0
  C  C136  1  0.09582000  0.24398000  0.02349000  1.0
  C  C137  1  0.90923000  0.76721000  0.98659000  1.0
  C  C138  1  0.09641000  0.24386000  0.22168000  1.0
  C  C139  1  0.89689000  0.76533000  0.78569000  1.0
  C  C140  1  0.47763000  0.77573000  0.30444000  1.0
  C  C141  1  0.50419000  0.20316000  0.68860000  1.0
  C  C142  1  0.28198000  0.77747000  0.31365000  1.0
  C  C143  1  0.70268000  0.20295000  0.67935000  1.0
  C  C144  1  0.61099000  0.76588000  0.69126000  1.0
  C  C145  1  0.36726000  0.23802000  0.29978000  1.0
  C  C146  1  0.45785000  0.56315000  0.70891000  1.0
  C  C147  1  0.52830000  0.44177000  0.28567000  1.0
  O  O148  1  0.07467000  0.33475000  0.56589000  1.0
  O  O149  1  0.73912000  0.65747000  0.23487000  1.0
  O  O150  1  0.93010000  0.66309000  0.42216000  1.0
  O  O151  1  0.25277000  0.33927000  0.77192000  1.0
  O  O152  1  0.91541000  0.18508000  0.76442000  1.0
  O  O153  1  0.26588000  0.18853000  0.43214000  1.0
  O  O154  1  0.08482000  0.82178000  0.24240000  1.0
  O  O155  1  0.72806000  0.81337000  0.56743000  1.0
  O  O156  1  0.72823000  0.99195000  0.41391000  1.0
  O  O157  1  0.07181000  0.00262000  0.77037000  1.0
  O  O158  1  0.25988000  0.99511000  0.58225000  1.0
  O  O159  1  0.92132000  0.99656000  0.23288000  1.0
  O  O160  1  0.91738000  0.00333000  0.76763000  1.0
  O  O161  1  0.25980000  0.99639000  0.42884000  1.0
  O  O162  1  0.08427000  0.01421000  0.24530000  1.0
  O  O163  1  0.72690000  0.98940000  0.56660000  1.0
  O  O164  1  0.06765000  0.33803000  0.76323000  1.0
  O  O165  1  0.73186000  0.65943000  0.42315000  1.0
  O  O166  1  0.94219000  0.66517000  0.24457000  1.0
  O  O167  1  0.25851000  0.34031000  0.57472000  1.0
  O  O168  1  0.25114000  0.18735000  0.77508000  1.0
  O  O169  1  0.92464000  0.18083000  0.40892000  1.0
  O  O170  1  0.73372000  0.80830000  0.23682000  1.0
  O  O171  1  0.07514000  0.81241000  0.58341000  1.0
  O  O172  1  0.19985000  0.13695000  0.57504000  1.0
  O  O173  1  0.92971000  0.86559000  0.56980000  1.0
  O  O174  1  0.93502000  0.86626000  0.30042000  1.0
  O  O175  1  0.92740000  0.13333000  0.56427000  1.0
  O  O176  1  0.84939000  0.89989000  0.44944000  1.0
  O  O177  1  0.04722000  0.09954000  0.45234000  1.0
  O  O178  1  0.04996000  0.90359000  0.45645000  1.0
  O  O179  1  0.04426000  0.09840000  0.65017000  1.0
  O  O180  1  0.88940000  0.44321000  0.12623000  1.0
  O  O181  1  0.88383000  0.26423000  0.95208000  1.0
  O  O182  1  0.21817000  0.86598000  0.14157000  1.0
  O  O183  1  0.23426000  0.88110000  0.97275000  1.0
  O  O184  1  0.10620000  0.67132000  0.75693000  1.0
  O  O185  1  0.97079000  0.43462000  0.71455000  1.0
