# generated using pymatgen
data_CuH11C18NO3
_symmetry_space_group_name_H-M   'P 1'
_cell_length_a   7.18727000
_cell_length_b   12.18340000
_cell_length_c   15.71840000
_cell_angle_alpha   89.99620000
_cell_angle_beta   89.99460000
_cell_angle_gamma   89.99900000
_symmetry_Int_Tables_number   1
_chemical_formula_structural   CuH11C18NO3
_chemical_formula_sum   'Cu4 H44 C72 N4 O12'
_cell_volume   1376.38774323
_cell_formula_units_Z   4
loop_
 _symmetry_equiv_pos_site_id
 _symmetry_equiv_pos_as_xyz
  1  'x, y, z'
loop_
 _atom_site_type_symbol
 _atom_site_label
 _atom_site_symmetry_multiplicity
 _atom_site_fract_x
 _atom_site_fract_y
 _atom_site_fract_z
 _atom_site_occupancy
  Cu  Cu0  1  0.96416000  0.38269000  0.95853000  1.0
  Cu  Cu1  1  0.53585000  0.61726000  0.45851000  1.0
  Cu  Cu2  1  0.03588000  0.88274000  0.54150000  1.0
  Cu  Cu3  1  0.46416000  0.11731000  0.04146000  1.0
  H  H4  1  0.90278000  0.61328000  0.17120000  1.0
  H  H5  1  0.59699000  0.38662000  0.67120000  1.0
  H  H6  1  0.09708000  0.11337000  0.32883000  1.0
  H  H7  1  0.40290000  0.88671000  0.82878000  1.0
  H  H8  1  0.96882000  0.57661000  0.32230000  1.0
  H  H9  1  0.53098000  0.42333000  0.82230000  1.0
  H  H10  1  0.03110000  0.07668000  0.17773000  1.0
  H  H11  1  0.46896000  0.92341000  0.67769000  1.0
  H  H12  1  0.14515000  0.40724000  0.36416000  1.0
  H  H13  1  0.35479000  0.59277000  0.86415000  1.0
  H  H14  1  0.85491000  0.90726000  0.13588000  1.0
  H  H15  1  0.64527000  0.09278000  0.63583000  1.0
  H  H16  1  0.24390000  0.27556000  0.25160000  1.0
  H  H17  1  0.25616000  0.72445000  0.75157000  1.0
  H  H18  1  0.75621000  0.77556000  0.24845000  1.0
  H  H19  1  0.74399000  0.22445000  0.74839000  1.0
  H  H20  1  0.08183000  0.65578000  0.06782000  1.0
  H  H21  1  0.41803000  0.34416000  0.56782000  1.0
  H  H22  1  0.91807000  0.15583000  0.43221000  1.0
  H  H23  1  0.58189000  0.84421000  0.93217000  1.0
  H  H24  1  0.80854000  0.59518000  0.74071000  1.0
  H  H25  1  0.69137000  0.40481000  0.24069000  1.0
  H  H26  1  0.19148000  0.09521000  0.75931000  1.0
  H  H27  1  0.30862000  0.90483000  0.25930000  1.0
  H  H28  1  0.84333000  0.79667000  0.72526000  1.0
  H  H29  1  0.65665000  0.20331000  0.22525000  1.0
  H  H30  1  0.15667000  0.29670000  0.77475000  1.0
  H  H31  1  0.34335000  0.70332000  0.27475000  1.0
  H  H32  1  0.09590000  0.80667000  0.05999000  1.0
  H  H33  1  0.40416000  0.19324000  0.56001000  1.0
  H  H34  1  0.90407000  0.30673000  0.44002000  1.0
  H  H35  1  0.59581000  0.69332000  0.93998000  1.0
  H  H36  1  0.11097000  0.00409000  0.04114000  1.0
  H  H37  1  0.38916000  0.99583000  0.54116000  1.0
  H  H38  1  0.88902000  0.50414000  0.45886000  1.0
  H  H39  1  0.61086000  0.49590000  0.95882000  1.0
  H  H40  1  0.03642000  0.09110000  0.90227000  1.0
  H  H41  1  0.46365000  0.90886000  0.40227000  1.0
  H  H42  1  0.96357000  0.59114000  0.59772000  1.0
  H  H43  1  0.53634000  0.40889000  0.09770000  1.0
  H  H44  1  0.93076000  0.97226000  0.78143000  1.0
  H  H45  1  0.56926000  0.02774000  0.28142000  1.0
  H  H46  1  0.06924000  0.47228000  0.71856000  1.0
  H  H47  1  0.43071000  0.52773000  0.21855000  1.0
  C  C48  1  0.20539000  0.28835000  0.08601000  1.0
  C  C49  1  0.29469000  0.71166000  0.58599000  1.0
  C  C50  1  0.79473000  0.78835000  0.41403000  1.0
  C  C51  1  0.70543000  0.21165000  0.91398000  1.0
  C  C52  1  0.13383000  0.36999000  0.14862000  1.0
  C  C53  1  0.36616000  0.62998000  0.64860000  1.0
  C  C54  1  0.86621000  0.87002000  0.35142000  1.0
  C  C55  1  0.63390000  0.13000000  0.85137000  1.0
  C  C56  1  0.04426000  0.46867000  0.12471000  1.0
  C  C57  1  0.45568000  0.53128000  0.62470000  1.0
  C  C58  1  0.95571000  0.96871000  0.37531000  1.0
  C  C59  1  0.54431000  0.03133000  0.87527000  1.0
  C  C60  1  0.98285000  0.54084000  0.18886000  1.0
  C  C61  1  0.51699000  0.45909000  0.68885000  1.0
  C  C62  1  0.01705000  0.04090000  0.31117000  1.0
  C  C63  1  0.48297000  0.95916000  0.81113000  1.0
  C  C64  1  0.01931000  0.51953000  0.27417000  1.0
  C  C65  1  0.48054000  0.48043000  0.77416000  1.0
  C  C66  1  0.98063000  0.01958000  0.22586000  1.0
  C  C67  1  0.51944000  0.98049000  0.72582000  1.0
  C  C68  1  0.11446000  0.42420000  0.29764000  1.0
  C  C69  1  0.38547000  0.57578000  0.79762000  1.0
  C  C70  1  0.88555000  0.92423000  0.20240000  1.0
  C  C71  1  0.61458000  0.07581000  0.70235000  1.0
  C  C72  1  0.16861000  0.35008000  0.23504000  1.0
  C  C73  1  0.33140000  0.64991000  0.73502000  1.0
  C  C74  1  0.83145000  0.85011000  0.26500000  1.0
  C  C75  1  0.66870000  0.14993000  0.76495000  1.0
  C  C76  1  0.03252000  0.60149000  0.01727000  1.0
  C  C77  1  0.46739000  0.39845000  0.51727000  1.0
  C  C78  1  0.96744000  0.10154000  0.48276000  1.0
  C  C79  1  0.53257000  0.89850000  0.98272000  1.0
  C  C80  1  0.98942000  0.65141000  0.93851000  1.0
  C  C81  1  0.51053000  0.34853000  0.43851000  1.0
  C  C82  1  0.01057000  0.15146000  0.56150000  1.0
  C  C83  1  0.48943000  0.84858000  0.06147000  1.0
  C  C84  1  0.92002000  0.58886000  0.86821000  1.0
  C  C85  1  0.57990000  0.41110000  0.36819000  1.0
  C  C86  1  0.08000000  0.08890000  0.63181000  1.0
  C  C87  1  0.42005000  0.91114000  0.13179000  1.0
  C  C88  1  0.86399000  0.64503000  0.79220000  1.0
  C  C89  1  0.63594000  0.35495000  0.29218000  1.0
  C  C90  1  0.13603000  0.14507000  0.70782000  1.0
  C  C91  1  0.36403000  0.85497000  0.20781000  1.0
  C  C92  1  0.88229000  0.75605000  0.78451000  1.0
  C  C93  1  0.61766000  0.24394000  0.28450000  1.0
  C  C94  1  0.11771000  0.25608000  0.71550000  1.0
  C  C95  1  0.38232000  0.74395000  0.21549000  1.0
  C  C96  1  0.95271000  0.82184000  0.85234000  1.0
  C  C97  1  0.54725000  0.17814000  0.35233000  1.0
  C  C98  1  0.04727000  0.32186000  0.64767000  1.0
  C  C99  1  0.45269000  0.67816000  0.14765000  1.0
  C  C100  1  0.00314000  0.77038000  0.93091000  1.0
  C  C101  1  0.49683000  0.22958000  0.43091000  1.0
  C  C102  1  0.99683000  0.27042000  0.56910000  1.0
  C  C103  1  0.50312000  0.72962000  0.06907000  1.0
  C  C104  1  0.05845000  0.84019000  0.99816000  1.0
  C  C105  1  0.44159000  0.15975000  0.49817000  1.0
  C  C106  1  0.94152000  0.34024000  0.50184000  1.0
  C  C107  1  0.55837000  0.65980000  0.00181000  1.0
  C  C108  1  0.06749000  0.95307000  0.98782000  1.0
  C  C109  1  0.43259000  0.04687000  0.48784000  1.0
  C  C110  1  0.93248000  0.45311000  0.51218000  1.0
  C  C111  1  0.56740000  0.54692000  0.01214000  1.0
  C  C112  1  0.02546000  0.00232000  0.90942000  1.0
  C  C113  1  0.47460000  0.99763000  0.40942000  1.0
  C  C114  1  0.97452000  0.50236000  0.59058000  1.0
  C  C115  1  0.52537000  0.49767000  0.09055000  1.0
  C  C116  1  0.96771000  0.93673000  0.84272000  1.0
  C  C117  1  0.53230000  0.06324000  0.34272000  1.0
  C  C118  1  0.03227000  0.43676000  0.65728000  1.0
  C  C119  1  0.46766000  0.56326000  0.15725000  1.0
  N  N120  1  0.01953000  0.49688000  0.03848000  1.0
  N  N121  1  0.48041000  0.50306000  0.53847000  1.0
  N  N122  1  0.98045000  0.99693000  0.46155000  1.0
  N  N123  1  0.51958000  0.00312000  0.96151000  1.0
  O  O124  1  0.12823000  0.27471000  0.01331000  1.0
  O  O125  1  0.37184000  0.72526000  0.51328000  1.0
  O  O126  1  0.87184000  0.77475000  0.48675000  1.0
  O  O127  1  0.62822000  0.22529000  0.98667000  1.0
  O  O128  1  0.34463000  0.23169000  0.11037000  1.0
  O  O129  1  0.15553000  0.76837000  0.61037000  1.0
  O  O130  1  0.65559000  0.73163000  0.38965000  1.0
  O  O131  1  0.84468000  0.26830000  0.88962000  1.0
  O  O132  1  0.90214000  0.48254000  0.86821000  1.0
  O  O133  1  0.59775000  0.51742000  0.36818000  1.0
  O  O134  1  0.09791000  0.98258000  0.63181000  1.0
  O  O135  1  0.40217000  0.01746000  0.13178000  1.0
