# generated using pymatgen
data_ZnH13C16N5O6
_symmetry_space_group_name_H-M   'P 1'
_cell_length_a   9.23016000
_cell_length_b   14.01210000
_cell_length_c   14.14940000
_cell_angle_alpha   90.00010000
_cell_angle_beta   90.00000000
_cell_angle_gamma   90.00000000
_symmetry_Int_Tables_number   1
_chemical_formula_structural   ZnH13C16N5O6
_chemical_formula_sum   'Zn4 H52 C64 N20 O24'
_cell_volume   1829.99743749
_cell_formula_units_Z   4
loop_
 _symmetry_equiv_pos_site_id
 _symmetry_equiv_pos_as_xyz
  1  'x, y, z'
loop_
 _atom_site_type_symbol
 _atom_site_label
 _atom_site_symmetry_multiplicity
 _atom_site_fract_x
 _atom_site_fract_y
 _atom_site_fract_z
 _atom_site_occupancy
  Zn  Zn0  1  0.83591000  0.75000000  0.75000000  1.0
  Zn  Zn1  1  0.66409000  0.75000000  0.25000000  1.0
  Zn  Zn2  1  0.16410000  0.25000000  0.25000000  1.0
  Zn  Zn3  1  0.33591000  0.25000000  0.75000000  1.0
  H  H4  1  0.07027000  0.51627000  0.59779000  1.0
  H  H5  1  0.42973000  0.51627000  0.40221000  1.0
  H  H6  1  0.07027000  0.98373000  0.90221000  1.0
  H  H7  1  0.42973000  0.98373000  0.09779000  1.0
  H  H8  1  0.92973000  0.48373000  0.40221000  1.0
  H  H9  1  0.57027000  0.48373000  0.59779000  1.0
  H  H10  1  0.92973000  0.01627000  0.09779000  1.0
  H  H11  1  0.57027000  0.01627000  0.90221000  1.0
  H  H12  1  0.25000000  0.78179000  0.50000000  1.0
  H  H13  1  0.25000000  0.71821000  0.00000000  1.0
  H  H14  1  0.75000000  0.21821000  0.50000000  1.0
  H  H15  1  0.75000000  0.28179000  0.00000000  1.0
  H  H16  1  0.78546000  0.96280000  0.79159000  1.0
  H  H17  1  0.71454000  0.96279000  0.20841000  1.0
  H  H18  1  0.78546000  0.53720000  0.70841000  1.0
  H  H19  1  0.71454000  0.53721000  0.29159000  1.0
  H  H20  1  0.21454000  0.03720000  0.20841000  1.0
  H  H21  1  0.28546000  0.03720000  0.79159000  1.0
  H  H22  1  0.21454000  0.46280000  0.29159000  1.0
  H  H23  1  0.28546000  0.46280000  0.70841000  1.0
  H  H24  1  0.58942000  0.07680000  0.69016000  1.0
  H  H25  1  0.91058000  0.07680000  0.30984000  1.0
  H  H26  1  0.58942000  0.42320000  0.80984000  1.0
  H  H27  1  0.91058000  0.42320000  0.19016000  1.0
  H  H28  1  0.41058000  0.92320000  0.30984000  1.0
  H  H29  1  0.08942000  0.92320000  0.69016000  1.0
  H  H30  1  0.41058000  0.57680000  0.19016000  1.0
  H  H31  1  0.08942000  0.57680000  0.80984000  1.0
  H  H32  1  0.38493000  0.02651000  0.57416000  1.0
  H  H33  1  0.11507000  0.02651000  0.42584000  1.0
  H  H34  1  0.38493000  0.47349000  0.92584000  1.0
  H  H35  1  0.11507000  0.47349000  0.07416000  1.0
  H  H36  1  0.61507000  0.97349000  0.42584000  1.0
  H  H37  1  0.88493000  0.97349000  0.57416000  1.0
  H  H38  1  0.61507000  0.52651000  0.07416000  1.0
  H  H39  1  0.88493000  0.52651000  0.92584000  1.0
  H  H40  1  0.40234000  0.91297000  0.51565000  1.0
  H  H41  1  0.09766000  0.91297000  0.48435000  1.0
  H  H42  1  0.40234000  0.58703000  0.98435000  1.0
  H  H43  1  0.09766000  0.58703000  0.01565000  1.0
  H  H44  1  0.59766000  0.08703000  0.48435000  1.0
  H  H45  1  0.90234000  0.08703000  0.51565000  1.0
  H  H46  1  0.59766000  0.41297000  0.01565000  1.0
  H  H47  1  0.90234000  0.41297000  0.98435000  1.0
  H  H48  1  0.59787000  0.79792000  0.57401000  1.0
  H  H49  1  0.90213000  0.79792000  0.42599000  1.0
  H  H50  1  0.59787000  0.70208000  0.92599000  1.0
  H  H51  1  0.90213000  0.70208000  0.07401000  1.0
  H  H52  1  0.40213000  0.20208000  0.42599000  1.0
  H  H53  1  0.09787000  0.20208000  0.57401000  1.0
  H  H54  1  0.40213000  0.29792000  0.07401000  1.0
  H  H55  1  0.09787000  0.29792000  0.92599000  1.0
  C  C56  1  0.03955000  0.71324000  0.61041000  1.0
  C  C57  1  0.46046000  0.71324000  0.38959000  1.0
  C  C58  1  0.03955000  0.78676000  0.88959000  1.0
  C  C59  1  0.46046000  0.78676000  0.11041000  1.0
  C  C60  1  0.96046000  0.28676000  0.38959000  1.0
  C  C61  1  0.53954000  0.28676000  0.61041000  1.0
  C  C62  1  0.96046000  0.21324000  0.11041000  1.0
  C  C63  1  0.53954000  0.21324000  0.88959000  1.0
  C  C64  1  0.14742000  0.65559000  0.55436000  1.0
  C  C65  1  0.35258000  0.65559000  0.44564000  1.0
  C  C66  1  0.14742000  0.84441000  0.94563000  1.0
  C  C67  1  0.35258000  0.84441000  0.05436000  1.0
  C  C68  1  0.85258000  0.34441000  0.44564000  1.0
  C  C69  1  0.64742000  0.34441000  0.55436000  1.0
  C  C70  1  0.85258000  0.15559000  0.05437000  1.0
  C  C71  1  0.64742000  0.15559000  0.94564000  1.0
  C  C72  1  0.14754000  0.55592000  0.55510000  1.0
  C  C73  1  0.35245000  0.55592000  0.44490000  1.0
  C  C74  1  0.14754000  0.94408000  0.94490000  1.0
  C  C75  1  0.35246000  0.94408000  0.05510000  1.0
  C  C76  1  0.85246000  0.44408000  0.44490000  1.0
  C  C77  1  0.64754000  0.44408000  0.55510000  1.0
  C  C78  1  0.85245000  0.05592000  0.05510000  1.0
  C  C79  1  0.64754000  0.05592000  0.94490000  1.0
  C  C80  1  0.25000000  0.50807000  0.50000000  1.0
  C  C81  1  0.25000000  0.99193000  0.00000000  1.0
  C  C82  1  0.75000000  0.49193000  0.50000000  1.0
  C  C83  1  0.74999000  0.00807000  0.00000000  1.0
  C  C84  1  0.25000000  0.70414000  0.50000000  1.0
  C  C85  1  0.25000000  0.79586000  0.00000000  1.0
  C  C86  1  0.75000000  0.29587000  0.50000000  1.0
  C  C87  1  0.75000000  0.20413000  0.00000000  1.0
  C  C88  1  0.71621000  0.94592000  0.73225000  1.0
  C  C89  1  0.78378000  0.94592000  0.26775000  1.0
  C  C90  1  0.71621000  0.55407000  0.76775000  1.0
  C  C91  1  0.78378000  0.55408000  0.23225000  1.0
  C  C92  1  0.28379000  0.05407000  0.26775000  1.0
  C  C93  1  0.21621000  0.05408000  0.73225000  1.0
  C  C94  1  0.28379000  0.44593000  0.23225000  1.0
  C  C95  1  0.21621000  0.44593000  0.76775000  1.0
  C  C96  1  0.62147000  0.00267000  0.68315000  1.0
  C  C97  1  0.87853000  0.00267000  0.31685000  1.0
  C  C98  1  0.62147000  0.49733000  0.81685000  1.0
  C  C99  1  0.87853000  0.49733000  0.18315000  1.0
  C  C100  1  0.37853000  0.99733000  0.31685000  1.0
  C  C101  1  0.12147000  0.99733000  0.68315000  1.0
  C  C102  1  0.37853000  0.50267000  0.18315000  1.0
  C  C103  1  0.12147000  0.50267000  0.81685000  1.0
  C  C104  1  0.46049000  0.97605000  0.54133000  1.0
  C  C105  1  0.03952000  0.97605000  0.45867000  1.0
  C  C106  1  0.46049000  0.52395000  0.95867000  1.0
  C  C107  1  0.03952000  0.52395000  0.04133000  1.0
  C  C108  1  0.53952000  0.02395000  0.45867000  1.0
  C  C109  1  0.96048000  0.02395000  0.54133000  1.0
  C  C110  1  0.53952000  0.47605000  0.04133000  1.0
  C  C111  1  0.96048000  0.47605000  0.95867000  1.0
  C  C112  1  0.62249000  0.85681000  0.62115000  1.0
  C  C113  1  0.87751000  0.85681000  0.37885000  1.0
  C  C114  1  0.62249000  0.64319000  0.87885000  1.0
  C  C115  1  0.87752000  0.64319000  0.12115000  1.0
  C  C116  1  0.37751000  0.14319000  0.37885000  1.0
  C  C117  1  0.12249000  0.14319000  0.62115000  1.0
  C  C118  1  0.37752000  0.35682000  0.12115000  1.0
  C  C119  1  0.12249000  0.35681000  0.87885000  1.0
  N  N120  1  0.71544000  0.85523000  0.69338000  1.0
  N  N121  1  0.78456000  0.85523000  0.30662000  1.0
  N  N122  1  0.71544000  0.64477000  0.80662000  1.0
  N  N123  1  0.78456000  0.64477000  0.19338000  1.0
  N  N124  1  0.28456000  0.14477000  0.30662000  1.0
  N  N125  1  0.21544000  0.14477000  0.69338000  1.0
  N  N126  1  0.28456000  0.35523000  0.19338000  1.0
  N  N127  1  0.21544000  0.35523000  0.80662000  1.0
  N  N128  1  0.56315000  0.94520000  0.61332000  1.0
  N  N129  1  0.93685000  0.94521000  0.38668000  1.0
  N  N130  1  0.56315000  0.55480000  0.88668000  1.0
  N  N131  1  0.93685000  0.55479000  0.11332000  1.0
  N  N132  1  0.43685000  0.05480000  0.38668000  1.0
  N  N133  1  0.06315000  0.05480000  0.61332000  1.0
  N  N134  1  0.43685000  0.44521000  0.11332000  1.0
  N  N135  1  0.06315000  0.44520000  0.88668000  1.0
  N  N136  1  0.25000000  0.40335000  0.50000000  1.0
  N  N137  1  0.25000000  0.09665000  0.00000000  1.0
  N  N138  1  0.75000000  0.59665000  0.50000000  1.0
  N  N139  1  0.75000000  0.90335000  0.00000000  1.0
  O  O140  1  0.03460000  0.80163000  0.59835000  1.0
  O  O141  1  0.46540000  0.80163000  0.40165000  1.0
  O  O142  1  0.03460000  0.69837000  0.90165000  1.0
  O  O143  1  0.46540000  0.69837000  0.09835000  1.0
  O  O144  1  0.96541000  0.19837000  0.40165000  1.0
  O  O145  1  0.53460000  0.19837000  0.59835000  1.0
  O  O146  1  0.96541000  0.30163000  0.09835000  1.0
  O  O147  1  0.53459000  0.30163000  0.90165000  1.0
  O  O148  1  0.95890000  0.66580000  0.66859000  1.0
  O  O149  1  0.54110000  0.66580000  0.33141000  1.0
  O  O150  1  0.95890000  0.83420000  0.83141000  1.0
  O  O151  1  0.54110000  0.83420000  0.16859000  1.0
  O  O152  1  0.04110000  0.33421000  0.33141000  1.0
  O  O153  1  0.45890000  0.33421000  0.66859000  1.0
  O  O154  1  0.04110000  0.16579000  0.16859000  1.0
  O  O155  1  0.45890000  0.16580000  0.83141000  1.0
  O  O156  1  0.16061000  0.36182000  0.55121000  1.0
  O  O157  1  0.33939000  0.36182000  0.44878000  1.0
  O  O158  1  0.16061000  0.13818000  0.94879000  1.0
  O  O159  1  0.33939000  0.13818000  0.05122000  1.0
  O  O160  1  0.83939000  0.63818000  0.44878000  1.0
  O  O161  1  0.66061000  0.63818000  0.55122000  1.0
  O  O162  1  0.83939000  0.86182000  0.05121000  1.0
  O  O163  1  0.66061000  0.86181000  0.94878000  1.0
