# generated using pymatgen
data_K2H14C16N6O5
_symmetry_space_group_name_H-M   'P 1'
_cell_length_a   4.47431000
_cell_length_b   6.43689244
_cell_length_c   17.41800000
_cell_angle_alpha   93.96919970
_cell_angle_beta   97.36940000
_cell_angle_gamma   109.18407555
_symmetry_Int_Tables_number   1
_chemical_formula_structural   K2H14C16N6O5
_chemical_formula_sum   'K2 H14 C16 N6 O5'
_cell_volume   466.54523435
_cell_formula_units_Z   1
loop_
 _symmetry_equiv_pos_site_id
 _symmetry_equiv_pos_as_xyz
  1  'x, y, z'
loop_
 _atom_site_type_symbol
 _atom_site_label
 _atom_site_symmetry_multiplicity
 _atom_site_fract_x
 _atom_site_fract_y
 _atom_site_fract_z
 _atom_site_occupancy
  K  K0  1  0.79145000  0.67794000  0.92897000  1.0
  K  K1  1  0.19267000  0.31942000  0.07047000  1.0
  H  H2  1  0.50538000  0.04826000  0.95921000  1.0
  H  H3  1  0.49831000  0.94509000  0.03844000  1.0
  H  H4  1  0.17772000  0.30248000  0.76367000  1.0
  H  H5  1  0.11728000  0.69156000  0.23409000  1.0
  H  H6  1  0.33659000  0.12691000  0.81693000  1.0
  H  H7  1  0.38764000  0.86468000  0.17990000  1.0
  H  H8  1  0.11190000  0.46519000  0.59298000  1.0
  H  H9  1  0.07952000  0.53863000  0.41322000  1.0
  H  H10  1  0.95238000  0.74246000  0.51883000  1.0
  H  H11  1  0.70939000  0.26522000  0.48420000  1.0
  H  H12  1  0.23573000  0.14181000  0.55351000  1.0
  H  H13  1  0.54176000  0.86535000  0.44422000  1.0
  H  H14  1  0.68571000  0.28891000  0.66540000  1.0
  H  H15  1  0.72465000  0.71343000  0.33056000  1.0
  C  C16  1  0.99609000  0.22674000  0.87261000  1.0
  C  C17  1  0.89615000  0.77455000  0.12681000  1.0
  C  C18  1  0.11603000  0.16295000  0.79837000  1.0
  C  C19  1  0.15495000  0.83243000  0.19995000  1.0
  C  C20  1  0.65837000  0.95430000  0.68874000  1.0
  C  C21  1  0.02121000  0.04579000  0.31123000  1.0
  C  C22  1  0.49595000  0.72382000  0.66958000  1.0
  C  C23  1  0.11619000  0.27680000  0.33302000  1.0
  C  C24  1  0.23940000  0.64249000  0.60748000  1.0
  C  C25  1  0.00810000  0.36093000  0.39635000  1.0
  C  C26  1  0.15342000  0.79717000  0.56671000  1.0
  C  C27  1  0.80387000  0.20838000  0.43536000  1.0
  C  C28  1  0.31673000  0.02764000  0.58687000  1.0
  C  C29  1  0.70695000  0.97755000  0.41217000  1.0
  C  C30  1  0.57141000  0.11138000  0.64802000  1.0
  C  C31  1  0.81238000  0.89087000  0.34992000  1.0
  N  N32  1  0.88973000  0.96914000  0.75031000  1.0
  N  N33  1  0.17420000  0.02780000  0.24940000  1.0
  N  N34  1  0.86761000  0.76345000  0.76864000  1.0
  N  N35  1  0.34511000  0.23259000  0.23313000  1.0
  N  N36  1  0.63392000  0.61487000  0.72074000  1.0
  N  N37  1  0.31339000  0.38313000  0.28277000  1.0
  O  O38  1  0.16663000  0.40967000  0.91193000  1.0
  O  O39  1  0.83723000  0.58820000  0.08785000  1.0
  O  O40  1  0.36224000  0.99087000  0.99788000  1.0
  O  O41  1  0.74246000  0.08929000  0.88898000  1.0
  O  O42  1  0.77067000  0.91986000  0.11057000  1.0
