# generated using pymatgen
data_Cd2H19C27NO9
_symmetry_space_group_name_H-M   'P 1'
_cell_length_a   8.38901000
_cell_length_b   11.98000000
_cell_length_c   12.43900000
_cell_angle_alpha   99.22590000
_cell_angle_beta   91.23780000
_cell_angle_gamma   92.98700000
_symmetry_Int_Tables_number   1
_chemical_formula_structural   Cd2H19C27NO9
_chemical_formula_sum   'Cd4 H38 C54 N2 O18'
_cell_volume   1231.70633951
_cell_formula_units_Z   2
loop_
 _symmetry_equiv_pos_site_id
 _symmetry_equiv_pos_as_xyz
  1  'x, y, z'
loop_
 _atom_site_type_symbol
 _atom_site_label
 _atom_site_symmetry_multiplicity
 _atom_site_fract_x
 _atom_site_fract_y
 _atom_site_fract_z
 _atom_site_occupancy
  Cd  Cd0  1  0.92590000  0.23872000  0.01727000  1.0
  Cd  Cd1  1  0.07409000  0.76127000  0.98273000  1.0
  Cd  Cd2  1  0.68176000  0.89899000  0.99955000  1.0
  Cd  Cd3  1  0.31824000  0.10101000  0.00045000  1.0
  H  H4  1  0.02452000  0.51093000  0.86461000  1.0
  H  H5  1  0.97548000  0.48907000  0.13540000  1.0
  H  H6  1  0.65277000  0.17378000  0.14762000  1.0
  H  H7  1  0.34723000  0.82622000  0.85238000  1.0
  H  H8  1  0.74019000  0.28920000  0.21296000  1.0
  H  H9  1  0.25981000  0.71080000  0.78704000  1.0
  H  H10  1  0.58208000  0.65492000  0.92808000  1.0
  H  H11  1  0.41793000  0.34508000  0.07193000  1.0
  H  H12  1  0.45984000  0.69034000  0.02083000  1.0
  H  H13  1  0.54017000  0.30966000  0.97917000  1.0
  H  H14  1  0.52431000  0.38106000  0.80881000  1.0
  H  H15  1  0.47569000  0.61894000  0.19119000  1.0
  H  H16  1  0.28982000  0.43818000  0.71330000  1.0
  H  H17  1  0.71018000  0.56182000  0.28671000  1.0
  H  H18  1  0.16636000  0.56945000  0.60345000  1.0
  H  H19  1  0.83363000  0.43055000  0.39655000  1.0
  H  H20  1  0.33366000  0.72221000  0.54088000  1.0
  H  H21  1  0.66634000  0.27780000  0.45913000  1.0
  H  H22  1  0.62076000  0.75058000  0.59306000  1.0
  H  H23  1  0.37924000  0.24942000  0.40694000  1.0
  H  H24  1  0.07453000  0.03249000  0.67600000  1.0
  H  H25  1  0.92548000  0.96750000  0.32400000  1.0
  H  H26  1  0.14696000  0.95569000  0.48818000  1.0
  H  H27  1  0.85305000  0.04431000  0.51182000  1.0
  H  H28  1  0.13430000  0.79844000  0.33032000  1.0
  H  H29  1  0.86571000  0.20156000  0.66968000  1.0
  H  H30  1  0.99538000  0.61307000  0.34761000  1.0
  H  H31  1  0.00461000  0.38693000  0.65239000  1.0
  H  H32  1  0.87034000  0.58497000  0.52077000  1.0
  H  H33  1  0.12965000  0.41504000  0.47923000  1.0
  H  H34  1  0.64904000  0.91781000  0.68462000  1.0
  H  H35  1  0.35095000  0.08219000  0.31538000  1.0
  H  H36  1  0.60611000  0.05657000  0.55773000  1.0
  H  H37  1  0.39389000  0.94343000  0.44227000  1.0
  H  H38  1  0.41763000  0.21231000  0.60872000  1.0
  H  H39  1  0.58237000  0.78770000  0.39127000  1.0
  H  H40  1  0.28716000  0.22446000  0.79038000  1.0
  H  H41  1  0.71283000  0.77554000  0.20962000  1.0
  C  C42  1  0.78535000  0.63207000  0.72348000  1.0
  C  C43  1  0.21465000  0.36793000  0.27652000  1.0
  C  C44  1  0.84982000  0.55981000  0.78798000  1.0
  C  C45  1  0.15018000  0.44019000  0.21202000  1.0
  C  C46  1  0.75444000  0.46758000  0.81819000  1.0
  C  C47  1  0.24556000  0.53242000  0.18181000  1.0
  C  C48  1  0.59579000  0.45046000  0.78382000  1.0
  C  C49  1  0.40420000  0.54955000  0.21618000  1.0
  C  C50  1  0.36139000  0.50688000  0.68676000  1.0
  C  C51  1  0.63860000  0.49312000  0.31324000  1.0
  C  C52  1  0.29318000  0.57887000  0.62536000  1.0
  C  C53  1  0.70683000  0.42113000  0.37465000  1.0
  C  C54  1  0.38868000  0.66666667  0.59054000  1.0
  C  C55  1  0.61131000  0.33333333  0.40946000  1.0
  C  C56  1  0.54861000  0.68275000  0.61995000  1.0
  C  C57  1  0.45139000  0.31725000  0.38005000  1.0
  C  C58  1  0.62258000  0.61227000  0.68582000  1.0
  C  C59  1  0.37742000  0.38773000  0.31418000  1.0
  C  C60  1  0.52594000  0.52123000  0.71806000  1.0
  C  C61  1  0.47406000  0.47878000  0.28194000  1.0
  C  C62  1  0.87527000  0.73783000  0.70675000  1.0
  C  C63  1  0.12473000  0.26216000  0.29325000  1.0
  C  C64  1  0.89133000  0.82501000  0.79674000  1.0
  C  C65  1  0.10866000  0.17498000  0.20326000  1.0
  C  C66  1  0.95466000  0.93570000  0.78297000  1.0
  C  C67  1  0.04534000  0.06430000  0.21703000  1.0
  C  C68  1  0.02156000  0.94956000  0.68473000  1.0
  C  C69  1  0.97845000  0.05044000  0.31527000  1.0
  C  C70  1  0.08883000  0.87365000  0.49485000  1.0
  C  C71  1  0.91118000  0.12635000  0.50516000  1.0
  C  C72  1  0.08092000  0.78663000  0.40714000  1.0
  C  C73  1  0.91909000  0.21337000  0.59286000  1.0
  C  C74  1  0.00108000  0.68179000  0.41690000  1.0
  C  C75  1  0.99892000  0.31821000  0.58310000  1.0
  C  C76  1  0.93161000  0.66572000  0.51324000  1.0
  C  C77  1  0.06839000  0.33428000  0.48676000  1.0
  C  C78  1  0.93927000  0.75336000  0.60520000  1.0
  C  C79  1  0.06073000  0.24664000  0.39481000  1.0
  C  C80  1  0.01901000  0.86015000  0.59524000  1.0
  C  C81  1  0.98099000  0.13985000  0.40476000  1.0
  C  C82  1  0.82364000  0.39225000  0.88810000  1.0
  C  C83  1  0.17635000  0.60775000  0.11190000  1.0
  C  C84  1  0.94553000  0.03758000  0.86881000  1.0
  C  C85  1  0.05447000  0.96243000  0.13118000  1.0
  C  C86  1  0.48733000  0.99535000  0.80315000  1.0
  C  C87  1  0.51266000  0.00465000  0.19684000  1.0
  C  C88  1  0.56850000  0.98593000  0.70374000  1.0
  C  C89  1  0.43149000  0.01407000  0.29626000  1.0
  C  C90  1  0.54428000  0.06349000  0.63440000  1.0
  C  C91  1  0.45571000  0.93651000  0.36559000  1.0
  C  C92  1  0.44018000  0.15091000  0.66223000  1.0
  C  C93  1  0.55982000  0.84909000  0.33776000  1.0
  C  C94  1  0.36831000  0.15860000  0.76209000  1.0
  C  C95  1  0.63169000  0.84140000  0.23790000  1.0
  N  N96  1  0.39357000  0.08413000  0.83041000  1.0
  N  N97  1  0.60643000  0.91587000  0.16958000  1.0
  O  O98  1  0.73266000  0.32064000  0.92762000  1.0
  O  O99  1  0.26734000  0.67936000  0.07237000  1.0
  O  O100  1  0.97489000  0.39941000  0.90793000  1.0
  O  O101  1  0.02511000  0.60059000  0.09207000  1.0
  O  O102  1  0.00432000  0.57834000  0.82567000  1.0
  O  O103  1  0.99567000  0.42166000  0.17433000  1.0
  O  O104  1  0.03775000  0.12447000  0.86455000  1.0
  O  O105  1  0.96225000  0.87553000  0.13545000  1.0
  O  O106  1  0.84115000  0.04145000  0.94425000  1.0
  O  O107  1  0.15885000  0.95855000  0.05575000  1.0
  O  O108  1  0.85313000  0.80112000  0.89472000  1.0
  O  O109  1  0.14687000  0.19888000  0.10528000  1.0
  O  O110  1  0.49374000  0.92229000  0.87087000  1.0
  O  O111  1  0.50626000  0.07772000  0.12913000  1.0
  O  O112  1  0.75207000  0.22548000  0.15482000  1.0
  O  O113  1  0.24793000  0.77451000  0.84518000  1.0
  O  O114  1  0.57084000  0.70358000  0.99774000  1.0
  O  O115  1  0.42916000  0.29642000  0.00226000  1.0
