# generated using pymatgen
data_Tb3P3H47C37(NO8)3
_symmetry_space_group_name_H-M   'P 1'
_cell_length_a   14.93310000
_cell_length_b   14.95200000
_cell_length_c   15.02160000
_cell_angle_alpha   103.73600000
_cell_angle_beta   105.88500000
_cell_angle_gamma   117.24600000
_symmetry_Int_Tables_number   1
_chemical_formula_structural   Tb3P3H47C37(NO8)3
_chemical_formula_sum   'Tb6 P6 H94 C74 N6 O48'
_cell_volume   2597.15203079
_cell_formula_units_Z   2
loop_
 _symmetry_equiv_pos_site_id
 _symmetry_equiv_pos_as_xyz
  1  'x, y, z'
loop_
 _atom_site_type_symbol
 _atom_site_label
 _atom_site_symmetry_multiplicity
 _atom_site_fract_x
 _atom_site_fract_y
 _atom_site_fract_z
 _atom_site_occupancy
  Tb  Tb0  1  0.10947000  0.81546000  0.67959000  1.0
  Tb  Tb1  1  0.89053000  0.18454000  0.32041000  1.0
  Tb  Tb2  1  0.86422000  0.55866000  0.69625000  1.0
  Tb  Tb3  1  0.13577000  0.44134000  0.30375000  1.0
  Tb  Tb4  1  0.05989000  0.41953000  0.64243000  1.0
  Tb  Tb5  1  0.94011000  0.58047000  0.35757000  1.0
  P  P6  1  0.14184000  0.61680000  0.52088000  1.0
  P  P7  1  0.85816000  0.38320000  0.47912000  1.0
  P  P8  1  0.17068000  0.69502000  0.79901000  1.0
  P  P9  1  0.82932000  0.30498000  0.20099000  1.0
  P  P10  1  0.80371000  0.61719000  0.51468000  1.0
  P  P11  1  0.19629000  0.38281000  0.48532000  1.0
  H  H12  1  0.66814000  0.89625000  0.11931000  1.0
  H  H13  1  0.33186000  0.10376000  0.88069000  1.0
  H  H14  1  0.13648000  0.31919000  0.74882000  1.0
  H  H15  1  0.86352000  0.68081000  0.25119000  1.0
  H  H16  1  0.22253000  0.38933000  0.71385000  1.0
  H  H17  1  0.77746000  0.61067000  0.28615000  1.0
  H  H18  1  0.31302000  0.76194000  0.71558000  1.0
  H  H19  1  0.68698000  0.23806000  0.28442000  1.0
  H  H20  1  0.08133000  0.64667000  0.92816000  1.0
  H  H21  1  0.91866000  0.35333000  0.07184000  1.0
  H  H22  1  0.89982000  0.83605000  0.56248000  1.0
  H  H23  1  0.10018000  0.16395000  0.43752000  1.0
  H  H24  1  0.32171000  0.67378000  0.52071000  1.0
  H  H25  1  0.67828000  0.32622000  0.47929000  1.0
  H  H26  1  0.30550000  0.78719000  0.55123000  1.0
  H  H27  1  0.69450000  0.21281000  0.44877000  1.0
  H  H28  1  0.52471000  0.86000000  0.69318000  1.0
  H  H29  1  0.47530000  0.14000000  0.30682000  1.0
  H  H30  1  0.44692000  0.92134000  0.70042000  1.0
  H  H31  1  0.55309000  0.07866000  0.29958000  1.0
  H  H32  1  0.59675000  0.99130000  0.87507000  1.0
  H  H33  1  0.40326000  0.00870000  0.12493000  1.0
  H  H34  1  0.46054000  0.92085000  0.86641000  1.0
  H  H35  1  0.53946000  0.07915000  0.13359000  1.0
  H  H36  1  0.61249000  0.83552000  0.87066000  1.0
  H  H37  1  0.38751000  0.16449000  0.12934000  1.0
  H  H38  1  0.46093000  0.65182000  0.82903000  1.0
  H  H39  1  0.53907000  0.34818000  0.17096000  1.0
  H  H40  1  0.36975000  0.69382000  0.83735000  1.0
  H  H41  1  0.63025000  0.30618000  0.16265000  1.0
  H  H42  1  0.31147000  0.59173000  0.65780000  1.0
  H  H43  1  0.68853000  0.40827000  0.34220000  1.0
  H  H44  1  0.44776000  0.67594000  0.66799000  1.0
  H  H45  1  0.55225000  0.32406000  0.33201000  1.0
  H  H46  1  0.21715000  0.84461000  0.94156000  1.0
  H  H47  1  0.78285000  0.15539000  0.05844000  1.0
  H  H48  1  0.31591000  0.80696000  0.97512000  1.0
  H  H49  1  0.68409000  0.19304000  0.02489000  1.0
  H  H50  1  0.30457000  0.72613000  0.08337000  1.0
  H  H51  1  0.69543000  0.27387000  0.91663000  1.0
  H  H52  1  0.22004000  0.60564000  0.96452000  1.0
  H  H53  1  0.77996000  0.39435000  0.03548000  1.0
  H  H54  1  0.20018000  0.55834000  0.11247000  1.0
  H  H55  1  0.79982000  0.44166000  0.88753000  1.0
  H  H56  1  0.07345000  0.51796000  0.01772000  1.0
  H  H57  1  0.92655000  0.48204000  0.98229000  1.0
  H  H58  1  0.21890000  0.72274000  0.22321000  1.0
  H  H59  1  0.78110000  0.27726000  0.77679000  1.0
  H  H60  1  0.08448000  0.77246000  0.17228000  1.0
  H  H61  1  0.91552000  0.22755000  0.82773000  1.0
  H  H62  1  0.00027000  0.65567000  0.05294000  1.0
  H  H63  1  0.99974000  0.34433000  0.94706000  1.0
  H  H64  1  0.11198000  0.81601000  0.02542000  1.0
  H  H65  1  0.88802000  0.18400000  0.97458000  1.0
  H  H66  1  0.24063000  0.85085000  0.12088000  1.0
  H  H67  1  0.75937000  0.14915000  0.87912000  1.0
  H  H68  1  0.66106000  0.66217000  0.48492000  1.0
  H  H69  1  0.33894000  0.33782000  0.51507000  1.0
  H  H70  1  0.75322000  0.71404000  0.61709000  1.0
  H  H71  1  0.24678000  0.28596000  0.38291000  1.0
  H  H72  1  0.73868000  0.88147000  0.60283000  1.0
  H  H73  1  0.26132000  0.11853000  0.39717000  1.0
  H  H74  1  0.85959000  0.90095000  0.69602000  1.0
  H  H75  1  0.14041000  0.09905000  0.30398000  1.0
  H  H76  1  0.90309000  0.08099000  0.68509000  1.0
  H  H77  1  0.09691000  0.91900000  0.31491000  1.0
  H  H78  1  0.98689000  0.03711000  0.65443000  1.0
  H  H79  1  0.01311000  0.96289000  0.34557000  1.0
  H  H80  1  0.78187000  0.01375000  0.50484000  1.0
  H  H81  1  0.21813000  0.98624000  0.49516000  1.0
  H  H82  1  0.80896000  0.92239000  0.36451000  1.0
  H  H83  1  0.19104000  0.07761000  0.63549000  1.0
  H  H84  1  0.92772000  0.93976000  0.45100000  1.0
  H  H85  1  0.07229000  0.06024000  0.54901000  1.0
  H  H86  1  0.76856000  0.74752000  0.38587000  1.0
  H  H87  1  0.23144000  0.25248000  0.61413000  1.0
  H  H88  1  0.68699000  0.79271000  0.42216000  1.0
  H  H89  1  0.31301000  0.20729000  0.57784000  1.0
  H  H90  1  0.16323000  0.98597000  0.02985000  1.0
  H  H91  1  0.83678000  0.01404000  0.97015000  1.0
  H  H92  1  0.17798000  0.12952000  0.17225000  1.0
  H  H93  1  0.82203000  0.87049000  0.82775000  1.0
  H  H94  1  0.06960000  0.24893000  0.96174000  1.0
  H  H95  1  0.93040000  0.75107000  0.03826000  1.0
  H  H96  1  0.05377000  0.10494000  0.81950000  1.0
  H  H97  1  0.94623000  0.89507000  0.18050000  1.0
  H  H98  1  0.41341000  0.00333000  0.58058000  1.0
  H  H99  1  0.58659000  0.99666000  0.41943000  1.0
  H  H100  1  0.57056000  0.16702000  0.57647000  1.0
  H  H101  1  0.42943000  0.83296000  0.42352000  1.0
  H  H102  1  0.57352000  0.39000000  0.81868000  1.0
  H  H103  1  0.42648000  0.61000000  0.18131000  1.0
  H  H104  1  0.42113000  0.22792000  0.82688000  1.0
  H  H105  1  0.57887000  0.77208000  0.17312000  1.0
  C  C106  1  0.29366000  0.71491000  0.56536000  1.0
  C  C107  1  0.70633000  0.28509000  0.43464000  1.0
  C  C108  1  0.46841000  0.86725000  0.72442000  1.0
  C  C109  1  0.53159000  0.13275000  0.27558000  1.0
  C  C110  1  0.51772000  0.90889000  0.84022000  1.0
  C  C111  1  0.48228000  0.09111000  0.15978000  1.0
  C  C112  1  0.53835000  0.82942000  0.87685000  1.0
  C  C113  1  0.46165000  0.17059000  0.12315000  1.0
  C  C114  1  0.43670000  0.70784000  0.81380000  1.0
  C  C115  1  0.56330000  0.29216000  0.18620000  1.0
  C  C116  1  0.38903000  0.67475000  0.69946000  1.0
  C  C117  1  0.61098000  0.32525000  0.30054000  1.0
  C  C118  1  0.56025000  0.86070000  0.98838000  1.0
  C  C119  1  0.43974000  0.13931000  0.01163000  1.0
  C  C120  1  0.22668000  0.77520000  0.93550000  1.0
  C  C121  1  0.77332000  0.22480000  0.06450000  1.0
  C  C122  1  0.21784000  0.65747000  0.02820000  1.0
  C  C123  1  0.78216000  0.34253000  0.97180000  1.0
  C  C124  1  0.15487000  0.59114000  0.07770000  1.0
  C  C125  1  0.84513000  0.40886000  0.92230000  1.0
  C  C126  1  0.13672000  0.65868000  0.15647000  1.0
  C  C127  1  0.86328000  0.34133000  0.84354000  1.0
  C  C128  1  0.08746000  0.71704000  0.11212000  1.0
  C  C129  1  0.91254000  0.28296000  0.88788000  1.0
  C  C130  1  0.15392000  0.78300000  0.06456000  1.0
  C  C131  1  0.84608000  0.21701000  0.93544000  1.0
  C  C132  1  0.06486000  0.58873000  0.20021000  1.0
  C  C133  1  0.93514000  0.41127000  0.79979000  1.0
  C  C134  1  0.74833000  0.70277000  0.54057000  1.0
  C  C135  1  0.25167000  0.29722000  0.45942000  1.0
  C  C136  1  0.82541000  0.90471000  0.62355000  1.0
  C  C137  1  0.17459000  0.09529000  0.37645000  1.0
  C  C138  1  0.90112000  0.01798000  0.62776000  1.0
  C  C139  1  0.09888000  0.98202000  0.37224000  1.0
  C  C140  1  0.86315000  0.02223000  0.52420000  1.0
  C  C141  1  0.13685000  0.97777000  0.47581000  1.0
  C  C142  1  0.84611000  0.92607000  0.44023000  1.0
  C  C143  1  0.15389000  0.07393000  0.55977000  1.0
  C  C144  1  0.77294000  0.81475000  0.44015000  1.0
  C  C145  1  0.22706000  0.18525000  0.55985000  1.0
  C  C146  1  0.94203000  0.13616000  0.52831000  1.0
  C  C147  1  0.05797000  0.86384000  0.47169000  1.0
  C  C148  1  0.09433000  0.94977000  0.83208000  1.0
  C  C149  1  0.90567000  0.05023000  0.16792000  1.0
  C  C150  1  0.10446000  0.03547000  0.91636000  1.0
  C  C151  1  0.89555000  0.96454000  0.08365000  1.0
  C  C152  1  0.14206000  0.04361000  0.01599000  1.0
  C  C153  1  0.85795000  0.95640000  0.98401000  1.0
  C  C154  1  0.15059000  0.12291000  0.09450000  1.0
  C  C155  1  0.84942000  0.87710000  0.90551000  1.0
  C  C156  1  0.12134000  0.19499000  0.07403000  1.0
  C  C157  1  0.87868000  0.80502000  0.92598000  1.0
  C  C158  1  0.08791000  0.18952000  0.97520000  1.0
  C  C159  1  0.91210000  0.81049000  0.02480000  1.0
  C  C160  1  0.07919000  0.11005000  0.89669000  1.0
  C  C161  1  0.92082000  0.88996000  0.10331000  1.0
  C  C162  1  0.12095000  0.27463000  0.15507000  1.0
  C  C163  1  0.87905000  0.72537000  0.84493000  1.0
  C  C164  1  0.31342000  0.00782000  0.70324000  1.0
  C  C165  1  0.68658000  0.99218000  0.29676000  1.0
  C  C166  1  0.40871000  0.10575000  0.70437000  1.0
  C  C167  1  0.59128000  0.89425000  0.29563000  1.0
  C  C168  1  0.45029000  0.08843000  0.63326000  1.0
  C  C169  1  0.54971000  0.91157000  0.36674000  1.0
  C  C170  1  0.53589000  0.17841000  0.63009000  1.0
  C  C171  1  0.46410000  0.82158000  0.36991000  1.0
  C  C172  1  0.57985000  0.28714000  0.69686000  1.0
  C  C173  1  0.42015000  0.71285000  0.30314000  1.0
  C  C174  1  0.53813000  0.30475000  0.76756000  1.0
  C  C175  1  0.46187000  0.69524000  0.23243000  1.0
  C  C176  1  0.45358000  0.21458000  0.77184000  1.0
  C  C177  1  0.54642000  0.78542000  0.22816000  1.0
  C  C178  1  0.67358000  0.38360000  0.69394000  1.0
  C  C179  1  0.32642000  0.61638000  0.30605000  1.0
  N  N180  1  0.36208000  0.75418000  0.67666000  1.0
  N  N181  1  0.63793000  0.24582000  0.32334000  1.0
  N  N182  1  0.16313000  0.71032000  0.98426000  1.0
  N  N183  1  0.83686000  0.28968000  0.01574000  1.0
  N  N184  1  0.81794000  0.81562000  0.54330000  1.0
  N  N185  1  0.18206000  0.18438000  0.45670000  1.0
  O  O186  1  0.09057000  0.55154000  0.40387000  1.0
  O  O187  1  0.90943000  0.44846000  0.59613000  1.0
  O  O188  1  0.12902000  0.54716000  0.58065000  1.0
  O  O189  1  0.87098000  0.45283000  0.41935000  1.0
  O  O190  1  0.08610000  0.68203000  0.53331000  1.0
  O  O191  1  0.91389000  0.31797000  0.46669000  1.0
  O  O192  1  0.50346000  0.88299000  0.02292000  1.0
  O  O193  1  0.49654000  0.11701000  0.97708000  1.0
  O  O194  1  0.64531000  0.85838000  0.04332000  1.0
  O  O195  1  0.35470000  0.14162000  0.95668000  1.0
  O  O196  1  0.24533000  0.78095000  0.76706000  1.0
  O  O197  1  0.75467000  0.21905000  0.23295000  1.0
  O  O198  1  0.05440000  0.67370000  0.74711000  1.0
  O  O199  1  0.94560000  0.32630000  0.25289000  1.0
  O  O200  1  0.17176000  0.59125000  0.78345000  1.0
  O  O201  1  0.82824000  0.40875000  0.21656000  1.0
  O  O202  1  0.05070000  0.49458000  0.18528000  1.0
  O  O203  1  0.94930000  0.50542000  0.81471000  1.0
  O  O204  1  0.02506000  0.62908000  0.24848000  1.0
  O  O205  1  0.97494000  0.37092000  0.75152000  1.0
  O  O206  1  0.80774000  0.60400000  0.41147000  1.0
  O  O207  1  0.19225000  0.39599000  0.58853000  1.0
  O  O208  1  0.92144000  0.68384000  0.60529000  1.0
  O  O209  1  0.07856000  0.31615000  0.39471000  1.0
  O  O210  1  0.73164000  0.51366000  0.52778000  1.0
  O  O211  1  0.26836000  0.48634000  0.47222000  1.0
  O  O212  1  0.98381000  0.22220000  0.60786000  1.0
  O  O213  1  0.01620000  0.77780000  0.39215000  1.0
  O  O214  1  0.95909000  0.13650000  0.44961000  1.0
  O  O215  1  0.04090000  0.86350000  0.55040000  1.0
  O  O216  1  0.27158000  0.91079000  0.63809000  1.0
  O  O217  1  0.72842000  0.08921000  0.36191000  1.0
  O  O218  1  0.27055000  0.02214000  0.76401000  1.0
  O  O219  1  0.72945000  0.97787000  0.23599000  1.0
  O  O220  1  0.72124000  0.36282000  0.64074000  1.0
  O  O221  1  0.27876000  0.63716000  0.35925000  1.0
  O  O222  1  0.70562000  0.48207000  0.74574000  1.0
  O  O223  1  0.29436000  0.51792000  0.25424000  1.0
  O  O224  1  0.04170000  0.92902000  0.73911000  1.0
  O  O225  1  0.95829000  0.07098000  0.26089000  1.0
  O  O226  1  0.14128000  0.89989000  0.85418000  1.0
  O  O227  1  0.85872000  0.10011000  0.14582000  1.0
  O  O228  1  0.17137000  0.29711000  0.24884000  1.0
  O  O229  1  0.82862000  0.70288000  0.75116000  1.0
  O  O230  1  0.06830000  0.31848000  0.12823000  1.0
  O  O231  1  0.93169000  0.68151000  0.87177000  1.0
  O  O232  1  0.19285000  0.39581000  0.76457000  1.0
  O  O233  1  0.80715000  0.60419000  0.23543000  1.0
