# generated using pymatgen
data_Mn2MoH42C37N17
_symmetry_space_group_name_H-M   'P 1'
_cell_length_a   12.54380000
_cell_length_b   17.38280000
_cell_length_c   17.38560000
_cell_angle_alpha   114.41000000
_cell_angle_beta   103.92000000
_cell_angle_gamma   103.89700000
_symmetry_Int_Tables_number   1
_chemical_formula_structural   Mn2MoH42C37N17
_chemical_formula_sum   'Mn6 Mo3 H126 C111 N51'
_cell_volume   3093.45018195
_cell_formula_units_Z   3
loop_
 _symmetry_equiv_pos_site_id
 _symmetry_equiv_pos_as_xyz
  1  'x, y, z'
loop_
 _atom_site_type_symbol
 _atom_site_label
 _atom_site_symmetry_multiplicity
 _atom_site_fract_x
 _atom_site_fract_y
 _atom_site_fract_z
 _atom_site_occupancy
  Mn  Mn0  1  0.00473000  0.47422000  0.18013000  1.0
  Mn  Mn1  1  0.39771000  0.58412000  0.81846000  1.0
  Mn  Mn2  1  0.53038000  0.70588000  0.52569000  1.0
  Mn  Mn3  1  0.81371000  0.23448000  0.41584000  1.0
  Mn  Mn4  1  0.82423000  0.81979000  0.29407000  1.0
  Mn  Mn5  1  0.57949000  0.18149000  0.76587000  1.0
  Mo  Mo6  1  0.71148000  0.52789000  0.99427000  1.0
  Mo  Mo7  1  0.18350000  0.46626000  0.47204000  1.0
  Mo  Mo8  1  0.71707000  0.00599000  0.53381000  1.0
  H  H9  1  0.76746000  0.37176000  0.24443000  1.0
  H  H10  1  0.72021000  0.39844000  0.15595000  1.0
  H  H11  1  0.79753000  0.54657000  0.29080000  1.0
  H  H12  1  0.91633000  0.52511000  0.34789000  1.0
  H  H13  1  0.07098000  0.66228000  0.36616000  1.0
  H  H14  1  0.94626000  0.68310000  0.31776000  1.0
  H  H15  1  0.67386000  0.70535000  0.90001000  1.0
  H  H16  1  0.66016000  0.75832000  0.83121000  1.0
  H  H17  1  0.97027000  0.44505000  0.92707000  1.0
  H  H18  1  0.35391000  0.62594000  0.08159000  1.0
  H  H19  1  0.53935000  0.43394000  0.68879000  1.0
  H  H20  1  0.40001000  0.43125000  0.62862000  1.0
  H  H21  1  0.00757000  0.69396000  0.20288000  1.0
  H  H22  1  0.14461000  0.74958000  0.29870000  1.0
  H  H23  1  0.41646000  0.49488000  0.02369000  1.0
  H  H24  1  0.15332000  0.74156000  0.14617000  1.0
  H  H25  1  0.27244000  0.71715000  0.11654000  1.0
  H  H26  1  0.29364000  0.77632000  0.23314000  1.0
  H  H27  1  0.33914000  0.32084000  0.67124000  1.0
  H  H28  1  0.46365000  0.38252000  0.77810000  1.0
  H  H29  1  0.54739000  0.61017000  0.69133000  1.0
  H  H30  1  0.66281000  0.59033000  0.75597000  1.0
  H  H31  1  0.00229000  0.27187000  0.18591000  1.0
  H  H32  1  0.94105000  0.19646000  0.06475000  1.0
  H  H33  1  0.32071000  0.35552000  0.02848000  1.0
  H  H34  1  0.14135000  0.21344000  0.10221000  1.0
  H  H35  1  0.25763000  0.26496000  0.07658000  1.0
  H  H36  1  0.11305000  0.19598000  0.98904000  1.0
  H  H37  1  0.03786000  0.60453000  0.95779000  1.0
  H  H38  1  0.13847000  0.25617000  0.74679000  1.0
  H  H39  1  0.24902000  0.30695000  0.85707000  1.0
  H  H40  1  0.29067000  0.27175000  0.76120000  1.0
  H  H41  1  0.56320000  0.84345000  0.91199000  1.0
  H  H42  1  0.55501000  0.79469000  0.98372000  1.0
  H  H43  1  0.06603000  0.34126000  0.84969000  1.0
  H  H44  1  0.24902000  0.81711000  0.01950000  1.0
  H  H45  1  0.10547000  0.73181000  0.97735000  1.0
  H  H46  1  0.14615000  0.77642000  0.90845000  1.0
  H  H47  1  0.79927000  0.27169000  0.04405000  1.0
  H  H48  1  0.79014000  0.24619000  0.13212000  1.0
  H  H49  1  0.38702000  0.84452000  0.96325000  1.0
  H  H50  1  0.34449000  0.78522000  0.84161000  1.0
  H  H51  1  0.39566000  0.87275000  0.62811000  1.0
  H  H52  1  0.32157000  0.75758000  0.60134000  1.0
  H  H53  1  0.25112000  0.74446000  0.45326000  1.0
  H  H54  1  0.39145000  0.82292000  0.47480000  1.0
  H  H55  1  0.40869000  0.70381000  0.33753000  1.0
  H  H56  1  0.26318000  0.63474000  0.31682000  1.0
  H  H57  1  0.96874000  0.19478000  0.29463000  1.0
  H  H58  1  0.90204000  0.07300000  0.24165000  1.0
  H  H59  1  0.52487000  0.48191000  0.55489000  1.0
  H  H60  1  0.72781000  0.45548000  0.37361000  1.0
  H  H61  1  0.10561000  0.25516000  0.56602000  1.0
  H  H62  1  0.96912000  0.19739000  0.56866000  1.0
  H  H63  1  0.31346000  0.50888000  0.30585000  1.0
  H  H64  1  0.39494000  0.54906000  0.25025000  1.0
  H  H65  1  0.92148000  0.52874000  0.50461000  1.0
  H  H66  1  0.41138000  0.40447000  0.25824000  1.0
  H  H67  1  0.55478000  0.39903000  0.28264000  1.0
  H  H68  1  0.51708000  0.45653000  0.22345000  1.0
  H  H69  1  0.01782000  0.35016000  0.67908000  1.0
  H  H70  1  0.08096000  0.39573000  0.61777000  1.0
  H  H71  1  0.93721000  0.08125000  0.38979000  1.0
  H  H72  1  0.07252000  0.16559000  0.40960000  1.0
  H  H73  1  0.73014000  0.91380000  0.72802000  1.0
  H  H74  1  0.74417000  0.86796000  0.80338000  1.0
  H  H75  1  0.96490000  0.67274000  0.64400000  1.0
  H  H76  1  0.92734000  0.88845000  0.78622000  1.0
  H  H77  1  0.99213000  0.81136000  0.73453000  1.0
  H  H78  1  0.91685000  0.79273000  0.80365000  1.0
  H  H79  1  0.43338000  0.35334000  0.39535000  1.0
  H  H80  1  0.88195000  0.49054000  0.74376000  1.0
  H  H81  1  0.94178000  0.55017000  0.69310000  1.0
  H  H82  1  0.01864000  0.48946000  0.72828000  1.0
  H  H83  1  0.72016000  0.06885000  0.15649000  1.0
  H  H84  1  0.76051000  0.18933000  0.20533000  1.0
  H  H85  1  0.72439000  0.50834000  0.65872000  1.0
  H  H86  1  0.43156000  0.20210000  0.18280000  1.0
  H  H87  1  0.37363000  0.24554000  0.26827000  1.0
  H  H88  1  0.36985000  0.13207000  0.22394000  1.0
  H  H89  1  0.52715000  0.77229000  0.72821000  1.0
  H  H90  1  0.54367000  0.88590000  0.75370000  1.0
  H  H91  1  0.54270000  0.11879000  0.15540000  1.0
  H  H92  1  0.55966000  0.05649000  0.21473000  1.0
  H  H93  1  0.52258000  0.75590000  0.12759000  1.0
  H  H94  1  0.56415000  0.84423000  0.24285000  1.0
  H  H95  1  0.50642000  0.70909000  0.25569000  1.0
  H  H96  1  0.56809000  0.65212000  0.17707000  1.0
  H  H97  1  0.70444000  0.63365000  0.29600000  1.0
  H  H98  1  0.62816000  0.68209000  0.36520000  1.0
  H  H99  1  0.77404000  0.09971000  0.80521000  1.0
  H  H100  1  0.82928000  0.16841000  0.92700000  1.0
  H  H101  1  0.04347000  0.07310000  0.51818000  1.0
  H  H102  1  0.27190000  0.91812000  0.54435000  1.0
  H  H103  1  0.85074000  0.31115000  0.74535000  1.0
  H  H104  1  0.77180000  0.37141000  0.80306000  1.0
  H  H105  1  0.80428000  0.79687000  0.49094000  1.0
  H  H106  1  0.84553000  0.70103000  0.45072000  1.0
  H  H107  1  0.39231000  0.97612000  0.47121000  1.0
  H  H108  1  0.00631000  0.85382000  0.59529000  1.0
  H  H109  1  0.15519000  0.88360000  0.60082000  1.0
  H  H110  1  0.06004000  0.76693000  0.54341000  1.0
  H  H111  1  0.66815000  0.32926000  0.65028000  1.0
  H  H112  1  0.68574000  0.22236000  0.60469000  1.0
  H  H113  1  0.85633000  0.30841000  0.91892000  1.0
  H  H114  1  0.90704000  0.24381000  0.83436000  1.0
  H  H115  1  0.81589000  0.81398000  0.08597000  1.0
  H  H116  1  0.87573000  0.93515000  0.13164000  1.0
  H  H117  1  0.29175000  0.97144000  0.32717000  1.0
  H  H118  1  0.03870000  0.89797000  0.11140000  1.0
  H  H119  1  0.18051000  0.92321000  0.18844000  1.0
  H  H120  1  0.12386000  0.01103000  0.20726000  1.0
  H  H121  1  0.08042000  0.04229000  0.64688000  1.0
  H  H122  1  0.39186000  0.25333000  0.50954000  1.0
  H  H123  1  0.39232000  0.14307000  0.45011000  1.0
  H  H124  1  0.52974000  0.23901000  0.51082000  1.0
  H  H125  1  0.65154000  0.08777000  0.93148000  1.0
  H  H126  1  0.57145000  0.01610000  0.81101000  1.0
  H  H127  1  0.21657000  0.15054000  0.49182000  1.0
  H  H128  1  0.22991000  0.98113000  0.79834000  1.0
  H  H129  1  0.12854000  0.02314000  0.75482000  1.0
  H  H130  1  0.23813000  0.09233000  0.86828000  1.0
  H  H131  1  0.75474000  0.95591000  0.22760000  1.0
  H  H132  1  0.65752000  0.86783000  0.11406000  1.0
  H  H133  1  0.42420000  0.03690000  0.88155000  1.0
  H  H134  1  0.50351000  0.15853000  0.94378000  1.0
  C  C135  1  0.79859000  0.41111000  0.21221000  1.0
  C  C136  1  0.19072000  0.44843000  0.84534000  1.0
  C  C137  1  0.86130000  0.51302000  0.28053000  1.0
  C  C138  1  0.13008000  0.32846000  0.08858000  1.0
  C  C139  1  0.18279000  0.63242000  0.16200000  1.0
  C  C140  1  0.83879000  0.47877000  0.03147000  1.0
  C  C141  1  0.20011000  0.40888000  0.08555000  1.0
  C  C142  1  0.57495000  0.57539000  0.96095000  1.0
  C  C143  1  0.00624000  0.64789000  0.30083000  1.0
  C  C144  1  0.77442000  0.63499000  0.13039000  1.0
  C  C145  1  0.72723000  0.50843000  0.86864000  1.0
  C  C146  1  0.61433000  0.69996000  0.83774000  1.0
  C  C147  1  0.22856000  0.68465000  0.91830000  1.0
  C  C148  1  0.04237000  0.46975000  0.90813000  1.0
  C  C149  1  0.31140000  0.56439000  0.08290000  1.0
  C  C150  1  0.46016000  0.44808000  0.69608000  1.0
  C  C151  1  0.17564000  0.59043000  0.90252000  1.0
  C  C152  1  0.06953000  0.68347000  0.25074000  1.0
  C  C153  1  0.34583000  0.49070000  0.04973000  1.0
  C  C154  1  0.22820000  0.72150000  0.16446000  1.0
  C  C155  1  0.39769000  0.38940000  0.72930000  1.0
  C  C156  1  0.58450000  0.60877000  0.75512000  1.0
  C  C157  1  0.96131000  0.26622000  0.11906000  1.0
  C  C158  1  0.29092000  0.41189000  0.05169000  1.0
  C  C159  1  0.16229000  0.24593000  0.06258000  1.0
  C  C160  1  0.08127000  0.56007000  0.92628000  1.0
  C  C161  1  0.23264000  0.30182000  0.78968000  1.0
  C  C162  1  0.25551000  0.39471000  0.80066000  1.0
  C  C163  1  0.85981000  0.64105000  0.02044000  1.0
  C  C164  1  0.50940000  0.78505000  0.91523000  1.0
  C  C165  1  0.22246000  0.55734000  0.11835000  1.0
  C  C166  1  0.61900000  0.47200000  0.06058000  1.0
  C  C167  1  0.09697000  0.41264000  0.86717000  1.0
  C  C168  1  0.17867000  0.75542000  0.95824000  1.0
  C  C169  1  0.84981000  0.28817000  0.11449000  1.0
  C  C170  1  0.38500000  0.78434000  0.90498000  1.0
  C  C171  1  0.61759000  0.38297000  0.89808000  1.0
  C  C172  1  0.38736000  0.80116000  0.58872000  1.0
  C  C173  1  0.74221000  0.39701000  0.55150000  1.0
  C  C174  1  0.34836000  0.76764000  0.48686000  1.0
  C  C175  1  0.80117000  0.75979000  0.67126000  1.0
  C  C176  1  0.55008000  0.52934000  0.36731000  1.0
  C  C177  1  0.35985000  0.55252000  0.52101000  1.0
  C  C178  1  0.79083000  0.67636000  0.59080000  1.0
  C  C179  1  0.99955000  0.38562000  0.42463000  1.0
  C  C180  1  0.35832000  0.65295000  0.35198000  1.0
  C  C181  1  0.13936000  0.49542000  0.36503000  1.0
  C  C182  1  0.21890000  0.35999000  0.49122000  1.0
  C  C183  1  0.91457000  0.13790000  0.30001000  1.0
  C  C184  1  0.54400000  0.23376000  0.31530000  1.0
  C  C185  1  0.57244000  0.43837000  0.53018000  1.0
  C  C186  1  0.74678000  0.51830000  0.43521000  1.0
  C  C187  1  0.01221000  0.24813000  0.55187000  1.0
  C  C188  1  0.58529000  0.31223000  0.40948000  1.0
  C  C189  1  0.38593000  0.56720000  0.31635000  1.0
  C  C190  1  0.85491000  0.55885000  0.50884000  1.0
  C  C191  1  0.50633000  0.44270000  0.27829000  1.0
  C  C192  1  0.00813000  0.33991000  0.61063000  1.0
  C  C193  1  0.97582000  0.14643000  0.39118000  1.0
  C  C194  1  0.69473000  0.85258000  0.73363000  1.0
  C  C195  1  0.87870000  0.63957000  0.58771000  1.0
  C  C196  1  0.91591000  0.81633000  0.75370000  1.0
  C  C197  1  0.52120000  0.36630000  0.43984000  1.0
  C  C198  1  0.93055000  0.48788000  0.69817000  1.0
  C  C199  1  0.86065000  0.40601000  0.60523000  1.0
  C  C200  1  0.21848000  0.37927000  0.35871000  1.0
  C  C201  1  0.72462000  0.13040000  0.21491000  1.0
  C  C202  1  0.66482000  0.56075000  0.44235000  1.0
  C  C203  1  0.14723000  0.58865000  0.52838000  1.0
  C  C204  1  0.68411000  0.45453000  0.58730000  1.0
  C  C205  1  0.42323000  0.20278000  0.24464000  1.0
  C  C206  1  0.56131000  0.82622000  0.71172000  1.0
  C  C207  1  0.60090000  0.12076000  0.21558000  1.0
  C  C208  1  0.23444000  0.51473000  0.61693000  1.0
  C  C209  1  0.58605000  0.78792000  0.19906000  1.0
  C  C210  1  0.34566000  0.15478000  0.60328000  1.0
  C  C211  1  0.58043000  0.71944000  0.23244000  1.0
  C  C212  1  0.04106000  0.91142000  0.23998000  1.0
  C  C213  1  0.02035000  0.83787000  0.47044000  1.0
  C  C214  1  0.80719000  0.96860000  0.44749000  1.0
  C  C215  1  0.11410000  0.91439000  0.32343000  1.0
  C  C216  1  0.61389000  0.03926000  0.61451000  1.0
  C  C217  1  0.70505000  0.69898000  0.34693000  1.0
  C  C218  1  0.64377000  0.86977000  0.50465000  1.0
  C  C219  1  0.85872000  0.13141000  0.63995000  1.0
  C  C220  1  0.77686000  0.16197000  0.86216000  1.0
  C  C221  1  0.31064000  0.08189000  0.76657000  1.0
  C  C222  1  0.13454000  0.09199000  0.56180000  1.0
  C  C223  1  0.22807000  0.91689000  0.48151000  1.0
  C  C224  1  0.76433000  0.30394000  0.75228000  1.0
  C  C225  1  0.27344000  0.09758000  0.68807000  1.0
  C  C226  1  0.81840000  0.74902000  0.43260000  1.0
  C  C227  1  0.29564000  0.95008000  0.44104000  1.0
  C  C228  1  0.06314000  0.83557000  0.55714000  1.0
  C  C229  1  0.66860000  0.27101000  0.66048000  1.0
  C  C230  1  0.82963000  0.24465000  0.85368000  1.0
  C  C231  1  0.84179000  0.88087000  0.14716000  1.0
  C  C232  1  0.23874000  0.94821000  0.36029000  1.0
  C  C233  1  0.09932000  0.93743000  0.18351000  1.0
  C  C234  1  0.15533000  0.07380000  0.63395000  1.0
  C  C235  1  0.44322000  0.21048000  0.51236000  1.0
  C  C236  1  0.45510000  0.19951000  0.59428000  1.0
  C  C237  1  0.83904000  0.97965000  0.62078000  1.0
  C  C238  1  0.59450000  0.08462000  0.86990000  1.0
  C  C239  1  0.10368000  0.88150000  0.43902000  1.0
  C  C240  1  0.55833000  0.94013000  0.41162000  1.0
  C  C241  1  0.23004000  0.13297000  0.54566000  1.0
  C  C242  1  0.22085000  0.04228000  0.79759000  1.0
  C  C243  1  0.73485000  0.88548000  0.17367000  1.0
  C  C244  1  0.48045000  0.09507000  0.87954000  1.0
  C  C245  1  0.71979000  0.10239000  0.48529000  1.0
  N  N246  1  0.88650000  0.38359000  0.17965000  1.0
  N  N247  1  0.22729000  0.53473000  0.86281000  1.0
  N  N248  1  0.11072000  0.61556000  0.19999000  1.0
  N  N249  1  0.74211000  0.49980000  0.80168000  1.0
  N  N250  1  0.16913000  0.48079000  0.11824000  1.0
  N  N251  1  0.90716000  0.45104000  0.06027000  1.0
  N  N252  1  0.04324000  0.33625000  0.11360000  1.0
  N  N253  1  0.50054000  0.60064000  0.93577000  1.0
  N  N254  1  0.32909000  0.43404000  0.77518000  1.0
  N  N255  1  0.93553000  0.55124000  0.24261000  1.0
  N  N256  1  0.50033000  0.70044000  0.84271000  1.0
  N  N257  1  0.49821000  0.54310000  0.76271000  1.0
  N  N258  1  0.56939000  0.44023000  0.09639000  1.0
  N  N259  1  0.31762000  0.69843000  0.89460000  1.0
  N  N260  1  0.94479000  0.70109000  0.03622000  1.0
  N  N261  1  0.81407000  0.70097000  0.20319000  1.0
  N  N262  1  0.58344000  0.30317000  0.85013000  1.0
  N  N263  1  0.50271000  0.79599000  0.61631000  1.0
  N  N264  1  0.69264000  0.32824000  0.46519000  1.0
  N  N265  1  0.49497000  0.58428000  0.38421000  1.0
  N  N266  1  0.24250000  0.30161000  0.49972000  1.0
  N  N267  1  0.68796000  0.63713000  0.51892000  1.0
  N  N268  1  0.45585000  0.60912000  0.54869000  1.0
  N  N269  1  0.70652000  0.77704000  0.66355000  1.0
  N  N270  1  0.89982000  0.33529000  0.39930000  1.0
  N  N271  1  0.89495000  0.34118000  0.56592000  1.0
  N  N272  1  0.38431000  0.69143000  0.44864000  1.0
  N  N273  1  0.80010000  0.14246000  0.29950000  1.0
  N  N274  1  0.95526000  0.21977000  0.45687000  1.0
  N  N275  1  0.12960000  0.65631000  0.56040000  1.0
  N  N276  1  0.61934000  0.19629000  0.30147000  1.0
  N  N277  1  0.24338000  0.33501000  0.29863000  1.0
  N  N278  1  0.11319000  0.50226000  0.29905000  1.0
  N  N279  1  0.27998000  0.54655000  0.69672000  1.0
  N  N280  1  0.70647000  0.82034000  0.20397000  1.0
  N  N281  1  0.36478000  0.13730000  0.67209000  1.0
  N  N282  1  0.91033000  0.79977000  0.41547000  1.0
  N  N283  1  0.94075000  0.19827000  0.69820000  1.0
  N  N284  1  0.05048000  0.88170000  0.36264000  1.0
  N  N285  1  0.84657000  0.93962000  0.39088000  1.0
  N  N286  1  0.92918000  0.88637000  0.22267000  1.0
  N  N287  1  0.56462000  0.06419000  0.66498000  1.0
  N  N288  1  0.55415000  0.22506000  0.65915000  1.0
  N  N289  1  0.69260000  0.75725000  0.30853000  1.0
  N  N290  1  0.65796000  0.15710000  0.85780000  1.0
  N  N291  1  0.73570000  0.23718000  0.78051000  1.0
  N  N292  1  0.47300000  0.90459000  0.34403000  1.0
  N  N293  1  0.42340000  0.10542000  0.80398000  1.0
  N  N294  1  0.90819000  0.96384000  0.66504000  1.0
  N  N295  1  0.61084000  0.79692000  0.49778000  1.0
  N  N296  1  0.73357000  0.15031000  0.45342000  1.0
