# generated using pymatgen
data_CuH36C31BrN2
_symmetry_space_group_name_H-M   'P 1'
_cell_length_a   13.23500000
_cell_length_b   13.65410000
_cell_length_c   19.55700000
_cell_angle_alpha   107.51600000
_cell_angle_beta   89.99990000
_cell_angle_gamma   89.99980000
_symmetry_Int_Tables_number   1
_chemical_formula_structural   CuH36C31BrN2
_chemical_formula_sum   'Cu4 H144 C124 Br4 N8'
_cell_volume   3370.31508943
_cell_formula_units_Z   4
loop_
 _symmetry_equiv_pos_site_id
 _symmetry_equiv_pos_as_xyz
  1  'x, y, z'
loop_
 _atom_site_type_symbol
 _atom_site_label
 _atom_site_symmetry_multiplicity
 _atom_site_fract_x
 _atom_site_fract_y
 _atom_site_fract_z
 _atom_site_occupancy
  Cu  Cu0  1  0.48734000  0.09021000  0.98276000  1.0
  Cu  Cu1  1  0.98734000  0.90979000  0.51724000  1.0
  Cu  Cu2  1  0.51266000  0.90978000  0.01724000  1.0
  Cu  Cu3  1  0.01266000  0.09021000  0.48277000  1.0
  H  H4  1  0.27775000  0.38142000  0.90654000  1.0
  H  H5  1  0.77775000  0.61858000  0.59347000  1.0
  H  H6  1  0.72225000  0.61857000  0.09346000  1.0
  H  H7  1  0.22225000  0.38142000  0.40654000  1.0
  H  H8  1  0.28077000  0.56622000  0.91607000  1.0
  H  H9  1  0.78077000  0.43378000  0.58394000  1.0
  H  H10  1  0.71924000  0.43378000  0.08394000  1.0
  H  H11  1  0.21923000  0.56622000  0.41606000  1.0
  H  H12  1  0.07538000  0.12186000  0.88312000  1.0
  H  H13  1  0.57538000  0.87815000  0.61688000  1.0
  H  H14  1  0.92462000  0.87814000  0.11688000  1.0
  H  H15  1  0.42462000  0.12186000  0.38312000  1.0
  H  H16  1  0.10862000  0.11928000  0.75724000  1.0
  H  H17  1  0.60861000  0.88073000  0.74276000  1.0
  H  H18  1  0.89139000  0.88072000  0.24276000  1.0
  H  H19  1  0.39139000  0.11928000  0.25724000  1.0
  H  H20  1  0.28018000  0.15182000  0.72056000  1.0
  H  H21  1  0.78018000  0.84818000  0.77944000  1.0
  H  H22  1  0.71982000  0.84818000  0.27944000  1.0
  H  H23  1  0.21982000  0.15182000  0.22056000  1.0
  H  H24  1  0.28168000  0.15834000  0.02103000  1.0
  H  H25  1  0.78169000  0.84166000  0.47897000  1.0
  H  H26  1  0.71832000  0.84166000  0.97897000  1.0
  H  H27  1  0.21831000  0.15834000  0.52103000  1.0
  H  H28  1  0.09077000  0.28136000  0.01134000  1.0
  H  H29  1  0.59077000  0.71864000  0.48866000  1.0
  H  H30  1  0.90923000  0.71864000  0.98866000  1.0
  H  H31  1  0.40922000  0.28136000  0.51134000  1.0
  H  H32  1  0.21422000  0.33243000  0.03178000  1.0
  H  H33  1  0.71422000  0.66757000  0.46822000  1.0
  H  H34  1  0.78578000  0.66757000  0.96822000  1.0
  H  H35  1  0.28578000  0.33243000  0.53178000  1.0
  H  H36  1  0.15138000  0.27780000  0.09186000  1.0
  H  H37  1  0.65138000  0.72220000  0.40814000  1.0
  H  H38  1  0.84863000  0.72220000  0.90814000  1.0
  H  H39  1  0.34862000  0.27780000  0.59186000  1.0
  H  H40  1  0.06634000  0.07667000  0.98210000  1.0
  H  H41  1  0.56634000  0.92333000  0.51790000  1.0
  H  H42  1  0.93366000  0.92333000  0.01790000  1.0
  H  H43  1  0.43366000  0.07667000  0.48211000  1.0
  H  H44  1  0.13360000  0.08391000  0.06163000  1.0
  H  H45  1  0.63360000  0.91609000  0.43837000  1.0
  H  H46  1  0.86641000  0.91609000  0.93837000  1.0
  H  H47  1  0.36640000  0.08392000  0.56164000  1.0
  H  H48  1  0.17704000  0.00143000  0.97842000  1.0
  H  H49  1  0.67704000  0.99857000  0.52158000  1.0
  H  H50  1  0.82297000  0.99857000  0.02158000  1.0
  H  H51  1  0.32297000  0.00143000  0.47842000  1.0
  H  H52  1  0.49936000  0.22765000  0.84684000  1.0
  H  H53  1  0.99936000  0.77235000  0.65316000  1.0
  H  H54  1  0.50063000  0.77236000  0.15316000  1.0
  H  H55  1  0.00064000  0.22765000  0.34685000  1.0
  H  H56  1  0.41368000  0.23384000  0.70264000  1.0
  H  H57  1  0.91367000  0.76617000  0.79736000  1.0
  H  H58  1  0.58632000  0.76617000  0.29736000  1.0
  H  H59  1  0.08633000  0.23384000  0.20264000  1.0
  H  H60  1  0.52886000  0.28653000  0.74353000  1.0
  H  H61  1  0.02885000  0.71347000  0.75647000  1.0
  H  H62  1  0.47114000  0.71347000  0.25647000  1.0
  H  H63  1  0.97115000  0.28653000  0.24353000  1.0
  H  H64  1  0.41229000  0.33895000  0.78270000  1.0
  H  H65  1  0.91228000  0.66106000  0.71730000  1.0
  H  H66  1  0.58771000  0.66106000  0.21730000  1.0
  H  H67  1  0.08772000  0.33894000  0.28271000  1.0
  H  H68  1  0.50985000  0.03962000  0.79309000  1.0
  H  H69  1  0.00985000  0.96038000  0.70692000  1.0
  H  H70  1  0.49015000  0.96038000  0.20691000  1.0
  H  H71  1  0.99015000  0.03962000  0.29309000  1.0
  H  H72  1  0.58026000  0.10346000  0.74184000  1.0
  H  H73  1  0.08026000  0.89654000  0.75816000  1.0
  H  H74  1  0.41974000  0.89655000  0.25816000  1.0
  H  H75  1  0.91974000  0.10346000  0.24184000  1.0
  H  H76  1  0.46039000  0.04965000  0.71079000  1.0
  H  H77  1  0.96039000  0.95035000  0.78920000  1.0
  H  H78  1  0.53960000  0.95035000  0.28920000  1.0
  H  H79  1  0.03961000  0.04965000  0.21080000  1.0
  H  H80  1  0.92667000  0.19737000  0.97238000  1.0
  H  H81  1  0.42667000  0.80263000  0.52763000  1.0
  H  H82  1  0.07333000  0.80262000  0.02763000  1.0
  H  H83  1  0.57333000  0.19737000  0.47237000  1.0
  H  H84  1  0.96831000  0.23014000  0.10097000  1.0
  H  H85  1  0.46831000  0.76987000  0.39903000  1.0
  H  H86  1  0.03168000  0.76986000  0.89903000  1.0
  H  H87  1  0.53169000  0.23013000  0.60097000  1.0
  H  H88  1  0.83069000  0.24666000  0.19005000  1.0
  H  H89  1  0.33069000  0.75335000  0.30995000  1.0
  H  H90  1  0.16931000  0.75335000  0.80995000  1.0
  H  H91  1  0.66931000  0.24664000  0.69005000  1.0
  H  H92  1  0.55449000  0.23184000  0.13972000  1.0
  H  H93  1  0.05449000  0.76817000  0.36028000  1.0
  H  H94  1  0.44551000  0.76817000  0.86027000  1.0
  H  H95  1  0.94551000  0.23183000  0.63972000  1.0
  H  H96  1  0.62580000  0.07583000  0.15792000  1.0
  H  H97  1  0.12580000  0.92417000  0.34208000  1.0
  H  H98  1  0.37420000  0.92417000  0.84208000  1.0
  H  H99  1  0.87420000  0.07583000  0.65792000  1.0
  H  H100  1  0.57444000  0.15524000  0.23974000  1.0
  H  H101  1  0.07444000  0.84476000  0.26026000  1.0
  H  H102  1  0.42556000  0.84477000  0.76026000  1.0
  H  H103  1  0.92556000  0.15524000  0.73974000  1.0
  H  H104  1  0.70715000  0.14935000  0.22631000  1.0
  H  H105  1  0.20715000  0.85066000  0.27369000  1.0
  H  H106  1  0.29285000  0.85066000  0.77369000  1.0
  H  H107  1  0.79284000  0.14935000  0.72631000  1.0
  H  H108  1  0.69931000  0.35661000  0.25669000  1.0
  H  H109  1  0.19931000  0.64339000  0.24331000  1.0
  H  H110  1  0.30069000  0.64339000  0.74331000  1.0
  H  H111  1  0.80069000  0.35660000  0.75668000  1.0
  H  H112  1  0.56621000  0.34831000  0.26464000  1.0
  H  H113  1  0.06621000  0.65169000  0.23536000  1.0
  H  H114  1  0.43379000  0.65170000  0.73536000  1.0
  H  H115  1  0.93379000  0.34831000  0.76464000  1.0
  H  H116  1  0.61876000  0.40730000  0.20304000  1.0
  H  H117  1  0.11876000  0.59271000  0.29696000  1.0
  H  H118  1  0.38124000  0.59271000  0.79696000  1.0
  H  H119  1  0.88124000  0.40729000  0.70304000  1.0
  H  H120  1  0.66158000  0.14705000  0.90326000  1.0
  H  H121  1  0.16158000  0.85295000  0.59674000  1.0
  H  H122  1  0.33842000  0.85295000  0.09674000  1.0
  H  H123  1  0.83842000  0.14705000  0.40326000  1.0
  H  H124  1  0.69174000  0.33382000  0.91518000  1.0
  H  H125  1  0.19174000  0.66618000  0.58482000  1.0
  H  H126  1  0.30826000  0.66618000  0.08482000  1.0
  H  H127  1  0.80826000  0.33382000  0.41518000  1.0
  H  H128  1  0.71554000  0.25237000  0.82703000  1.0
  H  H129  1  0.21554000  0.74764000  0.67297000  1.0
  H  H130  1  0.28446000  0.74764000  0.17297000  1.0
  H  H131  1  0.78446000  0.25237000  0.32703000  1.0
  H  H132  1  0.81783000  0.30397000  0.88551000  1.0
  H  H133  1  0.31783000  0.69603000  0.61450000  1.0
  H  H134  1  0.18217000  0.69603000  0.11450000  1.0
  H  H135  1  0.68217000  0.30397000  0.38550000  1.0
  H  H136  1  0.88433000  0.11841000  0.85946000  1.0
  H  H137  1  0.38433000  0.88160000  0.64054000  1.0
  H  H138  1  0.11567000  0.88160000  0.14054000  1.0
  H  H139  1  0.61567000  0.11839000  0.35945000  1.0
  H  H140  1  0.77717000  0.06562000  0.80729000  1.0
  H  H141  1  0.27717000  0.93438000  0.69271000  1.0
  H  H142  1  0.22283000  0.93438000  0.19271000  1.0
  H  H143  1  0.72284000  0.06562000  0.30728000  1.0
  H  H144  1  0.80805000  0.02571000  0.88299000  1.0
  H  H145  1  0.30805000  0.97430000  0.61701000  1.0
  H  H146  1  0.19196000  0.97429000  0.11701000  1.0
  H  H147  1  0.69196000  0.02570000  0.38298000  1.0
  C  C148  1  0.34098000  0.42797000  0.93399000  1.0
  C  C149  1  0.84098000  0.57203000  0.56601000  1.0
  C  C150  1  0.65902000  0.57203000  0.06601000  1.0
  C  C151  1  0.15902000  0.42797000  0.43399000  1.0
  C  C152  1  0.34315000  0.53439000  0.93896000  1.0
  C  C153  1  0.84315000  0.46561000  0.56105000  1.0
  C  C154  1  0.65685000  0.46561000  0.06105000  1.0
  C  C155  1  0.15685000  0.53438000  0.43895000  1.0
  C  C156  1  0.44639000  0.28326000  0.97032000  1.0
  C  C157  1  0.94639000  0.71674000  0.52968000  1.0
  C  C158  1  0.55361000  0.71675000  0.02968000  1.0
  C  C159  1  0.05361000  0.28325000  0.47031000  1.0
  C  C160  1  0.41855000  0.38393000  0.96354000  1.0
  C  C161  1  0.91856000  0.61607000  0.53646000  1.0
  C  C162  1  0.58144000  0.61608000  0.03646000  1.0
  C  C163  1  0.08144000  0.38392000  0.46353000  1.0
  C  C164  1  0.49855000  0.44929000  0.99812000  1.0
  C  C165  1  0.99855000  0.55071000  0.50189000  1.0
  C  C166  1  0.50145000  0.55071000  0.00189000  1.0
  C  C167  1  0.00145000  0.44929000  0.49811000  1.0
  C  C168  1  0.42345000  0.59694000  0.97281000  1.0
  C  C169  1  0.92345000  0.40307000  0.52719000  1.0
  C  C170  1  0.57655000  0.40306000  0.02719000  1.0
  C  C171  1  0.07655000  0.59693000  0.47280000  1.0
  C  C172  1  0.54533000  0.29526000  0.00993000  1.0
  C  C173  1  0.04533000  0.70474000  0.49006000  1.0
  C  C174  1  0.45468000  0.70473000  0.99007000  1.0
  C  C175  1  0.95467000  0.29527000  0.50994000  1.0
  C  C176  1  0.32708000  0.17421000  0.89572000  1.0
  C  C177  1  0.82708000  0.82579000  0.60428000  1.0
  C  C178  1  0.67292000  0.82580000  0.10428000  1.0
  C  C179  1  0.17293000  0.17421000  0.39572000  1.0
  C  C180  1  0.22935000  0.15570000  0.91780000  1.0
  C  C181  1  0.72935000  0.84431000  0.58220000  1.0
  C  C182  1  0.77065000  0.84431000  0.08220000  1.0
  C  C183  1  0.27065000  0.15569000  0.41780000  1.0
  C  C184  1  0.15151000  0.13619000  0.86698000  1.0
  C  C185  1  0.65151000  0.86382000  0.63302000  1.0
  C  C186  1  0.84848000  0.86382000  0.13302000  1.0
  C  C187  1  0.34849000  0.13618000  0.36698000  1.0
  C  C188  1  0.16961000  0.13485000  0.79651000  1.0
  C  C189  1  0.66960000  0.86516000  0.70349000  1.0
  C  C190  1  0.83039000  0.86514000  0.20349000  1.0
  C  C191  1  0.33040000  0.13485000  0.29651000  1.0
  C  C192  1  0.26677000  0.15355000  0.77593000  1.0
  C  C193  1  0.76677000  0.84645000  0.72406000  1.0
  C  C194  1  0.73322000  0.84645000  0.22406000  1.0
  C  C195  1  0.23323000  0.15354000  0.27594000  1.0
  C  C196  1  0.34741000  0.17400000  0.82451000  1.0
  C  C197  1  0.84740000  0.82600000  0.67549000  1.0
  C  C198  1  0.65259000  0.82600000  0.17548000  1.0
  C  C199  1  0.15260000  0.17400000  0.32451000  1.0
  C  C200  1  0.20865000  0.16399000  0.99565000  1.0
  C  C201  1  0.70865000  0.83601000  0.50435000  1.0
  C  C202  1  0.79135000  0.83601000  0.00435000  1.0
  C  C203  1  0.29135000  0.16399000  0.49565000  1.0
  C  C204  1  0.16370000  0.26998000  0.03483000  1.0
  C  C205  1  0.66370000  0.73002000  0.46517000  1.0
  C  C206  1  0.83630000  0.73002000  0.96517000  1.0
  C  C207  1  0.33629000  0.26998000  0.53483000  1.0
  C  C208  1  0.14254000  0.07654000  0.00442000  1.0
  C  C209  1  0.64254000  0.92346000  0.49558000  1.0
  C  C210  1  0.85746000  0.92346000  0.99558000  1.0
  C  C211  1  0.35746000  0.07654000  0.50442000  1.0
  C  C212  1  0.45263000  0.19225000  0.79944000  1.0
  C  C213  1  0.95263000  0.80775000  0.70056000  1.0
  C  C214  1  0.54737000  0.80775000  0.20056000  1.0
  C  C215  1  0.04737000  0.19225000  0.29944000  1.0
  C  C216  1  0.45133000  0.26710000  0.75458000  1.0
  C  C217  1  0.95132000  0.73290000  0.74542000  1.0
  C  C218  1  0.54867000  0.73291000  0.24542000  1.0
  C  C219  1  0.04868000  0.26710000  0.25458000  1.0
  C  C220  1  0.50369000  0.09018000  0.75895000  1.0
  C  C221  1  0.00369000  0.90982000  0.74105000  1.0
  C  C222  1  0.49631000  0.90982000  0.24105000  1.0
  C  C223  1  0.99631000  0.09018000  0.25895000  1.0
  C  C224  1  0.68899000  0.21703000  0.04076000  1.0
  C  C225  1  0.18900000  0.78297000  0.45924000  1.0
  C  C226  1  0.31101000  0.78297000  0.95924000  1.0
  C  C227  1  0.81101000  0.21702000  0.54076000  1.0
  C  C228  1  0.76579000  0.20200000  0.98829000  1.0
  C  C229  1  0.26579000  0.79801000  0.51171000  1.0
  C  C230  1  0.23421000  0.79800000  0.01171000  1.0
  C  C231  1  0.73422000  0.20199000  0.48829000  1.0
  C  C232  1  0.86604000  0.20819000  0.01172000  1.0
  C  C233  1  0.36604000  0.79182000  0.48828000  1.0
  C  C234  1  0.13396000  0.79182000  0.98828000  1.0
  C  C235  1  0.63396000  0.20818000  0.51172000  1.0
  C  C236  1  0.88969000  0.22587000  0.08395000  1.0
  C  C237  1  0.38969000  0.77414000  0.41605000  1.0
  C  C238  1  0.11030000  0.77413000  0.91605000  1.0
  C  C239  1  0.61031000  0.22585000  0.58395000  1.0
  C  C240  1  0.81235000  0.23570000  0.13386000  1.0
  C  C241  1  0.31235000  0.76430000  0.36614000  1.0
  C  C242  1  0.18765000  0.76430000  0.86614000  1.0
  C  C243  1  0.68765000  0.23569000  0.63386000  1.0
  C  C244  1  0.71068000  0.23122000  0.11347000  1.0
  C  C245  1  0.21069000  0.76878000  0.38653000  1.0
  C  C246  1  0.28931000  0.76878000  0.88654000  1.0
  C  C247  1  0.78932000  0.23121000  0.61346000  1.0
  C  C248  1  0.62719000  0.23938000  0.16799000  1.0
  C  C249  1  0.12720000  0.76062000  0.33202000  1.0
  C  C250  1  0.37280000  0.76062000  0.83202000  1.0
  C  C251  1  0.87281000  0.23938000  0.66798000  1.0
  C  C252  1  0.63418000  0.14979000  0.19978000  1.0
  C  C253  1  0.13419000  0.85021000  0.30022000  1.0
  C  C254  1  0.36581000  0.85021000  0.80022000  1.0
  C  C255  1  0.86581000  0.14979000  0.69978000  1.0
  C  C256  1  0.62810000  0.34393000  0.22635000  1.0
  C  C257  1  0.12811000  0.65608000  0.27366000  1.0
  C  C258  1  0.37190000  0.65607000  0.77365000  1.0
  C  C259  1  0.87189000  0.34392000  0.72634000  1.0
  C  C260  1  0.73926000  0.17715000  0.90928000  1.0
  C  C261  1  0.23926000  0.82285000  0.59072000  1.0
  C  C262  1  0.26074000  0.82284000  0.09072000  1.0
  C  C263  1  0.76074000  0.17715000  0.40928000  1.0
  C  C264  1  0.74096000  0.27250000  0.88305000  1.0
  C  C265  1  0.24096000  0.72750000  0.61695000  1.0
  C  C266  1  0.25904000  0.72750000  0.11695000  1.0
  C  C267  1  0.75904000  0.27250000  0.38305000  1.0
  C  C268  1  0.80641000  0.09194000  0.86227000  1.0
  C  C269  1  0.30641000  0.90806000  0.63773000  1.0
  C  C270  1  0.19359000  0.90806000  0.13773000  1.0
  C  C271  1  0.69360000  0.09194000  0.36227000  1.0
  Br  Br272  1  0.58687000  0.94685000  0.91457000  1.0
  Br  Br273  1  0.08687000  0.05315000  0.58543000  1.0
  Br  Br274  1  0.41313000  0.05314000  0.08542000  1.0
  Br  Br275  1  0.91313000  0.94684000  0.41458000  1.0
  N  N276  1  0.40885000  0.19114000  0.94556000  1.0
  N  N277  1  0.90885000  0.80886000  0.55444000  1.0
  N  N278  1  0.59114000  0.80886000  0.05443000  1.0
  N  N279  1  0.09116000  0.19114000  0.44556000  1.0
  N  N280  1  0.58722000  0.21326000  0.01706000  1.0
  N  N281  1  0.08723000  0.78673000  0.48294000  1.0
  N  N282  1  0.41278000  0.78673000  0.98294000  1.0
  N  N283  1  0.91277000  0.21326000  0.51706000  1.0
