# generated using pymatgen
data_NiH20C25N2O7
_symmetry_space_group_name_H-M   'P 1'
_cell_length_a   9.74484000
_cell_length_b   9.74409677
_cell_length_c   14.43930000
_cell_angle_alpha   96.88667582
_cell_angle_beta   96.88210000
_cell_angle_gamma   119.28206080
_symmetry_Int_Tables_number   1
_chemical_formula_structural   NiH20C25N2O7
_chemical_formula_sum   'Ni2 H40 C50 N4 O14'
_cell_volume   1161.76680339
_cell_formula_units_Z   2
loop_
 _symmetry_equiv_pos_site_id
 _symmetry_equiv_pos_as_xyz
  1  'x, y, z'
loop_
 _atom_site_type_symbol
 _atom_site_label
 _atom_site_symmetry_multiplicity
 _atom_site_fract_x
 _atom_site_fract_y
 _atom_site_fract_z
 _atom_site_occupancy
  Ni  Ni0  1  0.07515000  0.10568000  0.58440000  1.0
  Ni  Ni1  1  0.10605000  0.07533000  0.08436000  1.0
  H  H2  1  0.08769000  0.17750000  0.79128000  1.0
  H  H3  1  0.17759000  0.08753000  0.29122000  1.0
  H  H4  1  0.12137000  0.40253000  0.90832000  1.0
  H  H5  1  0.40260000  0.12128000  0.40833000  1.0
  H  H6  1  0.14246000  0.65264000  0.67601000  1.0
  H  H7  1  0.65284000  0.14235000  0.17608000  1.0
  H  H8  1  0.11605000  0.41871000  0.57039000  1.0
  H  H9  1  0.41905000  0.11598000  0.07044000  1.0
  H  H10  1  0.05999000  0.54429000  0.98211000  1.0
  H  H11  1  0.54436000  0.06008000  0.48224000  1.0
  H  H12  1  0.05114000  0.75920000  0.08555000  1.0
  H  H13  1  0.75926000  0.05120000  0.58569000  1.0
  H  H14  1  0.18437000  0.05507000  0.89028000  1.0
  H  H15  1  0.05495000  0.18402000  0.39035000  1.0
  H  H16  1  0.20290000  0.85616000  0.77785000  1.0
  H  H17  1  0.85610000  0.20254000  0.27788000  1.0
  H  H18  1  0.72081000  0.42458000  0.57925000  1.0
  H  H19  1  0.42477000  0.72123000  0.07918000  1.0
  H  H20  1  0.90488000  0.56602000  0.47293000  1.0
  H  H21  1  0.56635000  0.90541000  0.97291000  1.0
  H  H22  1  0.56203000  0.67829000  0.34189000  1.0
  H  H23  1  0.67823000  0.56235000  0.84166000  1.0
  H  H24  1  0.36597000  0.51189000  0.43821000  1.0
  H  H25  1  0.51186000  0.36631000  0.93801000  1.0
  H  H26  1  0.86788000  0.56980000  0.18201000  1.0
  H  H27  1  0.57034000  0.86836000  0.68195000  1.0
  H  H28  1  0.08597000  0.51773000  0.15204000  1.0
  H  H29  1  0.51810000  0.08645000  0.65208000  1.0
  H  H30  1  0.32736000  0.61850000  0.27741000  1.0
  H  H31  1  0.61839000  0.32751000  0.77756000  1.0
  H  H32  1  0.35170000  0.77294000  0.43783000  1.0
  H  H33  1  0.77259000  0.35179000  0.93803000  1.0
  H  H34  1  0.84906000  0.79974000  0.58596000  1.0
  H  H35  1  0.79990000  0.84918000  0.08596000  1.0
  H  H36  1  0.85388000  0.87368000  0.69076000  1.0
  H  H37  1  0.87361000  0.85373000  0.19074000  1.0
  H  H38  1  0.24321000  0.00727000  0.64567000  1.0
  H  H39  1  0.00757000  0.24330000  0.14575000  1.0
  H  H40  1  0.32979000  0.19759000  0.68330000  1.0
  H  H41  1  0.19797000  0.33008000  0.18322000  1.0
  C  C42  1  0.09918000  0.28487000  0.76902000  1.0
  C  C43  1  0.28496000  0.09900000  0.26899000  1.0
  C  C44  1  0.11715000  0.41244000  0.83395000  1.0
  C  C45  1  0.41248000  0.11696000  0.33395000  1.0
  C  C46  1  0.12889000  0.54843000  0.80313000  1.0
  C  C47  1  0.54850000  0.12872000  0.30317000  1.0
  C  C48  1  0.13058000  0.55091000  0.70609000  1.0
  C  C49  1  0.55105000  0.13039000  0.20614000  1.0
  C  C50  1  0.11415000  0.41971000  0.64569000  1.0
  C  C51  1  0.41992000  0.11400000  0.14572000  1.0
  C  C52  1  0.13142000  0.67820000  0.86865000  1.0
  C  C53  1  0.67825000  0.13130000  0.36873000  1.0
  C  C54  1  0.09058000  0.65549000  0.95791000  1.0
  C  C55  1  0.65554000  0.09063000  0.45804000  1.0
  C  C56  1  0.08456000  0.77455000  0.01674000  1.0
  C  C57  1  0.77455000  0.08456000  0.51686000  1.0
  C  C58  1  0.15737000  0.93961000  0.90709000  1.0
  C  C59  1  0.93951000  0.15708000  0.40714000  1.0
  C  C60  1  0.16745000  0.82610000  0.84469000  1.0
  C  C61  1  0.82606000  0.16718000  0.34474000  1.0
  C  C62  1  0.41509000  0.35697000  0.57020000  1.0
  C  C63  1  0.35727000  0.41546000  0.07013000  1.0
  C  C64  1  0.53358000  0.46175000  0.51549000  1.0
  C  C65  1  0.46191000  0.53400000  0.01540000  1.0
  C  C66  1  0.68657000  0.47932000  0.52640000  1.0
  C  C67  1  0.47950000  0.68701000  0.02634000  1.0
  C  C68  1  0.78987000  0.56076000  0.46799000  1.0
  C  C69  1  0.56098000  0.79035000  0.96795000  1.0
  C  C70  1  0.74593000  0.63591000  0.40282000  1.0
  C  C71  1  0.63610000  0.74638000  0.90278000  1.0
  C  C72  1  0.59412000  0.62153000  0.39414000  1.0
  C  C73  1  0.62159000  0.59449000  0.89399000  1.0
  C  C74  1  0.48731000  0.53147000  0.44808000  1.0
  C  C75  1  0.53152000  0.48769000  0.94793000  1.0
  C  C76  1  0.85152000  0.72686000  0.33971000  1.0
  C  C77  1  0.72723000  0.85198000  0.83971000  1.0
  C  C78  1  0.98954000  0.70432000  0.32555000  1.0
  C  C79  1  0.70461000  0.98995000  0.82557000  1.0
  C  C80  1  0.97544000  0.61602000  0.23731000  1.0
  C  C81  1  0.61636000  0.97585000  0.73731000  1.0
  C  C82  1  0.09791000  0.58690000  0.22069000  1.0
  C  C83  1  0.58710000  0.09825000  0.72075000  1.0
  C  C84  1  0.23371000  0.64289000  0.29235000  1.0
  C  C85  1  0.64288000  0.23391000  0.79249000  1.0
  C  C86  1  0.24708000  0.72853000  0.38073000  1.0
  C  C87  1  0.72841000  0.24725000  0.88089000  1.0
  C  C88  1  0.12688000  0.76186000  0.39762000  1.0
  C  C89  1  0.76193000  0.12714000  0.89771000  1.0
  C  C90  1  0.14820000  0.86577000  0.48994000  1.0
  C  C91  1  0.86587000  0.14840000  0.99003000  1.0
  N  N92  1  0.09517000  0.28661000  0.67571000  1.0
  N  N93  1  0.28680000  0.09504000  0.17568000  1.0
  N  N94  1  0.11563000  0.91427000  0.99174000  1.0
  N  N95  1  0.91416000  0.11543000  0.49180000  1.0
  O  O96  1  0.26909000  0.27793000  0.52493000  1.0
  O  O97  1  0.27853000  0.26940000  0.02498000  1.0
  O  O98  1  0.46785000  0.35085000  0.65339000  1.0
  O  O99  1  0.35102000  0.46824000  0.15329000  1.0
  O  O100  1  0.81301000  0.80332000  0.29009000  1.0
  O  O101  1  0.80378000  0.81352000  0.79018000  1.0
  O  O102  1  0.06096000  0.93090000  0.48643000  1.0
  O  O103  1  0.93127000  0.06140000  0.98643000  1.0
  O  O104  1  0.24725000  0.88302000  0.56212000  1.0
  O  O105  1  0.88287000  0.24715000  0.06231000  1.0
  O  O106  1  0.86497000  0.89662000  0.62560000  1.0
  O  O107  1  0.89672000  0.86498000  0.12561000  1.0
  O  O108  1  0.22948000  0.09170000  0.68470000  1.0
  O  O109  1  0.09215000  0.22966000  0.18465000  1.0
