# generated using pymatgen
data_CuH8C4(N4Cl)2
_symmetry_space_group_name_H-M   'P 1'
_cell_length_a   6.69785000
_cell_length_b   7.13431000
_cell_length_c   10.88460000
_cell_angle_alpha   103.61900000
_cell_angle_beta   89.99830000
_cell_angle_gamma   89.99970000
_symmetry_Int_Tables_number   1
_chemical_formula_structural   CuH8C4(N4Cl)2
_chemical_formula_sum   'Cu2 H16 C8 N16 Cl4'
_cell_volume   505.49147964
_cell_formula_units_Z   2
loop_
 _symmetry_equiv_pos_site_id
 _symmetry_equiv_pos_as_xyz
  1  'x, y, z'
loop_
 _atom_site_type_symbol
 _atom_site_label
 _atom_site_symmetry_multiplicity
 _atom_site_fract_x
 _atom_site_fract_y
 _atom_site_fract_z
 _atom_site_occupancy
  Cu  Cu0  1  0.00000000  0.00000000  0.50000000  1.0
  Cu  Cu1  1  0.50001000  0.49999000  0.50000000  1.0
  H  H2  1  0.46019000  0.07650000  0.60550000  1.0
  H  H3  1  0.96020000  0.42350000  0.39451000  1.0
  H  H4  1  0.53981000  0.92349000  0.39449000  1.0
  H  H5  1  0.03981000  0.57650000  0.60549000  1.0
  H  H6  1  0.58040000  0.21450000  0.94433000  1.0
  H  H7  1  0.08044000  0.28547000  0.05568000  1.0
  H  H8  1  0.41960000  0.78550000  0.05567000  1.0
  H  H9  1  0.91956000  0.71454000  0.94432000  1.0
  H  H10  1  0.61974000  0.95918000  0.88733000  1.0
  H  H11  1  0.11976000  0.54080000  0.11265000  1.0
  H  H12  1  0.38026000  0.04083000  0.11268000  1.0
  H  H13  1  0.88023000  0.45921000  0.88735000  1.0
  H  H14  1  0.69666000  0.11991000  0.79351000  1.0
  H  H15  1  0.19671000  0.38010000  0.20649000  1.0
  H  H16  1  0.30333000  0.88009000  0.20649000  1.0
  H  H17  1  0.80330000  0.61991000  0.79351000  1.0
  C  C18  1  0.34991000  0.06598000  0.67643000  1.0
  C  C19  1  0.84993000  0.43401000  0.32357000  1.0
  C  C20  1  0.65009000  0.93400000  0.32358000  1.0
  C  C21  1  0.15008000  0.56599000  0.67643000  1.0
  C  C22  1  0.58444000  0.09416000  0.86060000  1.0
  C  C23  1  0.08449000  0.40584000  0.13940000  1.0
  C  C24  1  0.41555000  0.90584000  0.13940000  1.0
  C  C25  1  0.91552000  0.59418000  0.86060000  1.0
  N  N26  1  0.39124000  0.07637000  0.79808000  1.0
  N  N27  1  0.89127000  0.42362000  0.20192000  1.0
  N  N28  1  0.60875000  0.92363000  0.20192000  1.0
  N  N29  1  0.10874000  0.57638000  0.79807000  1.0
  N  N30  1  0.21797000  0.06345000  0.86037000  1.0
  N  N31  1  0.71800000  0.43654000  0.13963000  1.0
  N  N32  1  0.78203000  0.93656000  0.13963000  1.0
  N  N33  1  0.28199000  0.56347000  0.86037000  1.0
  N  N34  1  0.07482000  0.04610000  0.77777000  1.0
  N  N35  1  0.57485000  0.45389000  0.22224000  1.0
  N  N36  1  0.92518000  0.95390000  0.22223000  1.0
  N  N37  1  0.42515000  0.54611000  0.77777000  1.0
  N  N38  1  0.15304000  0.04690000  0.66265000  1.0
  N  N39  1  0.65306000  0.45309000  0.33735000  1.0
  N  N40  1  0.84696000  0.95309000  0.33735000  1.0
  N  N41  1  0.34694000  0.54690000  0.66265000  1.0
  Cl  Cl42  1  0.21391000  0.75152000  0.41446000  1.0
  Cl  Cl43  1  0.71391000  0.74847000  0.58554000  1.0
  Cl  Cl44  1  0.78610000  0.24848000  0.58554000  1.0
  Cl  Cl45  1  0.28610000  0.25152000  0.41446000  1.0
