# generated using pymatgen
data_HgPH12C6N3Cl2O
_symmetry_space_group_name_H-M   'P 1'
_cell_length_a   7.30240000
_cell_length_b   7.31801000
_cell_length_c   21.08890000
_cell_angle_alpha   90.00000000
_cell_angle_beta   90.00000000
_cell_angle_gamma   103.16200000
_symmetry_Int_Tables_number   1
_chemical_formula_structural   HgPH12C6N3Cl2O
_chemical_formula_sum   'Hg4 P4 H48 C24 N12 Cl8 O4'
_cell_volume   1097.36513036
_cell_formula_units_Z   4
loop_
 _symmetry_equiv_pos_site_id
 _symmetry_equiv_pos_as_xyz
  1  'x, y, z'
loop_
 _atom_site_type_symbol
 _atom_site_label
 _atom_site_symmetry_multiplicity
 _atom_site_fract_x
 _atom_site_fract_y
 _atom_site_fract_z
 _atom_site_occupancy
  Hg  Hg0  1  0.53159000  0.43551000  0.40454000  1.0
  Hg  Hg1  1  0.96841000  0.56449000  0.90454000  1.0
  Hg  Hg2  1  0.46841000  0.56449000  0.59546000  1.0
  Hg  Hg3  1  0.03160000  0.43551000  0.09546000  1.0
  P  P4  1  0.80855000  0.10445000  0.34857000  1.0
  P  P5  1  0.69146000  0.89553000  0.84857000  1.0
  P  P6  1  0.19145000  0.89555000  0.65143000  1.0
  P  P7  1  0.30855000  0.10445000  0.15143000  1.0
  H  H8  1  0.56521000  0.89003000  0.40807000  1.0
  H  H9  1  0.93479000  0.10997000  0.90807000  1.0
  H  H10  1  0.43479000  0.10997000  0.59193000  1.0
  H  H11  1  0.06521000  0.89004000  0.09193000  1.0
  H  H12  1  0.55693000  0.83108000  0.32570000  1.0
  H  H13  1  0.94307000  0.16892000  0.82570000  1.0
  H  H14  1  0.44307000  0.16892000  0.67430000  1.0
  H  H15  1  0.05693000  0.83108000  0.17430000  1.0
  H  H16  1  0.08237000  0.25080000  0.41064000  1.0
  H  H17  1  0.41763000  0.74919000  0.91064000  1.0
  H  H18  1  0.91763000  0.74920000  0.58936000  1.0
  H  H19  1  0.58237000  0.25081000  0.08936000  1.0
  H  H20  1  0.88793000  0.14357000  0.45996000  1.0
  H  H21  1  0.61207000  0.85643000  0.95996000  1.0
  H  H22  1  0.11207000  0.85643000  0.54004000  1.0
  H  H23  1  0.38793000  0.14357000  0.04004000  1.0
  H  H24  1  0.86036000  0.99214000  0.24427000  1.0
  H  H25  1  0.63964000  0.00786000  0.74427000  1.0
  H  H26  1  0.13964000  0.00787000  0.75573000  1.0
  H  H27  1  0.36036000  0.99214000  0.25573000  1.0
  H  H28  1  0.06524000  0.15459000  0.27201000  1.0
  H  H29  1  0.43476000  0.84541000  0.77201000  1.0
  H  H30  1  0.93476000  0.84542000  0.72799000  1.0
  H  H31  1  0.56524000  0.15459000  0.22799000  1.0
  H  H32  1  0.80671000  0.81508000  0.47450000  1.0
  H  H33  1  0.69329000  0.18492000  0.97450000  1.0
  H  H34  1  0.19329000  0.18492000  0.52550000  1.0
  H  H35  1  0.30671000  0.81508000  0.02550000  1.0
  H  H36  1  0.95491000  0.67047000  0.44404000  1.0
  H  H37  1  0.54510000  0.32953000  0.94404000  1.0
  H  H38  1  0.04509000  0.32953000  0.55596000  1.0
  H  H39  1  0.45490000  0.67047000  0.05596000  1.0
  H  H40  1  0.25369000  0.05262000  0.35518000  1.0
  H  H41  1  0.24631000  0.94738000  0.85518000  1.0
  H  H42  1  0.74631000  0.94738000  0.64482000  1.0
  H  H43  1  0.75369000  0.05262000  0.14482000  1.0
  H  H44  1  0.21252000  0.80744000  0.37446000  1.0
  H  H45  1  0.28748000  0.19257000  0.87445000  1.0
  H  H46  1  0.78748000  0.19257000  0.62554000  1.0
  H  H47  1  0.71252000  0.80743000  0.12554000  1.0
  H  H48  1  0.78283000  0.67670000  0.28086000  1.0
  H  H49  1  0.71718000  0.32330000  0.78086000  1.0
  H  H50  1  0.21718000  0.32331000  0.71914000  1.0
  H  H51  1  0.28282000  0.67670000  0.21914000  1.0
  H  H52  1  0.94056000  0.59063000  0.33101000  1.0
  H  H53  1  0.55944000  0.40937000  0.83101000  1.0
  H  H54  1  0.05944000  0.40937000  0.66899000  1.0
  H  H55  1  0.44055000  0.59063000  0.16899000  1.0
  C  C56  1  0.65116000  0.87761000  0.36612000  1.0
  C  C57  1  0.84884000  0.12239000  0.86612000  1.0
  C  C58  1  0.34884000  0.12239000  0.63388000  1.0
  C  C59  1  0.15116000  0.87761000  0.13388000  1.0
  C  C60  1  0.96648000  0.12659000  0.41674000  1.0
  C  C61  1  0.53352000  0.87341000  0.91674000  1.0
  C  C62  1  0.03352000  0.87341000  0.58326000  1.0
  C  C63  1  0.46648000  0.12659000  0.08326000  1.0
  C  C64  1  0.95085000  0.03569000  0.28576000  1.0
  C  C65  1  0.54915000  0.96430000  0.78576000  1.0
  C  C66  1  0.04915000  0.96431000  0.71424000  1.0
  C  C67  1  0.45085000  0.03569000  0.21424000  1.0
  C  C68  1  0.89074000  0.78927000  0.43369000  1.0
  C  C69  1  0.60926000  0.21073000  0.93369000  1.0
  C  C70  1  0.10926000  0.21074000  0.56631000  1.0
  C  C71  1  0.39074000  0.78927000  0.06631000  1.0
  C  C72  1  0.14527000  0.92462000  0.36493000  1.0
  C  C73  1  0.35473000  0.07538000  0.86493000  1.0
  C  C74  1  0.85473000  0.07538000  0.63507000  1.0
  C  C75  1  0.64527000  0.92462000  0.13507000  1.0
  C  C76  1  0.87706000  0.71023000  0.32183000  1.0
  C  C77  1  0.62294000  0.28977000  0.82184000  1.0
  C  C78  1  0.12294000  0.28977000  0.67816000  1.0
  C  C79  1  0.37706000  0.71023000  0.17817000  1.0
  N  N80  1  0.76224000  0.73446000  0.37861000  1.0
  N  N81  1  0.73776000  0.26554000  0.87861000  1.0
  N  N82  1  0.23776000  0.26554000  0.62139000  1.0
  N  N83  1  0.26224000  0.73446000  0.12139000  1.0
  N  N84  1  0.04040000  0.95525000  0.42192000  1.0
  N  N85  1  0.45960000  0.04475000  0.92191000  1.0
  N  N86  1  0.95960000  0.04475000  0.57809000  1.0
  N  N87  1  0.54040000  0.95525000  0.07809000  1.0
  N  N88  1  0.02622000  0.87583000  0.30824000  1.0
  N  N89  1  0.47378000  0.12417000  0.80824000  1.0
  N  N90  1  0.97378000  0.12418000  0.69176000  1.0
  N  N91  1  0.52622000  0.87583000  0.19176000  1.0
  Cl  Cl92  1  0.63641000  0.31360000  0.50123000  1.0
  Cl  Cl93  1  0.86360000  0.68640000  0.00123000  1.0
  Cl  Cl94  1  0.36359000  0.68640000  0.49877000  1.0
  Cl  Cl95  1  0.13641000  0.31360000  0.99877000  1.0
  Cl  Cl96  1  0.30271000  0.46589000  0.32586000  1.0
  Cl  Cl97  1  0.19729000  0.53411000  0.82586000  1.0
  Cl  Cl98  1  0.69729000  0.53411000  0.67414000  1.0
  Cl  Cl99  1  0.80271000  0.46589000  0.17414000  1.0
  O  O100  1  0.71373000  0.26276000  0.33399000  1.0
  O  O101  1  0.78627000  0.73725000  0.83399000  1.0
  O  O102  1  0.28627000  0.73725000  0.66601000  1.0
  O  O103  1  0.21373000  0.26276000  0.16601000  1.0
