# generated using pymatgen
data_CdSiH28C20(N4F3)2
_symmetry_space_group_name_H-M   'P 1'
_cell_length_a   11.71930000
_cell_length_b   12.95810000
_cell_length_c   13.09080000
_cell_angle_alpha   75.79620000
_cell_angle_beta   63.41280000
_cell_angle_gamma   63.12830000
_symmetry_Int_Tables_number   1
_chemical_formula_structural   CdSiH28C20(N4F3)2
_chemical_formula_sum   'Cd2 Si2 H56 C40 N16 F12'
_cell_volume   1583.47436351
_cell_formula_units_Z   2
loop_
 _symmetry_equiv_pos_site_id
 _symmetry_equiv_pos_as_xyz
  1  'x, y, z'
loop_
 _atom_site_type_symbol
 _atom_site_label
 _atom_site_symmetry_multiplicity
 _atom_site_fract_x
 _atom_site_fract_y
 _atom_site_fract_z
 _atom_site_occupancy
  Cd  Cd0  1  0.50000000  0.00000000  0.00000000  1.0
  Cd  Cd1  1  0.50000000  0.50000000  0.50000000  1.0
  Si  Si2  1  0.53071000  0.74998000  0.24997000  1.0
  Si  Si3  1  0.46929000  0.25002000  0.75003000  1.0
  H  H4  1  0.34751000  0.09134000  0.81768000  1.0
  H  H5  1  0.39114000  0.49034000  0.77313000  1.0
  H  H6  1  0.61116000  0.72727000  0.95230000  1.0
  H  H7  1  0.55202000  0.64467000  0.91236000  1.0
  H  H8  1  0.45011000  0.71882000  0.04248000  1.0
  H  H9  1  0.21511000  0.08517000  0.69822000  1.0
  H  H10  1  0.26638000  0.94558000  0.65375000  1.0
  H  H11  1  0.38203000  0.01768000  0.59222000  1.0
  H  H12  1  0.68400000  0.67223000  0.49501000  1.0
  H  H13  1  0.60823000  0.79841000  0.57186000  1.0
  H  H14  1  0.53268000  0.78832000  0.48486000  1.0
  H  H15  1  0.21419000  0.59069000  0.96139000  1.0
  H  H16  1  0.20703000  0.72651000  0.97798000  1.0
  H  H17  1  0.33883000  0.59565000  0.99977000  1.0
  H  H18  1  0.25617000  0.40880000  0.68236000  1.0
  H  H19  1  0.65451000  0.00975000  0.72692000  1.0
  H  H20  1  0.29079000  0.77280000  0.54747000  1.0
  H  H21  1  0.10915000  0.85546000  0.58736000  1.0
  H  H22  1  0.21148000  0.78115000  0.45732000  1.0
  H  H23  1  0.99813000  0.41510000  0.80189000  1.0
  H  H24  1  0.86550000  0.55472000  0.84627000  1.0
  H  H25  1  0.99172000  0.48269000  0.90776000  1.0
  H  H26  1  0.85114000  0.82778000  0.00507000  1.0
  H  H27  1  0.97835000  0.70161000  0.92823000  1.0
  H  H28  1  0.80569000  0.71177000  0.01507000  1.0
  H  H29  1  0.76627000  0.90935000  0.53854000  1.0
  H  H30  1  0.91148000  0.77354000  0.52205000  1.0
  H  H31  1  0.93423000  0.90443000  0.50016000  1.0
  H  H32  1  0.65249000  0.90866000  0.18232000  1.0
  H  H33  1  0.60886000  0.50966000  0.22687000  1.0
  H  H34  1  0.38884000  0.27273000  0.04770000  1.0
  H  H35  1  0.44799000  0.35533000  0.08764000  1.0
  H  H36  1  0.54989000  0.28118000  0.95752000  1.0
  H  H37  1  0.78489000  0.91483000  0.30178000  1.0
  H  H38  1  0.73363000  0.05442000  0.34624000  1.0
  H  H39  1  0.61798000  0.98232000  0.40778000  1.0
  H  H40  1  0.31600000  0.32777000  0.50499000  1.0
  H  H41  1  0.39176000  0.20160000  0.42814000  1.0
  H  H42  1  0.46731000  0.21168000  0.51514000  1.0
  H  H43  1  0.78581000  0.40932000  0.03861000  1.0
  H  H44  1  0.79297000  0.27349000  0.02201000  1.0
  H  H45  1  0.66117000  0.40435000  0.00023000  1.0
  H  H46  1  0.74383000  0.59120000  0.31764000  1.0
  H  H47  1  0.34548000  0.99025000  0.27308000  1.0
  H  H48  1  0.70921000  0.22721000  0.45253000  1.0
  H  H49  1  0.89085000  0.14454000  0.41264000  1.0
  H  H50  1  0.78852000  0.21885000  0.54268000  1.0
  H  H51  1  0.00187000  0.58489000  0.19811000  1.0
  H  H52  1  0.13451000  0.44528000  0.15373000  1.0
  H  H53  1  0.00828000  0.51731000  0.09224000  1.0
  H  H54  1  0.14886000  0.17222000  0.99492000  1.0
  H  H55  1  0.02165000  0.29839000  0.07177000  1.0
  H  H56  1  0.19431000  0.28823000  0.98493000  1.0
  H  H57  1  0.23374000  0.09065000  0.46145000  1.0
  H  H58  1  0.08852000  0.22646000  0.47795000  1.0
  H  H59  1  0.06577000  0.09556000  0.49984000  1.0
  C  C60  1  0.51920000  0.72402000  0.95231000  1.0
  C  C61  1  0.45103000  0.82658000  0.88740000  1.0
  C  C62  1  0.41058000  0.82774000  0.79974000  1.0
  C  C63  1  0.35802000  0.94441000  0.76292000  1.0
  C  C64  1  0.30207000  0.00130000  0.67218000  1.0
  C  C65  1  0.58523000  0.73941000  0.54374000  1.0
  C  C66  1  0.49977000  0.68703000  0.64581000  1.0
  C  C67  1  0.42307000  0.72713000  0.75817000  1.0
  C  C68  1  0.36598000  0.64600000  0.82350000  1.0
  C  C69  1  0.27678000  0.63918000  0.94703000  1.0
  C  C70  1  0.19557000  0.77607000  0.54749000  1.0
  C  C71  1  0.16496000  0.67356000  0.61248000  1.0
  C  C72  1  0.03798000  0.67248000  0.70012000  1.0
  C  C73  1  0.06511000  0.55581000  0.73698000  1.0
  C  C74  1  0.97532000  0.49901000  0.82782000  1.0
  C  C75  1  0.86828000  0.76066000  0.95628000  1.0
  C  C76  1  0.83259000  0.81310000  0.85415000  1.0
  C  C77  1  0.90839000  0.77307000  0.74174000  1.0
  C  C78  1  0.83543000  0.85416000  0.67648000  1.0
  C  C79  1  0.86296000  0.86091000  0.55293000  1.0
  C  C80  1  0.48080000  0.27598000  0.04769000  1.0
  C  C81  1  0.54897000  0.17342000  0.11260000  1.0
  C  C82  1  0.58942000  0.17226000  0.20026000  1.0
  C  C83  1  0.64199000  0.05559000  0.23708000  1.0
  C  C84  1  0.69793000  0.99870000  0.32782000  1.0
  C  C85  1  0.41476000  0.26059000  0.45626000  1.0
  C  C86  1  0.50023000  0.31297000  0.35420000  1.0
  C  C87  1  0.57693000  0.27287000  0.24183000  1.0
  C  C88  1  0.63402000  0.35400000  0.17650000  1.0
  C  C89  1  0.72322000  0.36082000  0.05297000  1.0
  C  C90  1  0.80443000  0.22393000  0.45251000  1.0
  C  C91  1  0.83504000  0.32644000  0.38752000  1.0
  C  C92  1  0.96201000  0.32752000  0.29988000  1.0
  C  C93  1  0.93489000  0.44419000  0.26302000  1.0
  C  C94  1  0.02468000  0.50099000  0.17218000  1.0
  C  C95  1  0.13171000  0.23934000  0.04372000  1.0
  C  C96  1  0.16741000  0.18690000  0.14585000  1.0
  C  C97  1  0.09161000  0.22693000  0.25826000  1.0
  C  C98  1  0.16457000  0.14584000  0.32352000  1.0
  C  C99  1  0.13704000  0.13909000  0.44707000  1.0
  N  N100  1  0.42317000  0.93537000  0.90346000  1.0
  N  N101  1  0.36657000  0.00493000  0.82798000  1.0
  N  N102  1  0.48908000  0.58844000  0.64317000  1.0
  N  N103  1  0.40763000  0.56614000  0.75117000  1.0
  N  N104  1  0.26187000  0.56472000  0.59647000  1.0
  N  N105  1  0.19924000  0.49522000  0.67195000  1.0
  N  N106  1  0.72066000  0.91164000  0.85682000  1.0
  N  N107  1  0.72490000  0.93396000  0.74882000  1.0
  N  N108  1  0.57682000  0.06463000  0.09654000  1.0
  N  N109  1  0.63343000  0.99507000  0.17201000  1.0
  N  N110  1  0.51092000  0.41156000  0.35684000  1.0
  N  N111  1  0.59237000  0.43386000  0.24884000  1.0
  N  N112  1  0.73812000  0.43529000  0.40353000  1.0
  N  N113  1  0.80076000  0.50478000  0.32805000  1.0
  N  N114  1  0.27933000  0.08836000  0.14317000  1.0
  N  N115  1  0.27510000  0.06604000  0.25118000  1.0
  F  F116  1  0.55214000  0.83891000  0.12646000  1.0
  F  F117  1  0.63677000  0.63042000  0.16831000  1.0
  F  F118  1  0.51747000  0.66111000  0.37351000  1.0
  F  F119  1  0.43562000  0.86956000  0.33158000  1.0
  F  F120  1  0.44786000  0.16109000  0.87354000  1.0
  F  F121  1  0.36323000  0.36958000  0.83169000  1.0
  F  F122  1  0.48253000  0.33889000  0.62649000  1.0
  F  F123  1  0.56438000  0.13044000  0.66842000  1.0
  F  F124  1  0.67945000  0.74996000  0.24999000  1.0
  F  F125  1  0.38815000  0.74998000  0.24995000  1.0
  F  F126  1  0.32055000  0.25004000  0.75001000  1.0
  F  F127  1  0.61185000  0.25002000  0.75005000  1.0
