# generated using pymatgen
data_ZnH8(C2O)2
_symmetry_space_group_name_H-M   'P 1'
_cell_length_a   9.08247000
_cell_length_b   9.20337000
_cell_length_c   13.48680000
_cell_angle_alpha   90.00000000
_cell_angle_beta   90.00000000
_cell_angle_gamma   90.00000000
_symmetry_Int_Tables_number   1
_chemical_formula_structural   ZnH8(C2O)2
_chemical_formula_sum   'Zn8 H64 C32 O16'
_cell_volume   1127.35260179
_cell_formula_units_Z   8
loop_
 _symmetry_equiv_pos_site_id
 _symmetry_equiv_pos_as_xyz
  1  'x, y, z'
loop_
 _atom_site_type_symbol
 _atom_site_label
 _atom_site_symmetry_multiplicity
 _atom_site_fract_x
 _atom_site_fract_y
 _atom_site_fract_z
 _atom_site_occupancy
  Zn  Zn0  1  0.46662000  0.59372000  0.15517000  1.0
  Zn  Zn1  1  0.53338000  0.09372000  0.84483000  1.0
  Zn  Zn2  1  0.53338000  0.59371000  0.65517000  1.0
  Zn  Zn3  1  0.46662000  0.09371000  0.34483000  1.0
  Zn  Zn4  1  0.76195000  0.79125000  0.09672000  1.0
  Zn  Zn5  1  0.23804000  0.29125000  0.90328000  1.0
  Zn  Zn6  1  0.23805000  0.79125000  0.59672000  1.0
  Zn  Zn7  1  0.76195000  0.29125000  0.40328000  1.0
  H  H8  1  0.93674000  0.54090000  0.35950000  1.0
  H  H9  1  0.06326000  0.04090000  0.64050000  1.0
  H  H10  1  0.06326000  0.54090000  0.85950000  1.0
  H  H11  1  0.93674000  0.04090000  0.14050000  1.0
  H  H12  1  0.90665000  0.70846000  0.29461000  1.0
  H  H13  1  0.09334000  0.20846000  0.70539000  1.0
  H  H14  1  0.09335000  0.70845000  0.79460000  1.0
  H  H15  1  0.90665000  0.20845000  0.20539000  1.0
  H  H16  1  0.98839000  0.55974000  0.23290000  1.0
  H  H17  1  0.01161000  0.05974000  0.76709000  1.0
  H  H18  1  0.01161000  0.55974000  0.73290000  1.0
  H  H19  1  0.98839000  0.05974000  0.26710000  1.0
  H  H20  1  0.26389000  0.87529000  0.96388000  1.0
  H  H21  1  0.73611000  0.37529000  0.03613000  1.0
  H  H22  1  0.73613000  0.87529000  0.46388000  1.0
  H  H23  1  0.26388000  0.37528000  0.53612000  1.0
  H  H24  1  0.30685000  0.68576000  0.97128000  1.0
  H  H25  1  0.69315000  0.18577000  0.02874000  1.0
  H  H26  1  0.69317000  0.68577000  0.47127000  1.0
  H  H27  1  0.30684000  0.18575000  0.52872000  1.0
  H  H28  1  0.34821000  0.78916000  0.86131000  1.0
  H  H29  1  0.65177000  0.28916000  0.13870000  1.0
  H  H30  1  0.65180000  0.78916000  0.36131000  1.0
  H  H31  1  0.34822000  0.28916000  0.63868000  1.0
  H  H32  1  0.35810000  0.76307000  0.28103000  1.0
  H  H33  1  0.64190000  0.26307000  0.71898000  1.0
  H  H34  1  0.64190000  0.76307000  0.78102000  1.0
  H  H35  1  0.35810000  0.26306000  0.21898000  1.0
  H  H36  1  0.21665000  0.67346000  0.21664000  1.0
  H  H37  1  0.78335000  0.17346000  0.78336000  1.0
  H  H38  1  0.78335000  0.67346000  0.71664000  1.0
  H  H39  1  0.21666000  0.17345000  0.28336000  1.0
  H  H40  1  0.22143000  0.59652000  0.39787000  1.0
  H  H41  1  0.77857000  0.09653000  0.60213000  1.0
  H  H42  1  0.77858000  0.59653000  0.89787000  1.0
  H  H43  1  0.22143000  0.09653000  0.10213000  1.0
  H  H44  1  0.40513000  0.53613000  0.38353000  1.0
  H  H45  1  0.59486000  0.03613000  0.61648000  1.0
  H  H46  1  0.59487000  0.53613000  0.88353000  1.0
  H  H47  1  0.40514000  0.03613000  0.11647000  1.0
  H  H48  1  0.26155000  0.44541000  0.32080000  1.0
  H  H49  1  0.73845000  0.94541000  0.67920000  1.0
  H  H50  1  0.73846000  0.44541000  0.82080000  1.0
  H  H51  1  0.26155000  0.94541000  0.17920000  1.0
  H  H52  1  0.03537000  0.83735000  0.06937000  1.0
  H  H53  1  0.96463000  0.33735000  0.93064000  1.0
  H  H54  1  0.96463000  0.83734000  0.56937000  1.0
  H  H55  1  0.03537000  0.33735000  0.43063000  1.0
  H  H56  1  0.97493000  0.68870000  0.99900000  1.0
  H  H57  1  0.02507000  0.18870000  0.00101000  1.0
  H  H58  1  0.02507000  0.68869000  0.49900000  1.0
  H  H59  1  0.97493000  0.18870000  0.50100000  1.0
  H  H60  1  0.04286000  0.90420000  0.88928000  1.0
  H  H61  1  0.95714000  0.40421000  0.11072000  1.0
  H  H62  1  0.95713000  0.90420000  0.38928000  1.0
  H  H63  1  0.04287000  0.40421000  0.61072000  1.0
  H  H64  1  0.90198000  0.00800000  0.94532000  1.0
  H  H65  1  0.09802000  0.50800000  0.05469000  1.0
  H  H66  1  0.09801000  0.00799000  0.44532000  1.0
  H  H67  1  0.90198000  0.50800000  0.55468000  1.0
  H  H68  1  0.85521000  0.85437000  0.87429000  1.0
  H  H69  1  0.14479000  0.35437000  0.12572000  1.0
  H  H70  1  0.14478000  0.85436000  0.37428000  1.0
  H  H71  1  0.85521000  0.35437000  0.62571000  1.0
  C  C72  1  0.75718000  0.53739000  0.25444000  1.0
  C  C73  1  0.24281000  0.03739000  0.74555000  1.0
  C  C74  1  0.24281000  0.53738000  0.75444000  1.0
  C  C75  1  0.75718000  0.03738000  0.24555000  1.0
  C  C76  1  0.90556000  0.58969000  0.28864000  1.0
  C  C77  1  0.09444000  0.08970000  0.71136000  1.0
  C  C78  1  0.09443000  0.58969000  0.78863000  1.0
  C  C79  1  0.90556000  0.08969000  0.21136000  1.0
  C  C80  1  0.49192000  0.83160000  0.98250000  1.0
  C  C81  1  0.50808000  0.33162000  0.01751000  1.0
  C  C82  1  0.50810000  0.83161000  0.48250000  1.0
  C  C83  1  0.49191000  0.33160000  0.51749000  1.0
  C  C84  1  0.34344000  0.79097000  0.94263000  1.0
  C  C85  1  0.65655000  0.29098000  0.05738000  1.0
  C  C86  1  0.65657000  0.79098000  0.44263000  1.0
  C  C87  1  0.34344000  0.29097000  0.55736000  1.0
  C  C88  1  0.32213000  0.65529000  0.25508000  1.0
  C  C89  1  0.67787000  0.15529000  0.74493000  1.0
  C  C90  1  0.67788000  0.65528000  0.75507000  1.0
  C  C91  1  0.32212000  0.15529000  0.24492000  1.0
  C  C92  1  0.30115000  0.55321000  0.34367000  1.0
  C  C93  1  0.69885000  0.05321000  0.65633000  1.0
  C  C94  1  0.69885000  0.55321000  0.84367000  1.0
  C  C95  1  0.30115000  0.05320000  0.15633000  1.0
  C  C96  1  0.94577000  0.80039000  0.02035000  1.0
  C  C97  1  0.05423000  0.30039000  0.97966000  1.0
  C  C98  1  0.05423000  0.80038000  0.52035000  1.0
  C  C99  1  0.94577000  0.30039000  0.47966000  1.0
  C  C100  1  0.93599000  0.89623000  0.92783000  1.0
  C  C101  1  0.06401000  0.39624000  0.07217000  1.0
  C  C102  1  0.06401000  0.89623000  0.42783000  1.0
  C  C103  1  0.93599000  0.39624000  0.57217000  1.0
  O  O104  1  0.69510000  0.60722000  0.18271000  1.0
  O  O105  1  0.30490000  0.10722000  0.81729000  1.0
  O  O106  1  0.30490000  0.60721000  0.68271000  1.0
  O  O107  1  0.69510000  0.10721000  0.31729000  1.0
  O  O108  1  0.69367000  0.42832000  0.29225000  1.0
  O  O109  1  0.30632000  0.92831000  0.70775000  1.0
  O  O110  1  0.30632000  0.42831000  0.79225000  1.0
  O  O111  1  0.69367000  0.92831000  0.20775000  1.0
  O  O112  1  0.54902000  0.75198000  0.05099000  1.0
  O  O113  1  0.45098000  0.25199000  0.94901000  1.0
  O  O114  1  0.45099000  0.75198000  0.55099000  1.0
  O  O115  1  0.54902000  0.25198000  0.44900000  1.0
  O  O116  1  0.56151000  0.94119000  0.95046000  1.0
  O  O117  1  0.43849000  0.44118000  0.04955000  1.0
  O  O118  1  0.43851000  0.94118000  0.45046000  1.0
  O  O119  1  0.56150000  0.44119000  0.54954000  1.0
